MODEL 1
REMARK VINA RESULT:      -8.1      0.000      0.000
REMARK SMILES CSCC[NH2+]CC(C)(C)C(=O)OCCOCCOCCOC(=O)c1ccc(-c2c3nc(c(-c4c(F)cccc4F)c4ccc([nH]4)c(-c4c(F)cccc4F)c4nc(c(-c5c(F)cccc5F)c5ccc2[nH]5)C=C4)C=C3)cc1
REMARK SMILES IDX 15 1 14 2 13 3 12 4 10 5 11 6 7 7 8 8 9 9 6 10 5 11 4 14
REMARK SMILES IDX 3 15 2 16 1 17 16 18 17 19 18 20 19 21 20 22 21 23 22 24
REMARK SMILES IDX 23 25 24 26 25 27 77 28 26 29 76 30 27 31 28 32 29 33 70 34
REMARK SMILES IDX 30 35 75 36 69 37 71 38 31 39 74 40 68 41 67 42 32 44 58 45
REMARK SMILES IDX 41 46 57 47 42 48 45 49 56 50 72 51 43 52 44 53 55 55 73 56
REMARK SMILES IDX 46 57 33 58 34 59 39 60 35 61 36 62 38 63 40 64 37 65 59 66
REMARK SMILES IDX 60 67 65 68 61 69 62 70 64 71 66 72 63 73 47 74 48 75 53 76
REMARK SMILES IDX 49 77 50 78 52 79 54 80 51 81
REMARK H PARENT 5 12 5 13 71 43 45 54
REMARK Flexibility Score: inf
ROOT
ATOM      1  O   UNL A   1      31.445  27.831  25.072  1.00  0.00    -0.376 OA
ENDROOT
BRANCH   1   2
ATOM      2  C   UNL A   1      32.418  27.368  24.143  1.00  0.00     0.202 C 
BRANCH   2   3
ATOM      3  C   UNL A   1      33.643  26.672  24.743  1.00  0.00     0.261 C 
BRANCH   3   4
ATOM      4  O   UNL A   1      33.756  25.312  24.287  1.00  0.00    -0.463 OA
BRANCH   4   5
ATOM      5  C   UNL A   1      32.921  24.368  24.781  1.00  0.00     0.317 C 
ATOM      6  O   UNL A   1      32.644  24.254  25.967  1.00  0.00    -0.251 OA
BRANCH   5   7
ATOM      7  C   UNL A   1      32.360  23.477  23.657  1.00  0.00     0.111 C 
ATOM      8  C   UNL A   1      33.040  23.886  22.339  1.00  0.00     0.029 C 
ATOM      9  C   UNL A   1      30.838  23.730  23.477  1.00  0.00     0.029 C 
BRANCH   7  10
ATOM     10  C   UNL A   1      32.583  21.966  23.962  1.00  0.00     0.278 C 
BRANCH  10  11
ATOM     11  N   UNL A   1      32.548  21.531  25.361  1.00  0.00    -0.345 N 
ATOM     12  H   UNL A   1      32.541  22.360  25.954  1.00  0.00     0.346 HD
ATOM     13  H   UNL A   1      31.708  20.962  25.470  1.00  0.00     0.346 HD
BRANCH  11  14
ATOM     14  C   UNL A   1      33.681  20.694  25.755  1.00  0.00     0.271 C 
BRANCH  14  15
ATOM     15  C   UNL A   1      34.984  21.493  25.922  1.00  0.00     0.130 C 
BRANCH  15  16
ATOM     16  S   UNL A   1      36.432  20.768  25.067  1.00  0.00    -0.160 SA
ATOM     17  C   UNL A   1      37.747  21.893  25.596  1.00  0.00     0.085 C 
ENDBRANCH  15  16
ENDBRANCH  14  15
ENDBRANCH  11  14
ENDBRANCH  10  11
ENDBRANCH   7  10
ENDBRANCH   5   7
ENDBRANCH   4   5
ENDBRANCH   3   4
ENDBRANCH   2   3
ENDBRANCH   1   2
BRANCH   1  18
ATOM     18  C   UNL A   1      31.747  27.644  26.446  1.00  0.00     0.188 C 
BRANCH  18  19
ATOM     19  C   UNL A   1      31.959  28.953  27.233  1.00  0.00     0.188 C 
BRANCH  19  20
ATOM     20  O   UNL A   1      32.415  30.125  26.573  1.00  0.00    -0.376 OA
BRANCH  20  21
ATOM     21  C   UNL A   1      31.482  31.162  26.313  1.00  0.00     0.202 C 
BRANCH  21  22
ATOM     22  C   UNL A   1      31.739  32.541  26.934  1.00  0.00     0.261 C 
BRANCH  22  23
ATOM     23  O   UNL A   1      33.108  32.788  27.302  1.00  0.00    -0.460 OA
BRANCH  23  24
ATOM     24  C   UNL A   1      33.305  33.823  28.153  1.00  0.00     0.338 C 
ATOM     25  O   UNL A   1      32.599  34.818  28.290  1.00  0.00    -0.246 OA
BRANCH  24  26
ATOM     26  C   UNL A   1      34.421  33.522  29.069  1.00  0.00     0.060 A 
ATOM     27  C   UNL A   1      35.684  34.058  28.775  1.00  0.00     0.016 A 
ATOM     28  C   UNL A   1      34.252  32.668  30.159  1.00  0.00     0.016 A 
ATOM     29  C   UNL A   1      36.790  33.723  29.555  1.00  0.00     0.010 A 
ATOM     30  C   UNL A   1      35.369  32.306  30.920  1.00  0.00     0.010 A 
ATOM     31  C   UNL A   1      36.646  32.805  30.601  1.00  0.00    -0.014 A 
BRANCH  31  32
ATOM     32  C   UNL A   1      37.852  32.207  31.222  1.00  0.00     0.031 A 
ATOM     33  C   UNL A   1      38.578  31.124  30.471  1.00  0.00     0.074 A 
ATOM     34  C   UNL A   1      38.302  32.616  32.419  1.00  0.00     0.049 A 
ATOM     35  N   UNL A   1      39.598  30.395  30.842  1.00  0.00    -0.248 NA
ATOM     36  C   UNL A   1      38.082  30.826  29.117  1.00  0.00     0.031 C 
ATOM     37  C   UNL A   1      37.729  33.696  33.219  1.00  0.00     0.029 A 
ATOM     38  N   UNL A   1      39.350  32.153  33.177  1.00  0.00    -0.354 N 
ATOM     39  C   UNL A   1      39.862  29.547  29.774  1.00  0.00     0.074 A 
ATOM     40  C   UNL A   1      38.883  29.838  28.747  1.00  0.00     0.031 C 
ATOM     41  C   UNL A   1      38.418  33.796  34.369  1.00  0.00     0.029 A 
ATOM     42  C   UNL A   1      39.458  32.769  34.399  1.00  0.00     0.049 A 
ATOM     43  H   UNL A   1      39.966  31.447  32.872  1.00  0.00     0.167 HD
ATOM     44  C   UNL A   1      40.832  28.611  29.655  1.00  0.00     0.037 A 
ATOM     45  C   UNL A   1      40.283  32.508  35.432  1.00  0.00     0.037 A 
ATOM     46  C   UNL A   1      41.801  28.314  30.677  1.00  0.00     0.049 A 
ATOM     47  C   UNL A   1      41.297  31.399  35.313  1.00  0.00     0.074 A 
ATOM     48  C   UNL A   1      42.829  27.389  30.647  1.00  0.00     0.029 A 
ATOM     49  N   UNL A   1      41.854  28.935  31.915  1.00  0.00    -0.354 N 
ATOM     50  N   UNL A   1      41.547  30.609  34.296  1.00  0.00    -0.248 NA
ATOM     51  C   UNL A   1      42.141  31.142  36.490  1.00  0.00     0.031 C 
ATOM     52  C   UNL A   1      43.476  27.417  31.887  1.00  0.00     0.029 A 
ATOM     53  C   UNL A   1      42.881  28.394  32.669  1.00  0.00     0.049 A 
ATOM     54  H   UNL A   1      41.250  29.653  32.213  1.00  0.00     0.167 HD
ATOM     55  C   UNL A   1      42.595  29.788  34.698  1.00  0.00     0.074 A 
ATOM     56  C   UNL A   1      42.937  30.178  36.049  1.00  0.00     0.031 C 
ATOM     57  C   UNL A   1      43.218  28.801  34.009  1.00  0.00     0.037 A 
BRANCH  44  58
ATOM     58  C   UNL A   1      40.868  27.816  28.385  1.00  0.00     0.057 A 
ATOM     59  C   UNL A   1      40.151  26.621  28.240  1.00  0.00     0.134 A 
ATOM     60  C   UNL A   1      41.614  28.262  27.287  1.00  0.00     0.134 A 
ATOM     61  F   UNL A   1      39.433  26.130  29.261  1.00  0.00    -0.206 F 
ATOM     62  C   UNL A   1      40.192  25.887  27.052  1.00  0.00     0.040 A 
ATOM     63  C   UNL A   1      41.642  27.551  26.087  1.00  0.00     0.040 A 
ATOM     64  F   UNL A   1      42.321  29.400  27.362  1.00  0.00    -0.206 F 
ATOM     65  C   UNL A   1      40.934  26.357  25.970  1.00  0.00     0.006 A 
ENDBRANCH  44  58
BRANCH  45  66
ATOM     66  C   UNL A   1      40.176  33.292  36.688  1.00  0.00     0.057 A 
ATOM     67  C   UNL A   1      39.264  32.939  37.688  1.00  0.00     0.134 A 
ATOM     68  C   UNL A   1      40.958  34.435  36.900  1.00  0.00     0.134 A 
ATOM     69  F   UNL A   1      38.468  31.871  37.528  1.00  0.00    -0.206 F 
ATOM     70  C   UNL A   1      39.119  33.702  38.848  1.00  0.00     0.040 A 
ATOM     71  C   UNL A   1      40.841  35.193  38.066  1.00  0.00     0.040 A 
ATOM     72  F   UNL A   1      41.849  34.828  35.979  1.00  0.00    -0.206 F 
ATOM     73  C   UNL A   1      39.914  34.831  39.041  1.00  0.00     0.006 A 
ENDBRANCH  45  66
BRANCH  57  74
ATOM     74  C   UNL A   1      44.362  28.102  34.684  1.00  0.00     0.057 A 
ATOM     75  C   UNL A   1      44.184  26.914  35.403  1.00  0.00     0.134 A 
ATOM     76  C   UNL A   1      45.667  28.599  34.570  1.00  0.00     0.134 A 
ATOM     77  F   UNL A   1      42.957  26.390  35.559  1.00  0.00    -0.206 F 
ATOM     78  C   UNL A   1      45.260  26.256  36.001  1.00  0.00     0.040 A 
ATOM     79  C   UNL A   1      46.753  27.937  35.143  1.00  0.00     0.040 A 
ATOM     80  F   UNL A   1      45.908  29.729  33.886  1.00  0.00    -0.206 F 
ATOM     81  C   UNL A   1      46.550  26.764  35.865  1.00  0.00     0.006 A 
ENDBRANCH  57  74
ENDBRANCH  31  32
ENDBRANCH  24  26
ENDBRANCH  23  24
ENDBRANCH  22  23
ENDBRANCH  21  22
ENDBRANCH  20  21
ENDBRANCH  19  20
ENDBRANCH  18  19
ENDBRANCH   1  18
TORSDOF 22
ENDMDL
MODEL 2
REMARK VINA RESULT:      -8.1      5.075     10.044
REMARK SMILES CSCC[NH2+]CC(C)(C)C(=O)OCCOCCOCCOC(=O)c1ccc(-c2c3nc(c(-c4c(F)cccc4F)c4ccc([nH]4)c(-c4c(F)cccc4F)c4nc(c(-c5c(F)cccc5F)c5ccc2[nH]5)C=C4)C=C3)cc1
REMARK SMILES IDX 15 1 14 2 13 3 12 4 10 5 11 6 7 7 8 8 9 9 6 10 5 11 4 14
REMARK SMILES IDX 3 15 2 16 1 17 16 18 17 19 18 20 19 21 20 22 21 23 22 24
REMARK SMILES IDX 23 25 24 26 25 27 77 28 26 29 76 30 27 31 28 32 29 33 70 34
REMARK SMILES IDX 30 35 75 36 69 37 71 38 31 39 74 40 68 41 67 42 32 44 58 45
REMARK SMILES IDX 41 46 57 47 42 48 45 49 56 50 72 51 43 52 44 53 55 55 73 56
REMARK SMILES IDX 46 57 33 58 34 59 39 60 35 61 36 62 38 63 40 64 37 65 59 66
REMARK SMILES IDX 60 67 65 68 61 69 62 70 64 71 66 72 63 73 47 74 48 75 53 76
REMARK SMILES IDX 49 77 50 78 52 79 54 80 51 81
REMARK H PARENT 5 12 5 13 71 43 45 54
REMARK Flexibility Score: inf
ROOT
ATOM      1  O   UNL A   1      44.799  18.088  25.684  1.00  0.00    -0.376 OA
ENDROOT
BRANCH   1   2
ATOM      2  C   UNL A   1      43.405  18.346  25.572  1.00  0.00     0.202 C 
BRANCH   2   3
ATOM      3  C   UNL A   1      42.746  19.019  26.781  1.00  0.00     0.261 C 
BRANCH   3   4
ATOM      4  O   UNL A   1      42.355  20.373  26.485  1.00  0.00    -0.463 OA
BRANCH   4   5
ATOM      5  C   UNL A   1      41.450  20.997  27.275  1.00  0.00     0.317 C 
ATOM      6  O   UNL A   1      40.659  20.411  28.001  1.00  0.00    -0.251 OA
BRANCH   5   7
ATOM      7  C   UNL A   1      41.562  22.527  27.149  1.00  0.00     0.111 C 
ATOM      8  C   UNL A   1      40.146  23.120  27.250  1.00  0.00     0.029 C 
ATOM      9  C   UNL A   1      42.114  22.915  25.749  1.00  0.00     0.029 C 
BRANCH   7  10
ATOM     10  C   UNL A   1      42.502  23.122  28.239  1.00  0.00     0.278 C 
BRANCH  10  11
ATOM     11  N   UNL A   1      43.242  22.192  29.095  1.00  0.00    -0.345 N 
ATOM     12  H   UNL A   1      42.614  21.435  29.363  1.00  0.00     0.346 HD
ATOM     13  H   UNL A   1      44.042  21.866  28.553  1.00  0.00     0.346 HD
BRANCH  11  14
ATOM     14  C   UNL A   1      43.776  22.799  30.315  1.00  0.00     0.271 C 
BRANCH  14  15
ATOM     15  C   UNL A   1      44.325  24.216  30.085  1.00  0.00     0.130 C 
BRANCH  15  16
ATOM     16  S   UNL A   1      44.527  25.206  31.612  1.00  0.00    -0.160 SA
ATOM     17  C   UNL A   1      44.543  23.905  32.870  1.00  0.00     0.085 C 
ENDBRANCH  15  16
ENDBRANCH  14  15
ENDBRANCH  11  14
ENDBRANCH  10  11
ENDBRANCH   7  10
ENDBRANCH   5   7
ENDBRANCH   4   5
ENDBRANCH   3   4
ENDBRANCH   2   3
ENDBRANCH   1   2
BRANCH   1  18
ATOM     18  C   UNL A   1      45.665  19.022  25.056  1.00  0.00     0.188 C 
BRANCH  18  19
ATOM     19  C   UNL A   1      45.029  19.780  23.873  1.00  0.00     0.188 C 
BRANCH  19  20
ATOM     20  O   UNL A   1      44.787  21.176  23.957  1.00  0.00    -0.376 OA
BRANCH  20  21
ATOM     21  C   UNL A   1      45.525  21.936  24.903  1.00  0.00     0.202 C 
BRANCH  21  22
ATOM     22  C   UNL A   1      46.098  23.288  24.458  1.00  0.00     0.261 C 
BRANCH  22  23
ATOM     23  O   UNL A   1      45.203  24.403  24.625  1.00  0.00    -0.460 OA
BRANCH  23  24
ATOM     24  C   UNL A   1      45.786  25.565  25.001  1.00  0.00     0.338 C 
ATOM     25  O   UNL A   1      46.866  26.012  24.626  1.00  0.00    -0.246 OA
BRANCH  24  26
ATOM     26  C   UNL A   1      44.849  26.361  25.817  1.00  0.00     0.060 A 
ATOM     27  C   UNL A   1      45.018  27.754  25.850  1.00  0.00     0.016 A 
ATOM     28  C   UNL A   1      43.867  25.750  26.595  1.00  0.00     0.016 A 
ATOM     29  C   UNL A   1      44.222  28.541  26.682  1.00  0.00     0.010 A 
ATOM     30  C   UNL A   1      43.092  26.536  27.455  1.00  0.00     0.010 A 
ATOM     31  C   UNL A   1      43.289  27.928  27.526  1.00  0.00    -0.014 A 
BRANCH  31  32
ATOM     32  C   UNL A   1      42.673  28.708  28.626  1.00  0.00     0.031 A 
ATOM     33  C   UNL A   1      43.484  28.947  29.871  1.00  0.00     0.074 A 
ATOM     34  C   UNL A   1      41.429  29.203  28.526  1.00  0.00     0.049 A 
ATOM     35  N   UNL A   1      43.135  29.522  30.993  1.00  0.00    -0.248 NA
ATOM     36  C   UNL A   1      44.877  28.470  29.843  1.00  0.00     0.031 C 
ATOM     37  C   UNL A   1      40.565  29.097  27.352  1.00  0.00     0.029 A 
ATOM     38  N   UNL A   1      40.672  29.890  29.442  1.00  0.00    -0.354 N 
ATOM     39  C   UNL A   1      44.260  29.470  31.806  1.00  0.00     0.074 A 
ATOM     40  C   UNL A   1      45.296  28.790  31.057  1.00  0.00     0.031 C 
ATOM     41  C   UNL A   1      39.383  29.677  27.631  1.00  0.00     0.029 A 
ATOM     42  C   UNL A   1      39.399  30.165  29.008  1.00  0.00     0.049 A 
ATOM     43  H   UNL A   1      41.010  30.160  30.327  1.00  0.00     0.167 HD
ATOM     44  C   UNL A   1      44.418  29.946  33.064  1.00  0.00     0.037 A 
ATOM     45  C   UNL A   1      38.360  30.719  29.664  1.00  0.00     0.037 A 
ATOM     46  C   UNL A   1      43.388  30.614  33.812  1.00  0.00     0.049 A 
ATOM     47  C   UNL A   1      38.532  31.159  31.095  1.00  0.00     0.074 A 
ATOM     48  C   UNL A   1      43.455  31.140  35.090  1.00  0.00     0.029 A 
ATOM     49  N   UNL A   1      42.101  30.840  33.351  1.00  0.00    -0.354 N 
ATOM     50  N   UNL A   1      39.601  31.117  31.853  1.00  0.00    -0.248 NA
ATOM     51  C   UNL A   1      37.348  31.722  31.763  1.00  0.00     0.031 C 
ATOM     52  C   UNL A   1      42.192  31.645  35.420  1.00  0.00     0.029 A 
ATOM     53  C   UNL A   1      41.354  31.475  34.330  1.00  0.00     0.049 A 
ATOM     54  H   UNL A   1      41.767  30.587  32.460  1.00  0.00     0.167 HD
ATOM     55  C   UNL A   1      39.229  31.674  33.071  1.00  0.00     0.074 A 
ATOM     56  C   UNL A   1      37.836  32.053  32.950  1.00  0.00     0.031 C 
ATOM     57  C   UNL A   1      39.973  31.858  34.189  1.00  0.00     0.037 A 
BRANCH  44  58
ATOM     58  C   UNL A   1      45.748  29.726  33.718  1.00  0.00     0.057 A 
ATOM     59  C   UNL A   1      46.773  30.679  33.649  1.00  0.00     0.134 A 
ATOM     60  C   UNL A   1      46.000  28.555  34.443  1.00  0.00     0.134 A 
ATOM     61  F   UNL A   1      46.602  31.813  32.954  1.00  0.00    -0.206 F 
ATOM     62  C   UNL A   1      48.010  30.465  34.262  1.00  0.00     0.040 A 
ATOM     63  C   UNL A   1      47.223  28.340  35.080  1.00  0.00     0.040 A 
ATOM     64  F   UNL A   1      45.059  27.605  34.548  1.00  0.00    -0.206 F 
ATOM     65  C   UNL A   1      48.233  29.294  34.985  1.00  0.00     0.006 A 
ENDBRANCH  44  58
BRANCH  45  66
ATOM     66  C   UNL A   1      37.048  30.872  28.987  1.00  0.00     0.057 A 
ATOM     67  C   UNL A   1      36.179  29.785  28.836  1.00  0.00     0.134 A 
ATOM     68  C   UNL A   1      36.648  32.098  28.442  1.00  0.00     0.134 A 
ATOM     69  F   UNL A   1      36.520  28.578  29.311  1.00  0.00    -0.206 F 
ATOM     70  C   UNL A   1      34.968  29.907  28.153  1.00  0.00     0.040 A 
ATOM     71  C   UNL A   1      35.429  32.241  27.778  1.00  0.00     0.040 A 
ATOM     72  F   UNL A   1      37.437  33.177  28.551  1.00  0.00    -0.206 F 
ATOM     73  C   UNL A   1      34.588  31.140  27.626  1.00  0.00     0.006 A 
ENDBRANCH  45  66
BRANCH  57  74
ATOM     74  C   UNL A   1      39.314  32.534  35.355  1.00  0.00     0.057 A 
ATOM     75  C   UNL A   1      38.583  31.819  36.311  1.00  0.00     0.134 A 
ATOM     76  C   UNL A   1      39.458  33.914  35.552  1.00  0.00     0.134 A 
ATOM     77  F   UNL A   1      38.399  30.496  36.177  1.00  0.00    -0.206 F 
ATOM     78  C   UNL A   1      38.000  32.455  37.409  1.00  0.00     0.040 A 
ATOM     79  C   UNL A   1      38.901  34.557  36.658  1.00  0.00     0.040 A 
ATOM     80  F   UNL A   1      40.155  34.657  34.678  1.00  0.00    -0.206 F 
ATOM     81  C   UNL A   1      38.165  33.827  37.587  1.00  0.00     0.006 A 
ENDBRANCH  57  74
ENDBRANCH  31  32
ENDBRANCH  24  26
ENDBRANCH  23  24
ENDBRANCH  22  23
ENDBRANCH  21  22
ENDBRANCH  20  21
ENDBRANCH  19  20
ENDBRANCH  18  19
ENDBRANCH   1  18
TORSDOF 22
ENDMDL
MODEL 3
REMARK VINA RESULT:      -8.0      0.572      6.475
REMARK SMILES CSCC[NH2+]CC(C)(C)C(=O)OCCOCCOCCOC(=O)c1ccc(-c2c3nc(c(-c4c(F)cccc4F)c4ccc([nH]4)c(-c4c(F)cccc4F)c4nc(c(-c5c(F)cccc5F)c5ccc2[nH]5)C=C4)C=C3)cc1
REMARK SMILES IDX 15 1 14 2 13 3 12 4 10 5 11 6 7 7 8 8 9 9 6 10 5 11 4 14
REMARK SMILES IDX 3 15 2 16 1 17 16 18 17 19 18 20 19 21 20 22 21 23 22 24
REMARK SMILES IDX 23 25 24 26 25 27 77 28 26 29 76 30 27 31 28 32 29 33 70 34
REMARK SMILES IDX 30 35 75 36 69 37 71 38 31 39 74 40 68 41 67 42 32 44 58 45
REMARK SMILES IDX 41 46 57 47 42 48 45 49 56 50 72 51 43 52 44 53 55 55 73 56
REMARK SMILES IDX 46 57 33 58 34 59 39 60 35 61 36 62 38 63 40 64 37 65 59 66
REMARK SMILES IDX 60 67 65 68 61 69 62 70 64 71 66 72 63 73 47 74 48 75 53 76
REMARK SMILES IDX 49 77 50 78 52 79 54 80 51 81
REMARK H PARENT 5 12 5 13 71 43 45 54
REMARK Flexibility Score: inf
ROOT
ATOM      1  O   UNL A   1      31.629  28.136  25.125  1.00  0.00    -0.376 OA
ENDROOT
BRANCH   1   2
ATOM      2  C   UNL A   1      32.640  27.650  24.251  1.00  0.00     0.202 C 
BRANCH   2   3
ATOM      3  C   UNL A   1      33.775  26.859  24.909  1.00  0.00     0.261 C 
BRANCH   3   4
ATOM      4  O   UNL A   1      33.860  25.520  24.386  1.00  0.00    -0.463 OA
BRANCH   4   5
ATOM      5  C   UNL A   1      32.958  24.589  24.778  1.00  0.00     0.317 C 
ATOM      6  O   UNL A   1      32.482  24.531  25.903  1.00  0.00    -0.251 OA
BRANCH   5   7
ATOM      7  C   UNL A   1      32.605  23.635  23.622  1.00  0.00     0.111 C 
ATOM      8  C   UNL A   1      33.128  24.255  22.314  1.00  0.00     0.029 C 
ATOM      9  C   UNL A   1      31.063  23.511  23.477  1.00  0.00     0.029 C 
BRANCH   7  10
ATOM     10  C   UNL A   1      33.202  22.216  23.852  1.00  0.00     0.278 C 
BRANCH  10  11
ATOM     11  N   UNL A   1      33.203  21.679  25.215  1.00  0.00    -0.345 N 
ATOM     12  H   UNL A   1      32.987  22.440  25.858  1.00  0.00     0.346 HD
ATOM     13  H   UNL A   1      32.507  20.934  25.237  1.00  0.00     0.346 HD
BRANCH  11  14
ATOM     14  C   UNL A   1      34.475  21.081  25.621  1.00  0.00     0.271 C 
BRANCH  14  15
ATOM     15  C   UNL A   1      35.643  22.081  25.586  1.00  0.00     0.130 C 
BRANCH  15  16
ATOM     16  S   UNL A   1      37.115  21.494  24.669  1.00  0.00    -0.160 SA
ATOM     17  C   UNL A   1      38.443  21.966  25.806  1.00  0.00     0.085 C 
ENDBRANCH  15  16
ENDBRANCH  14  15
ENDBRANCH  11  14
ENDBRANCH  10  11
ENDBRANCH   7  10
ENDBRANCH   5   7
ENDBRANCH   4   5
ENDBRANCH   3   4
ENDBRANCH   2   3
ENDBRANCH   1   2
BRANCH   1  18
ATOM     18  C   UNL A   1      31.888  28.018  26.516  1.00  0.00     0.188 C 
BRANCH  18  19
ATOM     19  C   UNL A   1      31.929  29.362  27.270  1.00  0.00     0.188 C 
BRANCH  19  20
ATOM     20  O   UNL A   1      32.349  30.547  26.610  1.00  0.00    -0.376 OA
BRANCH  20  21
ATOM     21  C   UNL A   1      31.388  31.560  26.358  1.00  0.00     0.202 C 
BRANCH  21  22
ATOM     22  C   UNL A   1      31.641  32.959  26.935  1.00  0.00     0.261 C 
BRANCH  22  23
ATOM     23  O   UNL A   1      33.027  33.279  27.148  1.00  0.00    -0.460 OA
BRANCH  23  24
ATOM     24  C   UNL A   1      33.277  34.142  28.160  1.00  0.00     0.338 C 
ATOM     25  O   UNL A   1      32.622  35.133  28.472  1.00  0.00    -0.246 OA
BRANCH  24  26
ATOM     26  C   UNL A   1      34.377  33.635  29.001  1.00  0.00     0.060 A 
ATOM     27  C   UNL A   1      35.694  33.959  28.638  1.00  0.00     0.016 A 
ATOM     28  C   UNL A   1      34.131  32.793  30.085  1.00  0.00     0.016 A 
ATOM     29  C   UNL A   1      36.771  33.423  29.342  1.00  0.00     0.010 A 
ATOM     30  C   UNL A   1      35.213  32.229  30.770  1.00  0.00     0.010 A 
ATOM     31  C   UNL A   1      36.535  32.516  30.380  1.00  0.00    -0.014 A 
BRANCH  31  32
ATOM     32  C   UNL A   1      37.657  31.707  30.916  1.00  0.00     0.031 A 
ATOM     33  C   UNL A   1      38.146  32.001  32.308  1.00  0.00     0.074 A 
ATOM     34  C   UNL A   1      38.226  30.728  30.194  1.00  0.00     0.049 A 
ATOM     35  N   UNL A   1      39.159  31.492  32.959  1.00  0.00    -0.248 NA
ATOM     36  C   UNL A   1      37.384  33.007  33.067  1.00  0.00     0.031 C 
ATOM     37  C   UNL A   1      37.806  30.303  28.860  1.00  0.00     0.029 A 
ATOM     38  N   UNL A   1      39.297  29.920  30.485  1.00  0.00    -0.354 N 
ATOM     39  C   UNL A   1      39.164  32.119  34.198  1.00  0.00     0.074 A 
ATOM     40  C   UNL A   1      38.064  33.060  34.202  1.00  0.00     0.031 C 
ATOM     41  C   UNL A   1      38.629  29.326  28.438  1.00  0.00     0.029 A 
ATOM     42  C   UNL A   1      39.649  29.082  29.456  1.00  0.00     0.049 A 
ATOM     43  H   UNL A   1      39.767  29.939  31.350  1.00  0.00     0.167 HD
ATOM     44  C   UNL A   1      40.006  31.929  35.240  1.00  0.00     0.037 A 
ATOM     45  C   UNL A   1      40.694  28.239  29.343  1.00  0.00     0.037 A 
ATOM     46  C   UNL A   1      41.104  31.000  35.235  1.00  0.00     0.049 A 
ATOM     47  C   UNL A   1      41.673  28.110  30.482  1.00  0.00     0.074 A 
ATOM     48  C   UNL A   1      42.009  30.729  36.246  1.00  0.00     0.029 A 
ATOM     49  N   UNL A   1      41.450  30.196  34.160  1.00  0.00    -0.354 N 
ATOM     50  N   UNL A   1      41.664  28.699  31.654  1.00  0.00    -0.248 NA
ATOM     51  C   UNL A   1      42.811  27.201  30.279  1.00  0.00     0.031 C 
ATOM     52  C   UNL A   1      42.932  29.793  35.767  1.00  0.00     0.029 A 
ATOM     53  C   UNL A   1      42.572  29.447  34.474  1.00  0.00     0.049 A 
ATOM     54  H   UNL A   1      40.970  30.162  33.302  1.00  0.00     0.167 HD
ATOM     55  C   UNL A   1      42.772  28.208  32.337  1.00  0.00     0.074 A 
ATOM     56  C   UNL A   1      43.427  27.270  31.451  1.00  0.00     0.031 C 
ATOM     57  C   UNL A   1      43.206  28.507  33.586  1.00  0.00     0.037 A 
BRANCH  44  58
ATOM     58  C   UNL A   1      39.789  32.771  36.460  1.00  0.00     0.057 A 
ATOM     59  C   UNL A   1      40.528  33.938  36.695  1.00  0.00     0.134 A 
ATOM     60  C   UNL A   1      38.815  32.421  37.403  1.00  0.00     0.134 A 
ATOM     61  F   UNL A   1      41.489  34.318  35.839  1.00  0.00    -0.206 F 
ATOM     62  C   UNL A   1      40.319  34.716  37.836  1.00  0.00     0.040 A 
ATOM     63  C   UNL A   1      38.580  33.203  38.535  1.00  0.00     0.040 A 
ATOM     64  F   UNL A   1      38.073  31.315  37.236  1.00  0.00    -0.206 F 
ATOM     65  C   UNL A   1      39.337  34.351  38.756  1.00  0.00     0.006 A 
ENDBRANCH  44  58
BRANCH  45  66
ATOM     66  C   UNL A   1      40.893  27.462  28.095  1.00  0.00     0.057 A 
ATOM     67  C   UNL A   1      41.618  27.988  27.020  1.00  0.00     0.134 A 
ATOM     68  C   UNL A   1      40.331  26.189  27.933  1.00  0.00     0.134 A 
ATOM     69  F   UNL A   1      42.155  29.215  27.105  1.00  0.00    -0.206 F 
ATOM     70  C   UNL A   1      41.763  27.286  25.822  1.00  0.00     0.040 A 
ATOM     71  C   UNL A   1      40.489  25.465  26.750  1.00  0.00     0.040 A 
ATOM     72  F   UNL A   1      39.622  25.630  28.924  1.00  0.00    -0.206 F 
ATOM     73  C   UNL A   1      41.201  26.018  25.687  1.00  0.00     0.006 A 
ENDBRANCH  45  66
BRANCH  57  74
ATOM     74  C   UNL A   1      44.420  27.782  34.088  1.00  0.00     0.057 A 
ATOM     75  C   UNL A   1      45.705  28.330  33.987  1.00  0.00     0.134 A 
ATOM     76  C   UNL A   1      44.295  26.542  34.727  1.00  0.00     0.134 A 
ATOM     77  F   UNL A   1      45.894  29.511  33.376  1.00  0.00    -0.206 F 
ATOM     78  C   UNL A   1      46.824  27.661  34.485  1.00  0.00     0.040 A 
ATOM     79  C   UNL A   1      45.404  25.875  35.250  1.00  0.00     0.040 A 
ATOM     80  F   UNL A   1      43.091  25.965  34.866  1.00  0.00    -0.206 F 
ATOM     81  C   UNL A   1      46.673  26.432  35.125  1.00  0.00     0.006 A 
ENDBRANCH  57  74
ENDBRANCH  31  32
ENDBRANCH  24  26
ENDBRANCH  23  24
ENDBRANCH  22  23
ENDBRANCH  21  22
ENDBRANCH  20  21
ENDBRANCH  19  20
ENDBRANCH  18  19
ENDBRANCH   1  18
TORSDOF 22
ENDMDL
