MODEL 1
REMARK VINA RESULT:     -10.7      0.000      0.000
REMARK SMILES O=C(OCCOCCOCCOC(=O)c1cccc2c1ccn2Cc1ccncc1)c1ccc(-c2c3nc(c(-c4c(F)cccc4F)c4ccc([nH]4)c(-c4c(F)cccc4F)c4nc(c(-c5c(F)cccc5F)c5ccc2[nH]5)C=C4)C=C3)cc1
REMARK SMILES IDX 7 1 6 2 5 3 4 4 3 5 2 6 1 7 31 8 32 9 84 10 33 11 83 12
REMARK SMILES IDX 34 13 35 14 36 15 77 16 37 17 82 18 76 19 78 20 38 21 81 22
REMARK SMILES IDX 75 23 74 24 39 26 65 27 48 28 64 29 49 30 52 31 63 32 79 33
REMARK SMILES IDX 50 34 51 35 62 37 80 38 53 39 40 40 41 41 46 42 42 43 43 44
REMARK SMILES IDX 45 45 47 46 44 47 66 48 67 49 72 50 68 51 69 52 71 53 73 54
REMARK SMILES IDX 70 55 54 56 55 57 60 58 56 59 57 60 59 61 61 62 58 63 8 64
REMARK SMILES IDX 9 65 10 66 11 67 12 68 13 69 14 70 15 71 16 72 20 73 17 74
REMARK SMILES IDX 19 75 21 76 18 77 23 78 22 79 24 80 25 81 26 82 30 83 27 84
REMARK SMILES IDX 29 85 28 86
REMARK H PARENT 78 25 52 36
REMARK Flexibility Score: inf
ROOT
ATOM      1  C   UNL A   1      42.350  18.962  25.990  1.00  0.00     0.188 C 
ENDROOT
BRANCH   1   2
ATOM      2  O   UNL A   1      43.738  19.056  26.273  1.00  0.00    -0.376 OA
BRANCH   2   3
ATOM      3  C   UNL A   1      44.572  18.452  25.296  1.00  0.00     0.202 C 
BRANCH   3   4
ATOM      4  C   UNL A   1      45.865  19.207  24.940  1.00  0.00     0.261 C 
BRANCH   4   5
ATOM      5  O   UNL A   1      45.855  20.653  24.767  1.00  0.00    -0.460 OA
BRANCH   5   6
ATOM      6  C   UNL A   1      44.892  21.493  24.312  1.00  0.00     0.338 C 
ATOM      7  O   UNL A   1      44.533  21.477  23.141  1.00  0.00    -0.246 OA
BRANCH   6   8
ATOM      8  C   UNL A   1      44.389  22.523  25.233  1.00  0.00     0.060 A 
ATOM      9  C   UNL A   1      43.392  23.372  24.761  1.00  0.00     0.016 A 
ATOM     10  C   UNL A   1      45.013  22.766  26.457  1.00  0.00     0.016 A 
ATOM     11  C   UNL A   1      43.198  24.581  25.407  1.00  0.00     0.010 A 
ATOM     12  C   UNL A   1      44.880  24.019  27.048  1.00  0.00     0.010 A 
ATOM     13  C   UNL A   1      44.019  24.958  26.482  1.00  0.00    -0.014 A 
BRANCH  13  14
ATOM     14  C   UNL A   1      43.638  26.163  27.231  1.00  0.00     0.031 A 
ATOM     15  C   UNL A   1      44.683  27.195  26.999  1.00  0.00     0.074 A 
ATOM     16  C   UNL A   1      42.503  26.398  27.932  1.00  0.00     0.049 A 
ATOM     17  N   UNL A   1      45.543  27.667  27.839  1.00  0.00    -0.248 NA
ATOM     18  C   UNL A   1      44.965  27.544  25.591  1.00  0.00     0.031 C 
ATOM     19  C   UNL A   1      41.303  25.559  28.006  1.00  0.00     0.029 A 
ATOM     20  N   UNL A   1      42.155  27.483  28.706  1.00  0.00    -0.354 N 
ATOM     21  C   UNL A   1      46.320  28.547  27.088  1.00  0.00     0.074 A 
ATOM     22  C   UNL A   1      46.091  28.242  25.707  1.00  0.00     0.031 C 
ATOM     23  C   UNL A   1      40.326  26.207  28.673  1.00  0.00     0.029 A 
ATOM     24  C   UNL A   1      40.810  27.507  29.084  1.00  0.00     0.049 A 
ATOM     25  H   UNL A   1      42.797  28.182  28.969  1.00  0.00     0.167 HD
ATOM     26  C   UNL A   1      46.768  29.705  27.637  1.00  0.00     0.037 A 
ATOM     27  C   UNL A   1      40.101  28.526  29.639  1.00  0.00     0.037 A 
ATOM     28  C   UNL A   1      46.779  29.627  29.072  1.00  0.00     0.049 A 
ATOM     29  C   UNL A   1      41.071  29.465  30.245  1.00  0.00     0.074 A 
ATOM     30  C   UNL A   1      47.574  29.054  30.037  1.00  0.00     0.029 A 
ATOM     31  N   UNL A   1      45.570  29.912  29.644  1.00  0.00    -0.354 N 
ATOM     32  N   UNL A   1      41.786  29.172  31.295  1.00  0.00    -0.248 NA
ATOM     33  C   UNL A   1      41.561  30.585  29.451  1.00  0.00     0.031 C 
ATOM     34  C   UNL A   1      46.732  28.855  31.173  1.00  0.00     0.029 A 
ATOM     35  C   UNL A   1      45.463  29.355  30.887  1.00  0.00     0.049 A 
ATOM     36  H   UNL A   1      44.866  30.451  29.216  1.00  0.00     0.167 HD
ATOM     37  C   UNL A   1      43.015  29.755  31.049  1.00  0.00     0.074 A 
ATOM     38  C   UNL A   1      42.774  30.731  29.990  1.00  0.00     0.031 C 
ATOM     39  C   UNL A   1      44.168  29.185  31.508  1.00  0.00     0.037 A 
BRANCH  26  40
ATOM     40  C   UNL A   1      46.620  31.033  26.927  1.00  0.00     0.057 A 
ATOM     41  C   UNL A   1      45.382  31.623  26.581  1.00  0.00     0.134 A 
ATOM     42  C   UNL A   1      47.723  31.899  26.880  1.00  0.00     0.134 A 
ATOM     43  F   UNL A   1      44.215  30.976  26.681  1.00  0.00    -0.206 F 
ATOM     44  C   UNL A   1      45.249  32.962  26.213  1.00  0.00     0.040 A 
ATOM     45  C   UNL A   1      47.592  33.258  26.566  1.00  0.00     0.040 A 
ATOM     46  F   UNL A   1      48.947  31.467  27.216  1.00  0.00    -0.206 F 
ATOM     47  C   UNL A   1      46.353  33.794  26.235  1.00  0.00     0.006 A 
ENDBRANCH  26  40
BRANCH  27  48
ATOM     48  C   UNL A   1      38.649  28.822  29.493  1.00  0.00     0.057 A 
ATOM     49  C   UNL A   1      38.116  29.291  28.276  1.00  0.00     0.134 A 
ATOM     50  C   UNL A   1      37.769  28.861  30.586  1.00  0.00     0.134 A 
ATOM     51  F   UNL A   1      38.879  29.397  27.179  1.00  0.00    -0.206 F 
ATOM     52  C   UNL A   1      36.801  29.751  28.144  1.00  0.00     0.040 A 
ATOM     53  C   UNL A   1      36.450  29.335  30.472  1.00  0.00     0.040 A 
ATOM     54  F   UNL A   1      38.178  28.486  31.806  1.00  0.00    -0.206 F 
ATOM     55  C   UNL A   1      35.963  29.786  29.248  1.00  0.00     0.006 A 
ENDBRANCH  27  48
BRANCH  39  56
ATOM     56  C   UNL A   1      44.053  28.197  32.630  1.00  0.00     0.057 A 
ATOM     57  C   UNL A   1      43.975  26.836  32.310  1.00  0.00     0.134 A 
ATOM     58  C   UNL A   1      43.925  28.543  33.981  1.00  0.00     0.134 A 
ATOM     59  F   UNL A   1      44.045  26.439  31.029  1.00  0.00    -0.206 F 
ATOM     60  C   UNL A   1      43.780  25.857  33.284  1.00  0.00     0.040 A 
ATOM     61  C   UNL A   1      43.760  27.568  34.971  1.00  0.00     0.040 A 
ATOM     62  F   UNL A   1      43.914  29.827  34.366  1.00  0.00    -0.206 F 
ATOM     63  C   UNL A   1      43.681  26.222  34.623  1.00  0.00     0.006 A 
ENDBRANCH  39  56
ENDBRANCH  13  14
ENDBRANCH   6   8
ENDBRANCH   5   6
ENDBRANCH   4   5
ENDBRANCH   3   4
ENDBRANCH   2   3
ENDBRANCH   1   2
BRANCH   1  64
ATOM     64  C   UNL A   1      41.455  19.578  27.068  1.00  0.00     0.188 C 
BRANCH  64  65
ATOM     65  O   UNL A   1      41.754  20.890  27.507  1.00  0.00    -0.376 OA
BRANCH  65  66
ATOM     66  C   UNL A   1      40.747  21.876  27.344  1.00  0.00     0.202 C 
BRANCH  66  67
ATOM     67  C   UNL A   1      39.877  21.989  26.070  1.00  0.00     0.261 C 
BRANCH  67  68
ATOM     68  O   UNL A   1      38.455  21.873  26.136  1.00  0.00    -0.460 OA
BRANCH  68  69
ATOM     69  C   UNL A   1      37.804  23.045  25.930  1.00  0.00     0.338 C 
ATOM     70  O   UNL A   1      38.102  24.123  26.434  1.00  0.00    -0.246 OA
BRANCH  69  71
ATOM     71  C   UNL A   1      36.557  22.874  25.153  1.00  0.00     0.069 A 
ATOM     72  C   UNL A   1      36.539  23.378  23.840  1.00  0.00     0.016 A 
ATOM     73  C   UNL A   1      35.380  22.297  25.679  1.00  0.00     0.014 A 
ATOM     74  C   UNL A   1      35.404  23.258  23.044  1.00  0.00     0.003 A 
ATOM     75  C   UNL A   1      34.270  22.124  24.834  1.00  0.00     0.049 A 
ATOM     76  C   UNL A   1      34.982  21.829  26.957  1.00  0.00     0.029 A 
ATOM     77  C   UNL A   1      34.268  22.593  23.509  1.00  0.00     0.027 A 
ATOM     78  N   UNL A   1      33.319  21.434  25.565  1.00  0.00    -0.343 N 
ATOM     79  C   UNL A   1      33.663  21.466  26.892  1.00  0.00     0.087 A 
BRANCH  78  80
ATOM     80  C   UNL A   1      32.141  20.736  25.054  1.00  0.00     0.157 C 
BRANCH  80  81
ATOM     81  C   UNL A   1      32.535  19.463  24.327  1.00  0.00    -0.025 A 
ATOM     82  C   UNL A   1      32.241  19.279  22.969  1.00  0.00     0.025 A 
ATOM     83  C   UNL A   1      33.169  18.416  25.000  1.00  0.00     0.025 A 
ATOM     84  C   UNL A   1      32.535  18.065  22.368  1.00  0.00     0.111 A 
ATOM     85  C   UNL A   1      33.451  17.247  24.302  1.00  0.00     0.111 A 
ATOM     86  N   UNL A   1      33.141  17.046  23.005  1.00  0.00    -0.265 NA
ENDBRANCH  80  81
ENDBRANCH  78  80
ENDBRANCH  69  71
ENDBRANCH  68  69
ENDBRANCH  67  68
ENDBRANCH  66  67
ENDBRANCH  65  66
ENDBRANCH  64  65
ENDBRANCH   1  64
TORSDOF 19
ENDMDL
MODEL 2
REMARK VINA RESULT:     -10.2      2.365      3.874
REMARK SMILES O=C(OCCOCCOCCOC(=O)c1cccc2c1ccn2Cc1ccncc1)c1ccc(-c2c3nc(c(-c4c(F)cccc4F)c4ccc([nH]4)c(-c4c(F)cccc4F)c4nc(c(-c5c(F)cccc5F)c5ccc2[nH]5)C=C4)C=C3)cc1
REMARK SMILES IDX 7 1 6 2 5 3 4 4 3 5 2 6 1 7 31 8 32 9 84 10 33 11 83 12
REMARK SMILES IDX 34 13 35 14 36 15 77 16 37 17 82 18 76 19 78 20 38 21 81 22
REMARK SMILES IDX 75 23 74 24 39 26 65 27 48 28 64 29 49 30 52 31 63 32 79 33
REMARK SMILES IDX 50 34 51 35 62 37 80 38 53 39 40 40 41 41 46 42 42 43 43 44
REMARK SMILES IDX 45 45 47 46 44 47 66 48 67 49 72 50 68 51 69 52 71 53 73 54
REMARK SMILES IDX 70 55 54 56 55 57 60 58 56 59 57 60 59 61 61 62 58 63 8 64
REMARK SMILES IDX 9 65 10 66 11 67 12 68 13 69 14 70 15 71 16 72 20 73 17 74
REMARK SMILES IDX 19 75 21 76 18 77 23 78 22 79 24 80 25 81 26 82 30 83 27 84
REMARK SMILES IDX 29 85 28 86
REMARK H PARENT 78 25 52 36
REMARK Flexibility Score: inf
ROOT
ATOM      1  C   UNL A   1      41.299  20.180  26.558  1.00  0.00     0.188 C 
ENDROOT
BRANCH   1   2
ATOM      2  O   UNL A   1      41.965  19.440  25.547  1.00  0.00    -0.376 OA
BRANCH   2   3
ATOM      3  C   UNL A   1      42.750  18.363  26.037  1.00  0.00     0.202 C 
BRANCH   3   4
ATOM      4  C   UNL A   1      44.275  18.505  25.884  1.00  0.00     0.261 C 
BRANCH   4   5
ATOM      5  O   UNL A   1      44.868  18.765  24.579  1.00  0.00    -0.460 OA
BRANCH   5   6
ATOM      6  C   UNL A   1      44.827  19.861  23.781  1.00  0.00     0.338 C 
ATOM      7  O   UNL A   1      44.902  19.765  22.562  1.00  0.00    -0.246 OA
BRANCH   6   8
ATOM      8  C   UNL A   1      44.832  21.181  24.427  1.00  0.00     0.060 A 
ATOM      9  C   UNL A   1      45.585  21.323  25.590  1.00  0.00     0.016 A 
ATOM     10  C   UNL A   1      43.969  22.195  24.008  1.00  0.00     0.016 A 
ATOM     11  C   UNL A   1      45.289  22.374  26.441  1.00  0.00     0.010 A 
ATOM     12  C   UNL A   1      43.612  23.195  24.906  1.00  0.00     0.010 A 
ATOM     13  C   UNL A   1      44.225  23.247  26.158  1.00  0.00    -0.014 A 
BRANCH  13  14
ATOM     14  C   UNL A   1      44.090  24.441  27.003  1.00  0.00     0.031 A 
ATOM     15  C   UNL A   1      45.369  25.196  26.934  1.00  0.00     0.074 A 
ATOM     16  C   UNL A   1      42.995  24.891  27.660  1.00  0.00     0.049 A 
ATOM     17  N   UNL A   1      46.250  25.367  27.864  1.00  0.00    -0.248 NA
ATOM     18  C   UNL A   1      45.836  25.583  25.586  1.00  0.00     0.031 C 
ATOM     19  C   UNL A   1      41.625  24.373  27.584  1.00  0.00     0.029 A 
ATOM     20  N   UNL A   1      42.861  25.958  28.520  1.00  0.00    -0.354 N 
ATOM     21  C   UNL A   1      47.273  26.086  27.250  1.00  0.00     0.074 A 
ATOM     22  C   UNL A   1      47.086  25.966  25.834  1.00  0.00     0.031 C 
ATOM     23  C   UNL A   1      40.785  25.185  28.258  1.00  0.00     0.029 A 
ATOM     24  C   UNL A   1      41.537  26.284  28.824  1.00  0.00     0.049 A 
ATOM     25  H   UNL A   1      43.631  26.450  28.887  1.00  0.00     0.167 HD
ATOM     26  C   UNL A   1      47.943  27.046  27.937  1.00  0.00     0.037 A 
ATOM     27  C   UNL A   1      41.055  27.396  29.440  1.00  0.00     0.037 A 
ATOM     28  C   UNL A   1      47.823  26.846  29.355  1.00  0.00     0.049 A 
ATOM     29  C   UNL A   1      42.172  28.010  30.191  1.00  0.00     0.074 A 
ATOM     30  C   UNL A   1      48.378  26.014  30.300  1.00  0.00     0.029 A 
ATOM     31  N   UNL A   1      46.679  27.373  29.886  1.00  0.00    -0.354 N 
ATOM     32  N   UNL A   1      42.711  27.460  31.243  1.00  0.00    -0.248 NA
ATOM     33  C   UNL A   1      42.980  29.036  29.543  1.00  0.00     0.031 C 
ATOM     34  C   UNL A   1      47.427  25.934  31.361  1.00  0.00     0.029 A 
ATOM     35  C   UNL A   1      46.343  26.757  31.058  1.00  0.00     0.049 A 
ATOM     36  H   UNL A   1      46.162  28.104  29.476  1.00  0.00     0.167 HD
ATOM     37  C   UNL A   1      44.060  27.738  31.125  1.00  0.00     0.074 A 
ATOM     38  C   UNL A   1      44.146  28.829  30.159  1.00  0.00     0.031 C 
ATOM     39  C   UNL A   1      45.001  26.863  31.587  1.00  0.00     0.037 A 
BRANCH  26  40
ATOM     40  C   UNL A   1      48.178  28.424  27.358  1.00  0.00     0.057 A 
ATOM     41  C   UNL A   1      47.159  29.372  27.109  1.00  0.00     0.134 A 
ATOM     42  C   UNL A   1      49.483  28.942  27.356  1.00  0.00     0.134 A 
ATOM     43  F   UNL A   1      45.856  29.077  27.188  1.00  0.00    -0.206 F 
ATOM     44  C   UNL A   1      47.412  30.723  26.871  1.00  0.00     0.040 A 
ATOM     45  C   UNL A   1      49.744  30.305  27.174  1.00  0.00     0.040 A 
ATOM     46  F   UNL A   1      50.534  28.149  27.609  1.00  0.00    -0.206 F 
ATOM     47  C   UNL A   1      48.708  31.201  26.934  1.00  0.00     0.006 A 
ENDBRANCH  26  40
BRANCH  27  48
ATOM     48  C   UNL A   1      39.733  28.055  29.246  1.00  0.00     0.057 A 
ATOM     49  C   UNL A   1      39.468  28.842  28.107  1.00  0.00     0.134 A 
ATOM     50  C   UNL A   1      38.760  28.118  30.256  1.00  0.00     0.134 A 
ATOM     51  F   UNL A   1      40.361  28.947  27.113  1.00  0.00    -0.206 F 
ATOM     52  C   UNL A   1      38.315  29.622  27.969  1.00  0.00     0.040 A 
ATOM     53  C   UNL A   1      37.604  28.910  30.137  1.00  0.00     0.040 A 
ATOM     54  F   UNL A   1      38.927  27.451  31.407  1.00  0.00    -0.206 F 
ATOM     55  C   UNL A   1      37.380  29.668  28.992  1.00  0.00     0.006 A 
ENDBRANCH  27  48
BRANCH  39  56
ATOM     56  C   UNL A   1      44.563  25.843  32.595  1.00  0.00     0.057 A 
ATOM     57  C   UNL A   1      44.567  26.203  33.948  1.00  0.00     0.134 A 
ATOM     58  C   UNL A   1      44.234  24.516  32.289  1.00  0.00     0.134 A 
ATOM     59  F   UNL A   1      44.917  27.446  34.314  1.00  0.00    -0.206 F 
ATOM     60  C   UNL A   1      44.259  25.290  34.957  1.00  0.00     0.040 A 
ATOM     61  C   UNL A   1      43.892  23.600  33.289  1.00  0.00     0.040 A 
ATOM     62  F   UNL A   1      44.277  24.068  31.025  1.00  0.00    -0.206 F 
ATOM     63  C   UNL A   1      43.910  23.985  34.628  1.00  0.00     0.006 A 
ENDBRANCH  39  56
ENDBRANCH  13  14
ENDBRANCH   6   8
ENDBRANCH   5   6
ENDBRANCH   4   5
ENDBRANCH   3   4
ENDBRANCH   2   3
ENDBRANCH   1   2
BRANCH   1  64
ATOM     64  C   UNL A   1      40.634  21.463  26.052  1.00  0.00     0.188 C 
BRANCH  64  65
ATOM     65  O   UNL A   1      39.281  21.688  26.398  1.00  0.00    -0.376 OA
BRANCH  65  66
ATOM     66  C   UNL A   1      38.310  21.507  25.379  1.00  0.00     0.202 C 
BRANCH  66  67
ATOM     67  C   UNL A   1      36.793  21.419  25.667  1.00  0.00     0.261 C 
BRANCH  67  68
ATOM     68  O   UNL A   1      35.843  21.355  24.602  1.00  0.00    -0.460 OA
BRANCH  68  69
ATOM     69  C   UNL A   1      34.683  20.741  24.946  1.00  0.00     0.338 C 
ATOM     70  O   UNL A   1      34.329  19.628  24.573  1.00  0.00    -0.246 OA
BRANCH  69  71
ATOM     71  C   UNL A   1      33.770  21.630  25.697  1.00  0.00     0.069 A 
ATOM     72  C   UNL A   1      33.758  21.509  27.099  1.00  0.00     0.016 A 
ATOM     73  C   UNL A   1      32.877  22.534  25.082  1.00  0.00     0.014 A 
ATOM     74  C   UNL A   1      32.927  22.308  27.878  1.00  0.00     0.003 A 
ATOM     75  C   UNL A   1      32.098  23.379  25.892  1.00  0.00     0.049 A 
ATOM     76  C   UNL A   1      32.508  22.820  23.743  1.00  0.00     0.029 A 
ATOM     77  C   UNL A   1      32.117  23.285  27.294  1.00  0.00     0.027 A 
ATOM     78  N   UNL A   1      31.420  24.232  25.039  1.00  0.00    -0.343 N 
ATOM     79  C   UNL A   1      31.494  23.741  23.761  1.00  0.00     0.087 A 
BRANCH  78  80
ATOM     80  C   UNL A   1      30.746  25.483  25.384  1.00  0.00     0.157 C 
BRANCH  80  81
ATOM     81  C   UNL A   1      31.737  26.510  25.901  1.00  0.00    -0.025 A 
ATOM     82  C   UNL A   1      31.426  27.341  26.987  1.00  0.00     0.025 A 
ATOM     83  C   UNL A   1      32.979  26.687  25.285  1.00  0.00     0.025 A 
ATOM     84  C   UNL A   1      32.321  28.327  27.367  1.00  0.00     0.111 A 
ATOM     85  C   UNL A   1      33.823  27.685  25.759  1.00  0.00     0.111 A 
ATOM     86  N   UNL A   1      33.518  28.513  26.780  1.00  0.00    -0.265 NA
ENDBRANCH  80  81
ENDBRANCH  78  80
ENDBRANCH  69  71
ENDBRANCH  68  69
ENDBRANCH  67  68
ENDBRANCH  66  67
ENDBRANCH  65  66
ENDBRANCH  64  65
ENDBRANCH   1  64
TORSDOF 19
ENDMDL
MODEL 3
REMARK VINA RESULT:     -10.2      2.704      3.687
REMARK SMILES O=C(OCCOCCOCCOC(=O)c1cccc2c1ccn2Cc1ccncc1)c1ccc(-c2c3nc(c(-c4c(F)cccc4F)c4ccc([nH]4)c(-c4c(F)cccc4F)c4nc(c(-c5c(F)cccc5F)c5ccc2[nH]5)C=C4)C=C3)cc1
REMARK SMILES IDX 7 1 6 2 5 3 4 4 3 5 2 6 1 7 31 8 32 9 84 10 33 11 83 12
REMARK SMILES IDX 34 13 35 14 36 15 77 16 37 17 82 18 76 19 78 20 38 21 81 22
REMARK SMILES IDX 75 23 74 24 39 26 65 27 48 28 64 29 49 30 52 31 63 32 79 33
REMARK SMILES IDX 50 34 51 35 62 37 80 38 53 39 40 40 41 41 46 42 42 43 43 44
REMARK SMILES IDX 45 45 47 46 44 47 66 48 67 49 72 50 68 51 69 52 71 53 73 54
REMARK SMILES IDX 70 55 54 56 55 57 60 58 56 59 57 60 59 61 61 62 58 63 8 64
REMARK SMILES IDX 9 65 10 66 11 67 12 68 13 69 14 70 15 71 16 72 20 73 17 74
REMARK SMILES IDX 19 75 21 76 18 77 23 78 22 79 24 80 25 81 26 82 30 83 27 84
REMARK SMILES IDX 29 85 28 86
REMARK H PARENT 78 25 52 36
REMARK Flexibility Score: inf
ROOT
ATOM      1  C   UNL A   1      40.538  19.648  26.236  1.00  0.00     0.188 C 
ENDROOT
BRANCH   1   2
ATOM      2  O   UNL A   1      41.676  19.299  25.464  1.00  0.00    -0.376 OA
BRANCH   2   3
ATOM      3  C   UNL A   1      42.861  19.117  26.226  1.00  0.00     0.202 C 
BRANCH   3   4
ATOM      4  C   UNL A   1      44.027  18.407  25.516  1.00  0.00     0.261 C 
BRANCH   4   5
ATOM      5  O   UNL A   1      44.970  19.164  24.703  1.00  0.00    -0.460 OA
BRANCH   5   6
ATOM      6  C   UNL A   1      44.798  20.252  23.913  1.00  0.00     0.338 C 
ATOM      7  O   UNL A   1      44.776  20.157  22.692  1.00  0.00    -0.246 OA
BRANCH   6   8
ATOM      8  C   UNL A   1      44.779  21.573  24.559  1.00  0.00     0.060 A 
ATOM      9  C   UNL A   1      45.494  21.716  25.745  1.00  0.00     0.016 A 
ATOM     10  C   UNL A   1      43.928  22.584  24.112  1.00  0.00     0.016 A 
ATOM     11  C   UNL A   1      45.168  22.767  26.586  1.00  0.00     0.010 A 
ATOM     12  C   UNL A   1      43.540  23.584  24.998  1.00  0.00     0.010 A 
ATOM     13  C   UNL A   1      44.112  23.637  26.269  1.00  0.00    -0.014 A 
BRANCH  13  14
ATOM     14  C   UNL A   1      43.947  24.831  27.109  1.00  0.00     0.031 A 
ATOM     15  C   UNL A   1      45.192  25.637  27.008  1.00  0.00     0.074 A 
ATOM     16  C   UNL A   1      42.849  25.241  27.787  1.00  0.00     0.049 A 
ATOM     17  N   UNL A   1      46.085  25.849  27.917  1.00  0.00    -0.248 NA
ATOM     18  C   UNL A   1      45.615  26.031  25.648  1.00  0.00     0.031 C 
ATOM     19  C   UNL A   1      41.500  24.669  27.744  1.00  0.00     0.029 A 
ATOM     20  N   UNL A   1      42.690  26.309  28.643  1.00  0.00    -0.354 N 
ATOM     21  C   UNL A   1      47.065  26.604  27.276  1.00  0.00     0.074 A 
ATOM     22  C   UNL A   1      46.853  26.467  25.866  1.00  0.00     0.031 C 
ATOM     23  C   UNL A   1      40.642  25.450  28.431  1.00  0.00     0.029 A 
ATOM     24  C   UNL A   1      41.361  26.583  28.973  1.00  0.00     0.049 A 
ATOM     25  H   UNL A   1      43.447  26.834  28.990  1.00  0.00     0.167 HD
ATOM     26  C   UNL A   1      47.711  27.595  27.943  1.00  0.00     0.037 A 
ATOM     27  C   UNL A   1      40.848  27.679  29.592  1.00  0.00     0.037 A 
ATOM     28  C   UNL A   1      47.630  27.401  29.364  1.00  0.00     0.049 A 
ATOM     29  C   UNL A   1      41.955  28.343  30.314  1.00  0.00     0.074 A 
ATOM     30  C   UNL A   1      48.237  26.599  30.302  1.00  0.00     0.029 A 
ATOM     31  N   UNL A   1      46.477  27.886  29.916  1.00  0.00    -0.354 N 
ATOM     32  N   UNL A   1      42.539  27.823  31.358  1.00  0.00    -0.248 NA
ATOM     33  C   UNL A   1      42.707  29.396  29.643  1.00  0.00     0.031 C 
ATOM     34  C   UNL A   1      47.313  26.489  31.384  1.00  0.00     0.029 A 
ATOM     35  C   UNL A   1      46.191  27.265  31.099  1.00  0.00     0.049 A 
ATOM     36  H   UNL A   1      45.922  28.593  29.513  1.00  0.00     0.167 HD
ATOM     37  C   UNL A   1      43.873  28.154  31.209  1.00  0.00     0.074 A 
ATOM     38  C   UNL A   1      43.893  29.241  30.235  1.00  0.00     0.031 C 
ATOM     39  C   UNL A   1      44.857  27.321  31.656  1.00  0.00     0.037 A 
BRANCH  26  40
ATOM     40  C   UNL A   1      47.878  28.977  27.350  1.00  0.00     0.057 A 
ATOM     41  C   UNL A   1      46.811  29.862  27.069  1.00  0.00     0.134 A 
ATOM     42  C   UNL A   1      49.150  29.569  27.364  1.00  0.00     0.134 A 
ATOM     43  F   UNL A   1      45.526  29.493  27.127  1.00  0.00    -0.206 F 
ATOM     44  C   UNL A   1      46.991  31.223  26.818  1.00  0.00     0.040 A 
ATOM     45  C   UNL A   1      49.336  30.943  27.169  1.00  0.00     0.040 A 
ATOM     46  F   UNL A   1      50.240  28.841  27.648  1.00  0.00    -0.206 F 
ATOM     47  C   UNL A   1      48.255  31.775  26.898  1.00  0.00     0.006 A 
ENDBRANCH  26  40
BRANCH  27  48
ATOM     48  C   UNL A   1      39.497  28.284  29.422  1.00  0.00     0.057 A 
ATOM     49  C   UNL A   1      39.199  29.114  28.324  1.00  0.00     0.134 A 
ATOM     50  C   UNL A   1      38.517  28.247  30.427  1.00  0.00     0.134 A 
ATOM     51  F   UNL A   1      40.091  29.313  27.343  1.00  0.00    -0.206 F 
ATOM     52  C   UNL A   1      38.011  29.844  28.217  1.00  0.00     0.040 A 
ATOM     53  C   UNL A   1      37.325  28.987  30.340  1.00  0.00     0.040 A 
ATOM     54  F   UNL A   1      38.710  27.530  31.543  1.00  0.00    -0.206 F 
ATOM     55  C   UNL A   1      37.070  29.792  29.234  1.00  0.00     0.006 A 
ENDBRANCH  27  48
BRANCH  39  56
ATOM     56  C   UNL A   1      44.482  26.292  32.680  1.00  0.00     0.057 A 
ATOM     57  C   UNL A   1      44.278  24.974  32.252  1.00  0.00     0.134 A 
ATOM     58  C   UNL A   1      44.230  26.570  34.029  1.00  0.00     0.134 A 
ATOM     59  F   UNL A   1      44.458  24.648  30.962  1.00  0.00    -0.206 F 
ATOM     60  C   UNL A   1      43.843  23.973  33.121  1.00  0.00     0.040 A 
ATOM     61  C   UNL A   1      43.824  25.569  34.917  1.00  0.00     0.040 A 
ATOM     62  F   UNL A   1      44.329  27.820  34.505  1.00  0.00    -0.206 F 
ATOM     63  C   UNL A   1      43.623  24.267  34.462  1.00  0.00     0.006 A 
ENDBRANCH  39  56
ENDBRANCH  13  14
ENDBRANCH   6   8
ENDBRANCH   5   6
ENDBRANCH   4   5
ENDBRANCH   3   4
ENDBRANCH   2   3
ENDBRANCH   1   2
BRANCH   1  64
ATOM     64  C   UNL A   1      40.203  21.143  26.205  1.00  0.00     0.188 C 
BRANCH  64  65
ATOM     65  O   UNL A   1      38.852  21.514  26.008  1.00  0.00    -0.376 OA
BRANCH  65  66
ATOM     66  C   UNL A   1      38.520  22.882  26.187  1.00  0.00     0.202 C 
BRANCH  66  67
ATOM     67  C   UNL A   1      37.431  23.600  25.357  1.00  0.00     0.261 C 
BRANCH  67  68
ATOM     68  O   UNL A   1      36.174  23.952  25.938  1.00  0.00    -0.460 OA
BRANCH  68  69
ATOM     69  C   UNL A   1      35.200  23.033  25.723  1.00  0.00     0.338 C 
ATOM     70  O   UNL A   1      35.180  21.895  26.182  1.00  0.00    -0.246 OA
BRANCH  69  71
ATOM     71  C   UNL A   1      34.214  23.475  24.714  1.00  0.00     0.069 A 
ATOM     72  C   UNL A   1      34.389  23.019  23.394  1.00  0.00     0.016 A 
ATOM     73  C   UNL A   1      33.157  24.370  24.992  1.00  0.00     0.014 A 
ATOM     74  C   UNL A   1      33.505  23.390  22.386  1.00  0.00     0.003 A 
ATOM     75  C   UNL A   1      32.237  24.675  23.973  1.00  0.00     0.049 A 
ATOM     76  C   UNL A   1      32.763  25.130  26.122  1.00  0.00     0.029 A 
ATOM     77  C   UNL A   1      32.392  24.187  22.665  1.00  0.00     0.027 A 
ATOM     78  N   UNL A   1      31.255  25.462  24.549  1.00  0.00    -0.343 N 
ATOM     79  C   UNL A   1      31.698  25.914  25.765  1.00  0.00     0.087 A 
BRANCH  78  80
ATOM     80  C   UNL A   1      29.931  25.767  24.009  1.00  0.00     0.157 C 
BRANCH  80  81
ATOM     81  C   UNL A   1      29.909  27.139  23.362  1.00  0.00    -0.025 A 
ATOM     82  C   UNL A   1      31.084  27.740  22.887  1.00  0.00     0.025 A 
ATOM     83  C   UNL A   1      28.721  27.867  23.254  1.00  0.00     0.025 A 
ATOM     84  C   UNL A   1      31.034  29.032  22.388  1.00  0.00     0.111 A 
ATOM     85  C   UNL A   1      28.767  29.145  22.710  1.00  0.00     0.111 A 
ATOM     86  N   UNL A   1      29.897  29.746  22.283  1.00  0.00    -0.265 NA
ENDBRANCH  80  81
ENDBRANCH  78  80
ENDBRANCH  69  71
ENDBRANCH  68  69
ENDBRANCH  67  68
ENDBRANCH  66  67
ENDBRANCH  65  66
ENDBRANCH  64  65
ENDBRANCH   1  64
TORSDOF 19
ENDMDL
