MODEL 1
REMARK VINA RESULT:     -12.5      0.000      0.000
REMARK SMILES Cc1ccc(C(=O)NC2(CC(=O)OCCOCCOCCOC(=O)c3ccc(-c4c5nc(c(-c6c(F)cccc6F)c6ccc([nH]6)c(-c6c(F)cccc6F)c6nc(c(-c7c(F)cccc7F)c7ccc4[nH]7)C=C6)C=C5)cc3)CCC2)cc1
REMARK SMILES IDX 17 1 16 2 15 3 14 4 13 5 11 6 12 7 10 8 9 9 79 10 81 11
REMARK SMILES IDX 80 12 8 13 6 14 7 15 5 17 1 18 2 19 3 20 83 21 4 22 82 23
REMARK SMILES IDX 18 24 19 25 20 26 21 27 22 28 23 29 24 30 25 31 26 32 78 33
REMARK SMILES IDX 27 34 77 35 28 36 29 37 30 38 71 39 31 40 76 41 70 42 72 43
REMARK SMILES IDX 32 44 75 45 69 46 68 47 33 49 59 50 42 51 58 52 43 53 46 54
REMARK SMILES IDX 57 55 73 56 44 57 45 58 56 60 74 61 47 62 34 63 35 64 40 65
REMARK SMILES IDX 36 66 37 67 39 68 41 69 38 70 60 71 61 72 66 73 62 74 63 75
REMARK SMILES IDX 65 76 67 77 64 78 48 79 49 80 54 81 50 82 51 83 53 84 55 85
REMARK SMILES IDX 52 86
REMARK H PARENT 8 16 72 48 46 59
REMARK Flexibility Score: inf
ROOT
ATOM      1  C   UNL A   1      34.131  32.231  28.399  1.00  0.00     0.188 C 
ENDROOT
BRANCH   1   2
ATOM      2  O   UNL A   1      33.223  32.644  27.413  1.00  0.00    -0.376 OA
BRANCH   2   3
ATOM      3  C   UNL A   1      32.126  31.808  27.071  1.00  0.00     0.202 C 
BRANCH   3   4
ATOM      4  C   UNL A   1      32.098  30.199  26.702  1.00  0.00     0.261 C 
BRANCH   4   5
ATOM      5  O   UNL A   1      32.541  29.048  25.496  1.00  0.00    -0.463 OA
BRANCH   5   6
ATOM      6  C   UNL A   1      32.412  28.373  24.233  1.00  0.00     0.308 C 
ATOM      7  O   UNL A   1      33.226  28.239  23.303  1.00  0.00    -0.252 OA
BRANCH   6   8
ATOM      8  C   UNL A   1      31.342  27.388  24.097  1.00  0.00     0.151 C 
BRANCH   8   9
ATOM      9  C   UNL A   1      30.856  27.829  22.766  1.00  0.00     0.051 C 
ATOM     10  C   UNL A   1      30.868  29.435  22.580  1.00  0.00     0.029 C 
ATOM     11  C   UNL A   1      29.221  28.206  22.900  1.00  0.00     0.029 C 
ATOM     12  C   UNL A   1      29.648  29.526  23.553  1.00  0.00     0.005 C 
BRANCH   9  13
ATOM     13  N   UNL A   1      31.685  26.707  21.534  1.00  0.00    -0.346 N 
ATOM     14  C   UNL A   1      32.636  25.213  21.557  1.00  0.00     0.251 C 
ATOM     15  O   UNL A   1      33.277  25.175  20.495  1.00  0.00    -0.269 OA
ATOM     16  H   UNL A   1      31.561  27.036  20.614  1.00  0.00     0.164 HD
BRANCH  14  17
ATOM     17  C   UNL A   1      32.891  23.712  22.708  1.00  0.00     0.039 A 
ATOM     18  C   UNL A   1      32.959  19.448  24.784  1.00  0.00     0.044 C 
ATOM     19  C   UNL A   1      33.153  20.824  24.195  1.00  0.00    -0.051 A 
ATOM     20  C   UNL A   1      34.059  21.888  24.319  1.00  0.00     0.004 A 
ATOM     21  C   UNL A   1      32.214  21.166  23.310  1.00  0.00     0.004 A 
ATOM     22  C   UNL A   1      33.967  23.264  23.528  1.00  0.00     0.014 A 
ATOM     23  C   UNL A   1      32.106  22.527  22.814  1.00  0.00     0.014 A 
ENDBRANCH  14  17
ENDBRANCH   9  13
ENDBRANCH   8   9
ENDBRANCH   6   8
ENDBRANCH   5   6
ENDBRANCH   4   5
ENDBRANCH   3   4
ENDBRANCH   2   3
ENDBRANCH   1   2
BRANCH   1  24
ATOM     24  C   UNL A   1      34.696  33.377  29.212  1.00  0.00     0.188 C 
BRANCH  24  25
ATOM     25  O   UNL A   1      33.854  33.783  30.265  1.00  0.00    -0.376 OA
BRANCH  25  26
ATOM     26  C   UNL A   1      34.381  34.318  31.462  1.00  0.00     0.202 C 
BRANCH  26  27
ATOM     27  C   UNL A   1      35.671  33.560  31.605  1.00  0.00     0.261 C 
BRANCH  27  28
ATOM     28  O   UNL A   1      35.288  32.322  32.321  1.00  0.00    -0.460 OA
BRANCH  28  29
ATOM     29  C   UNL A   1      36.317  31.631  32.930  1.00  0.00     0.338 C 
ATOM     30  O   UNL A   1      36.934  32.071  33.866  1.00  0.00    -0.246 OA
BRANCH  29  31
ATOM     31  C   UNL A   1      36.761  30.333  32.157  1.00  0.00     0.060 A 
ATOM     32  C   UNL A   1      37.850  29.688  32.685  1.00  0.00     0.016 A 
ATOM     33  C   UNL A   1      36.491  29.849  30.862  1.00  0.00     0.016 A 
ATOM     34  C   UNL A   1      38.674  28.772  31.875  1.00  0.00     0.010 A 
ATOM     35  C   UNL A   1      37.421  28.895  30.071  1.00  0.00     0.010 A 
ATOM     36  C   UNL A   1      38.680  28.424  30.529  1.00  0.00    -0.014 A 
BRANCH  36  37
ATOM     37  C   UNL A   1      40.086  27.843  29.648  1.00  0.00     0.031 A 
ATOM     38  C   UNL A   1      40.902  28.955  29.066  1.00  0.00     0.074 A 
ATOM     39  C   UNL A   1      40.696  26.793  28.835  1.00  0.00     0.049 A 
ATOM     40  N   UNL A   1      41.955  28.790  28.313  1.00  0.00    -0.248 NA
ATOM     41  C   UNL A   1      40.678  30.358  29.387  1.00  0.00     0.031 C 
ATOM     42  C   UNL A   1      41.885  26.063  29.388  1.00  0.00     0.029 A 
ATOM     43  N   UNL A   1      40.405  25.815  27.848  1.00  0.00    -0.354 N 
ATOM     44  C   UNL A   1      42.794  29.720  28.838  1.00  0.00     0.074 A 
ATOM     45  C   UNL A   1      41.900  30.827  29.103  1.00  0.00     0.031 C 
ATOM     46  C   UNL A   1      42.042  24.813  28.868  1.00  0.00     0.029 A 
ATOM     47  C   UNL A   1      40.971  24.522  27.914  1.00  0.00     0.049 A 
ATOM     48  H   UNL A   1      39.799  26.041  27.105  1.00  0.00     0.167 HD
ATOM     49  C   UNL A   1      43.930  29.263  29.456  1.00  0.00     0.037 A 
ATOM     50  C   UNL A   1      40.905  23.445  27.034  1.00  0.00     0.037 A 
ATOM     51  C   UNL A   1      44.386  27.890  29.058  1.00  0.00     0.049 A 
ATOM     52  C   UNL A   1      42.103  23.654  26.181  1.00  0.00     0.074 A 
ATOM     53  C   UNL A   1      44.975  26.822  29.733  1.00  0.00     0.029 A 
ATOM     54  N   UNL A   1      44.125  27.369  27.776  1.00  0.00    -0.354 N 
ATOM     55  N   UNL A   1      42.796  24.724  26.411  1.00  0.00    -0.248 NA
ATOM     56  C   UNL A   1      42.669  22.861  25.102  1.00  0.00     0.031 C 
ATOM     57  C   UNL A   1      45.186  25.743  28.821  1.00  0.00     0.029 A 
ATOM     58  C   UNL A   1      44.746  26.141  27.571  1.00  0.00     0.049 A 
ATOM     59  H   UNL A   1      43.568  27.822  27.102  1.00  0.00     0.167 HD
ATOM     60  C   UNL A   1      43.968  24.665  25.791  1.00  0.00     0.074 A 
ATOM     61  C   UNL A   1      43.769  23.599  24.817  1.00  0.00     0.031 C 
ATOM     62  C   UNL A   1      44.903  25.547  26.229  1.00  0.00     0.037 A 
BRANCH  49  63
ATOM     63  C   UNL A   1      44.552  30.044  30.616  1.00  0.00     0.057 A 
ATOM     64  C   UNL A   1      43.944  30.046  31.883  1.00  0.00     0.134 A 
ATOM     65  C   UNL A   1      45.718  30.847  30.552  1.00  0.00     0.134 A 
ATOM     66  F   UNL A   1      42.796  29.399  32.114  1.00  0.00    -0.206 F 
ATOM     67  C   UNL A   1      44.485  30.716  32.991  1.00  0.00     0.040 A 
ATOM     68  C   UNL A   1      46.321  31.435  31.670  1.00  0.00     0.040 A 
ATOM     69  F   UNL A   1      46.312  31.184  29.403  1.00  0.00    -0.206 F 
ATOM     70  C   UNL A   1      45.704  31.370  32.901  1.00  0.00     0.006 A 
ENDBRANCH  49  63
BRANCH  50  71
ATOM     71  C   UNL A   1      39.677  22.674  26.570  1.00  0.00     0.057 A 
ATOM     72  C   UNL A   1      38.488  23.341  26.186  1.00  0.00     0.134 A 
ATOM     73  C   UNL A   1      39.676  21.306  26.282  1.00  0.00     0.134 A 
ATOM     74  F   UNL A   1      38.290  24.625  26.529  1.00  0.00    -0.206 F 
ATOM     75  C   UNL A   1      37.508  22.759  25.343  1.00  0.00     0.040 A 
ATOM     76  C   UNL A   1      38.702  20.704  25.450  1.00  0.00     0.040 A 
ATOM     77  F   UNL A   1      40.669  20.528  26.733  1.00  0.00    -0.206 F 
ATOM     78  C   UNL A   1      37.647  21.446  24.926  1.00  0.00     0.006 A 
ENDBRANCH  50  71
BRANCH  62  79
ATOM     79  C   UNL A   1      46.053  25.962  25.410  1.00  0.00     0.057 A 
ATOM     80  C   UNL A   1      46.231  27.235  24.883  1.00  0.00     0.134 A 
ATOM     81  C   UNL A   1      47.103  25.044  25.222  1.00  0.00     0.134 A 
ATOM     82  F   UNL A   1      45.232  28.126  24.833  1.00  0.00    -0.206 F 
ATOM     83  C   UNL A   1      47.461  27.629  24.366  1.00  0.00     0.040 A 
ATOM     84  C   UNL A   1      48.309  25.405  24.656  1.00  0.00     0.040 A 
ATOM     85  F   UNL A   1      47.033  23.766  25.617  1.00  0.00    -0.206 F 
ATOM     86  C   UNL A   1      48.509  26.718  24.273  1.00  0.00     0.006 A 
ENDBRANCH  62  79
ENDBRANCH  36  37
ENDBRANCH  29  31
ENDBRANCH  28  29
ENDBRANCH  27  28
ENDBRANCH  26  27
ENDBRANCH  25  26
ENDBRANCH  24  25
ENDBRANCH   1  24
TORSDOF 20
ENDMDL
MODEL 2
REMARK VINA RESULT:     -11.9      3.256      8.548
REMARK SMILES Cc1ccc(C(=O)NC2(CC(=O)OCCOCCOCCOC(=O)c3ccc(-c4c5nc(c(-c6c(F)cccc6F)c6ccc([nH]6)c(-c6c(F)cccc6F)c6nc(c(-c7c(F)cccc7F)c7ccc4[nH]7)C=C6)C=C5)cc3)CCC2)cc1
REMARK SMILES IDX 17 1 16 2 15 3 14 4 13 5 11 6 12 7 10 8 9 9 79 10 81 11
REMARK SMILES IDX 80 12 8 13 6 14 7 15 5 17 1 18 2 19 3 20 83 21 4 22 82 23
REMARK SMILES IDX 18 24 19 25 20 26 21 27 22 28 23 29 24 30 25 31 26 32 78 33
REMARK SMILES IDX 27 34 77 35 28 36 29 37 30 38 71 39 31 40 76 41 70 42 72 43
REMARK SMILES IDX 32 44 75 45 69 46 68 47 33 49 59 50 42 51 58 52 43 53 46 54
REMARK SMILES IDX 57 55 73 56 44 57 45 58 56 60 74 61 47 62 34 63 35 64 40 65
REMARK SMILES IDX 36 66 37 67 39 68 41 69 38 70 60 71 61 72 66 73 62 74 63 75
REMARK SMILES IDX 65 76 67 77 64 78 48 79 49 80 54 81 50 82 51 83 53 84 55 85
REMARK SMILES IDX 52 86
REMARK H PARENT 8 16 72 48 46 59
REMARK Flexibility Score: inf
ROOT
ATOM      1  C   UNL A   1      34.819  24.149  25.480  1.00  0.00     0.188 C 
ENDROOT
BRANCH   1   2
ATOM      2  O   UNL A   1      34.112  22.938  25.474  1.00  0.00    -0.376 OA
BRANCH   2   3
ATOM      3  C   UNL A   1      32.797  22.893  24.938  1.00  0.00     0.202 C 
BRANCH   3   4
ATOM      4  C   UNL A   1      31.894  24.091  24.248  1.00  0.00     0.261 C 
BRANCH   4   5
ATOM      5  O   UNL A   1      31.999  25.542  23.320  1.00  0.00    -0.463 OA
BRANCH   5   6
ATOM      6  C   UNL A   1      31.740  26.927  23.039  1.00  0.00     0.308 C 
ATOM      7  O   UNL A   1      32.510  27.903  23.012  1.00  0.00    -0.252 OA
BRANCH   6   8
ATOM      8  C   UNL A   1      30.502  27.258  22.337  1.00  0.00     0.151 C 
BRANCH   8   9
ATOM      9  C   UNL A   1      29.887  28.064  23.421  1.00  0.00     0.051 C 
ATOM     10  C   UNL A   1      28.337  28.435  23.141  1.00  0.00     0.029 C 
ATOM     11  C   UNL A   1      29.991  29.689  22.995  1.00  0.00     0.029 C 
ATOM     12  C   UNL A   1      28.810  29.447  22.047  1.00  0.00     0.005 C 
BRANCH   9  13
ATOM     13  N   UNL A   1      30.413  27.250  25.009  1.00  0.00    -0.346 N 
ATOM     14  C   UNL A   1      31.628  27.507  26.272  1.00  0.00     0.251 C 
ATOM     15  O   UNL A   1      31.791  26.418  26.845  1.00  0.00    -0.269 OA
ATOM     16  H   UNL A   1      29.863  26.456  25.201  1.00  0.00     0.164 HD
BRANCH  14  17
ATOM     17  C   UNL A   1      32.670  28.948  26.966  1.00  0.00     0.039 A 
ATOM     18  C   UNL A   1      36.078  32.025  28.153  1.00  0.00     0.044 C 
ATOM     19  C   UNL A   1      34.860  31.229  27.751  1.00  0.00    -0.051 A 
ATOM     20  C   UNL A   1      33.478  31.435  27.636  1.00  0.00     0.004 A 
ATOM     21  C   UNL A   1      35.133  29.967  27.411  1.00  0.00     0.004 A 
ATOM     22  C   UNL A   1      32.425  30.336  27.174  1.00  0.00     0.014 A 
ATOM     23  C   UNL A   1      34.072  28.994  27.217  1.00  0.00     0.014 A 
ENDBRANCH  14  17
ENDBRANCH   9  13
ENDBRANCH   8   9
ENDBRANCH   6   8
ENDBRANCH   5   6
ENDBRANCH   4   5
ENDBRANCH   3   4
ENDBRANCH   2   3
ENDBRANCH   1   2
BRANCH   1  24
ATOM     24  C   UNL A   1      36.294  23.984  25.178  1.00  0.00     0.188 C 
BRANCH  24  25
ATOM     25  O   UNL A   1      36.988  23.257  26.164  1.00  0.00    -0.376 OA
BRANCH  25  26
ATOM     26  C   UNL A   1      38.394  23.124  26.126  1.00  0.00     0.202 C 
BRANCH  26  27
ATOM     27  C   UNL A   1      38.563  21.699  25.678  1.00  0.00     0.261 C 
BRANCH  27  28
ATOM     28  O   UNL A   1      39.420  21.090  26.721  1.00  0.00    -0.460 OA
BRANCH  28  29
ATOM     29  C   UNL A   1      40.610  20.541  26.283  1.00  0.00     0.338 C 
ATOM     30  O   UNL A   1      40.704  19.399  25.913  1.00  0.00    -0.246 OA
BRANCH  29  31
ATOM     31  C   UNL A   1      41.865  21.460  26.526  1.00  0.00     0.060 A 
ATOM     32  C   UNL A   1      41.845  22.170  27.700  1.00  0.00     0.016 A 
ATOM     33  C   UNL A   1      42.864  21.965  25.671  1.00  0.00     0.016 A 
ATOM     34  C   UNL A   1      42.655  23.388  27.881  1.00  0.00     0.010 A 
ATOM     35  C   UNL A   1      43.663  23.267  25.930  1.00  0.00     0.010 A 
ATOM     36  C   UNL A   1      43.461  24.138  27.032  1.00  0.00    -0.014 A 
BRANCH  36  37
ATOM     37  C   UNL A   1      43.810  25.849  27.231  1.00  0.00     0.031 A 
ATOM     38  C   UNL A   1      42.745  26.727  26.651  1.00  0.00     0.074 A 
ATOM     39  C   UNL A   1      44.811  26.910  27.335  1.00  0.00     0.049 A 
ATOM     40  N   UNL A   1      42.795  28.030  26.609  1.00  0.00    -0.248 NA
ATOM     41  C   UNL A   1      41.464  26.217  26.181  1.00  0.00     0.031 C 
ATOM     42  C   UNL A   1      44.902  27.682  28.618  1.00  0.00     0.029 A 
ATOM     43  N   UNL A   1      46.093  27.303  26.868  1.00  0.00    -0.354 N 
ATOM     44  C   UNL A   1      41.529  28.349  26.981  1.00  0.00     0.074 A 
ATOM     45  C   UNL A   1      40.745  27.342  26.299  1.00  0.00     0.031 C 
ATOM     46  C   UNL A   1      46.132  28.227  28.835  1.00  0.00     0.029 A 
ATOM     47  C   UNL A   1      47.042  27.878  27.743  1.00  0.00     0.049 A 
ATOM     48  H   UNL A   1      46.324  27.174  25.920  1.00  0.00     0.167 HD
ATOM     49  C   UNL A   1      41.372  29.012  28.171  1.00  0.00     0.037 A 
ATOM     50  C   UNL A   1      48.305  28.413  27.504  1.00  0.00     0.037 A 
ATOM     51  C   UNL A   1      42.577  29.755  28.671  1.00  0.00     0.049 A 
ATOM     52  C   UNL A   1      48.008  29.851  27.283  1.00  0.00     0.074 A 
ATOM     53  C   UNL A   1      43.123  29.996  29.931  1.00  0.00     0.029 A 
ATOM     54  N   UNL A   1      43.537  30.283  27.786  1.00  0.00    -0.354 N 
ATOM     55  N   UNL A   1      46.759  30.192  27.299  1.00  0.00    -0.248 NA
ATOM     56  C   UNL A   1      48.880  30.991  27.046  1.00  0.00     0.031 C 
ATOM     57  C   UNL A   1      44.309  30.779  29.792  1.00  0.00     0.029 A 
ATOM     58  C   UNL A   1      44.497  31.043  28.447  1.00  0.00     0.049 A 
ATOM     59  H   UNL A   1      43.529  30.134  26.813  1.00  0.00     0.167 HD
ATOM     60  C   UNL A   1      46.634  31.512  27.366  1.00  0.00     0.074 A 
ATOM     61  C   UNL A   1      47.961  31.985  26.990  1.00  0.00     0.031 C 
ATOM     62  C   UNL A   1      45.407  31.962  27.735  1.00  0.00     0.037 A 
BRANCH  49  63
ATOM     63  C   UNL A   1      40.104  28.823  29.006  1.00  0.00     0.057 A 
ATOM     64  C   UNL A   1      40.130  28.049  30.179  1.00  0.00     0.134 A 
ATOM     65  C   UNL A   1      38.818  29.333  28.700  1.00  0.00     0.134 A 
ATOM     66  F   UNL A   1      41.244  27.430  30.590  1.00  0.00    -0.206 F 
ATOM     67  C   UNL A   1      39.008  27.867  31.002  1.00  0.00     0.040 A 
ATOM     68  C   UNL A   1      37.719  29.244  29.561  1.00  0.00     0.040 A 
ATOM     69  F   UNL A   1      38.511  29.883  27.520  1.00  0.00    -0.206 F 
ATOM     70  C   UNL A   1      37.811  28.508  30.723  1.00  0.00     0.006 A 
ENDBRANCH  49  63
BRANCH  50  71
ATOM     71  C   UNL A   1      49.536  27.719  26.936  1.00  0.00     0.057 A 
ATOM     72  C   UNL A   1      50.673  27.460  27.739  1.00  0.00     0.134 A 
ATOM     73  C   UNL A   1      49.575  27.101  25.683  1.00  0.00     0.134 A 
ATOM     74  F   UNL A   1      50.839  28.102  28.907  1.00  0.00    -0.206 F 
ATOM     75  C   UNL A   1      51.627  26.457  27.434  1.00  0.00     0.040 A 
ATOM     76  C   UNL A   1      50.524  26.104  25.355  1.00  0.00     0.040 A 
ATOM     77  F   UNL A   1      48.640  27.389  24.767  1.00  0.00    -0.206 F 
ATOM     78  C   UNL A   1      51.518  25.735  26.258  1.00  0.00     0.006 A 
ENDBRANCH  50  71
BRANCH  62  79
ATOM     79  C   UNL A   1      44.932  33.320  27.428  1.00  0.00     0.057 A 
ATOM     80  C   UNL A   1      44.384  33.711  26.212  1.00  0.00     0.134 A 
ATOM     81  C   UNL A   1      44.932  34.276  28.460  1.00  0.00     0.134 A 
ATOM     82  F   UNL A   1      44.502  32.959  25.109  1.00  0.00    -0.206 F 
ATOM     83  C   UNL A   1      43.705  34.919  26.089  1.00  0.00     0.040 A 
ATOM     84  C   UNL A   1      44.313  35.503  28.333  1.00  0.00     0.040 A 
ATOM     85  F   UNL A   1      45.490  34.054  29.657  1.00  0.00    -0.206 F 
ATOM     86  C   UNL A   1      43.651  35.807  27.159  1.00  0.00     0.006 A 
ENDBRANCH  62  79
ENDBRANCH  36  37
ENDBRANCH  29  31
ENDBRANCH  28  29
ENDBRANCH  27  28
ENDBRANCH  26  27
ENDBRANCH  25  26
ENDBRANCH  24  25
ENDBRANCH   1  24
TORSDOF 20
ENDMDL
MODEL 3
REMARK VINA RESULT:     -11.9      4.488      8.645
REMARK SMILES Cc1ccc(C(=O)NC2(CC(=O)OCCOCCOCCOC(=O)c3ccc(-c4c5nc(c(-c6c(F)cccc6F)c6ccc([nH]6)c(-c6c(F)cccc6F)c6nc(c(-c7c(F)cccc7F)c7ccc4[nH]7)C=C6)C=C5)cc3)CCC2)cc1
REMARK SMILES IDX 17 1 16 2 15 3 14 4 13 5 11 6 12 7 10 8 9 9 79 10 81 11
REMARK SMILES IDX 80 12 8 13 6 14 7 15 5 17 1 18 2 19 3 20 83 21 4 22 82 23
REMARK SMILES IDX 18 24 19 25 20 26 21 27 22 28 23 29 24 30 25 31 26 32 78 33
REMARK SMILES IDX 27 34 77 35 28 36 29 37 30 38 71 39 31 40 76 41 70 42 72 43
REMARK SMILES IDX 32 44 75 45 69 46 68 47 33 49 59 50 42 51 58 52 43 53 46 54
REMARK SMILES IDX 57 55 73 56 44 57 45 58 56 60 74 61 47 62 34 63 35 64 40 65
REMARK SMILES IDX 36 66 37 67 39 68 41 69 38 70 60 71 61 72 66 73 62 74 63 75
REMARK SMILES IDX 65 76 67 77 64 78 48 79 49 80 54 81 50 82 51 83 53 84 55 85
REMARK SMILES IDX 52 86
REMARK H PARENT 8 16 72 48 46 59
REMARK Flexibility Score: inf
ROOT
ATOM      1  C   UNL A   1      34.307  32.629  28.258  1.00  0.00     0.188 C 
ENDROOT
BRANCH   1   2
ATOM      2  O   UNL A   1      35.119  31.519  28.535  1.00  0.00    -0.376 OA
BRANCH   2   3
ATOM      3  C   UNL A   1      35.072  30.381  27.685  1.00  0.00     0.202 C 
BRANCH   3   4
ATOM      4  C   UNL A   1      33.818  29.778  26.796  1.00  0.00     0.261 C 
BRANCH   4   5
ATOM      5  O   UNL A   1      33.056  28.313  26.294  1.00  0.00    -0.463 OA
BRANCH   5   6
ATOM      6  C   UNL A   1      31.993  27.347  26.257  1.00  0.00     0.308 C 
ATOM      7  O   UNL A   1      31.336  26.835  27.181  1.00  0.00    -0.252 OA
BRANCH   6   8
ATOM      8  C   UNL A   1      31.291  27.157  24.991  1.00  0.00     0.151 C 
BRANCH   8   9
ATOM      9  C   UNL A   1      31.950  25.885  24.605  1.00  0.00     0.051 C 
ATOM     10  C   UNL A   1      33.564  25.990  24.555  1.00  0.00     0.029 C 
ATOM     11  C   UNL A   1      32.244  25.924  22.948  1.00  0.00     0.029 C 
ATOM     12  C   UNL A   1      33.437  26.840  23.249  1.00  0.00     0.005 C 
BRANCH   9  13
ATOM     13  N   UNL A   1      31.098  24.561  25.596  1.00  0.00    -0.346 N 
ATOM     14  C   UNL A   1      31.180  22.800  25.771  1.00  0.00     0.251 C 
ATOM     15  O   UNL A   1      30.094  22.433  26.245  1.00  0.00    -0.269 OA
ATOM     16  H   UNL A   1      30.412  24.945  26.188  1.00  0.00     0.164 HD
BRANCH  14  17
ATOM     17  C   UNL A   1      32.445  21.402  25.472  1.00  0.00     0.039 A 
ATOM     18  C   UNL A   1      34.776  17.501  24.112  1.00  0.00     0.044 C 
ATOM     19  C   UNL A   1      34.233  18.851  24.515  1.00  0.00    -0.051 A 
ATOM     20  C   UNL A   1      34.739  20.103  24.893  1.00  0.00     0.004 A 
ATOM     21  C   UNL A   1      32.899  18.906  24.540  1.00  0.00     0.004 A 
ATOM     22  C   UNL A   1      33.856  21.368  25.281  1.00  0.00     0.014 A 
ATOM     23  C   UNL A   1      32.203  20.042  25.119  1.00  0.00     0.014 A 
ENDBRANCH  14  17
ENDBRANCH   9  13
ENDBRANCH   8   9
ENDBRANCH   6   8
ENDBRANCH   5   6
ENDBRANCH   4   5
ENDBRANCH   3   4
ENDBRANCH   2   3
ENDBRANCH   1   2
BRANCH   1  24
ATOM     24  C   UNL A   1      34.345  33.685  29.342  1.00  0.00     0.188 C 
BRANCH  24  25
ATOM     25  O   UNL A   1      33.285  34.607  29.261  1.00  0.00    -0.376 OA
BRANCH  25  26
ATOM     26  C   UNL A   1      33.499  35.992  29.446  1.00  0.00     0.202 C 
BRANCH  26  27
ATOM     27  C   UNL A   1      32.773  36.253  30.736  1.00  0.00     0.261 C 
BRANCH  27  28
ATOM     28  O   UNL A   1      33.833  36.187  31.769  1.00  0.00    -0.460 OA
BRANCH  28  29
ATOM     29  C   UNL A   1      33.809  35.078  32.591  1.00  0.00     0.338 C 
ATOM     30  O   UNL A   1      32.795  34.487  32.861  1.00  0.00    -0.246 OA
BRANCH  29  31
ATOM     31  C   UNL A   1      35.176  34.794  33.321  1.00  0.00     0.060 A 
ATOM     32  C   UNL A   1      36.255  34.640  32.489  1.00  0.00     0.016 A 
ATOM     33  C   UNL A   1      35.495  34.350  34.619  1.00  0.00     0.016 A 
ATOM     34  C   UNL A   1      37.472  33.930  32.924  1.00  0.00     0.010 A 
ATOM     35  C   UNL A   1      36.796  33.595  34.990  1.00  0.00     0.010 A 
ATOM     36  C   UNL A   1      37.807  33.215  34.069  1.00  0.00    -0.014 A 
BRANCH  36  37
ATOM     37  C   UNL A   1      39.011  31.937  34.138  1.00  0.00     0.031 A 
ATOM     38  C   UNL A   1      38.451  30.595  33.784  1.00  0.00     0.074 A 
ATOM     39  C   UNL A   1      40.233  31.413  34.745  1.00  0.00     0.049 A 
ATOM     40  N   UNL A   1      39.119  29.475  33.823  1.00  0.00    -0.248 NA
ATOM     41  C   UNL A   1      37.117  30.412  33.229  1.00  0.00     0.031 C 
ATOM     42  C   UNL A   1      41.449  31.254  33.881  1.00  0.00     0.029 A 
ATOM     43  N   UNL A   1      40.949  31.349  35.970  1.00  0.00    -0.354 N 
ATOM     44  C   UNL A   1      38.719  28.896  32.662  1.00  0.00     0.074 A 
ATOM     45  C   UNL A   1      37.313  29.236  32.617  1.00  0.00     0.031 C 
ATOM     46  C   UNL A   1      42.618  31.295  34.580  1.00  0.00     0.029 A 
ATOM     47  C   UNL A   1      42.353  31.510  36.003  1.00  0.00     0.049 A 
ATOM     48  H   UNL A   1      40.460  31.191  36.810  1.00  0.00     0.167 HD
ATOM     49  C   UNL A   1      39.671  28.710  31.692  1.00  0.00     0.037 A 
ATOM     50  C   UNL A   1      43.265  31.403  37.049  1.00  0.00     0.037 A 
ATOM     51  C   UNL A   1      41.093  28.677  32.168  1.00  0.00     0.049 A 
ATOM     52  C   UNL A   1      43.680  29.979  36.968  1.00  0.00     0.074 A 
ATOM     53  C   UNL A   1      42.308  29.126  31.650  1.00  0.00     0.029 A 
ATOM     54  N   UNL A   1      41.428  28.230  33.461  1.00  0.00    -0.354 N 
ATOM     55  N   UNL A   1      43.088  29.255  36.072  1.00  0.00    -0.248 NA
ATOM     56  C   UNL A   1      44.658  29.216  37.726  1.00  0.00     0.031 C 
ATOM     57  C   UNL A   1      43.358  28.815  32.566  1.00  0.00     0.029 A 
ATOM     58  C   UNL A   1      42.805  28.156  33.650  1.00  0.00     0.049 A 
ATOM     59  H   UNL A   1      40.766  27.996  34.150  1.00  0.00     0.167 HD
ATOM     60  C   UNL A   1      43.722  28.100  35.911  1.00  0.00     0.074 A 
ATOM     61  C   UNL A   1      44.560  28.018  37.100  1.00  0.00     0.031 C 
ATOM     62  C   UNL A   1      43.411  27.420  34.777  1.00  0.00     0.037 A 
BRANCH  49  63
ATOM     63  C   UNL A   1      39.287  28.738  30.211  1.00  0.00     0.057 A 
ATOM     64  C   UNL A   1      38.985  29.954  29.575  1.00  0.00     0.134 A 
ATOM     65  C   UNL A   1      39.154  27.613  29.361  1.00  0.00     0.134 A 
ATOM     66  F   UNL A   1      38.990  31.117  30.239  1.00  0.00    -0.206 F 
ATOM     67  C   UNL A   1      38.659  30.046  28.213  1.00  0.00     0.040 A 
ATOM     68  C   UNL A   1      38.931  27.700  27.982  1.00  0.00     0.040 A 
ATOM     69  F   UNL A   1      39.153  26.352  29.809  1.00  0.00    -0.206 F 
ATOM     70  C   UNL A   1      38.682  28.924  27.399  1.00  0.00     0.006 A 
ENDBRANCH  49  63
BRANCH  50  71
ATOM     71  C   UNL A   1      43.335  32.220  38.332  1.00  0.00     0.057 A 
ATOM     72  C   UNL A   1      44.560  32.757  38.798  1.00  0.00     0.134 A 
ATOM     73  C   UNL A   1      42.214  32.686  39.025  1.00  0.00     0.134 A 
ATOM     74  F   UNL A   1      45.729  32.293  38.324  1.00  0.00    -0.206 F 
ATOM     75  C   UNL A   1      44.638  33.861  39.683  1.00  0.00     0.040 A 
ATOM     76  C   UNL A   1      42.271  33.781  39.918  1.00  0.00     0.040 A 
ATOM     77  F   UNL A   1      41.012  32.141  38.790  1.00  0.00    -0.206 F 
ATOM     78  C   UNL A   1      43.479  34.413  40.202  1.00  0.00     0.006 A 
ENDBRANCH  50  71
BRANCH  62  79
ATOM     79  C   UNL A   1      43.623  25.971  34.634  1.00  0.00     0.057 A 
ATOM     80  C   UNL A   1      42.813  24.993  35.199  1.00  0.00     0.134 A 
ATOM     81  C   UNL A   1      44.656  25.529  33.787  1.00  0.00     0.134 A 
ATOM     82  F   UNL A   1      41.928  25.278  36.163  1.00  0.00    -0.206 F 
ATOM     83  C   UNL A   1      42.907  23.666  34.792  1.00  0.00     0.040 A 
ATOM     84  C   UNL A   1      44.798  24.206  33.421  1.00  0.00     0.040 A 
ATOM     85  F   UNL A   1      45.549  26.359  33.234  1.00  0.00    -0.206 F 
ATOM     86  C   UNL A   1      43.887  23.275  33.885  1.00  0.00     0.006 A 
ENDBRANCH  62  79
ENDBRANCH  36  37
ENDBRANCH  29  31
ENDBRANCH  28  29
ENDBRANCH  27  28
ENDBRANCH  26  27
ENDBRANCH  25  26
ENDBRANCH  24  25
ENDBRANCH   1  24
TORSDOF 20
ENDMDL
