MODEL 1
REMARK VINA RESULT:     -11.6      0.000      0.000
REMARK SMILES COC(=O)c1c(NC(=O)[C@@H]2[C@@H](C(=O)OCCOCCOCCOC(=O)c3ccc(-c4c5nc(c(-c6c(F)cccc6F)c6ccc([nH]6)c(-c6c(F)cccc6F)c6nc(c(-c7c(F)cccc7F)c7ccc4[nH]7)C=C6)C=C5)cc3)[C@H]3C=C[C@@H]2CC3)sc(C)c1C
REMARK SMILES IDX 18 1 17 2 16 3 15 4 14 5 12 6 13 7 11 8 10 9 83 10 80 11
REMARK SMILES IDX 82 12 84 13 81 14 85 15 8 16 7 17 9 19 6 20 5 21 89 22 86 23
REMARK SMILES IDX 87 24 90 25 88 26 3 27 4 28 2 29 1 30 19 31 20 32 21 33
REMARK SMILES IDX 22 34 23 35 24 36 25 37 26 38 27 39 79 40 28 41 78 42 29 43
REMARK SMILES IDX 30 44 31 45 72 46 32 47 77 48 71 49 73 50 33 51 76 52 70 53
REMARK SMILES IDX 69 54 34 56 60 57 43 58 59 59 44 60 47 61 58 62 74 63 45 64
REMARK SMILES IDX 46 65 57 67 75 68 48 69 35 70 36 71 41 72 37 73 38 74 40 75
REMARK SMILES IDX 42 76 39 77 61 78 62 79 67 80 63 81 64 82 66 83 68 84 65 85
REMARK SMILES IDX 49 86 50 87 55 88 51 89 52 90 54 91 56 92 53 93
REMARK H PARENT 7 18 73 55 47 66
REMARK Flexibility Score: inf
ROOT
ATOM      1  C   UNL A   1      39.243  21.856  26.169  1.00  0.00     0.188 C 
ENDROOT
BRANCH   1   2
ATOM      2  O   UNL A   1      38.943  23.152  26.673  1.00  0.00    -0.376 OA
BRANCH   2   3
ATOM      3  C   UNL A   1      37.671  23.716  26.381  1.00  0.00     0.202 C 
BRANCH   3   4
ATOM      4  C   UNL A   1      37.237  23.687  24.916  1.00  0.00     0.261 C 
BRANCH   4   5
ATOM      5  O   UNL A   1      35.805  23.729  24.689  1.00  0.00    -0.463 OA
BRANCH   5   6
ATOM      6  C   UNL A   1      35.328  23.001  23.645  1.00  0.00     0.310 C 
ATOM      7  O   UNL A   1      35.522  23.303  22.471  1.00  0.00    -0.252 OA
BRANCH   6   8
ATOM      8  C   UNL A   1      34.426  21.824  24.019  1.00  0.00     0.119 C 
ATOM      9  C   UNL A   1      33.001  22.377  24.329  1.00  0.00     0.100 C 
ATOM     10  C   UNL A   1      32.370  21.544  25.485  1.00  0.00     0.025 C 
ATOM     11  C   UNL A   1      34.849  20.856  25.162  1.00  0.00     0.026 C 
ATOM     12  C   UNL A   1      33.251  21.800  26.693  1.00  0.00    -0.027 C 
ATOM     13  C   UNL A   1      32.456  20.036  25.161  1.00  0.00     0.009 C 
ATOM     14  C   UNL A   1      34.540  21.469  26.516  1.00  0.00    -0.027 C 
ATOM     15  C   UNL A   1      33.933  19.606  25.052  1.00  0.00     0.009 C 
BRANCH   9  16
ATOM     16  C   UNL A   1      32.111  22.443  23.092  1.00  0.00     0.229 C 
ATOM     17  N   UNL A   1      31.596  23.633  22.648  1.00  0.00    -0.317 N 
ATOM     18  H   UNL A   1      31.067  23.594  21.819  1.00  0.00     0.170 HD
ATOM     19  O   UNL A   1      31.758  21.418  22.503  1.00  0.00    -0.274 OA
BRANCH  17  20
ATOM     20  C   UNL A   1      31.731  24.875  23.221  1.00  0.00     0.110 A 
ATOM     21  C   UNL A   1      32.569  25.961  23.061  1.00  0.00     0.098 A 
ATOM     22  C   UNL A   1      32.639  26.695  24.313  1.00  0.00    -0.021 A 
ATOM     23  S   UNL A   1      30.612  25.119  24.475  1.00  0.00    -0.122 S 
ATOM     24  C   UNL A   1      31.575  26.364  25.141  1.00  0.00     0.007 A 
ATOM     25  C   UNL A   1      33.718  27.676  24.658  1.00  0.00     0.046 C 
ATOM     26  C   UNL A   1      31.216  26.933  26.473  1.00  0.00     0.057 C 
BRANCH  21  27
ATOM     27  C   UNL A   1      33.323  26.273  21.849  1.00  0.00     0.341 C 
ATOM     28  O   UNL A   1      33.886  27.342  21.654  1.00  0.00    -0.246 OA
BRANCH  27  29
ATOM     29  O   UNL A   1      33.303  25.239  20.955  1.00  0.00    -0.465 OA
ATOM     30  C   UNL A   1      32.597  25.515  19.749  1.00  0.00     0.282 C 
ENDBRANCH  27  29
ENDBRANCH  21  27
ENDBRANCH  17  20
ENDBRANCH   9  16
ENDBRANCH   6   8
ENDBRANCH   5   6
ENDBRANCH   4   5
ENDBRANCH   3   4
ENDBRANCH   2   3
ENDBRANCH   1   2
BRANCH   1  31
ATOM     31  C   UNL A   1      40.523  21.183  26.670  1.00  0.00     0.188 C 
BRANCH  31  32
ATOM     32  O   UNL A   1      41.504  21.022  25.662  1.00  0.00    -0.376 OA
BRANCH  32  33
ATOM     33  C   UNL A   1      42.714  20.405  26.066  1.00  0.00     0.202 C 
BRANCH  33  34
ATOM     34  C   UNL A   1      43.927  21.243  25.659  1.00  0.00     0.261 C 
BRANCH  34  35
ATOM     35  O   UNL A   1      44.028  22.501  26.351  1.00  0.00    -0.460 OA
BRANCH  35  36
ATOM     36  C   UNL A   1      43.934  23.626  25.603  1.00  0.00     0.338 C 
ATOM     37  O   UNL A   1      44.147  23.738  24.411  1.00  0.00    -0.246 OA
BRANCH  36  38
ATOM     38  C   UNL A   1      43.279  24.659  26.440  1.00  0.00     0.060 A 
ATOM     39  C   UNL A   1      43.738  25.981  26.367  1.00  0.00     0.016 A 
ATOM     40  C   UNL A   1      42.195  24.330  27.257  1.00  0.00     0.016 A 
ATOM     41  C   UNL A   1      43.132  26.974  27.141  1.00  0.00     0.010 A 
ATOM     42  C   UNL A   1      41.604  25.317  28.045  1.00  0.00     0.010 A 
ATOM     43  C   UNL A   1      42.091  26.634  28.015  1.00  0.00    -0.014 A 
BRANCH  43  44
ATOM     44  C   UNL A   1      41.665  27.578  29.075  1.00  0.00     0.031 A 
ATOM     45  C   UNL A   1      42.393  27.524  30.390  1.00  0.00     0.074 A 
ATOM     46  C   UNL A   1      40.643  28.432  28.901  1.00  0.00     0.049 A 
ATOM     47  N   UNL A   1      42.145  28.157  31.506  1.00  0.00    -0.248 NA
ATOM     48  C   UNL A   1      43.558  26.623  30.451  1.00  0.00     0.031 C 
ATOM     49  C   UNL A   1      39.881  28.608  27.668  1.00  0.00     0.029 A 
ATOM     50  N   UNL A   1      40.059  29.303  29.789  1.00  0.00    -0.354 N 
ATOM     51  C   UNL A   1      43.118  27.730  32.400  1.00  0.00     0.074 A 
ATOM     52  C   UNL A   1      43.945  26.768  31.708  1.00  0.00     0.031 C 
ATOM     53  C   UNL A   1      38.914  29.519  27.883  1.00  0.00     0.029 A 
ATOM     54  C   UNL A   1      38.971  29.964  29.276  1.00  0.00     0.049 A 
ATOM     55  H   UNL A   1      40.392  29.441  30.705  1.00  0.00     0.167 HD
ATOM     56  C   UNL A   1      43.308  28.107  33.685  1.00  0.00     0.037 A 
ATOM     57  C   UNL A   1      38.107  30.807  29.875  1.00  0.00     0.037 A 
ATOM     58  C   UNL A   1      42.480  29.051  34.383  1.00  0.00     0.049 A 
ATOM     59  C   UNL A   1      38.290  31.151  31.331  1.00  0.00     0.074 A 
ATOM     60  C   UNL A   1      42.595  29.501  35.686  1.00  0.00     0.029 A 
ATOM     61  N   UNL A   1      41.375  29.682  33.834  1.00  0.00    -0.354 N 
ATOM     62  N   UNL A   1      39.223  30.759  32.165  1.00  0.00    -0.248 NA
ATOM     63  C   UNL A   1      37.294  32.052  31.931  1.00  0.00     0.031 C 
ATOM     64  C   UNL A   1      41.534  30.376  35.939  1.00  0.00     0.029 A 
ATOM     65  C   UNL A   1      40.784  30.502  34.780  1.00  0.00     0.049 A 
ATOM     66  H   UNL A   1      41.057  29.563  32.910  1.00  0.00     0.167 HD
ATOM     67  C   UNL A   1      38.944  31.385  33.374  1.00  0.00     0.074 A 
ATOM     68  C   UNL A   1      37.758  32.188  33.166  1.00  0.00     0.031 C 
ATOM     69  C   UNL A   1      39.612  31.304  34.551  1.00  0.00     0.037 A 
BRANCH  56  70
ATOM     70  C   UNL A   1      44.444  27.467  34.421  1.00  0.00     0.057 A 
ATOM     71  C   UNL A   1      44.284  26.261  35.116  1.00  0.00     0.134 A 
ATOM     72  C   UNL A   1      45.712  28.058  34.429  1.00  0.00     0.134 A 
ATOM     73  F   UNL A   1      43.086  25.659  35.165  1.00  0.00    -0.206 F 
ATOM     74  C   UNL A   1      45.343  25.677  35.812  1.00  0.00     0.040 A 
ATOM     75  C   UNL A   1      46.784  27.472  35.103  1.00  0.00     0.040 A 
ATOM     76  F   UNL A   1      45.928  29.216  33.786  1.00  0.00    -0.206 F 
ATOM     77  C   UNL A   1      46.599  26.280  35.801  1.00  0.00     0.006 A 
ENDBRANCH  56  70
BRANCH  57  78
ATOM     78  C   UNL A   1      36.966  31.374  29.113  1.00  0.00     0.057 A 
ATOM     79  C   UNL A   1      36.974  32.705  28.681  1.00  0.00     0.134 A 
ATOM     80  C   UNL A   1      35.825  30.612  28.833  1.00  0.00     0.134 A 
ATOM     81  F   UNL A   1      38.025  33.495  28.947  1.00  0.00    -0.206 F 
ATOM     82  C   UNL A   1      35.882  33.263  28.012  1.00  0.00     0.040 A 
ATOM     83  C   UNL A   1      34.736  31.150  28.146  1.00  0.00     0.040 A 
ATOM     84  F   UNL A   1      35.753  29.331  29.229  1.00  0.00    -0.206 F 
ATOM     85  C   UNL A   1      34.761  32.483  27.740  1.00  0.00     0.006 A 
ENDBRANCH  57  78
BRANCH  69  86
ATOM     86  C   UNL A   1      39.104  32.131  35.694  1.00  0.00     0.057 A 
ATOM     87  C   UNL A   1      38.261  31.596  36.677  1.00  0.00     0.134 A 
ATOM     88  C   UNL A   1      39.515  33.462  35.848  1.00  0.00     0.134 A 
ATOM     89  F   UNL A   1      37.825  30.331  36.581  1.00  0.00    -0.206 F 
ATOM     90  C   UNL A   1      37.833  32.360  37.763  1.00  0.00     0.040 A 
ATOM     91  C   UNL A   1      39.112  34.228  36.942  1.00  0.00     0.040 A 
ATOM     92  F   UNL A   1      40.331  34.030  34.947  1.00  0.00    -0.206 F 
ATOM     93  C   UNL A   1      38.266  33.677  37.903  1.00  0.00     0.006 A 
ENDBRANCH  69  86
ENDBRANCH  43  44
ENDBRANCH  36  38
ENDBRANCH  35  36
ENDBRANCH  34  35
ENDBRANCH  33  34
ENDBRANCH  32  33
ENDBRANCH  31  32
ENDBRANCH   1  31
TORSDOF 21
ENDMDL
MODEL 2
REMARK VINA RESULT:     -11.0      4.456      9.664
REMARK SMILES COC(=O)c1c(NC(=O)[C@@H]2[C@@H](C(=O)OCCOCCOCCOC(=O)c3ccc(-c4c5nc(c(-c6c(F)cccc6F)c6ccc([nH]6)c(-c6c(F)cccc6F)c6nc(c(-c7c(F)cccc7F)c7ccc4[nH]7)C=C6)C=C5)cc3)[C@H]3C=C[C@@H]2CC3)sc(C)c1C
REMARK SMILES IDX 18 1 17 2 16 3 15 4 14 5 12 6 13 7 11 8 10 9 83 10 80 11
REMARK SMILES IDX 82 12 84 13 81 14 85 15 8 16 7 17 9 19 6 20 5 21 89 22 86 23
REMARK SMILES IDX 87 24 90 25 88 26 3 27 4 28 2 29 1 30 19 31 20 32 21 33
REMARK SMILES IDX 22 34 23 35 24 36 25 37 26 38 27 39 79 40 28 41 78 42 29 43
REMARK SMILES IDX 30 44 31 45 72 46 32 47 77 48 71 49 73 50 33 51 76 52 70 53
REMARK SMILES IDX 69 54 34 56 60 57 43 58 59 59 44 60 47 61 58 62 74 63 45 64
REMARK SMILES IDX 46 65 57 67 75 68 48 69 35 70 36 71 41 72 37 73 38 74 40 75
REMARK SMILES IDX 42 76 39 77 61 78 62 79 67 80 63 81 64 82 66 83 68 84 65 85
REMARK SMILES IDX 49 86 50 87 55 88 51 89 52 90 54 91 56 92 53 93
REMARK H PARENT 7 18 73 55 47 66
REMARK Flexibility Score: inf
ROOT
ATOM      1  C   UNL A   1      35.003  33.109  28.000  1.00  0.00     0.188 C 
ENDROOT
BRANCH   1   2
ATOM      2  O   UNL A   1      34.780  31.706  28.073  1.00  0.00    -0.376 OA
BRANCH   2   3
ATOM      3  C   UNL A   1      33.552  31.188  27.578  1.00  0.00     0.202 C 
BRANCH   3   4
ATOM      4  C   UNL A   1      33.656  30.133  26.478  1.00  0.00     0.261 C 
BRANCH   4   5
ATOM      5  O   UNL A   1      32.392  29.674  25.931  1.00  0.00    -0.463 OA
BRANCH   5   6
ATOM      6  C   UNL A   1      32.454  28.739  24.947  1.00  0.00     0.310 C 
ATOM      7  O   UNL A   1      33.455  28.546  24.264  1.00  0.00    -0.252 OA
BRANCH   6   8
ATOM      8  C   UNL A   1      31.146  28.000  24.657  1.00  0.00     0.119 C 
ATOM      9  C   UNL A   1      31.437  26.468  24.662  1.00  0.00     0.100 C 
ATOM     10  C   UNL A   1      30.550  25.777  23.582  1.00  0.00     0.025 C 
ATOM     11  C   UNL A   1      30.323  28.352  23.384  1.00  0.00     0.026 C 
ATOM     12  C   UNL A   1      31.017  26.344  22.254  1.00  0.00    -0.027 C 
ATOM     13  C   UNL A   1      29.072  26.187  23.765  1.00  0.00     0.009 C 
ATOM     14  C   UNL A   1      30.925  27.680  22.163  1.00  0.00    -0.027 C 
ATOM     15  C   UNL A   1      28.921  27.708  23.564  1.00  0.00     0.009 C 
BRANCH   9  16
ATOM     16  C   UNL A   1      31.282  25.841  26.044  1.00  0.00     0.229 C 
ATOM     17  N   UNL A   1      32.068  24.791  26.440  1.00  0.00    -0.317 N 
ATOM     18  H   UNL A   1      31.934  24.473  27.363  1.00  0.00     0.170 HD
ATOM     19  O   UNL A   1      30.390  26.205  26.815  1.00  0.00    -0.274 OA
BRANCH  17  20
ATOM     20  C   UNL A   1      33.021  24.127  25.706  1.00  0.00     0.110 A 
ATOM     21  C   UNL A   1      33.127  22.895  25.090  1.00  0.00     0.098 A 
ATOM     22  C   UNL A   1      34.528  22.518  25.020  1.00  0.00    -0.021 A 
ATOM     23  S   UNL A   1      34.450  25.033  25.556  1.00  0.00    -0.122 S 
ATOM     24  C   UNL A   1      35.348  23.625  25.194  1.00  0.00     0.007 A 
ATOM     25  C   UNL A   1      35.016  21.120  24.791  1.00  0.00     0.046 C 
ATOM     26  C   UNL A   1      36.836  23.706  25.116  1.00  0.00     0.057 C 
BRANCH  21  27
ATOM     27  C   UNL A   1      32.002  22.073  24.652  1.00  0.00     0.341 C 
ATOM     28  O   UNL A   1      31.468  21.222  25.352  1.00  0.00    -0.246 OA
BRANCH  27  29
ATOM     29  O   UNL A   1      31.636  22.351  23.365  1.00  0.00    -0.465 OA
ATOM     30  C   UNL A   1      32.020  21.362  22.414  1.00  0.00     0.282 C 
ENDBRANCH  27  29
ENDBRANCH  21  27
ENDBRANCH  17  20
ENDBRANCH   9  16
ENDBRANCH   6   8
ENDBRANCH   5   6
ENDBRANCH   4   5
ENDBRANCH   3   4
ENDBRANCH   2   3
ENDBRANCH   1   2
BRANCH   1  31
ATOM     31  C   UNL A   1      33.834  34.028  28.360  1.00  0.00     0.188 C 
BRANCH  31  32
ATOM     32  O   UNL A   1      34.179  35.034  29.296  1.00  0.00    -0.376 OA
BRANCH  32  33
ATOM     33  C   UNL A   1      33.730  34.827  30.624  1.00  0.00     0.202 C 
BRANCH  33  34
ATOM     34  C   UNL A   1      34.890  34.460  31.551  1.00  0.00     0.261 C 
BRANCH  34  35
ATOM     35  O   UNL A   1      35.262  33.071  31.503  1.00  0.00    -0.460 OA
BRANCH  35  36
ATOM     36  C   UNL A   1      36.100  32.623  32.468  1.00  0.00     0.338 C 
ATOM     37  O   UNL A   1      35.940  32.689  33.672  1.00  0.00    -0.246 OA
BRANCH  36  38
ATOM     38  C   UNL A   1      37.142  31.806  31.803  1.00  0.00     0.060 A 
ATOM     39  C   UNL A   1      37.984  31.009  32.591  1.00  0.00     0.016 A 
ATOM     40  C   UNL A   1      37.258  31.798  30.411  1.00  0.00     0.016 A 
ATOM     41  C   UNL A   1      38.969  30.224  31.987  1.00  0.00     0.010 A 
ATOM     42  C   UNL A   1      38.256  31.031  29.810  1.00  0.00     0.010 A 
ATOM     43  C   UNL A   1      39.135  30.268  30.596  1.00  0.00    -0.014 A 
BRANCH  43  44
ATOM     44  C   UNL A   1      40.363  29.723  29.971  1.00  0.00     0.031 A 
ATOM     45  C   UNL A   1      41.503  30.674  29.730  1.00  0.00     0.074 A 
ATOM     46  C   UNL A   1      40.460  28.438  29.591  1.00  0.00     0.049 A 
ATOM     47  N   UNL A   1      42.633  30.478  29.103  1.00  0.00    -0.248 NA
ATOM     48  C   UNL A   1      41.337  32.036  30.266  1.00  0.00     0.031 C 
ATOM     49  C   UNL A   1      39.446  27.409  29.799  1.00  0.00     0.029 A 
ATOM     50  N   UNL A   1      41.472  27.788  28.926  1.00  0.00    -0.354 N 
ATOM     51  C   UNL A   1      43.309  31.689  29.167  1.00  0.00     0.074 A 
ATOM     52  C   UNL A   1      42.457  32.620  29.870  1.00  0.00     0.031 C 
ATOM     53  C   UNL A   1      39.877  26.258  29.253  1.00  0.00     0.029 A 
ATOM     54  C   UNL A   1      41.183  26.479  28.630  1.00  0.00     0.049 A 
ATOM     55  H   UNL A   1      42.322  28.220  28.685  1.00  0.00     0.167 HD
ATOM     56  C   UNL A   1      44.534  31.999  28.683  1.00  0.00     0.037 A 
ATOM     57  C   UNL A   1      41.883  25.577  27.914  1.00  0.00     0.037 A 
ATOM     58  C   UNL A   1      45.379  31.082  27.970  1.00  0.00     0.049 A 
ATOM     59  C   UNL A   1      43.209  25.969  27.316  1.00  0.00     0.074 A 
ATOM     60  C   UNL A   1      46.639  31.302  27.444  1.00  0.00     0.029 A 
ATOM     61  N   UNL A   1      45.041  29.771  27.673  1.00  0.00    -0.354 N 
ATOM     62  N   UNL A   1      43.852  27.110  27.397  1.00  0.00    -0.248 NA
ATOM     63  C   UNL A   1      43.907  24.947  26.520  1.00  0.00     0.031 C 
ATOM     64  C   UNL A   1      47.049  30.134  26.795  1.00  0.00     0.029 A 
ATOM     65  C   UNL A   1      46.060  29.175  26.952  1.00  0.00     0.049 A 
ATOM     66  H   UNL A   1      44.200  29.331  27.936  1.00  0.00     0.167 HD
ATOM     67  C   UNL A   1      45.035  26.933  26.690  1.00  0.00     0.074 A 
ATOM     68  C   UNL A   1      45.028  25.575  26.192  1.00  0.00     0.031 C 
ATOM     69  C   UNL A   1      46.041  27.817  26.476  1.00  0.00     0.037 A 
BRANCH  56  70
ATOM     70  C   UNL A   1      45.011  33.403  28.891  1.00  0.00     0.057 A 
ATOM     71  C   UNL A   1      45.818  33.752  29.981  1.00  0.00     0.134 A 
ATOM     72  C   UNL A   1      44.664  34.414  27.988  1.00  0.00     0.134 A 
ATOM     73  F   UNL A   1      46.164  32.831  30.893  1.00  0.00    -0.206 F 
ATOM     74  C   UNL A   1      46.247  35.065  30.177  1.00  0.00     0.040 A 
ATOM     75  C   UNL A   1      45.106  35.727  28.161  1.00  0.00     0.040 A 
ATOM     76  F   UNL A   1      43.890  34.145  26.926  1.00  0.00    -0.206 F 
ATOM     77  C   UNL A   1      45.896  36.055  29.262  1.00  0.00     0.006 A 
ENDBRANCH  56  70
BRANCH  57  78
ATOM     78  C   UNL A   1      41.339  24.213  27.694  1.00  0.00     0.057 A 
ATOM     79  C   UNL A   1      41.828  23.115  28.412  1.00  0.00     0.134 A 
ATOM     80  C   UNL A   1      40.348  23.969  26.736  1.00  0.00     0.134 A 
ATOM     81  F   UNL A   1      42.801  23.280  29.320  1.00  0.00    -0.206 F 
ATOM     82  C   UNL A   1      41.363  21.820  28.172  1.00  0.00     0.040 A 
ATOM     83  C   UNL A   1      39.858  22.683  26.502  1.00  0.00     0.040 A 
ATOM     84  F   UNL A   1      39.845  24.979  26.010  1.00  0.00    -0.206 F 
ATOM     85  C   UNL A   1      40.372  21.603  27.218  1.00  0.00     0.006 A 
ENDBRANCH  57  78
BRANCH  69  86
ATOM     86  C   UNL A   1      47.233  27.337  25.703  1.00  0.00     0.057 A 
ATOM     87  C   UNL A   1      47.364  27.566  24.327  1.00  0.00     0.134 A 
ATOM     88  C   UNL A   1      48.292  26.693  26.356  1.00  0.00     0.134 A 
ATOM     89  F   UNL A   1      46.380  28.170  23.643  1.00  0.00    -0.206 F 
ATOM     90  C   UNL A   1      48.500  27.159  23.626  1.00  0.00     0.040 A 
ATOM     91  C   UNL A   1      49.442  26.301  25.670  1.00  0.00     0.040 A 
ATOM     92  F   UNL A   1      48.233  26.454  27.675  1.00  0.00    -0.206 F 
ATOM     93  C   UNL A   1      49.547  26.532  24.300  1.00  0.00     0.006 A 
ENDBRANCH  69  86
ENDBRANCH  43  44
ENDBRANCH  36  38
ENDBRANCH  35  36
ENDBRANCH  34  35
ENDBRANCH  33  34
ENDBRANCH  32  33
ENDBRANCH  31  32
ENDBRANCH   1  31
TORSDOF 21
ENDMDL
MODEL 3
REMARK VINA RESULT:     -10.6      4.358      9.557
REMARK SMILES COC(=O)c1c(NC(=O)[C@@H]2[C@@H](C(=O)OCCOCCOCCOC(=O)c3ccc(-c4c5nc(c(-c6c(F)cccc6F)c6ccc([nH]6)c(-c6c(F)cccc6F)c6nc(c(-c7c(F)cccc7F)c7ccc4[nH]7)C=C6)C=C5)cc3)[C@H]3C=C[C@@H]2CC3)sc(C)c1C
REMARK SMILES IDX 18 1 17 2 16 3 15 4 14 5 12 6 13 7 11 8 10 9 83 10 80 11
REMARK SMILES IDX 82 12 84 13 81 14 85 15 8 16 7 17 9 19 6 20 5 21 89 22 86 23
REMARK SMILES IDX 87 24 90 25 88 26 3 27 4 28 2 29 1 30 19 31 20 32 21 33
REMARK SMILES IDX 22 34 23 35 24 36 25 37 26 38 27 39 79 40 28 41 78 42 29 43
REMARK SMILES IDX 30 44 31 45 72 46 32 47 77 48 71 49 73 50 33 51 76 52 70 53
REMARK SMILES IDX 69 54 34 56 60 57 43 58 59 59 44 60 47 61 58 62 74 63 45 64
REMARK SMILES IDX 46 65 57 67 75 68 48 69 35 70 36 71 41 72 37 73 38 74 40 75
REMARK SMILES IDX 42 76 39 77 61 78 62 79 67 80 63 81 64 82 66 83 68 84 65 85
REMARK SMILES IDX 49 86 50 87 55 88 51 89 52 90 54 91 56 92 53 93
REMARK H PARENT 7 18 73 55 47 66
REMARK Flexibility Score: inf
ROOT
ATOM      1  C   UNL A   1      33.705  31.351  27.658  1.00  0.00     0.188 C 
ENDROOT
BRANCH   1   2
ATOM      2  O   UNL A   1      32.962  30.851  26.552  1.00  0.00    -0.376 OA
BRANCH   2   3
ATOM      3  C   UNL A   1      32.032  29.800  26.779  1.00  0.00     0.202 C 
BRANCH   3   4
ATOM      4  C   UNL A   1      32.537  28.613  27.597  1.00  0.00     0.261 C 
BRANCH   4   5
ATOM      5  O   UNL A   1      31.988  27.321  27.228  1.00  0.00    -0.463 OA
BRANCH   5   6
ATOM      6  C   UNL A   1      32.643  26.632  26.257  1.00  0.00     0.310 C 
ATOM      7  O   UNL A   1      33.822  26.826  25.974  1.00  0.00    -0.252 OA
BRANCH   6   8
ATOM      8  C   UNL A   1      31.785  25.660  25.445  1.00  0.00     0.119 C 
ATOM      9  C   UNL A   1      32.528  24.291  25.375  1.00  0.00     0.100 C 
ATOM     10  C   UNL A   1      32.271  23.642  23.981  1.00  0.00     0.025 C 
ATOM     11  C   UNL A   1      31.314  26.051  24.014  1.00  0.00     0.026 C 
ATOM     12  C   UNL A   1      32.911  24.580  22.975  1.00  0.00    -0.027 C 
ATOM     13  C   UNL A   1      30.756  23.606  23.682  1.00  0.00     0.009 C 
ATOM     14  C   UNL A   1      32.434  25.835  23.012  1.00  0.00    -0.027 C 
ATOM     15  C   UNL A   1      30.201  25.044  23.618  1.00  0.00     0.009 C 
BRANCH   9  16
ATOM     16  C   UNL A   1      32.173  23.365  26.534  1.00  0.00     0.229 C 
ATOM     17  N   UNL A   1      32.788  22.150  26.687  1.00  0.00    -0.317 N 
ATOM     18  H   UNL A   1      32.533  21.633  27.485  1.00  0.00     0.170 HD
ATOM     19  O   UNL A   1      31.264  23.644  27.320  1.00  0.00    -0.274 OA
BRANCH  17  20
ATOM     20  C   UNL A   1      33.719  21.567  25.862  1.00  0.00     0.110 A 
ATOM     21  C   UNL A   1      33.799  20.412  25.108  1.00  0.00     0.098 A 
ATOM     22  C   UNL A   1      35.194  20.033  24.966  1.00  0.00    -0.021 A 
ATOM     23  S   UNL A   1      35.155  22.470  25.787  1.00  0.00    -0.122 S 
ATOM     24  C   UNL A   1      36.030  21.105  25.247  1.00  0.00     0.007 A 
ATOM     25  C   UNL A   1      35.662  18.666  24.569  1.00  0.00     0.046 C 
ATOM     26  C   UNL A   1      37.516  21.181  25.149  1.00  0.00     0.057 C 
BRANCH  21  27
ATOM     27  C   UNL A   1      32.656  19.654  24.603  1.00  0.00     0.341 C 
ATOM     28  O   UNL A   1      32.131  19.859  23.517  1.00  0.00    -0.246 OA
BRANCH  27  29
ATOM     29  O   UNL A   1      32.233  18.711  25.497  1.00  0.00    -0.465 OA
ATOM     30  C   UNL A   1      32.264  17.374  25.004  1.00  0.00     0.282 C 
ENDBRANCH  27  29
ENDBRANCH  21  27
ENDBRANCH  17  20
ENDBRANCH   9  16
ENDBRANCH   6   8
ENDBRANCH   5   6
ENDBRANCH   4   5
ENDBRANCH   3   4
ENDBRANCH   2   3
ENDBRANCH   1   2
BRANCH   1  31
ATOM     31  C   UNL A   1      33.594  32.847  27.962  1.00  0.00     0.188 C 
BRANCH  31  32
ATOM     32  O   UNL A   1      34.757  33.384  28.566  1.00  0.00    -0.376 OA
BRANCH  32  33
ATOM     33  C   UNL A   1      34.543  34.384  29.547  1.00  0.00     0.202 C 
BRANCH  33  34
ATOM     34  C   UNL A   1      34.183  33.765  30.899  1.00  0.00     0.261 C 
BRANCH  34  35
ATOM     35  O   UNL A   1      34.774  32.474  31.128  1.00  0.00    -0.460 OA
BRANCH  35  36
ATOM     36  C   UNL A   1      35.744  32.399  32.071  1.00  0.00     0.338 C 
ATOM     37  O   UNL A   1      35.664  32.731  33.238  1.00  0.00    -0.246 OA
BRANCH  36  38
ATOM     38  C   UNL A   1      36.856  31.605  31.498  1.00  0.00     0.060 A 
ATOM     39  C   UNL A   1      37.755  30.972  32.367  1.00  0.00     0.016 A 
ATOM     40  C   UNL A   1      36.982  31.453  30.115  1.00  0.00     0.016 A 
ATOM     41  C   UNL A   1      38.808  30.212  31.850  1.00  0.00     0.010 A 
ATOM     42  C   UNL A   1      38.045  30.712  29.600  1.00  0.00     0.010 A 
ATOM     43  C   UNL A   1      38.980  30.116  30.463  1.00  0.00    -0.014 A 
BRANCH  43  44
ATOM     44  C   UNL A   1      40.253  29.611  29.899  1.00  0.00     0.031 A 
ATOM     45  C   UNL A   1      41.370  30.599  29.708  1.00  0.00     0.074 A 
ATOM     46  C   UNL A   1      40.411  28.329  29.531  1.00  0.00     0.049 A 
ATOM     47  N   UNL A   1      42.534  30.439  29.135  1.00  0.00    -0.248 NA
ATOM     48  C   UNL A   1      41.134  31.957  30.228  1.00  0.00     0.031 C 
ATOM     49  C   UNL A   1      39.423  27.267  29.697  1.00  0.00     0.029 A 
ATOM     50  N   UNL A   1      41.474  27.712  28.917  1.00  0.00    -0.354 N 
ATOM     51  C   UNL A   1      43.165  31.673  29.224  1.00  0.00     0.074 A 
ATOM     52  C   UNL A   1      42.250  32.578  29.882  1.00  0.00     0.031 C 
ATOM     53  C   UNL A   1      39.919  26.129  29.177  1.00  0.00     0.029 A 
ATOM     54  C   UNL A   1      41.244  26.393  28.615  1.00  0.00     0.049 A 
ATOM     55  H   UNL A   1      42.320  28.172  28.715  1.00  0.00     0.167 HD
ATOM     56  C   UNL A   1      44.401  32.023  28.797  1.00  0.00     0.037 A 
ATOM     57  C   UNL A   1      42.007  25.512  27.937  1.00  0.00     0.037 A 
ATOM     58  C   UNL A   1      45.309  31.133  28.129  1.00  0.00     0.049 A 
ATOM     59  C   UNL A   1      43.347  25.947  27.400  1.00  0.00     0.074 A 
ATOM     60  C   UNL A   1      46.585  31.394  27.663  1.00  0.00     0.029 A 
ATOM     61  N   UNL A   1      45.030  29.811  27.824  1.00  0.00    -0.354 N 
ATOM     62  N   UNL A   1      43.945  27.109  27.505  1.00  0.00    -0.248 NA
ATOM     63  C   UNL A   1      44.115  24.946  26.643  1.00  0.00     0.031 C 
ATOM     64  C   UNL A   1      47.064  30.238  27.039  1.00  0.00     0.029 A 
ATOM     65  C   UNL A   1      46.101  29.247  27.155  1.00  0.00     0.049 A 
ATOM     66  H   UNL A   1      44.193  29.343  28.049  1.00  0.00     0.167 HD
ATOM     67  C   UNL A   1      45.166  26.970  26.856  1.00  0.00     0.074 A 
ATOM     68  C   UNL A   1      45.229  25.611  26.365  1.00  0.00     0.031 C 
ATOM     69  C   UNL A   1      46.151  27.887  26.685  1.00  0.00     0.037 A 
BRANCH  56  70
ATOM     70  C   UNL A   1      44.820  33.443  29.020  1.00  0.00     0.057 A 
ATOM     71  C   UNL A   1      44.596  34.436  28.059  1.00  0.00     0.134 A 
ATOM     72  C   UNL A   1      45.449  33.822  30.211  1.00  0.00     0.134 A 
ATOM     73  F   UNL A   1      44.019  34.129  26.887  1.00  0.00    -0.206 F 
ATOM     74  C   UNL A   1      45.002  35.754  28.266  1.00  0.00     0.040 A 
ATOM     75  C   UNL A   1      45.840  35.142  30.440  1.00  0.00     0.040 A 
ATOM     76  F   UNL A   1      45.697  32.917  31.170  1.00  0.00    -0.206 F 
ATOM     77  C   UNL A   1      45.620  36.111  29.462  1.00  0.00     0.006 A 
ENDBRANCH  56  70
BRANCH  57  78
ATOM     78  C   UNL A   1      41.521  24.130  27.699  1.00  0.00     0.057 A 
ATOM     79  C   UNL A   1      40.538  23.864  26.740  1.00  0.00     0.134 A 
ATOM     80  C   UNL A   1      41.998  23.050  28.451  1.00  0.00     0.134 A 
ATOM     81  F   UNL A   1      40.018  24.862  26.011  1.00  0.00    -0.206 F 
ATOM     82  C   UNL A   1      40.034  22.575  26.548  1.00  0.00     0.040 A 
ATOM     83  C   UNL A   1      41.520  21.753  28.254  1.00  0.00     0.040 A 
ATOM     84  F   UNL A   1      42.935  23.241  29.392  1.00  0.00    -0.206 F 
ATOM     85  C   UNL A   1      40.529  21.516  27.303  1.00  0.00     0.006 A 
ENDBRANCH  57  78
BRANCH  69  86
ATOM     86  C   UNL A   1      47.393  27.445  25.971  1.00  0.00     0.057 A 
ATOM     87  C   UNL A   1      47.539  27.584  24.585  1.00  0.00     0.134 A 
ATOM     88  C   UNL A   1      48.482  26.933  26.689  1.00  0.00     0.134 A 
ATOM     89  F   UNL A   1      46.529  28.059  23.840  1.00  0.00    -0.206 F 
ATOM     90  C   UNL A   1      48.719  27.215  23.937  1.00  0.00     0.040 A 
ATOM     91  C   UNL A   1      49.674  26.582  26.055  1.00  0.00     0.040 A 
ATOM     92  F   UNL A   1      48.410  26.786  28.021  1.00  0.00    -0.206 F 
ATOM     93  C   UNL A   1      49.793  26.721  24.674  1.00  0.00     0.006 A 
ENDBRANCH  69  86
ENDBRANCH  43  44
ENDBRANCH  36  38
ENDBRANCH  35  36
ENDBRANCH  34  35
ENDBRANCH  33  34
ENDBRANCH  32  33
ENDBRANCH  31  32
ENDBRANCH   1  31
TORSDOF 21
ENDMDL
