MODEL 1
REMARK VINA RESULT:     -10.8      0.000      0.000
REMARK SMILES COCC[C@@]1(C(=O)OCCOCCOCCOC(=O)c2ccc(-c3c4nc(c(-c5c(F)cccc5F)c5ccc([nH]5)c(-c5c(F)cccc5F)c5nc(c(-c6c(F)cccc6F)c6ccc3[nH]6)C=C5)C=C4)cc2)CCCN(C(=O)NCc2ccc(OC)cc2)C1
REMARK SMILES IDX 12 1 11 2 10 3 9 4 8 5 6 6 7 7 5 8 74 9 90 10 75 11 77 12
REMARK SMILES IDX 76 13 4 14 3 15 2 16 1 17 78 18 79 19 80 20 81 22 82 23
REMARK SMILES IDX 83 24 89 25 84 26 88 27 85 28 86 29 87 30 13 31 14 32 15 33
REMARK SMILES IDX 16 34 17 35 18 36 19 37 20 38 21 39 73 40 22 41 72 42 23 43
REMARK SMILES IDX 24 44 25 45 66 46 26 47 71 48 65 49 67 50 27 51 70 52 64 53
REMARK SMILES IDX 63 54 28 56 54 57 37 58 53 59 38 60 41 61 52 62 68 63 39 64
REMARK SMILES IDX 40 65 51 67 69 68 42 69 29 70 30 71 35 72 31 73 32 74 34 75
REMARK SMILES IDX 36 76 33 77 55 78 56 79 61 80 57 81 58 82 60 83 62 84 59 85
REMARK SMILES IDX 43 86 44 87 49 88 45 89 46 90 48 91 50 92 47 93
REMARK H PARENT 80 21 67 55 41 66
REMARK Flexibility Score: inf
ROOT
ATOM      1  C   UNL A   1      39.281  22.135  26.323  1.00  0.00     0.188 C 
ENDROOT
BRANCH   1   2
ATOM      2  O   UNL A   1      37.964  21.915  25.895  1.00  0.00    -0.376 OA
BRANCH   2   3
ATOM      3  C   UNL A   1      37.167  22.973  25.392  1.00  0.00     0.202 C 
BRANCH   3   4
ATOM      4  C   UNL A   1      35.667  23.254  25.653  1.00  0.00     0.261 C 
BRANCH   4   5
ATOM      5  O   UNL A   1      34.855  23.913  24.672  1.00  0.00    -0.463 OA
BRANCH   5   6
ATOM      6  C   UNL A   1      34.106  24.932  25.163  1.00  0.00     0.314 C 
ATOM      7  O   UNL A   1      34.288  25.381  26.293  1.00  0.00    -0.252 OA
BRANCH   6   8
ATOM      8  C   UNL A   1      33.037  25.508  24.183  1.00  0.00     0.088 C 
ATOM      9  C   UNL A   1      32.496  26.796  24.885  1.00  0.00     0.022 C 
ATOM     10  C   UNL A   1      31.965  24.409  24.066  1.00  0.00     0.140 C 
ATOM     11  C   UNL A   1      31.536  26.537  26.061  1.00  0.00     0.023 C 
ATOM     12  N   UNL A   1      31.292  24.208  25.340  1.00  0.00    -0.324 N 
ATOM     13  C   UNL A   1      30.565  25.396  25.770  1.00  0.00     0.121 C 
BRANCH   8  14
ATOM     14  C   UNL A   1      33.573  25.886  22.761  1.00  0.00     0.049 C 
BRANCH  14  15
ATOM     15  C   UNL A   1      32.576  26.102  21.612  1.00  0.00     0.161 C 
BRANCH  15  16
ATOM     16  O   UNL A   1      33.199  26.010  20.334  1.00  0.00    -0.385 OA
ATOM     17  C   UNL A   1      32.450  25.322  19.345  1.00  0.00     0.194 C 
ENDBRANCH  15  16
ENDBRANCH  14  15
ENDBRANCH   8  14
BRANCH  12  18
ATOM     18  C   UNL A   1      31.636  23.079  26.023  1.00  0.00     0.317 C 
ATOM     19  O   UNL A   1      31.609  23.040  27.260  1.00  0.00    -0.249 OA
ATOM     20  N   UNL A   1      31.967  21.925  25.442  1.00  0.00    -0.334 N 
ATOM     21  H   UNL A   1      32.078  21.204  26.103  1.00  0.00     0.165 HD
BRANCH  20  22
ATOM     22  C   UNL A   1      32.206  21.457  24.100  1.00  0.00     0.153 C 
BRANCH  22  23
ATOM     23  C   UNL A   1      32.481  19.975  24.098  1.00  0.00    -0.028 A 
ATOM     24  C   UNL A   1      32.853  19.296  25.262  1.00  0.00     0.009 A 
ATOM     25  C   UNL A   1      32.383  19.248  22.900  1.00  0.00     0.009 A 
ATOM     26  C   UNL A   1      33.104  17.920  25.226  1.00  0.00     0.047 A 
ATOM     27  C   UNL A   1      32.636  17.877  22.866  1.00  0.00     0.047 A 
ATOM     28  C   UNL A   1      33.006  17.207  24.029  1.00  0.00     0.118 A 
BRANCH  28  29
ATOM     29  O   UNL A   1      33.296  15.873  24.121  1.00  0.00    -0.497 OA
ATOM     30  C   UNL A   1      33.887  15.440  25.341  1.00  0.00     0.278 C 
ENDBRANCH  28  29
ENDBRANCH  22  23
ENDBRANCH  20  22
ENDBRANCH  12  18
ENDBRANCH   6   8
ENDBRANCH   5   6
ENDBRANCH   4   5
ENDBRANCH   3   4
ENDBRANCH   2   3
ENDBRANCH   1   2
BRANCH   1  31
ATOM     31  C   UNL A   1      40.186  20.905  26.378  1.00  0.00     0.188 C 
BRANCH  31  32
ATOM     32  O   UNL A   1      41.490  20.987  26.898  1.00  0.00    -0.376 OA
BRANCH  32  33
ATOM     33  C   UNL A   1      42.591  20.605  26.094  1.00  0.00     0.202 C 
BRANCH  33  34
ATOM     34  C   UNL A   1      43.589  21.601  25.465  1.00  0.00     0.261 C 
BRANCH  34  35
ATOM     35  O   UNL A   1      43.069  22.798  24.872  1.00  0.00    -0.460 OA
BRANCH  35  36
ATOM     36  C   UNL A   1      43.838  23.905  25.003  1.00  0.00     0.338 C 
ATOM     37  O   UNL A   1      44.860  24.172  24.386  1.00  0.00    -0.246 OA
BRANCH  36  38
ATOM     38  C   UNL A   1      43.134  24.880  25.865  1.00  0.00     0.060 A 
ATOM     39  C   UNL A   1      43.646  26.184  25.971  1.00  0.00     0.016 A 
ATOM     40  C   UNL A   1      41.993  24.513  26.579  1.00  0.00     0.016 A 
ATOM     41  C   UNL A   1      43.041  27.113  26.816  1.00  0.00     0.010 A 
ATOM     42  C   UNL A   1      41.407  25.436  27.454  1.00  0.00     0.010 A 
ATOM     43  C   UNL A   1      41.950  26.727  27.604  1.00  0.00    -0.014 A 
BRANCH  43  44
ATOM     44  C   UNL A   1      41.533  27.584  28.742  1.00  0.00     0.031 A 
ATOM     45  C   UNL A   1      42.317  27.491  30.025  1.00  0.00     0.074 A 
ATOM     46  C   UNL A   1      40.507  28.446  28.644  1.00  0.00     0.049 A 
ATOM     47  N   UNL A   1      42.118  28.091  31.170  1.00  0.00    -0.248 NA
ATOM     48  C   UNL A   1      43.483  26.592  30.010  1.00  0.00     0.031 C 
ATOM     49  C   UNL A   1      39.698  28.672  27.449  1.00  0.00     0.029 A 
ATOM     50  N   UNL A   1      39.964  29.288  29.585  1.00  0.00    -0.354 N 
ATOM     51  C   UNL A   1      43.125  27.636  32.012  1.00  0.00     0.074 A 
ATOM     52  C   UNL A   1      43.913  26.686  31.259  1.00  0.00     0.031 C 
ATOM     53  C   UNL A   1      38.750  29.584  27.733  1.00  0.00     0.029 A 
ATOM     54  C   UNL A   1      38.866  29.979  29.137  1.00  0.00     0.049 A 
ATOM     55  H   UNL A   1      40.330  29.387  30.494  1.00  0.00     0.167 HD
ATOM     56  C   UNL A   1      43.380  27.985  33.296  1.00  0.00     0.037 A 
ATOM     57  C   UNL A   1      38.038  30.816  29.794  1.00  0.00     0.037 A 
ATOM     58  C   UNL A   1      42.595  28.927  34.050  1.00  0.00     0.049 A 
ATOM     59  C   UNL A   1      38.290  31.125  31.248  1.00  0.00     0.074 A 
ATOM     60  C   UNL A   1      42.779  29.354  35.353  1.00  0.00     0.029 A 
ATOM     61  N   UNL A   1      41.470  29.581  33.570  1.00  0.00    -0.354 N 
ATOM     62  N   UNL A   1      39.255  30.708  32.031  1.00  0.00    -0.248 NA
ATOM     63  C   UNL A   1      37.335  32.028  31.909  1.00  0.00     0.031 C 
ATOM     64  C   UNL A   1      41.732  30.219  35.682  1.00  0.00     0.029 A 
ATOM     65  C   UNL A   1      40.934  30.387  34.562  1.00  0.00     0.049 A 
ATOM     66  H   UNL A   1      41.106  29.486  32.661  1.00  0.00     0.167 HD
ATOM     67  C   UNL A   1      39.047  31.326  33.260  1.00  0.00     0.074 A 
ATOM     68  C   UNL A   1      37.870  32.155  33.115  1.00  0.00     0.031 C 
ATOM     69  C   UNL A   1      39.768  31.219  34.404  1.00  0.00     0.037 A 
BRANCH  56  70
ATOM     70  C   UNL A   1      44.539  27.316  33.976  1.00  0.00     0.057 A 
ATOM     71  C   UNL A   1      44.408  26.082  34.628  1.00  0.00     0.134 A 
ATOM     72  C   UNL A   1      45.810  27.904  33.959  1.00  0.00     0.134 A 
ATOM     73  F   UNL A   1      43.215  25.471  34.696  1.00  0.00    -0.206 F 
ATOM     74  C   UNL A   1      45.492  25.473  35.263  1.00  0.00     0.040 A 
ATOM     75  C   UNL A   1      46.908  27.289  34.562  1.00  0.00     0.040 A 
ATOM     76  F   UNL A   1      46.007  29.082  33.349  1.00  0.00    -0.206 F 
ATOM     77  C   UNL A   1      46.749  26.073  35.223  1.00  0.00     0.006 A 
ENDBRANCH  56  70
BRANCH  57  78
ATOM     78  C   UNL A   1      36.873  31.419  29.093  1.00  0.00     0.057 A 
ATOM     79  C   UNL A   1      35.723  30.670  28.817  1.00  0.00     0.134 A 
ATOM     80  C   UNL A   1      36.899  32.746  28.644  1.00  0.00     0.134 A 
ATOM     81  F   UNL A   1      35.647  29.386  29.196  1.00  0.00    -0.206 F 
ATOM     82  C   UNL A   1      34.651  31.209  28.103  1.00  0.00     0.040 A 
ATOM     83  C   UNL A   1      35.823  33.306  27.955  1.00  0.00     0.040 A 
ATOM     84  F   UNL A   1      37.971  33.518  28.871  1.00  0.00    -0.206 F 
ATOM     85  C   UNL A   1      34.697  32.534  27.674  1.00  0.00     0.006 A 
ENDBRANCH  57  78
BRANCH  69  86
ATOM     86  C   UNL A   1      39.339  32.058  35.577  1.00  0.00     0.057 A 
ATOM     87  C   UNL A   1      39.765  33.383  35.744  1.00  0.00     0.134 A 
ATOM     88  C   UNL A   1      38.458  31.540  36.536  1.00  0.00     0.134 A 
ATOM     89  F   UNL A   1      40.615  33.940  34.869  1.00  0.00    -0.206 F 
ATOM     90  C   UNL A   1      39.356  34.148  36.839  1.00  0.00     0.040 A 
ATOM     91  C   UNL A   1      38.018  32.306  37.616  1.00  0.00     0.040 A 
ATOM     92  F   UNL A   1      37.999  30.283  36.432  1.00  0.00    -0.206 F 
ATOM     93  C   UNL A   1      38.474  33.612  37.775  1.00  0.00     0.006 A 
ENDBRANCH  69  86
ENDBRANCH  43  44
ENDBRANCH  36  38
ENDBRANCH  35  36
ENDBRANCH  34  35
ENDBRANCH  33  34
ENDBRANCH  32  33
ENDBRANCH  31  32
ENDBRANCH   1  31
TORSDOF 24
ENDMDL
MODEL 2
REMARK VINA RESULT:     -10.7      1.892      4.616
REMARK SMILES COCC[C@@]1(C(=O)OCCOCCOCCOC(=O)c2ccc(-c3c4nc(c(-c5c(F)cccc5F)c5ccc([nH]5)c(-c5c(F)cccc5F)c5nc(c(-c6c(F)cccc6F)c6ccc3[nH]6)C=C5)C=C4)cc2)CCCN(C(=O)NCc2ccc(OC)cc2)C1
REMARK SMILES IDX 12 1 11 2 10 3 9 4 8 5 6 6 7 7 5 8 74 9 90 10 75 11 77 12
REMARK SMILES IDX 76 13 4 14 3 15 2 16 1 17 78 18 79 19 80 20 81 22 82 23
REMARK SMILES IDX 83 24 89 25 84 26 88 27 85 28 86 29 87 30 13 31 14 32 15 33
REMARK SMILES IDX 16 34 17 35 18 36 19 37 20 38 21 39 73 40 22 41 72 42 23 43
REMARK SMILES IDX 24 44 25 45 66 46 26 47 71 48 65 49 67 50 27 51 70 52 64 53
REMARK SMILES IDX 63 54 28 56 54 57 37 58 53 59 38 60 41 61 52 62 68 63 39 64
REMARK SMILES IDX 40 65 51 67 69 68 42 69 29 70 30 71 35 72 31 73 32 74 34 75
REMARK SMILES IDX 36 76 33 77 55 78 56 79 61 80 57 81 58 82 60 83 62 84 59 85
REMARK SMILES IDX 43 86 44 87 49 88 45 89 46 90 48 91 50 92 47 93
REMARK H PARENT 80 21 67 55 41 66
REMARK Flexibility Score: inf
ROOT
ATOM      1  C   UNL A   1      39.628  22.161  26.381  1.00  0.00     0.188 C 
ENDROOT
BRANCH   1   2
ATOM      2  O   UNL A   1      38.434  22.103  25.648  1.00  0.00    -0.376 OA
BRANCH   2   3
ATOM      3  C   UNL A   1      37.443  23.106  25.775  1.00  0.00     0.202 C 
BRANCH   3   4
ATOM      4  C   UNL A   1      35.912  22.933  25.931  1.00  0.00     0.261 C 
BRANCH   4   5
ATOM      5  O   UNL A   1      34.996  23.611  25.062  1.00  0.00    -0.463 OA
BRANCH   5   6
ATOM      6  C   UNL A   1      33.713  23.616  25.500  1.00  0.00     0.314 C 
ATOM      7  O   UNL A   1      33.374  24.244  26.501  1.00  0.00    -0.252 OA
BRANCH   6   8
ATOM      8  C   UNL A   1      32.705  22.806  24.626  1.00  0.00     0.088 C 
ATOM      9  C   UNL A   1      33.552  22.264  23.428  1.00  0.00     0.022 C 
ATOM     10  C   UNL A   1      31.646  23.831  24.181  1.00  0.00     0.140 C 
ATOM     11  C   UNL A   1      33.907  23.315  22.360  1.00  0.00     0.023 C 
ATOM     12  N   UNL A   1      32.235  24.835  23.309  1.00  0.00    -0.324 N 
ATOM     13  C   UNL A   1      32.742  24.257  22.070  1.00  0.00     0.121 C 
BRANCH   8  14
ATOM     14  C   UNL A   1      32.013  21.602  25.351  1.00  0.00     0.049 C 
BRANCH  14  15
ATOM     15  C   UNL A   1      32.149  20.189  24.764  1.00  0.00     0.161 C 
BRANCH  15  16
ATOM     16  O   UNL A   1      32.612  19.248  25.727  1.00  0.00    -0.385 OA
ATOM     17  C   UNL A   1      32.908  17.957  25.218  1.00  0.00     0.194 C 
ENDBRANCH  15  16
ENDBRANCH  14  15
ENDBRANCH   8  14
BRANCH  12  18
ATOM     18  C   UNL A   1      32.441  26.062  23.868  1.00  0.00     0.317 C 
ATOM     19  O   UNL A   1      33.581  26.475  24.117  1.00  0.00    -0.249 OA
ATOM     20  N   UNL A   1      31.468  26.934  24.136  1.00  0.00    -0.334 N 
ATOM     21  H   UNL A   1      31.828  27.800  24.436  1.00  0.00     0.165 HD
BRANCH  20  22
ATOM     22  C   UNL A   1      30.027  26.941  24.102  1.00  0.00     0.153 C 
BRANCH  22  23
ATOM     23  C   UNL A   1      29.523  28.087  23.262  1.00  0.00    -0.028 A 
ATOM     24  C   UNL A   1      30.399  28.954  22.602  1.00  0.00     0.009 A 
ATOM     25  C   UNL A   1      28.142  28.313  23.146  1.00  0.00     0.009 A 
ATOM     26  C   UNL A   1      29.899  30.010  21.833  1.00  0.00     0.047 A 
ATOM     27  C   UNL A   1      27.645  29.367  22.380  1.00  0.00     0.047 A 
ATOM     28  C   UNL A   1      28.524  30.227  21.725  1.00  0.00     0.118 A 
BRANCH  28  29
ATOM     29  O   UNL A   1      28.162  31.303  20.962  1.00  0.00    -0.497 OA
ATOM     30  C   UNL A   1      28.269  32.579  21.581  1.00  0.00     0.278 C 
ENDBRANCH  28  29
ENDBRANCH  22  23
ENDBRANCH  20  22
ENDBRANCH  12  18
ENDBRANCH   6   8
ENDBRANCH   5   6
ENDBRANCH   4   5
ENDBRANCH   3   4
ENDBRANCH   2   3
ENDBRANCH   1   2
BRANCH   1  31
ATOM     31  C   UNL A   1      40.406  20.852  26.508  1.00  0.00     0.188 C 
BRANCH  31  32
ATOM     32  O   UNL A   1      41.750  20.844  26.921  1.00  0.00    -0.376 OA
BRANCH  32  33
ATOM     33  C   UNL A   1      42.774  20.600  25.974  1.00  0.00     0.202 C 
BRANCH  33  34
ATOM     34  C   UNL A   1      43.678  21.699  25.376  1.00  0.00     0.261 C 
BRANCH  34  35
ATOM     35  O   UNL A   1      43.067  22.925  24.956  1.00  0.00    -0.460 OA
BRANCH  35  36
ATOM     36  C   UNL A   1      43.818  24.042  25.108  1.00  0.00     0.338 C 
ATOM     37  O   UNL A   1      44.844  24.331  24.506  1.00  0.00    -0.246 OA
BRANCH  36  38
ATOM     38  C   UNL A   1      43.088  24.997  25.970  1.00  0.00     0.060 A 
ATOM     39  C   UNL A   1      43.546  26.323  26.050  1.00  0.00     0.016 A 
ATOM     40  C   UNL A   1      41.977  24.592  26.710  1.00  0.00     0.016 A 
ATOM     41  C   UNL A   1      42.918  27.237  26.894  1.00  0.00     0.010 A 
ATOM     42  C   UNL A   1      41.368  25.501  27.584  1.00  0.00     0.010 A 
ATOM     43  C   UNL A   1      41.859  26.815  27.707  1.00  0.00    -0.014 A 
BRANCH  43  44
ATOM     44  C   UNL A   1      41.426  27.669  28.842  1.00  0.00     0.031 A 
ATOM     45  C   UNL A   1      42.183  27.561  30.140  1.00  0.00     0.074 A 
ATOM     46  C   UNL A   1      40.408  28.540  28.729  1.00  0.00     0.049 A 
ATOM     47  N   UNL A   1      41.965  28.156  31.285  1.00  0.00    -0.248 NA
ATOM     48  C   UNL A   1      43.341  26.653  30.143  1.00  0.00     0.031 C 
ATOM     49  C   UNL A   1      39.626  28.781  27.520  1.00  0.00     0.029 A 
ATOM     50  N   UNL A   1      39.854  29.382  29.664  1.00  0.00    -0.354 N 
ATOM     51  C   UNL A   1      42.951  27.688  32.144  1.00  0.00     0.074 A 
ATOM     52  C   UNL A   1      43.746  26.735  31.401  1.00  0.00     0.031 C 
ATOM     53  C   UNL A   1      38.680  29.699  27.790  1.00  0.00     0.029 A 
ATOM     54  C   UNL A   1      38.771  30.085  29.198  1.00  0.00     0.049 A 
ATOM     55  H   UNL A   1      40.202  29.471  30.581  1.00  0.00     0.167 HD
ATOM     56  C   UNL A   1      43.182  28.027  33.435  1.00  0.00     0.037 A 
ATOM     57  C   UNL A   1      37.937  30.924  29.843  1.00  0.00     0.037 A 
ATOM     58  C   UNL A   1      42.391  28.970  34.179  1.00  0.00     0.049 A 
ATOM     59  C   UNL A   1      38.162  31.222  31.304  1.00  0.00     0.074 A 
ATOM     60  C   UNL A   1      42.552  29.388  35.488  1.00  0.00     0.029 A 
ATOM     61  N   UNL A   1      41.281  29.637  33.681  1.00  0.00    -0.354 N 
ATOM     62  N   UNL A   1      39.108  30.793  32.104  1.00  0.00    -0.248 NA
ATOM     63  C   UNL A   1      37.202  32.130  31.952  1.00  0.00     0.031 C 
ATOM     64  C   UNL A   1      41.505  30.260  35.801  1.00  0.00     0.029 A 
ATOM     65  C   UNL A   1      40.732  30.441  34.666  1.00  0.00     0.049 A 
ATOM     66  H   UNL A   1      40.935  29.551  32.763  1.00  0.00     0.167 HD
ATOM     67  C   UNL A   1      38.880  31.404  33.332  1.00  0.00     0.074 A 
ATOM     68  C   UNL A   1      37.713  32.245  33.168  1.00  0.00     0.031 C 
ATOM     69  C   UNL A   1      39.576  31.284  34.490  1.00  0.00     0.037 A 
BRANCH  56  70
ATOM     70  C   UNL A   1      44.322  27.343  34.134  1.00  0.00     0.057 A 
ATOM     71  C   UNL A   1      45.610  27.895  34.172  1.00  0.00     0.134 A 
ATOM     72  C   UNL A   1      44.123  26.126  34.797  1.00  0.00     0.134 A 
ATOM     73  F   UNL A   1      45.874  29.051  33.543  1.00  0.00    -0.206 F 
ATOM     74  C   UNL A   1      46.664  27.247  34.819  1.00  0.00     0.040 A 
ATOM     75  C   UNL A   1      45.160  25.485  35.475  1.00  0.00     0.040 A 
ATOM     76  F   UNL A   1      42.915  25.544  34.804  1.00  0.00    -0.206 F 
ATOM     77  C   UNL A   1      46.438  26.041  35.481  1.00  0.00     0.006 A 
ENDBRANCH  56  70
BRANCH  57  78
ATOM     78  C   UNL A   1      36.792  31.542  29.122  1.00  0.00     0.057 A 
ATOM     79  C   UNL A   1      35.652  30.798  28.797  1.00  0.00     0.134 A 
ATOM     80  C   UNL A   1      36.828  32.878  28.705  1.00  0.00     0.134 A 
ATOM     81  F   UNL A   1      35.567  29.506  29.145  1.00  0.00    -0.206 F 
ATOM     82  C   UNL A   1      34.599  31.351  28.064  1.00  0.00     0.040 A 
ATOM     83  C   UNL A   1      35.771  33.453  27.997  1.00  0.00     0.040 A 
ATOM     84  F   UNL A   1      37.892  33.646  28.980  1.00  0.00    -0.206 F 
ATOM     85  C   UNL A   1      34.656  32.686  27.667  1.00  0.00     0.006 A 
ENDBRANCH  57  78
BRANCH  69  86
ATOM     86  C   UNL A   1      39.131  32.120  35.659  1.00  0.00     0.057 A 
ATOM     87  C   UNL A   1      39.551  33.445  35.835  1.00  0.00     0.134 A 
ATOM     88  C   UNL A   1      38.239  31.598  36.606  1.00  0.00     0.134 A 
ATOM     89  F   UNL A   1      40.411  34.007  34.972  1.00  0.00    -0.206 F 
ATOM     90  C   UNL A   1      39.127  34.208  36.926  1.00  0.00     0.040 A 
ATOM     91  C   UNL A   1      37.783  32.361  37.682  1.00  0.00     0.040 A 
ATOM     92  F   UNL A   1      37.784  30.340  36.493  1.00  0.00    -0.206 F 
ATOM     93  C   UNL A   1      38.235  33.667  37.850  1.00  0.00     0.006 A 
ENDBRANCH  69  86
ENDBRANCH  43  44
ENDBRANCH  36  38
ENDBRANCH  35  36
ENDBRANCH  34  35
ENDBRANCH  33  34
ENDBRANCH  32  33
ENDBRANCH  31  32
ENDBRANCH   1  31
TORSDOF 24
ENDMDL
MODEL 3
REMARK VINA RESULT:     -10.7      4.026      9.064
REMARK SMILES COCC[C@@]1(C(=O)OCCOCCOCCOC(=O)c2ccc(-c3c4nc(c(-c5c(F)cccc5F)c5ccc([nH]5)c(-c5c(F)cccc5F)c5nc(c(-c6c(F)cccc6F)c6ccc3[nH]6)C=C5)C=C4)cc2)CCCN(C(=O)NCc2ccc(OC)cc2)C1
REMARK SMILES IDX 12 1 11 2 10 3 9 4 8 5 6 6 7 7 5 8 74 9 90 10 75 11 77 12
REMARK SMILES IDX 76 13 4 14 3 15 2 16 1 17 78 18 79 19 80 20 81 22 82 23
REMARK SMILES IDX 83 24 89 25 84 26 88 27 85 28 86 29 87 30 13 31 14 32 15 33
REMARK SMILES IDX 16 34 17 35 18 36 19 37 20 38 21 39 73 40 22 41 72 42 23 43
REMARK SMILES IDX 24 44 25 45 66 46 26 47 71 48 65 49 67 50 27 51 70 52 64 53
REMARK SMILES IDX 63 54 28 56 54 57 37 58 53 59 38 60 41 61 52 62 68 63 39 64
REMARK SMILES IDX 40 65 51 67 69 68 42 69 29 70 30 71 35 72 31 73 32 74 34 75
REMARK SMILES IDX 36 76 33 77 55 78 56 79 61 80 57 81 58 82 60 83 62 84 59 85
REMARK SMILES IDX 43 86 44 87 49 88 45 89 46 90 48 91 50 92 47 93
REMARK H PARENT 80 21 67 55 41 66
REMARK Flexibility Score: inf
ROOT
ATOM      1  C   UNL A   1      34.062  31.653  28.233  1.00  0.00     0.188 C 
ENDROOT
BRANCH   1   2
ATOM      2  O   UNL A   1      34.066  31.070  26.957  1.00  0.00    -0.376 OA
BRANCH   2   3
ATOM      3  C   UNL A   1      33.012  30.226  26.530  1.00  0.00     0.202 C 
BRANCH   3   4
ATOM      4  C   UNL A   1      32.711  29.712  25.101  1.00  0.00     0.261 C 
BRANCH   4   5
ATOM      5  O   UNL A   1      31.773  28.651  24.877  1.00  0.00    -0.463 OA
BRANCH   5   6
ATOM      6  C   UNL A   1      32.343  27.463  24.555  1.00  0.00     0.314 C 
ATOM      7  O   UNL A   1      33.229  26.963  25.246  1.00  0.00    -0.252 OA
BRANCH   6   8
ATOM      8  C   UNL A   1      31.769  26.770  23.280  1.00  0.00     0.088 C 
ATOM      9  C   UNL A   1      30.654  27.735  22.761  1.00  0.00     0.022 C 
ATOM     10  C   UNL A   1      31.202  25.428  23.774  1.00  0.00     0.140 C 
ATOM     11  C   UNL A   1      29.348  27.711  23.577  1.00  0.00     0.023 C 
ATOM     12  N   UNL A   1      30.075  25.642  24.669  1.00  0.00    -0.324 N 
ATOM     13  C   UNL A   1      28.959  26.298  23.999  1.00  0.00     0.121 C 
BRANCH   8  14
ATOM     14  C   UNL A   1      32.807  26.523  22.132  1.00  0.00     0.049 C 
BRANCH  14  15
ATOM     15  C   UNL A   1      32.783  25.190  21.369  1.00  0.00     0.161 C 
BRANCH  15  16
ATOM     16  O   UNL A   1      33.752  24.269  21.862  1.00  0.00    -0.385 OA
ATOM     17  C   UNL A   1      33.259  22.972  22.154  1.00  0.00     0.194 C 
ENDBRANCH  15  16
ENDBRANCH  14  15
ENDBRANCH   8  14
BRANCH  12  18
ATOM     18  C   UNL A   1      30.322  25.436  25.995  1.00  0.00     0.317 C 
ATOM     19  O   UNL A   1      30.299  26.370  26.807  1.00  0.00    -0.249 OA
ATOM     20  N   UNL A   1      30.543  24.239  26.537  1.00  0.00    -0.334 N 
ATOM     21  H   UNL A   1      30.593  24.288  27.519  1.00  0.00     0.165 HD
BRANCH  20  22
ATOM     22  C   UNL A   1      30.730  22.890  26.062  1.00  0.00     0.153 C 
BRANCH  22  23
ATOM     23  C   UNL A   1      32.196  22.543  26.018  1.00  0.00    -0.028 A 
ATOM     24  C   UNL A   1      32.654  21.366  25.419  1.00  0.00     0.009 A 
ATOM     25  C   UNL A   1      33.135  23.407  26.604  1.00  0.00     0.009 A 
ATOM     26  C   UNL A   1      34.022  21.073  25.398  1.00  0.00     0.047 A 
ATOM     27  C   UNL A   1      34.498  23.112  26.583  1.00  0.00     0.047 A 
ATOM     28  C   UNL A   1      34.947  21.937  25.985  1.00  0.00     0.118 A 
BRANCH  28  29
ATOM     29  O   UNL A   1      36.251  21.529  25.915  1.00  0.00    -0.497 OA
ATOM     30  C   UNL A   1      36.532  20.473  25.005  1.00  0.00     0.278 C 
ENDBRANCH  28  29
ENDBRANCH  22  23
ENDBRANCH  20  22
ENDBRANCH  12  18
ENDBRANCH   6   8
ENDBRANCH   5   6
ENDBRANCH   4   5
ENDBRANCH   3   4
ENDBRANCH   2   3
ENDBRANCH   1   2
BRANCH   1  31
ATOM     31  C   UNL A   1      34.105  33.179  28.277  1.00  0.00     0.188 C 
BRANCH  31  32
ATOM     32  O   UNL A   1      34.957  33.856  29.167  1.00  0.00    -0.376 OA
BRANCH  32  33
ATOM     33  C   UNL A   1      34.416  34.491  30.311  1.00  0.00     0.202 C 
BRANCH  33  34
ATOM     34  C   UNL A   1      34.064  33.758  31.622  1.00  0.00     0.261 C 
BRANCH  34  35
ATOM     35  O   UNL A   1      34.546  32.420  31.801  1.00  0.00    -0.460 OA
BRANCH  35  36
ATOM     36  C   UNL A   1      35.632  32.285  32.600  1.00  0.00     0.338 C 
ATOM     37  O   UNL A   1      35.732  32.617  33.774  1.00  0.00    -0.246 OA
BRANCH  36  38
ATOM     38  C   UNL A   1      36.642  31.458  31.903  1.00  0.00     0.060 A 
ATOM     39  C   UNL A   1      37.607  30.782  32.667  1.00  0.00     0.016 A 
ATOM     40  C   UNL A   1      36.654  31.362  30.512  1.00  0.00     0.016 A 
ATOM     41  C   UNL A   1      38.607  30.038  32.043  1.00  0.00     0.010 A 
ATOM     42  C   UNL A   1      37.678  30.643  29.884  1.00  0.00     0.010 A 
ATOM     43  C   UNL A   1      38.680  30.010  30.645  1.00  0.00    -0.014 A 
BRANCH  43  44
ATOM     44  C   UNL A   1      39.920  29.525  29.989  1.00  0.00     0.031 A 
ATOM     45  C   UNL A   1      41.061  30.495  29.823  1.00  0.00     0.074 A 
ATOM     46  C   UNL A   1      40.054  28.254  29.572  1.00  0.00     0.049 A 
ATOM     47  N   UNL A   1      42.219  30.329  29.238  1.00  0.00    -0.248 NA
ATOM     48  C   UNL A   1      40.861  31.837  30.395  1.00  0.00     0.031 C 
ATOM     49  C   UNL A   1      39.051  27.202  29.715  1.00  0.00     0.029 A 
ATOM     50  N   UNL A   1      41.101  27.639  28.928  1.00  0.00    -0.354 N 
ATOM     51  C   UNL A   1      42.879  31.546  29.362  1.00  0.00     0.074 A 
ATOM     52  C   UNL A   1      41.982  32.449  30.048  1.00  0.00     0.031 C 
ATOM     53  C   UNL A   1      39.525  26.072  29.160  1.00  0.00     0.029 A 
ATOM     54  C   UNL A   1      40.850  26.331  28.595  1.00  0.00     0.049 A 
ATOM     55  H   UNL A   1      41.950  28.094  28.725  1.00  0.00     0.167 HD
ATOM     56  C   UNL A   1      44.126  31.879  28.952  1.00  0.00     0.037 A 
ATOM     57  C   UNL A   1      41.595  25.454  27.894  1.00  0.00     0.037 A 
ATOM     58  C   UNL A   1      45.020  30.984  28.266  1.00  0.00     0.049 A 
ATOM     59  C   UNL A   1      42.946  25.874  27.372  1.00  0.00     0.074 A 
ATOM     60  C   UNL A   1      46.307  31.226  27.819  1.00  0.00     0.029 A 
ATOM     61  N   UNL A   1      44.715  29.677  27.918  1.00  0.00    -0.354 N 
ATOM     62  N   UNL A   1      43.572  27.017  27.512  1.00  0.00    -0.248 NA
ATOM     63  C   UNL A   1      43.698  24.874  26.596  1.00  0.00     0.031 C 
ATOM     64  C   UNL A   1      46.758  30.086  27.148  1.00  0.00     0.029 A 
ATOM     65  C   UNL A   1      45.780  29.109  27.237  1.00  0.00     0.049 A 
ATOM     66  H   UNL A   1      43.868  29.220  28.123  1.00  0.00     0.167 HD
ATOM     67  C   UNL A   1      44.801  26.862  26.878  1.00  0.00     0.074 A 
ATOM     68  C   UNL A   1      44.836  25.509  26.364  1.00  0.00     0.031 C 
ATOM     69  C   UNL A   1      45.811  27.757  26.739  1.00  0.00     0.037 A 
BRANCH  56  70
ATOM     70  C   UNL A   1      44.583  33.286  29.208  1.00  0.00     0.057 A 
ATOM     71  C   UNL A   1      45.198  33.662  30.410  1.00  0.00     0.134 A 
ATOM     72  C   UNL A   1      44.423  34.276  28.229  1.00  0.00     0.134 A 
ATOM     73  F   UNL A   1      45.367  32.768  31.396  1.00  0.00    -0.206 F 
ATOM     74  C   UNL A   1      45.613  34.976  30.639  1.00  0.00     0.040 A 
ATOM     75  C   UNL A   1      44.862  35.584  28.434  1.00  0.00     0.040 A 
ATOM     76  F   UNL A   1      43.846  33.984  27.054  1.00  0.00    -0.206 F 
ATOM     77  C   UNL A   1      45.452  35.939  29.646  1.00  0.00     0.006 A 
ENDBRANCH  56  70
BRANCH  57  78
ATOM     78  C   UNL A   1      41.082  24.084  27.623  1.00  0.00     0.057 A 
ATOM     79  C   UNL A   1      41.600  22.969  28.292  1.00  0.00     0.134 A 
ATOM     80  C   UNL A   1      40.092  23.854  26.660  1.00  0.00     0.134 A 
ATOM     81  F   UNL A   1      42.569  23.120  29.206  1.00  0.00    -0.206 F 
ATOM     82  C   UNL A   1      41.170  21.673  27.998  1.00  0.00     0.040 A 
ATOM     83  C   UNL A   1      39.631  22.566  26.377  1.00  0.00     0.040 A 
ATOM     84  F   UNL A   1      39.555  24.877  25.980  1.00  0.00    -0.206 F 
ATOM     85  C   UNL A   1      40.178  21.470  27.041  1.00  0.00     0.006 A 
ENDBRANCH  57  78
BRANCH  69  86
ATOM     86  C   UNL A   1      47.063  27.291  26.048  1.00  0.00     0.057 A 
ATOM     87  C   UNL A   1      48.081  26.605  26.726  1.00  0.00     0.134 A 
ATOM     88  C   UNL A   1      47.237  27.502  24.674  1.00  0.00     0.134 A 
ATOM     89  F   UNL A   1      47.985  26.376  28.045  1.00  0.00    -0.206 F 
ATOM     90  C   UNL A   1      49.237  26.178  26.069  1.00  0.00     0.040 A 
ATOM     91  C   UNL A   1      48.373  27.051  24.000  1.00  0.00     0.040 A 
ATOM     92  F   UNL A   1      46.297  28.139  23.958  1.00  0.00    -0.206 F 
ATOM     93  C   UNL A   1      49.382  26.395  24.701  1.00  0.00     0.006 A 
ENDBRANCH  69  86
ENDBRANCH  43  44
ENDBRANCH  36  38
ENDBRANCH  35  36
ENDBRANCH  34  35
ENDBRANCH  33  34
ENDBRANCH  32  33
ENDBRANCH  31  32
ENDBRANCH   1  31
TORSDOF 24
ENDMDL
