MODEL 1
REMARK VINA RESULT:     -11.6      0.000      0.000
REMARK SMILES Cc1ccc(-c2cc(C[C@H]3CCCC3=O)ccc2[C@@H](C)C(=O)OCCOCCOCCOC(=O)c2ccc(-c3c4nc(c(-c5c(F)cccc5F)c5ccc([nH]5)c(-c5c(F)cccc5F)c5nc(c(-c6c(F)cccc6F)c6ccc3[nH]6)C=C5)C=C4)cc2)cc1
REMARK SMILES IDX 27 1 26 2 25 3 24 4 23 5 21 6 22 7 19 8 20 9 18 10 6 11 7 12
REMARK SMILES IDX 8 13 17 14 16 15 5 16 1 17 2 18 3 19 90 20 4 21 89 22 9 23
REMARK SMILES IDX 10 24 11 25 14 26 12 27 13 28 15 29 28 30 29 31 30 32 31 33
REMARK SMILES IDX 32 34 33 35 34 36 35 37 36 38 88 39 37 40 87 41 38 42 39 43
REMARK SMILES IDX 40 44 81 45 41 46 86 47 80 48 82 49 42 50 85 51 79 52 78 53
REMARK SMILES IDX 43 55 69 56 52 57 68 58 53 59 56 60 67 61 83 62 54 63 55 64
REMARK SMILES IDX 66 66 84 67 57 68 44 69 45 70 50 71 46 72 47 73 49 74 51 75
REMARK SMILES IDX 48 76 70 77 71 78 76 79 72 80 73 81 75 82 77 83 74 84 58 85
REMARK SMILES IDX 59 86 64 87 60 88 61 89 63 90 65 91 62 92
REMARK H PARENT 82 54 56 65
REMARK Flexibility Score: inf
ROOT
ATOM      1  C   UNL A   1      42.395  21.209  26.432  1.00  0.00     0.188 C 
ENDROOT
BRANCH   1   2
ATOM      2  O   UNL A   1      41.528  22.258  26.099  1.00  0.00    -0.376 OA
BRANCH   2   3
ATOM      3  C   UNL A   1      40.673  22.710  27.147  1.00  0.00     0.202 C 
BRANCH   3   4
ATOM      4  C   UNL A   1      39.422  23.668  26.884  1.00  0.00     0.261 C 
BRANCH   4   5
ATOM      5  O   UNL A   1      38.086  23.658  26.093  1.00  0.00    -0.463 OA
BRANCH   5   6
ATOM      6  C   UNL A   1      37.418  22.611  25.470  1.00  0.00     0.313 C 
ATOM      7  O   UNL A   1      37.779  21.473  25.766  1.00  0.00    -0.252 OA
BRANCH   6   8
ATOM      8  C   UNL A   1      36.123  22.717  24.527  1.00  0.00     0.127 C 
ATOM      9  C   UNL A   1      36.581  23.040  23.070  1.00  0.00     0.025 C 
BRANCH   8  10
ATOM     10  C   UNL A   1      34.850  23.569  24.875  1.00  0.00    -0.026 A 
ATOM     11  C   UNL A   1      33.575  22.974  24.918  1.00  0.00    -0.014 A 
ATOM     12  C   UNL A   1      32.468  23.671  25.474  1.00  0.00     0.012 A 
ATOM     13  C   UNL A   1      32.566  24.988  25.956  1.00  0.00    -0.047 A 
ATOM     14  C   UNL A   1      34.889  24.954  25.190  1.00  0.00     0.005 A 
ATOM     15  C   UNL A   1      33.782  25.638  25.746  1.00  0.00     0.004 A 
BRANCH  11  16
ATOM     16  C   UNL A   1      33.376  21.694  24.248  1.00  0.00    -0.018 A 
ATOM     17  C   UNL A   1      32.163  17.829  22.810  1.00  0.00     0.044 C 
ATOM     18  C   UNL A   1      32.636  19.170  23.282  1.00  0.00    -0.051 A 
ATOM     19  C   UNL A   1      32.178  20.333  22.652  1.00  0.00     0.004 A 
ATOM     20  C   UNL A   1      33.481  19.272  24.391  1.00  0.00     0.004 A 
ATOM     21  C   UNL A   1      32.559  21.588  23.121  1.00  0.00     0.009 A 
ATOM     22  C   UNL A   1      33.849  20.526  24.869  1.00  0.00     0.009 A 
ENDBRANCH  11  16
BRANCH  13  23
ATOM     23  C   UNL A   1      31.349  25.724  26.494  1.00  0.00     0.047 C 
BRANCH  23  24
ATOM     24  C   UNL A   1      31.214  27.257  26.484  1.00  0.00     0.060 C 
ATOM     25  C   UNL A   1      32.090  28.050  27.447  1.00  0.00     0.012 C 
ATOM     26  C   UNL A   1      31.441  27.996  25.187  1.00  0.00     0.136 C 
ATOM     27  C   UNL A   1      32.072  29.494  26.930  1.00  0.00     0.009 C 
ATOM     28  C   UNL A   1      31.822  29.436  25.427  1.00  0.00     0.076 C 
ATOM     29  O   UNL A   1      31.230  27.538  24.071  1.00  0.00    -0.299 OA
ENDBRANCH  23  24
ENDBRANCH  13  23
ENDBRANCH   8  10
ENDBRANCH   6   8
ENDBRANCH   5   6
ENDBRANCH   4   5
ENDBRANCH   3   4
ENDBRANCH   2   3
ENDBRANCH   1   2
BRANCH   1  30
ATOM     30  C   UNL A   1      43.769  21.231  25.751  1.00  0.00     0.188 C 
BRANCH  30  31
ATOM     31  O   UNL A   1      43.746  21.704  24.404  1.00  0.00    -0.376 OA
BRANCH  31  32
ATOM     32  C   UNL A   1      44.688  22.750  24.137  1.00  0.00     0.202 C 
BRANCH  32  33
ATOM     33  C   UNL A   1      44.234  24.123  24.654  1.00  0.00     0.261 C 
BRANCH  33  34
ATOM     34  O   UNL A   1      45.247  24.632  25.533  1.00  0.00    -0.460 OA
BRANCH  34  35
ATOM     35  C   UNL A   1      44.760  25.535  26.416  1.00  0.00     0.338 C 
ATOM     36  O   UNL A   1      44.412  26.670  26.149  1.00  0.00    -0.246 OA
BRANCH  35  37
ATOM     37  C   UNL A   1      44.922  24.992  27.791  1.00  0.00     0.060 A 
ATOM     38  C   UNL A   1      43.835  24.348  28.318  1.00  0.00     0.016 A 
ATOM     39  C   UNL A   1      45.981  25.313  28.653  1.00  0.00     0.016 A 
ATOM     40  C   UNL A   1      43.754  24.258  29.707  1.00  0.00     0.010 A 
ATOM     41  C   UNL A   1      45.837  25.221  30.057  1.00  0.00     0.010 A 
ATOM     42  C   UNL A   1      44.639  24.807  30.623  1.00  0.00    -0.014 A 
BRANCH  42  43
ATOM     43  C   UNL A   1      44.325  25.034  32.083  1.00  0.00     0.031 A 
ATOM     44  C   UNL A   1      44.008  26.423  32.518  1.00  0.00     0.074 A 
ATOM     45  C   UNL A   1      44.292  24.144  33.134  1.00  0.00     0.049 A 
ATOM     46  N   UNL A   1      43.986  26.814  33.757  1.00  0.00    -0.248 NA
ATOM     47  C   UNL A   1      43.832  27.530  31.573  1.00  0.00     0.031 C 
ATOM     48  C   UNL A   1      43.284  24.141  34.198  1.00  0.00     0.029 A 
ATOM     49  N   UNL A   1      45.131  23.116  33.570  1.00  0.00    -0.354 N 
ATOM     50  C   UNL A   1      43.343  28.023  33.748  1.00  0.00     0.074 A 
ATOM     51  C   UNL A   1      43.568  28.529  32.422  1.00  0.00     0.031 C 
ATOM     52  C   UNL A   1      43.591  23.237  35.148  1.00  0.00     0.029 A 
ATOM     53  C   UNL A   1      44.894  22.653  34.871  1.00  0.00     0.049 A 
ATOM     54  H   UNL A   1      45.842  22.741  33.000  1.00  0.00     0.167 HD
ATOM     55  C   UNL A   1      42.434  28.294  34.728  1.00  0.00     0.037 A 
ATOM     56  C   UNL A   1      45.831  22.156  35.758  1.00  0.00     0.037 A 
ATOM     57  C   UNL A   1      42.560  27.384  35.878  1.00  0.00     0.049 A 
ATOM     58  C   UNL A   1      45.797  22.975  37.016  1.00  0.00     0.074 A 
ATOM     59  C   UNL A   1      41.721  26.409  36.395  1.00  0.00     0.029 A 
ATOM     60  N   UNL A   1      43.765  27.264  36.576  1.00  0.00    -0.354 N 
ATOM     61  N   UNL A   1      45.111  24.074  37.072  1.00  0.00    -0.248 NA
ATOM     62  C   UNL A   1      46.559  22.735  38.240  1.00  0.00     0.031 C 
ATOM     63  C   UNL A   1      42.427  25.701  37.399  1.00  0.00     0.029 A 
ATOM     64  C   UNL A   1      43.688  26.260  37.526  1.00  0.00     0.049 A 
ATOM     65  H   UNL A   1      44.562  27.820  36.414  1.00  0.00     0.167 HD
ATOM     66  C   UNL A   1      45.356  24.719  38.235  1.00  0.00     0.074 A 
ATOM     67  C   UNL A   1      46.255  23.836  38.954  1.00  0.00     0.031 C 
ATOM     68  C   UNL A   1      44.797  25.945  38.430  1.00  0.00     0.037 A 
BRANCH  55  69
ATOM     69  C   UNL A   1      41.212  29.197  34.524  1.00  0.00     0.057 A 
ATOM     70  C   UNL A   1      40.924  30.216  35.457  1.00  0.00     0.134 A 
ATOM     71  C   UNL A   1      40.215  29.056  33.530  1.00  0.00     0.134 A 
ATOM     72  F   UNL A   1      41.754  30.493  36.473  1.00  0.00    -0.206 F 
ATOM     73  C   UNL A   1      39.755  30.996  35.414  1.00  0.00     0.040 A 
ATOM     74  C   UNL A   1      39.074  29.866  33.444  1.00  0.00     0.040 A 
ATOM     75  F   UNL A   1      40.230  28.096  32.604  1.00  0.00    -0.206 F 
ATOM     76  C   UNL A   1      38.830  30.833  34.397  1.00  0.00     0.006 A 
ENDBRANCH  55  69
BRANCH  56  77
ATOM     77  C   UNL A   1      47.080  21.433  35.311  1.00  0.00     0.057 A 
ATOM     78  C   UNL A   1      46.994  20.122  34.820  1.00  0.00     0.134 A 
ATOM     79  C   UNL A   1      48.340  22.030  35.175  1.00  0.00     0.134 A 
ATOM     80  F   UNL A   1      45.882  19.399  35.030  1.00  0.00    -0.206 F 
ATOM     81  C   UNL A   1      47.989  19.554  34.004  1.00  0.00     0.040 A 
ATOM     82  C   UNL A   1      49.340  21.486  34.347  1.00  0.00     0.040 A 
ATOM     83  F   UNL A   1      48.612  23.199  35.774  1.00  0.00    -0.206 F 
ATOM     84  C   UNL A   1      49.139  20.270  33.704  1.00  0.00     0.006 A 
ENDBRANCH  56  77
BRANCH  68  85
ATOM     85  C   UNL A   1      45.150  26.871  39.549  1.00  0.00     0.057 A 
ATOM     86  C   UNL A   1      44.749  26.691  40.881  1.00  0.00     0.134 A 
ATOM     87  C   UNL A   1      46.033  27.944  39.319  1.00  0.00     0.134 A 
ATOM     88  F   UNL A   1      44.005  25.642  41.257  1.00  0.00    -0.206 F 
ATOM     89  C   UNL A   1      45.140  27.564  41.900  1.00  0.00     0.040 A 
ATOM     90  C   UNL A   1      46.471  28.790  40.336  1.00  0.00     0.040 A 
ATOM     91  F   UNL A   1      46.521  28.206  38.096  1.00  0.00    -0.206 F 
ATOM     92  C   UNL A   1      46.010  28.614  41.631  1.00  0.00     0.006 A 
ENDBRANCH  68  85
ENDBRANCH  42  43
ENDBRANCH  35  37
ENDBRANCH  34  35
ENDBRANCH  33  34
ENDBRANCH  32  33
ENDBRANCH  31  32
ENDBRANCH  30  31
ENDBRANCH   1  30
TORSDOF 21
ENDMDL
MODEL 2
REMARK VINA RESULT:     -11.5      5.978      7.745
REMARK SMILES Cc1ccc(-c2cc(C[C@H]3CCCC3=O)ccc2[C@@H](C)C(=O)OCCOCCOCCOC(=O)c2ccc(-c3c4nc(c(-c5c(F)cccc5F)c5ccc([nH]5)c(-c5c(F)cccc5F)c5nc(c(-c6c(F)cccc6F)c6ccc3[nH]6)C=C5)C=C4)cc2)cc1
REMARK SMILES IDX 27 1 26 2 25 3 24 4 23 5 21 6 22 7 19 8 20 9 18 10 6 11 7 12
REMARK SMILES IDX 8 13 17 14 16 15 5 16 1 17 2 18 3 19 90 20 4 21 89 22 9 23
REMARK SMILES IDX 10 24 11 25 14 26 12 27 13 28 15 29 28 30 29 31 30 32 31 33
REMARK SMILES IDX 32 34 33 35 34 36 35 37 36 38 88 39 37 40 87 41 38 42 39 43
REMARK SMILES IDX 40 44 81 45 41 46 86 47 80 48 82 49 42 50 85 51 79 52 78 53
REMARK SMILES IDX 43 55 69 56 52 57 68 58 53 59 56 60 67 61 83 62 54 63 55 64
REMARK SMILES IDX 66 66 84 67 57 68 44 69 45 70 50 71 46 72 47 73 49 74 51 75
REMARK SMILES IDX 48 76 70 77 71 78 76 79 72 80 73 81 75 82 77 83 74 84 58 85
REMARK SMILES IDX 59 86 64 87 60 88 61 89 63 90 65 91 62 92
REMARK H PARENT 82 54 56 65
REMARK Flexibility Score: inf
ROOT
ATOM      1  C   UNL A   1      41.118  19.235  26.295  1.00  0.00     0.188 C 
ENDROOT
BRANCH   1   2
ATOM      2  O   UNL A   1      41.032  20.434  25.576  1.00  0.00    -0.376 OA
BRANCH   2   3
ATOM      3  C   UNL A   1      40.469  21.539  26.280  1.00  0.00     0.202 C 
BRANCH   3   4
ATOM      4  C   UNL A   1      38.927  21.938  26.163  1.00  0.00     0.261 C 
BRANCH   4   5
ATOM      5  O   UNL A   1      37.660  21.499  25.380  1.00  0.00    -0.463 OA
BRANCH   5   6
ATOM      6  C   UNL A   1      36.374  22.025  25.384  1.00  0.00     0.313 C 
ATOM      7  O   UNL A   1      35.916  22.353  26.477  1.00  0.00    -0.252 OA
BRANCH   6   8
ATOM      8  C   UNL A   1      35.480  22.398  24.104  1.00  0.00     0.127 C 
ATOM      9  C   UNL A   1      36.420  22.845  22.941  1.00  0.00     0.025 C 
BRANCH   8  10
ATOM     10  C   UNL A   1      34.225  23.342  24.153  1.00  0.00    -0.026 A 
ATOM     11  C   UNL A   1      32.965  22.846  24.539  1.00  0.00    -0.014 A 
ATOM     12  C   UNL A   1      31.894  23.734  24.829  1.00  0.00     0.012 A 
ATOM     13  C   UNL A   1      32.010  25.129  24.700  1.00  0.00    -0.047 A 
ATOM     14  C   UNL A   1      34.268  24.729  23.849  1.00  0.00     0.005 A 
ATOM     15  C   UNL A   1      33.198  25.605  24.144  1.00  0.00     0.004 A 
BRANCH  11  16
ATOM     16  C   UNL A   1      32.733  21.406  24.490  1.00  0.00    -0.018 A 
ATOM     17  C   UNL A   1      32.814  17.134  24.026  1.00  0.00     0.044 C 
ATOM     18  C   UNL A   1      32.728  18.620  24.195  1.00  0.00    -0.051 A 
ATOM     19  C   UNL A   1      33.060  19.203  25.424  1.00  0.00     0.004 A 
ATOM     20  C   UNL A   1      32.383  19.437  23.115  1.00  0.00     0.004 A 
ATOM     21  C   UNL A   1      33.046  20.587  25.576  1.00  0.00     0.009 A 
ATOM     22  C   UNL A   1      32.384  20.820  23.262  1.00  0.00     0.009 A 
ENDBRANCH  11  16
BRANCH  13  23
ATOM     23  C   UNL A   1      30.827  26.047  24.966  1.00  0.00     0.047 C 
BRANCH  23  24
ATOM     24  C   UNL A   1      30.949  27.390  25.708  1.00  0.00     0.060 C 
ATOM     25  C   UNL A   1      31.801  27.425  26.972  1.00  0.00     0.012 C 
ATOM     26  C   UNL A   1      31.473  28.589  24.954  1.00  0.00     0.136 C 
ATOM     27  C   UNL A   1      32.093  28.907  27.234  1.00  0.00     0.009 C 
ATOM     28  C   UNL A   1      32.049  29.625  25.889  1.00  0.00     0.076 C 
ATOM     29  O   UNL A   1      31.348  28.773  23.750  1.00  0.00    -0.299 OA
ENDBRANCH  23  24
ENDBRANCH  13  23
ENDBRANCH   8  10
ENDBRANCH   6   8
ENDBRANCH   5   6
ENDBRANCH   4   5
ENDBRANCH   3   4
ENDBRANCH   2   3
ENDBRANCH   1   2
BRANCH   1  30
ATOM     30  C   UNL A   1      42.534  18.775  26.666  1.00  0.00     0.188 C 
BRANCH  30  31
ATOM     31  O   UNL A   1      43.310  18.320  25.557  1.00  0.00    -0.376 OA
BRANCH  31  32
ATOM     32  C   UNL A   1      44.699  18.133  25.855  1.00  0.00     0.202 C 
BRANCH  32  33
ATOM     33  C   UNL A   1      45.631  18.943  24.942  1.00  0.00     0.261 C 
BRANCH  33  34
ATOM     34  O   UNL A   1      45.541  20.325  25.315  1.00  0.00    -0.460 OA
BRANCH  34  35
ATOM     35  C   UNL A   1      44.781  21.045  24.458  1.00  0.00     0.338 C 
ATOM     36  O   UNL A   1      44.820  20.973  23.244  1.00  0.00    -0.246 OA
BRANCH  35  37
ATOM     37  C   UNL A   1      44.050  22.087  25.230  1.00  0.00     0.060 A 
ATOM     38  C   UNL A   1      43.556  23.138  24.506  1.00  0.00     0.016 A 
ATOM     39  C   UNL A   1      44.063  22.195  26.628  1.00  0.00     0.016 A 
ATOM     40  C   UNL A   1      43.310  24.328  25.190  1.00  0.00     0.010 A 
ATOM     41  C   UNL A   1      43.826  23.434  27.269  1.00  0.00     0.010 A 
ATOM     42  C   UNL A   1      43.570  24.580  26.528  1.00  0.00    -0.014 A 
BRANCH  42  43
ATOM     43  C   UNL A   1      43.669  25.960  27.135  1.00  0.00     0.031 A 
ATOM     44  C   UNL A   1      42.441  26.804  27.147  1.00  0.00     0.074 A 
ATOM     45  C   UNL A   1      44.747  26.610  27.694  1.00  0.00     0.049 A 
ATOM     46  N   UNL A   1      42.435  28.082  27.380  1.00  0.00    -0.248 NA
ATOM     47  C   UNL A   1      41.125  26.296  26.747  1.00  0.00     0.031 C 
ATOM     48  C   UNL A   1      44.692  27.436  28.903  1.00  0.00     0.029 A 
ATOM     49  N   UNL A   1      46.084  26.777  27.327  1.00  0.00    -0.354 N 
ATOM     50  C   UNL A   1      41.127  28.402  27.627  1.00  0.00     0.074 A 
ATOM     51  C   UNL A   1      40.381  27.393  26.928  1.00  0.00     0.031 C 
ATOM     52  C   UNL A   1      45.876  28.041  29.126  1.00  0.00     0.029 A 
ATOM     53  C   UNL A   1      46.781  27.778  28.018  1.00  0.00     0.049 A 
ATOM     54  H   UNL A   1      46.510  26.228  26.629  1.00  0.00     0.167 HD
ATOM     55  C   UNL A   1      40.839  29.264  28.644  1.00  0.00     0.037 A 
ATOM     56  C   UNL A   1      47.807  28.564  27.528  1.00  0.00     0.037 A 
ATOM     57  C   UNL A   1      42.021  30.023  29.089  1.00  0.00     0.049 A 
ATOM     58  C   UNL A   1      47.421  30.009  27.655  1.00  0.00     0.074 A 
ATOM     59  C   UNL A   1      42.738  30.027  30.275  1.00  0.00     0.029 A 
ATOM     60  N   UNL A   1      42.752  30.809  28.194  1.00  0.00    -0.354 N 
ATOM     61  N   UNL A   1      46.213  30.345  27.990  1.00  0.00    -0.248 NA
ATOM     62  C   UNL A   1      48.250  31.170  27.341  1.00  0.00     0.031 C 
ATOM     63  C   UNL A   1      43.903  30.811  30.088  1.00  0.00     0.029 A 
ATOM     64  C   UNL A   1      43.888  31.318  28.799  1.00  0.00     0.049 A 
ATOM     65  H   UNL A   1      42.494  30.977  27.259  1.00  0.00     0.167 HD
ATOM     66  C   UNL A   1      46.054  31.684  27.885  1.00  0.00     0.074 A 
ATOM     67  C   UNL A   1      47.363  32.172  27.495  1.00  0.00     0.031 C 
ATOM     68  C   UNL A   1      44.818  32.211  28.103  1.00  0.00     0.037 A 
BRANCH  55  69
ATOM     69  C   UNL A   1      39.544  29.208  29.461  1.00  0.00     0.057 A 
ATOM     70  C   UNL A   1      38.334  29.667  28.898  1.00  0.00     0.134 A 
ATOM     71  C   UNL A   1      39.420  28.847  30.823  1.00  0.00     0.134 A 
ATOM     72  F   UNL A   1      38.259  30.057  27.618  1.00  0.00    -0.206 F 
ATOM     73  C   UNL A   1      37.134  29.773  29.623  1.00  0.00     0.040 A 
ATOM     74  C   UNL A   1      38.216  28.893  31.540  1.00  0.00     0.040 A 
ATOM     75  F   UNL A   1      40.452  28.477  31.583  1.00  0.00    -0.206 F 
ATOM     76  C   UNL A   1      37.067  29.372  30.947  1.00  0.00     0.006 A 
ENDBRANCH  55  69
BRANCH  56  77
ATOM     77  C   UNL A   1      48.768  28.087  26.464  1.00  0.00     0.057 A 
ATOM     78  C   UNL A   1      50.108  27.829  26.793  1.00  0.00     0.134 A 
ATOM     79  C   UNL A   1      48.396  27.699  25.170  1.00  0.00     0.134 A 
ATOM     80  F   UNL A   1      50.615  28.292  27.947  1.00  0.00    -0.206 F 
ATOM     81  C   UNL A   1      50.931  26.999  26.013  1.00  0.00     0.040 A 
ATOM     82  C   UNL A   1      49.199  26.851  24.384  1.00  0.00     0.040 A 
ATOM     83  F   UNL A   1      47.209  28.061  24.661  1.00  0.00    -0.206 F 
ATOM     84  C   UNL A   1      50.449  26.445  24.836  1.00  0.00     0.006 A 
ENDBRANCH  56  77
BRANCH  68  85
ATOM     85  C   UNL A   1      44.435  33.625  27.807  1.00  0.00     0.057 A 
ATOM     86  C   UNL A   1      44.645  34.701  28.680  1.00  0.00     0.134 A 
ATOM     87  C   UNL A   1      43.930  33.963  26.536  1.00  0.00     0.134 A 
ATOM     88  F   UNL A   1      45.228  34.535  29.876  1.00  0.00    -0.206 F 
ATOM     89  C   UNL A   1      44.305  36.014  28.341  1.00  0.00     0.040 A 
ATOM     90  C   UNL A   1      43.636  35.274  26.167  1.00  0.00     0.040 A 
ATOM     91  F   UNL A   1      43.715  33.033  25.592  1.00  0.00    -0.206 F 
ATOM     92  C   UNL A   1      43.806  36.305  27.077  1.00  0.00     0.006 A 
ENDBRANCH  68  85
ENDBRANCH  42  43
ENDBRANCH  35  37
ENDBRANCH  34  35
ENDBRANCH  33  34
ENDBRANCH  32  33
ENDBRANCH  31  32
ENDBRANCH  30  31
ENDBRANCH   1  30
TORSDOF 21
ENDMDL
MODEL 3
REMARK VINA RESULT:     -11.4      4.201      9.295
REMARK SMILES Cc1ccc(-c2cc(C[C@H]3CCCC3=O)ccc2[C@@H](C)C(=O)OCCOCCOCCOC(=O)c2ccc(-c3c4nc(c(-c5c(F)cccc5F)c5ccc([nH]5)c(-c5c(F)cccc5F)c5nc(c(-c6c(F)cccc6F)c6ccc3[nH]6)C=C5)C=C4)cc2)cc1
REMARK SMILES IDX 27 1 26 2 25 3 24 4 23 5 21 6 22 7 19 8 20 9 18 10 6 11 7 12
REMARK SMILES IDX 8 13 17 14 16 15 5 16 1 17 2 18 3 19 90 20 4 21 89 22 9 23
REMARK SMILES IDX 10 24 11 25 14 26 12 27 13 28 15 29 28 30 29 31 30 32 31 33
REMARK SMILES IDX 32 34 33 35 34 36 35 37 36 38 88 39 37 40 87 41 38 42 39 43
REMARK SMILES IDX 40 44 81 45 41 46 86 47 80 48 82 49 42 50 85 51 79 52 78 53
REMARK SMILES IDX 43 55 69 56 52 57 68 58 53 59 56 60 67 61 83 62 54 63 55 64
REMARK SMILES IDX 66 66 84 67 57 68 44 69 45 70 50 71 46 72 47 73 49 74 51 75
REMARK SMILES IDX 48 76 70 77 71 78 76 79 72 80 73 81 75 82 77 83 74 84 58 85
REMARK SMILES IDX 59 86 64 87 60 88 61 89 63 90 65 91 62 92
REMARK H PARENT 82 54 56 65
REMARK Flexibility Score: inf
ROOT
ATOM      1  C   UNL A   1      38.469  21.942  25.801  1.00  0.00     0.188 C 
ENDROOT
BRANCH   1   2
ATOM      2  O   UNL A   1      37.097  21.872  25.528  1.00  0.00    -0.376 OA
BRANCH   2   3
ATOM      3  C   UNL A   1      36.718  22.158  24.183  1.00  0.00     0.202 C 
BRANCH   3   4
ATOM      4  C   UNL A   1      35.334  22.861  23.809  1.00  0.00     0.261 C 
BRANCH   4   5
ATOM      5  O   UNL A   1      34.545  24.153  24.159  1.00  0.00    -0.463 OA
BRANCH   5   6
ATOM      6  C   UNL A   1      33.177  24.365  24.279  1.00  0.00     0.313 C 
ATOM      7  O   UNL A   1      32.442  23.556  23.715  1.00  0.00    -0.252 OA
BRANCH   6   8
ATOM      8  C   UNL A   1      32.448  25.456  25.203  1.00  0.00     0.127 C 
ATOM      9  C   UNL A   1      32.052  24.791  26.559  1.00  0.00     0.025 C 
BRANCH   8  10
ATOM     10  C   UNL A   1      31.274  26.379  24.713  1.00  0.00    -0.026 A 
ATOM     11  C   UNL A   1      31.433  27.777  24.660  1.00  0.00    -0.014 A 
ATOM     12  C   UNL A   1      30.480  28.589  23.987  1.00  0.00     0.012 A 
ATOM     13  C   UNL A   1      29.320  28.063  23.392  1.00  0.00    -0.047 A 
ATOM     14  C   UNL A   1      30.015  25.890  24.276  1.00  0.00     0.005 A 
ATOM     15  C   UNL A   1      29.075  26.705  23.604  1.00  0.00     0.004 A 
BRANCH  11  16
ATOM     16  C   UNL A   1      32.506  28.391  25.433  1.00  0.00    -0.018 A 
ATOM     17  C   UNL A   1      35.567  29.553  28.219  1.00  0.00     0.044 C 
ATOM     18  C   UNL A   1      34.502  29.202  27.226  1.00  0.00    -0.051 A 
ATOM     19  C   UNL A   1      34.835  28.490  26.067  1.00  0.00     0.004 A 
ATOM     20  C   UNL A   1      33.165  29.522  27.479  1.00  0.00     0.004 A 
ATOM     21  C   UNL A   1      33.845  28.102  25.167  1.00  0.00     0.009 A 
ATOM     22  C   UNL A   1      32.175  29.121  26.588  1.00  0.00     0.009 A 
ENDBRANCH  11  16
BRANCH  13  23
ATOM     23  C   UNL A   1      28.295  28.967  22.726  1.00  0.00     0.047 C 
BRANCH  23  24
ATOM     24  C   UNL A   1      28.653  30.312  22.069  1.00  0.00     0.060 C 
ATOM     25  C   UNL A   1      27.874  30.720  20.824  1.00  0.00     0.012 C 
ATOM     26  C   UNL A   1      28.577  31.569  22.902  1.00  0.00     0.136 C 
ATOM     27  C   UNL A   1      28.119  32.225  20.657  1.00  0.00     0.009 C 
ATOM     28  C   UNL A   1      28.403  32.796  22.042  1.00  0.00     0.076 C 
ATOM     29  O   UNL A   1      28.752  31.621  24.113  1.00  0.00    -0.299 OA
ENDBRANCH  23  24
ENDBRANCH  13  23
ENDBRANCH   8  10
ENDBRANCH   6   8
ENDBRANCH   5   6
ENDBRANCH   4   5
ENDBRANCH   3   4
ENDBRANCH   2   3
ENDBRANCH   1   2
BRANCH   1  30
ATOM     30  C   UNL A   1      38.945  23.203  26.534  1.00  0.00     0.188 C 
BRANCH  30  31
ATOM     31  O   UNL A   1      40.176  23.039  27.239  1.00  0.00    -0.376 OA
BRANCH  31  32
ATOM     32  C   UNL A   1      41.337  23.398  26.479  1.00  0.00     0.202 C 
BRANCH  32  33
ATOM     33  C   UNL A   1      42.032  24.666  26.992  1.00  0.00     0.261 C 
BRANCH  33  34
ATOM     34  O   UNL A   1      41.026  25.574  27.463  1.00  0.00    -0.460 OA
BRANCH  34  35
ATOM     35  C   UNL A   1      40.906  26.668  26.675  1.00  0.00     0.338 C 
ATOM     36  O   UNL A   1      41.376  26.792  25.560  1.00  0.00    -0.246 OA
BRANCH  35  37
ATOM     37  C   UNL A   1      40.297  27.766  27.474  1.00  0.00     0.060 A 
ATOM     38  C   UNL A   1      41.060  28.891  27.633  1.00  0.00     0.016 A 
ATOM     39  C   UNL A   1      39.148  27.629  28.267  1.00  0.00     0.016 A 
ATOM     40  C   UNL A   1      40.773  29.712  28.723  1.00  0.00     0.010 A 
ATOM     41  C   UNL A   1      38.917  28.478  29.374  1.00  0.00     0.010 A 
ATOM     42  C   UNL A   1      39.823  29.477  29.706  1.00  0.00    -0.014 A 
BRANCH  42  43
ATOM     43  C   UNL A   1      39.804  30.154  31.056  1.00  0.00     0.031 A 
ATOM     44  C   UNL A   1      40.342  29.398  32.221  1.00  0.00     0.074 A 
ATOM     45  C   UNL A   1      39.345  31.402  31.417  1.00  0.00     0.049 A 
ATOM     46  N   UNL A   1      40.147  29.732  33.462  1.00  0.00    -0.248 NA
ATOM     47  C   UNL A   1      41.024  28.109  32.084  1.00  0.00     0.031 C 
ATOM     48  C   UNL A   1      40.017  32.301  32.359  1.00  0.00     0.029 A 
ATOM     49  N   UNL A   1      38.191  32.138  31.136  1.00  0.00    -0.354 N 
ATOM     50  C   UNL A   1      41.056  29.005  34.183  1.00  0.00     0.074 A 
ATOM     51  C   UNL A   1      41.308  27.851  33.365  1.00  0.00     0.031 C 
ATOM     52  C   UNL A   1      39.261  33.389  32.607  1.00  0.00     0.029 A 
ATOM     53  C   UNL A   1      37.967  33.250  31.958  1.00  0.00     0.049 A 
ATOM     54  H   UNL A   1      37.577  31.891  30.406  1.00  0.00     0.167 HD
ATOM     55  C   UNL A   1      41.725  29.611  35.204  1.00  0.00     0.037 A 
ATOM     56  C   UNL A   1      36.742  33.765  32.341  1.00  0.00     0.037 A 
ATOM     57  C   UNL A   1      41.087  30.871  35.625  1.00  0.00     0.049 A 
ATOM     58  C   UNL A   1      36.663  33.777  33.839  1.00  0.00     0.074 A 
ATOM     59  C   UNL A   1      41.494  32.194  35.556  1.00  0.00     0.029 A 
ATOM     60  N   UNL A   1      39.756  30.898  36.047  1.00  0.00    -0.354 N 
ATOM     61  N   UNL A   1      37.567  33.184  34.556  1.00  0.00    -0.248 NA
ATOM     62  C   UNL A   1      35.582  34.324  34.657  1.00  0.00     0.031 C 
ATOM     63  C   UNL A   1      40.403  33.015  35.931  1.00  0.00     0.029 A 
ATOM     64  C   UNL A   1      39.334  32.200  36.264  1.00  0.00     0.049 A 
ATOM     65  H   UNL A   1      39.192  30.100  36.173  1.00  0.00     0.167 HD
ATOM     66  C   UNL A   1      37.208  33.186  35.860  1.00  0.00     0.074 A 
ATOM     67  C   UNL A   1      35.963  33.932  35.888  1.00  0.00     0.031 C 
ATOM     68  C   UNL A   1      37.990  32.520  36.752  1.00  0.00     0.037 A 
BRANCH  55  69
ATOM     69  C   UNL A   1      43.146  29.227  35.633  1.00  0.00     0.057 A 
ATOM     70  C   UNL A   1      43.348  28.150  36.521  1.00  0.00     0.134 A 
ATOM     71  C   UNL A   1      44.337  29.927  35.329  1.00  0.00     0.134 A 
ATOM     72  F   UNL A   1      42.333  27.373  36.926  1.00  0.00    -0.206 F 
ATOM     73  C   UNL A   1      44.603  27.819  37.064  1.00  0.00     0.040 A 
ATOM     74  C   UNL A   1      45.602  29.572  35.818  1.00  0.00     0.040 A 
ATOM     75  F   UNL A   1      44.370  31.036  34.587  1.00  0.00    -0.206 F 
ATOM     76  C   UNL A   1      45.739  28.523  36.703  1.00  0.00     0.006 A 
ENDBRANCH  55  69
BRANCH  56  77
ATOM     77  C   UNL A   1      35.506  33.665  31.478  1.00  0.00     0.057 A 
ATOM     78  C   UNL A   1      34.735  34.810  31.223  1.00  0.00     0.134 A 
ATOM     79  C   UNL A   1      35.138  32.532  30.741  1.00  0.00     0.134 A 
ATOM     80  F   UNL A   1      34.898  35.909  31.976  1.00  0.00    -0.206 F 
ATOM     81  C   UNL A   1      33.862  34.903  30.125  1.00  0.00     0.040 A 
ATOM     82  C   UNL A   1      34.281  32.611  29.627  1.00  0.00     0.040 A 
ATOM     83  F   UNL A   1      35.660  31.330  31.026  1.00  0.00    -0.206 F 
ATOM     84  C   UNL A   1      33.689  33.819  29.276  1.00  0.00     0.006 A 
ENDBRANCH  56  77
BRANCH  68  85
ATOM     85  C   UNL A   1      37.610  32.242  38.171  1.00  0.00     0.057 A 
ATOM     86  C   UNL A   1      37.149  31.003  38.638  1.00  0.00     0.134 A 
ATOM     87  C   UNL A   1      37.819  33.225  39.158  1.00  0.00     0.134 A 
ATOM     88  F   UNL A   1      37.019  29.947  37.823  1.00  0.00    -0.206 F 
ATOM     89  C   UNL A   1      36.845  30.780  39.984  1.00  0.00     0.040 A 
ATOM     90  C   UNL A   1      37.569  32.999  40.510  1.00  0.00     0.040 A 
ATOM     91  F   UNL A   1      38.291  34.443  38.851  1.00  0.00    -0.206 F 
ATOM     92  C   UNL A   1      37.063  31.778  40.927  1.00  0.00     0.006 A 
ENDBRANCH  68  85
ENDBRANCH  42  43
ENDBRANCH  35  37
ENDBRANCH  34  35
ENDBRANCH  33  34
ENDBRANCH  32  33
ENDBRANCH  31  32
ENDBRANCH  30  31
ENDBRANCH   1  30
TORSDOF 21
ENDMDL
