MODEL 1
REMARK VINA RESULT:     -10.2      0.000      0.000
REMARK SMILES COCC[C@]1(C(=O)OCCOCCOCCOC(=O)c2ccc(-c3c4nc(c(-c5c(F)cccc5F)c5ccc([nH]5)c(-c5c(F)cccc5F)c5nc(c(-c6c(F)cccc6F)c6ccc3[nH]6)C=C5)C=C4)cc2)CCCN(C(=O)Cc2c(C)nc(C)[nH]c2=O)C1
REMARK SMILES IDX 12 1 11 2 10 3 9 4 8 5 6 6 7 7 5 8 74 9 90 10 75 11 77 12
REMARK SMILES IDX 76 13 4 14 3 15 2 16 1 17 78 18 79 19 80 20 81 21 82 22
REMARK SMILES IDX 88 23 83 24 84 25 87 26 89 27 85 28 86 30 13 31 14 32 15 33
REMARK SMILES IDX 16 34 17 35 18 36 19 37 20 38 21 39 73 40 22 41 72 42 23 43
REMARK SMILES IDX 24 44 25 45 66 46 26 47 71 48 65 49 67 50 27 51 70 52 64 53
REMARK SMILES IDX 63 54 28 56 54 57 37 58 53 59 38 60 41 61 52 62 68 63 39 64
REMARK SMILES IDX 40 65 51 67 69 68 42 69 29 70 30 71 35 72 31 73 32 74 34 75
REMARK SMILES IDX 36 76 33 77 55 78 56 79 61 80 57 81 58 82 60 83 62 84 59 85
REMARK SMILES IDX 43 86 44 87 49 88 45 89 46 90 48 91 50 92 47 93
REMARK H PARENT 87 29 67 55 41 66
REMARK Flexibility Score: inf
ROOT
ATOM      1  C   UNL A   1      33.990  33.093  28.185  1.00  0.00     0.188 C 
ENDROOT
BRANCH   1   2
ATOM      2  O   UNL A   1      34.631  31.955  27.628  1.00  0.00    -0.376 OA
BRANCH   2   3
ATOM      3  C   UNL A   1      33.977  30.692  27.646  1.00  0.00     0.202 C 
BRANCH   3   4
ATOM      4  C   UNL A   1      32.929  30.349  26.572  1.00  0.00     0.261 C 
BRANCH   4   5
ATOM      5  O   UNL A   1      32.368  29.018  26.625  1.00  0.00    -0.463 OA
BRANCH   5   6
ATOM      6  C   UNL A   1      33.081  28.060  25.983  1.00  0.00     0.314 C 
ATOM      7  O   UNL A   1      34.041  27.494  26.500  1.00  0.00    -0.252 OA
BRANCH   6   8
ATOM      8  C   UNL A   1      32.631  27.743  24.526  1.00  0.00     0.088 C 
ATOM      9  C   UNL A   1      33.061  28.739  23.412  1.00  0.00     0.022 C 
ATOM     10  C   UNL A   1      33.432  26.453  24.298  1.00  0.00     0.138 C 
ATOM     11  C   UNL A   1      33.520  28.177  22.048  1.00  0.00     0.023 C 
ATOM     12  N   UNL A   1      33.165  25.883  22.991  1.00  0.00    -0.341 N 
ATOM     13  C   UNL A   1      33.672  26.661  21.875  1.00  0.00     0.119 C 
BRANCH   8  14
ATOM     14  C   UNL A   1      31.075  27.453  24.640  1.00  0.00     0.049 C 
BRANCH  14  15
ATOM     15  C   UNL A   1      30.064  27.829  23.551  1.00  0.00     0.161 C 
BRANCH  15  16
ATOM     16  O   UNL A   1      28.970  26.926  23.446  1.00  0.00    -0.385 OA
ATOM     17  C   UNL A   1      28.791  26.104  24.580  1.00  0.00     0.194 C 
ENDBRANCH  15  16
ENDBRANCH  14  15
ENDBRANCH   8  14
BRANCH  12  18
ATOM     18  C   UNL A   1      32.634  24.597  22.956  1.00  0.00     0.227 C 
ATOM     19  O   UNL A   1      31.433  24.405  23.166  1.00  0.00    -0.275 OA
BRANCH  18  20
ATOM     20  C   UNL A   1      33.549  23.398  22.720  1.00  0.00     0.143 C 
BRANCH  20  21
ATOM     21  C   UNL A   1      33.254  22.232  23.620  1.00  0.00     0.048 A 
ATOM     22  C   UNL A   1      33.660  22.069  24.897  1.00  0.00     0.049 A 
ATOM     23  C   UNL A   1      32.412  21.139  23.058  1.00  0.00     0.254 A 
ATOM     24  C   UNL A   1      34.406  23.115  25.687  1.00  0.00     0.067 C 
ATOM     25  N   UNL A   1      33.486  20.905  25.615  1.00  0.00    -0.240 NA
ATOM     26  N   UNL A   1      32.377  19.989  23.783  1.00  0.00    -0.311 N 
ATOM     27  O   UNL A   1      31.752  21.260  22.035  1.00  0.00    -0.269 OA
ATOM     28  C   UNL A   1      32.901  19.910  25.033  1.00  0.00     0.105 A 
ATOM     29  H   UNL A   1      31.960  19.189  23.389  1.00  0.00     0.171 HD
ATOM     30  C   UNL A   1      32.798  18.582  25.723  1.00  0.00     0.087 C 
ENDBRANCH  20  21
ENDBRANCH  18  20
ENDBRANCH  12  18
ENDBRANCH   6   8
ENDBRANCH   5   6
ENDBRANCH   4   5
ENDBRANCH   3   4
ENDBRANCH   2   3
ENDBRANCH   1   2
BRANCH   1  31
ATOM     31  C   UNL A   1      34.727  34.440  28.200  1.00  0.00     0.188 C 
BRANCH  31  32
ATOM     32  O   UNL A   1      34.817  35.059  29.461  1.00  0.00    -0.376 OA
BRANCH  32  33
ATOM     33  C   UNL A   1      33.859  34.690  30.439  1.00  0.00     0.202 C 
BRANCH  33  34
ATOM     34  C   UNL A   1      34.361  34.197  31.809  1.00  0.00     0.261 C 
BRANCH  34  35
ATOM     35  O   UNL A   1      35.756  33.847  31.899  1.00  0.00    -0.460 OA
BRANCH  35  36
ATOM     36  C   UNL A   1      36.096  32.843  32.735  1.00  0.00     0.338 C 
ATOM     37  O   UNL A   1      35.590  32.593  33.822  1.00  0.00    -0.246 OA
BRANCH  36  38
ATOM     38  C   UNL A   1      37.014  31.929  32.012  1.00  0.00     0.060 A 
ATOM     39  C   UNL A   1      38.029  31.280  32.733  1.00  0.00     0.016 A 
ATOM     40  C   UNL A   1      36.881  31.709  30.639  1.00  0.00     0.016 A 
ATOM     41  C   UNL A   1      38.948  30.463  32.074  1.00  0.00     0.010 A 
ATOM     42  C   UNL A   1      37.818  30.906  29.975  1.00  0.00     0.010 A 
ATOM     43  C   UNL A   1      38.887  30.323  30.680  1.00  0.00    -0.014 A 
BRANCH  43  44
ATOM     44  C   UNL A   1      40.075  29.805  29.951  1.00  0.00     0.031 A 
ATOM     45  C   UNL A   1      41.235  30.744  29.736  1.00  0.00     0.074 A 
ATOM     46  C   UNL A   1      40.163  28.531  29.532  1.00  0.00     0.049 A 
ATOM     47  N   UNL A   1      42.379  30.537  29.135  1.00  0.00    -0.248 NA
ATOM     48  C   UNL A   1      41.078  32.106  30.274  1.00  0.00     0.031 C 
ATOM     49  C   UNL A   1      39.138  27.504  29.708  1.00  0.00     0.029 A 
ATOM     50  N   UNL A   1      41.176  27.885  28.865  1.00  0.00    -0.354 N 
ATOM     51  C   UNL A   1      43.072  31.739  29.218  1.00  0.00     0.074 A 
ATOM     52  C   UNL A   1      42.206  32.682  29.889  1.00  0.00     0.031 C 
ATOM     53  C   UNL A   1      39.573  26.357  29.155  1.00  0.00     0.029 A 
ATOM     54  C   UNL A   1      40.894  26.574  28.566  1.00  0.00     0.049 A 
ATOM     55  H   UNL A   1      42.025  28.321  28.625  1.00  0.00     0.167 HD
ATOM     56  C   UNL A   1      44.323  32.034  28.791  1.00  0.00     0.037 A 
ATOM     57  C   UNL A   1      41.615  25.662  27.885  1.00  0.00     0.037 A 
ATOM     58  C   UNL A   1      45.191  31.102  28.119  1.00  0.00     0.049 A 
ATOM     59  C   UNL A   1      42.978  26.033  27.355  1.00  0.00     0.074 A 
ATOM     60  C   UNL A   1      46.479  31.303  27.658  1.00  0.00     0.029 A 
ATOM     61  N   UNL A   1      44.853  29.795  27.805  1.00  0.00    -0.354 N 
ATOM     62  N   UNL A   1      43.635  27.163  27.465  1.00  0.00    -0.248 NA
ATOM     63  C   UNL A   1      43.705  24.990  26.614  1.00  0.00     0.031 C 
ATOM     64  C   UNL A   1      46.901  30.135  27.015  1.00  0.00     0.029 A 
ATOM     65  C   UNL A   1      45.900  29.184  27.134  1.00  0.00     0.049 A 
ATOM     66  H   UNL A   1      43.996  29.364  28.027  1.00  0.00     0.167 HD
ATOM     67  C   UNL A   1      44.862  26.954  26.842  1.00  0.00     0.074 A 
ATOM     68  C   UNL A   1      44.864  25.586  26.372  1.00  0.00     0.031 C 
ATOM     69  C   UNL A   1      45.896  27.818  26.674  1.00  0.00     0.037 A 
BRANCH  56  70
ATOM     70  C   UNL A   1      44.815  33.434  29.015  1.00  0.00     0.057 A 
ATOM     71  C   UNL A   1      45.540  33.794  30.160  1.00  0.00     0.134 A 
ATOM     72  C   UNL A   1      44.572  34.435  28.066  1.00  0.00     0.134 A 
ATOM     73  F   UNL A   1      45.791  32.889  31.118  1.00  0.00    -0.206 F 
ATOM     74  C   UNL A   1      45.980  35.103  30.365  1.00  0.00     0.040 A 
ATOM     75  C   UNL A   1      45.033  35.740  28.244  1.00  0.00     0.040 A 
ATOM     76  F   UNL A   1      43.885  34.160  26.947  1.00  0.00    -0.206 F 
ATOM     77  C   UNL A   1      45.733  36.079  29.400  1.00  0.00     0.006 A 
ENDBRANCH  56  70
BRANCH  57  78
ATOM     78  C   UNL A   1      41.070  24.298  27.651  1.00  0.00     0.057 A 
ATOM     79  C   UNL A   1      41.578  23.184  28.332  1.00  0.00     0.134 A 
ATOM     80  C   UNL A   1      40.064  24.070  26.705  1.00  0.00     0.134 A 
ATOM     81  F   UNL A   1      42.565  23.332  29.228  1.00  0.00    -0.206 F 
ATOM     82  C   UNL A   1      41.122  21.892  28.064  1.00  0.00     0.040 A 
ATOM     83  C   UNL A   1      39.577  22.786  26.448  1.00  0.00     0.040 A 
ATOM     84  F   UNL A   1      39.539  25.093  26.014  1.00  0.00    -0.206 F 
ATOM     85  C   UNL A   1      40.114  21.692  27.123  1.00  0.00     0.006 A 
ENDBRANCH  57  78
BRANCH  69  86
ATOM     86  C   UNL A   1      47.133  27.292  26.000  1.00  0.00     0.057 A 
ATOM     87  C   UNL A   1      47.348  27.427  24.623  1.00  0.00     0.134 A 
ATOM     88  C   UNL A   1      48.132  26.650  26.746  1.00  0.00     0.134 A 
ATOM     89  F   UNL A   1      46.432  28.025  23.845  1.00  0.00    -0.206 F 
ATOM     90  C   UNL A   1      48.487  26.905  24.005  1.00  0.00     0.040 A 
ATOM     91  C   UNL A   1      49.290  26.155  26.146  1.00  0.00     0.040 A 
ATOM     92  F   UNL A   1      48.001  26.499  28.073  1.00  0.00    -0.206 F 
ATOM     93  C   UNL A   1      49.465  26.269  24.770  1.00  0.00     0.006 A 
ENDBRANCH  69  86
ENDBRANCH  43  44
ENDBRANCH  36  38
ENDBRANCH  35  36
ENDBRANCH  34  35
ENDBRANCH  33  34
ENDBRANCH  32  33
ENDBRANCH  31  32
ENDBRANCH   1  31
TORSDOF 23
ENDMDL
MODEL 2
REMARK VINA RESULT:     -10.1      4.414      6.659
REMARK SMILES COCC[C@]1(C(=O)OCCOCCOCCOC(=O)c2ccc(-c3c4nc(c(-c5c(F)cccc5F)c5ccc([nH]5)c(-c5c(F)cccc5F)c5nc(c(-c6c(F)cccc6F)c6ccc3[nH]6)C=C5)C=C4)cc2)CCCN(C(=O)Cc2c(C)nc(C)[nH]c2=O)C1
REMARK SMILES IDX 12 1 11 2 10 3 9 4 8 5 6 6 7 7 5 8 74 9 90 10 75 11 77 12
REMARK SMILES IDX 76 13 4 14 3 15 2 16 1 17 78 18 79 19 80 20 81 21 82 22
REMARK SMILES IDX 88 23 83 24 84 25 87 26 89 27 85 28 86 30 13 31 14 32 15 33
REMARK SMILES IDX 16 34 17 35 18 36 19 37 20 38 21 39 73 40 22 41 72 42 23 43
REMARK SMILES IDX 24 44 25 45 66 46 26 47 71 48 65 49 67 50 27 51 70 52 64 53
REMARK SMILES IDX 63 54 28 56 54 57 37 58 53 59 38 60 41 61 52 62 68 63 39 64
REMARK SMILES IDX 40 65 51 67 69 68 42 69 29 70 30 71 35 72 31 73 32 74 34 75
REMARK SMILES IDX 36 76 33 77 55 78 56 79 61 80 57 81 58 82 60 83 62 84 59 85
REMARK SMILES IDX 43 86 44 87 49 88 45 89 46 90 48 91 50 92 47 93
REMARK H PARENT 87 29 67 55 41 66
REMARK Flexibility Score: inf
ROOT
ATOM      1  C   UNL A   1      35.565  32.358  28.146  1.00  0.00     0.188 C 
ENDROOT
BRANCH   1   2
ATOM      2  O   UNL A   1      35.299  31.107  27.529  1.00  0.00    -0.376 OA
BRANCH   2   3
ATOM      3  C   UNL A   1      34.088  30.417  27.812  1.00  0.00     0.202 C 
BRANCH   3   4
ATOM      4  C   UNL A   1      32.938  30.423  26.789  1.00  0.00     0.261 C 
BRANCH   4   5
ATOM      5  O   UNL A   1      33.115  29.593  25.620  1.00  0.00    -0.463 OA
BRANCH   5   6
ATOM      6  C   UNL A   1      31.984  29.321  24.922  1.00  0.00     0.314 C 
ATOM      7  O   UNL A   1      31.028  30.091  24.889  1.00  0.00    -0.252 OA
BRANCH   6   8
ATOM      8  C   UNL A   1      31.954  27.946  24.190  1.00  0.00     0.088 C 
ATOM      9  C   UNL A   1      32.144  27.956  22.647  1.00  0.00     0.022 C 
ATOM     10  C   UNL A   1      33.223  27.323  24.787  1.00  0.00     0.138 C 
ATOM     11  C   UNL A   1      33.016  26.857  21.998  1.00  0.00     0.023 C 
ATOM     12  N   UNL A   1      33.432  25.971  24.304  1.00  0.00    -0.341 N 
ATOM     13  C   UNL A   1      33.778  25.876  22.898  1.00  0.00     0.119 C 
BRANCH   8  14
ATOM     14  C   UNL A   1      30.642  27.233  24.727  1.00  0.00     0.049 C 
BRANCH  14  15
ATOM     15  C   UNL A   1      29.807  26.259  23.888  1.00  0.00     0.161 C 
BRANCH  15  16
ATOM     16  O   UNL A   1      28.538  26.775  23.505  1.00  0.00    -0.385 OA
ATOM     17  C   UNL A   1      28.536  28.161  23.238  1.00  0.00     0.194 C 
ENDBRANCH  15  16
ENDBRANCH  14  15
ENDBRANCH   8  14
BRANCH  12  18
ATOM     18  C   UNL A   1      33.463  24.956  25.255  1.00  0.00     0.227 C 
ATOM     19  O   UNL A   1      32.728  24.996  26.246  1.00  0.00    -0.275 OA
BRANCH  18  20
ATOM     20  C   UNL A   1      34.459  23.808  25.116  1.00  0.00     0.143 C 
BRANCH  20  21
ATOM     21  C   UNL A   1      33.818  22.450  25.142  1.00  0.00     0.048 A 
ATOM     22  C   UNL A   1      33.669  21.643  26.214  1.00  0.00     0.049 A 
ATOM     23  C   UNL A   1      33.271  21.933  23.856  1.00  0.00     0.254 A 
ATOM     24  C   UNL A   1      34.035  22.034  27.624  1.00  0.00     0.067 C 
ATOM     25  N   UNL A   1      33.212  20.344  26.140  1.00  0.00    -0.240 NA
ATOM     26  N   UNL A   1      32.938  20.615  23.843  1.00  0.00    -0.311 N 
ATOM     27  O   UNL A   1      33.084  22.640  22.875  1.00  0.00    -0.269 OA
ATOM     28  C   UNL A   1      32.908  19.869  24.977  1.00  0.00     0.105 A 
ATOM     29  H   UNL A   1      32.714  20.187  22.985  1.00  0.00     0.171 HD
ATOM     30  C   UNL A   1      32.527  18.427  24.823  1.00  0.00     0.087 C 
ENDBRANCH  20  21
ENDBRANCH  18  20
ENDBRANCH  12  18
ENDBRANCH   6   8
ENDBRANCH   5   6
ENDBRANCH   4   5
ENDBRANCH   3   4
ENDBRANCH   2   3
ENDBRANCH   1   2
BRANCH   1  31
ATOM     31  C   UNL A   1      34.575  32.914  29.177  1.00  0.00     0.188 C 
BRANCH  31  32
ATOM     32  O   UNL A   1      33.616  33.810  28.665  1.00  0.00    -0.376 OA
BRANCH  32  33
ATOM     33  C   UNL A   1      33.895  35.196  28.774  1.00  0.00     0.202 C 
BRANCH  33  34
ATOM     34  C   UNL A   1      32.902  36.086  29.542  1.00  0.00     0.261 C 
BRANCH  34  35
ATOM     35  O   UNL A   1      33.248  36.419  30.901  1.00  0.00    -0.460 OA
BRANCH  35  36
ATOM     36  C   UNL A   1      32.792  35.610  31.880  1.00  0.00     0.338 C 
ATOM     37  O   UNL A   1      31.626  35.291  32.080  1.00  0.00    -0.246 OA
BRANCH  36  38
ATOM     38  C   UNL A   1      33.958  34.959  32.525  1.00  0.00     0.060 A 
ATOM     39  C   UNL A   1      35.200  35.613  32.496  1.00  0.00     0.016 A 
ATOM     40  C   UNL A   1      33.836  33.718  33.154  1.00  0.00     0.016 A 
ATOM     41  C   UNL A   1      36.331  35.000  33.038  1.00  0.00     0.010 A 
ATOM     42  C   UNL A   1      34.976  33.095  33.677  1.00  0.00     0.010 A 
ATOM     43  C   UNL A   1      36.237  33.709  33.574  1.00  0.00    -0.014 A 
BRANCH  43  44
ATOM     44  C   UNL A   1      37.479  32.913  33.768  1.00  0.00     0.031 A 
ATOM     45  C   UNL A   1      38.280  33.151  35.024  1.00  0.00     0.074 A 
ATOM     46  C   UNL A   1      37.871  31.966  32.898  1.00  0.00     0.049 A 
ATOM     47  N   UNL A   1      39.391  32.589  35.426  1.00  0.00    -0.248 NA
ATOM     48  C   UNL A   1      37.752  34.167  35.950  1.00  0.00     0.031 C 
ATOM     49  C   UNL A   1      37.173  31.602  31.667  1.00  0.00     0.029 A 
ATOM     50  N   UNL A   1      38.965  31.136  32.924  1.00  0.00    -0.354 N 
ATOM     51  C   UNL A   1      39.695  33.185  36.645  1.00  0.00     0.074 A 
ATOM     52  C   UNL A   1      38.677  34.180  36.896  1.00  0.00     0.031 C 
ATOM     53  C   UNL A   1      37.861  30.623  31.051  1.00  0.00     0.029 A 
ATOM     54  C   UNL A   1      39.060  30.311  31.830  1.00  0.00     0.049 A 
ATOM     55  H   UNL A   1      39.620  31.133  33.659  1.00  0.00     0.167 HD
ATOM     56  C   UNL A   1      40.719  32.922  37.491  1.00  0.00     0.037 A 
ATOM     57  C   UNL A   1      40.011  29.418  31.493  1.00  0.00     0.037 A 
ATOM     58  C   UNL A   1      41.739  31.936  37.247  1.00  0.00     0.049 A 
ATOM     59  C   UNL A   1      41.182  29.190  32.417  1.00  0.00     0.074 A 
ATOM     60  C   UNL A   1      42.812  31.588  38.049  1.00  0.00     0.029 A 
ATOM     61  N   UNL A   1      41.818  31.146  36.110  1.00  0.00    -0.354 N 
ATOM     62  N   UNL A   1      41.444  29.738  33.580  1.00  0.00    -0.248 NA
ATOM     63  C   UNL A   1      42.186  28.206  31.982  1.00  0.00     0.031 C 
ATOM     64  C   UNL A   1      43.571  30.627  37.373  1.00  0.00     0.029 A 
ATOM     65  C   UNL A   1      42.934  30.328  36.179  1.00  0.00     0.049 A 
ATOM     66  H   UNL A   1      41.175  31.163  35.365  1.00  0.00     0.167 HD
ATOM     67  C   UNL A   1      42.618  29.140  34.029  1.00  0.00     0.074 A 
ATOM     68  C   UNL A   1      43.006  28.177  33.021  1.00  0.00     0.031 C 
ATOM     69  C   UNL A   1      43.311  29.367  35.173  1.00  0.00     0.037 A 
BRANCH  56  70
ATOM     70  C   UNL A   1      40.800  33.736  38.749  1.00  0.00     0.057 A 
ATOM     71  C   UNL A   1      41.624  34.866  38.853  1.00  0.00     0.134 A 
ATOM     72  C   UNL A   1      40.032  33.395  39.869  1.00  0.00     0.134 A 
ATOM     73  F   UNL A   1      42.401  35.238  37.824  1.00  0.00    -0.206 F 
ATOM     74  C   UNL A   1      41.701  35.608  40.033  1.00  0.00     0.040 A 
ATOM     75  C   UNL A   1      40.076  34.146  41.044  1.00  0.00     0.040 A 
ATOM     76  F   UNL A   1      39.221  32.327  39.839  1.00  0.00    -0.206 F 
ATOM     77  C   UNL A   1      40.920  35.252  41.131  1.00  0.00     0.006 A 
ENDBRANCH  56  70
BRANCH  57  78
ATOM     78  C   UNL A   1      39.912  28.662  30.216  1.00  0.00     0.057 A 
ATOM     79  C   UNL A   1      40.523  29.128  29.045  1.00  0.00     0.134 A 
ATOM     80  C   UNL A   1      39.164  27.483  30.125  1.00  0.00     0.134 A 
ATOM     81  F   UNL A   1      41.228  30.269  29.059  1.00  0.00    -0.206 F 
ATOM     82  C   UNL A   1      40.373  28.463  27.826  1.00  0.00     0.040 A 
ATOM     83  C   UNL A   1      39.030  26.791  28.920  1.00  0.00     0.040 A 
ATOM     84  F   UNL A   1      38.548  26.986  31.209  1.00  0.00    -0.206 F 
ATOM     85  C   UNL A   1      39.629  27.287  27.763  1.00  0.00     0.006 A 
ENDBRANCH  57  78
BRANCH  69  86
ATOM     86  C   UNL A   1      44.531  28.523  35.421  1.00  0.00     0.057 A 
ATOM     87  C   UNL A   1      44.467  27.293  36.089  1.00  0.00     0.134 A 
ATOM     88  C   UNL A   1      45.791  28.943  34.971  1.00  0.00     0.134 A 
ATOM     89  F   UNL A   1      43.295  26.831  36.552  1.00  0.00    -0.206 F 
ATOM     90  C   UNL A   1      45.613  26.536  36.340  1.00  0.00     0.040 A 
ATOM     91  C   UNL A   1      46.939  28.179  35.186  1.00  0.00     0.040 A 
ATOM     92  F   UNL A   1      45.927  30.103  34.310  1.00  0.00    -0.206 F 
ATOM     93  C   UNL A   1      46.854  26.977  35.884  1.00  0.00     0.006 A 
ENDBRANCH  69  86
ENDBRANCH  43  44
ENDBRANCH  36  38
ENDBRANCH  35  36
ENDBRANCH  34  35
ENDBRANCH  33  34
ENDBRANCH  32  33
ENDBRANCH  31  32
ENDBRANCH   1  31
TORSDOF 23
ENDMDL
MODEL 3
REMARK VINA RESULT:      -9.6      4.238      8.414
REMARK SMILES COCC[C@]1(C(=O)OCCOCCOCCOC(=O)c2ccc(-c3c4nc(c(-c5c(F)cccc5F)c5ccc([nH]5)c(-c5c(F)cccc5F)c5nc(c(-c6c(F)cccc6F)c6ccc3[nH]6)C=C5)C=C4)cc2)CCCN(C(=O)Cc2c(C)nc(C)[nH]c2=O)C1
REMARK SMILES IDX 12 1 11 2 10 3 9 4 8 5 6 6 7 7 5 8 74 9 90 10 75 11 77 12
REMARK SMILES IDX 76 13 4 14 3 15 2 16 1 17 78 18 79 19 80 20 81 21 82 22
REMARK SMILES IDX 88 23 83 24 84 25 87 26 89 27 85 28 86 30 13 31 14 32 15 33
REMARK SMILES IDX 16 34 17 35 18 36 19 37 20 38 21 39 73 40 22 41 72 42 23 43
REMARK SMILES IDX 24 44 25 45 66 46 26 47 71 48 65 49 67 50 27 51 70 52 64 53
REMARK SMILES IDX 63 54 28 56 54 57 37 58 53 59 38 60 41 61 52 62 68 63 39 64
REMARK SMILES IDX 40 65 51 67 69 68 42 69 29 70 30 71 35 72 31 73 32 74 34 75
REMARK SMILES IDX 36 76 33 77 55 78 56 79 61 80 57 81 58 82 60 83 62 84 59 85
REMARK SMILES IDX 43 86 44 87 49 88 45 89 46 90 48 91 50 92 47 93
REMARK H PARENT 87 29 67 55 41 66
REMARK Flexibility Score: inf
ROOT
ATOM      1  C   UNL A   1      31.718  29.048  24.638  1.00  0.00     0.188 C 
ENDROOT
BRANCH   1   2
ATOM      2  O   UNL A   1      32.491  28.346  23.677  1.00  0.00    -0.376 OA
BRANCH   2   3
ATOM      3  C   UNL A   1      31.845  27.617  22.639  1.00  0.00     0.202 C 
BRANCH   3   4
ATOM      4  C   UNL A   1      31.215  26.245  22.936  1.00  0.00     0.261 C 
BRANCH   4   5
ATOM      5  O   UNL A   1      31.826  25.106  22.290  1.00  0.00    -0.463 OA
BRANCH   5   6
ATOM      6  C   UNL A   1      33.007  24.701  22.819  1.00  0.00     0.314 C 
ATOM      7  O   UNL A   1      34.082  25.192  22.484  1.00  0.00    -0.252 OA
BRANCH   6   8
ATOM      8  C   UNL A   1      32.924  23.543  23.857  1.00  0.00     0.088 C 
ATOM      9  C   UNL A   1      31.766  22.518  23.692  1.00  0.00     0.022 C 
ATOM     10  C   UNL A   1      34.222  22.804  23.505  1.00  0.00     0.138 C 
ATOM     11  C   UNL A   1      32.059  21.020  23.932  1.00  0.00     0.023 C 
ATOM     12  N   UNL A   1      34.440  21.664  24.375  1.00  0.00    -0.341 N 
ATOM     13  C   UNL A   1      33.503  20.571  24.188  1.00  0.00     0.119 C 
BRANCH   8  14
ATOM     14  C   UNL A   1      33.023  24.261  25.269  1.00  0.00     0.049 C 
BRANCH  14  15
ATOM     15  C   UNL A   1      32.618  23.593  26.587  1.00  0.00     0.161 C 
BRANCH  15  16
ATOM     16  O   UNL A   1      31.388  24.071  27.119  1.00  0.00    -0.385 OA
ATOM     17  C   UNL A   1      30.718  24.990  26.284  1.00  0.00     0.194 C 
ENDBRANCH  15  16
ENDBRANCH  14  15
ENDBRANCH   8  14
BRANCH  12  18
ATOM     18  C   UNL A   1      35.603  21.663  25.139  1.00  0.00     0.227 C 
ATOM     19  O   UNL A   1      35.553  21.506  26.363  1.00  0.00    -0.275 OA
BRANCH  18  20
ATOM     20  C   UNL A   1      36.953  21.922  24.477  1.00  0.00     0.143 C 
BRANCH  20  21
ATOM     21  C   UNL A   1      38.119  21.777  25.414  1.00  0.00     0.048 A 
ATOM     22  C   UNL A   1      38.642  22.733  26.212  1.00  0.00     0.049 A 
ATOM     23  C   UNL A   1      38.765  20.438  25.490  1.00  0.00     0.254 A 
ATOM     24  C   UNL A   1      38.053  24.111  26.378  1.00  0.00     0.067 C 
ATOM     25  N   UNL A   1      39.808  22.579  26.931  1.00  0.00    -0.240 NA
ATOM     26  N   UNL A   1      39.964  20.396  26.132  1.00  0.00    -0.311 N 
ATOM     27  O   UNL A   1      38.251  19.419  25.048  1.00  0.00    -0.269 OA
ATOM     28  C   UNL A   1      40.439  21.455  26.836  1.00  0.00     0.105 A 
ATOM     29  H   UNL A   1      40.503  19.574  26.084  1.00  0.00     0.171 HD
ATOM     30  C   UNL A   1      41.776  21.278  27.495  1.00  0.00     0.087 C 
ENDBRANCH  20  21
ENDBRANCH  18  20
ENDBRANCH  12  18
ENDBRANCH   6   8
ENDBRANCH   5   6
ENDBRANCH   4   5
ENDBRANCH   3   4
ENDBRANCH   2   3
ENDBRANCH   1   2
BRANCH   1  31
ATOM     31  C   UNL A   1      31.799  28.639  26.115  1.00  0.00     0.188 C 
BRANCH  31  32
ATOM     32  O   UNL A   1      32.691  29.396  26.898  1.00  0.00    -0.376 OA
BRANCH  32  33
ATOM     33  C   UNL A   1      32.515  30.803  26.912  1.00  0.00     0.202 C 
BRANCH  33  34
ATOM     34  C   UNL A   1      33.531  31.663  27.686  1.00  0.00     0.261 C 
BRANCH  34  35
ATOM     35  O   UNL A   1      33.638  33.046  27.296  1.00  0.00    -0.460 OA
BRANCH  35  36
ATOM     36  C   UNL A   1      33.516  33.980  28.263  1.00  0.00     0.338 C 
ATOM     37  O   UNL A   1      32.578  34.754  28.417  1.00  0.00    -0.246 OA
BRANCH  36  38
ATOM     38  C   UNL A   1      34.583  33.752  29.267  1.00  0.00     0.060 A 
ATOM     39  C   UNL A   1      35.898  34.130  28.954  1.00  0.00     0.016 A 
ATOM     40  C   UNL A   1      34.298  33.172  30.505  1.00  0.00     0.016 A 
ATOM     41  C   UNL A   1      36.937  33.873  29.850  1.00  0.00     0.010 A 
ATOM     42  C   UNL A   1      35.345  32.894  31.393  1.00  0.00     0.010 A 
ATOM     43  C   UNL A   1      36.675  33.194  31.047  1.00  0.00    -0.014 A 
BRANCH  43  44
ATOM     44  C   UNL A   1      37.803  32.569  31.788  1.00  0.00     0.031 A 
ATOM     45  C   UNL A   1      38.561  31.455  31.111  1.00  0.00     0.074 A 
ATOM     46  C   UNL A   1      38.194  32.999  33.001  1.00  0.00     0.049 A 
ATOM     47  N   UNL A   1      39.578  30.753  31.541  1.00  0.00    -0.248 NA
ATOM     48  C   UNL A   1      38.102  31.082  29.762  1.00  0.00     0.031 C 
ATOM     49  C   UNL A   1      37.582  34.091  33.754  1.00  0.00     0.029 A 
ATOM     50  N   UNL A   1      39.210  32.556  33.813  1.00  0.00    -0.354 N 
ATOM     51  C   UNL A   1      39.876  29.856  30.521  1.00  0.00     0.074 A 
ATOM     52  C   UNL A   1      38.907  30.073  29.470  1.00  0.00     0.031 C 
ATOM     53  C   UNL A   1      38.232  34.230  34.924  1.00  0.00     0.029 A 
ATOM     54  C   UNL A   1      39.288  33.221  35.013  1.00  0.00     0.049 A 
ATOM     55  H   UNL A   1      39.824  31.830  33.559  1.00  0.00     0.167 HD
ATOM     56  C   UNL A   1      40.873  28.943  30.452  1.00  0.00     0.037 A 
ATOM     57  C   UNL A   1      40.109  33.027  36.063  1.00  0.00     0.037 A 
ATOM     58  C   UNL A   1      41.839  28.717  31.495  1.00  0.00     0.049 A 
ATOM     59  C   UNL A   1      41.169  31.955  35.995  1.00  0.00     0.074 A 
ATOM     60  C   UNL A   1      42.894  27.822  31.515  1.00  0.00     0.029 A 
ATOM     61  N   UNL A   1      41.861  29.388  32.708  1.00  0.00    -0.354 N 
ATOM     62  N   UNL A   1      41.460  31.134  35.014  1.00  0.00    -0.248 NA
ATOM     63  C   UNL A   1      42.025  31.794  37.181  1.00  0.00     0.031 C 
ATOM     64  C   UNL A   1      43.521  27.911  32.762  1.00  0.00     0.029 A 
ATOM     65  C   UNL A   1      42.897  28.909  33.494  1.00  0.00     0.049 A 
ATOM     66  H   UNL A   1      41.234  30.099  32.973  1.00  0.00     0.167 HD
ATOM     67  C   UNL A   1      42.551  30.388  35.451  1.00  0.00     0.074 A 
ATOM     68  C   UNL A   1      42.879  30.866  36.776  1.00  0.00     0.031 C 
ATOM     69  C   UNL A   1      43.221  29.396  34.812  1.00  0.00     0.037 A 
BRANCH  56  70
ATOM     70  C   UNL A   1      40.949  28.098  29.213  1.00  0.00     0.057 A 
ATOM     71  C   UNL A   1      41.795  28.422  28.144  1.00  0.00     0.134 A 
ATOM     72  C   UNL A   1      40.175  26.937  29.094  1.00  0.00     0.134 A 
ATOM     73  F   UNL A   1      42.549  29.530  28.184  1.00  0.00    -0.206 F 
ATOM     74  C   UNL A   1      41.847  27.637  26.990  1.00  0.00     0.040 A 
ATOM     75  C   UNL A   1      40.241  26.127  27.960  1.00  0.00     0.040 A 
ATOM     76  F   UNL A   1      39.344  26.568  30.081  1.00  0.00    -0.206 F 
ATOM     77  C   UNL A   1      41.073  26.481  26.900  1.00  0.00     0.006 A 
ENDBRANCH  56  70
BRANCH  57  78
ATOM     78  C   UNL A   1      39.971  33.860  37.287  1.00  0.00     0.057 A 
ATOM     79  C   UNL A   1      39.049  33.534  38.291  1.00  0.00     0.134 A 
ATOM     80  C   UNL A   1      40.723  35.028  37.461  1.00  0.00     0.134 A 
ATOM     81  F   UNL A   1      38.276  32.445  38.169  1.00  0.00    -0.206 F 
ATOM     82  C   UNL A   1      38.862  34.352  39.407  1.00  0.00     0.040 A 
ATOM     83  C   UNL A   1      40.568  35.839  38.587  1.00  0.00     0.040 A 
ATOM     84  F   UNL A   1      41.620  35.400  36.535  1.00  0.00    -0.206 F 
ATOM     85  C   UNL A   1      39.628  35.506  39.560  1.00  0.00     0.006 A 
ENDBRANCH  57  78
BRANCH  69  86
ATOM     86  C   UNL A   1      44.409  28.799  35.516  1.00  0.00     0.057 A 
ATOM     87  C   UNL A   1      44.305  27.656  36.319  1.00  0.00     0.134 A 
ATOM     88  C   UNL A   1      45.680  29.373  35.378  1.00  0.00     0.134 A 
ATOM     89  F   UNL A   1      43.117  27.058  36.502  1.00  0.00    -0.206 F 
ATOM     90  C   UNL A   1      45.411  27.133  36.994  1.00  0.00     0.040 A 
ATOM     91  C   UNL A   1      46.799  28.839  36.019  1.00  0.00     0.040 A 
ATOM     92  F   UNL A   1      45.859  30.460  34.611  1.00  0.00    -0.206 F 
ATOM     93  C   UNL A   1      46.664  27.723  36.841  1.00  0.00     0.006 A 
ENDBRANCH  69  86
ENDBRANCH  43  44
ENDBRANCH  36  38
ENDBRANCH  35  36
ENDBRANCH  34  35
ENDBRANCH  33  34
ENDBRANCH  32  33
ENDBRANCH  31  32
ENDBRANCH   1  31
TORSDOF 23
ENDMDL
