MODEL 1
REMARK VINA RESULT:      -9.3      0.000      0.000
REMARK SMILES CO[C@@]1(C(=O)OCCOCCOCCOC(=O)c2ccc(-c3c4nc(c(-c5c(F)cccc5F)c5ccc([nH]5)c(-c5c(F)cccc5F)c5nc(c(-c6c(F)cccc6F)c6ccc3[nH]6)C=C5)C=C4)cc2)CC(c2ccccc2)=CC=C1C
REMARK SMILES IDX 11 1 10 2 9 3 8 4 7 5 6 6 4 7 5 8 3 9 72 10 82 11 73 12
REMARK SMILES IDX 81 13 83 14 80 15 2 16 1 17 74 18 75 19 79 20 76 21 78 22
REMARK SMILES IDX 77 23 12 24 13 25 14 26 15 27 16 28 17 29 18 30 19 31 71 32
REMARK SMILES IDX 20 33 70 34 21 35 22 36 23 37 64 38 24 39 69 40 63 41 65 42
REMARK SMILES IDX 25 43 68 44 62 45 61 46 26 48 52 49 35 50 51 51 36 52 39 53
REMARK SMILES IDX 50 54 66 55 37 56 38 57 49 59 67 60 40 61 27 62 28 63 33 64
REMARK SMILES IDX 29 65 30 66 32 67 34 68 31 69 53 70 54 71 59 72 55 73 56 74
REMARK SMILES IDX 58 75 60 76 57 77 41 78 42 79 47 80 43 81 44 82 46 83 48 84
REMARK SMILES IDX 45 85
REMARK H PARENT 65 47 39 58
REMARK Flexibility Score: inf
ROOT
ATOM      1  C   UNL A   1      33.488  36.559  28.937  1.00  0.00     0.188 C 
ENDROOT
BRANCH   1   2
ATOM      2  C   UNL A   1      32.901  36.537  30.366  1.00  0.00     0.188 C 
BRANCH   2   3
ATOM      3  O   UNL A   1      33.087  37.615  31.258  1.00  0.00    -0.376 OA
BRANCH   3   4
ATOM      4  C   UNL A   1      33.813  37.418  32.452  1.00  0.00     0.202 C 
BRANCH   4   5
ATOM      5  C   UNL A   1      34.122  35.992  32.916  1.00  0.00     0.261 C 
BRANCH   5   6
ATOM      6  O   UNL A   1      35.515  35.658  33.064  1.00  0.00    -0.461 OA
BRANCH   6   7
ATOM      7  C   UNL A   1      35.789  34.513  33.759  1.00  0.00     0.343 C 
ATOM      8  O   UNL A   1      35.219  34.231  34.809  1.00  0.00    -0.248 OA
BRANCH   7   9
ATOM      9  C   UNL A   1      36.863  33.592  33.038  1.00  0.00     0.190 C 
ATOM     10  C   UNL A   1      38.105  34.473  32.642  1.00  0.00     0.088 C 
ATOM     11  C   UNL A   1      36.176  33.070  31.752  1.00  0.00    -0.030 C 
ATOM     12  C   UNL A   1      38.832  34.073  31.379  1.00  0.00    -0.037 C 
ATOM     13  C   UNL A   1      36.799  33.057  30.558  1.00  0.00     0.003 C 
ATOM     14  C   UNL A   1      34.767  32.548  31.854  1.00  0.00     0.043 C 
ATOM     15  C   UNL A   1      38.184  33.421  30.404  1.00  0.00     0.004 C 
BRANCH   9  16
ATOM     16  O   UNL A   1      37.252  32.395  33.727  1.00  0.00    -0.362 OA
ATOM     17  C   UNL A   1      37.952  32.510  34.958  1.00  0.00     0.197 C 
ENDBRANCH   9  16
BRANCH  12  18
ATOM     18  C   UNL A   1      40.277  34.341  31.263  1.00  0.00    -0.022 A 
ATOM     19  C   UNL A   1      41.055  34.624  32.393  1.00  0.00     0.008 A 
ATOM     20  C   UNL A   1      40.886  34.361  30.001  1.00  0.00     0.008 A 
ATOM     21  C   UNL A   1      42.418  34.911  32.263  1.00  0.00     0.001 A 
ATOM     22  C   UNL A   1      42.246  34.656  29.870  1.00  0.00     0.001 A 
ATOM     23  C   UNL A   1      43.012  34.929  31.002  1.00  0.00     0.000 A 
ENDBRANCH  12  18
ENDBRANCH   7   9
ENDBRANCH   6   7
ENDBRANCH   5   6
ENDBRANCH   4   5
ENDBRANCH   3   4
ENDBRANCH   2   3
ENDBRANCH   1   2
BRANCH   1  24
ATOM     24  O   UNL A   1      34.209  35.467  28.416  1.00  0.00    -0.376 OA
BRANCH  24  25
ATOM     25  C   UNL A   1      33.737  34.145  28.568  1.00  0.00     0.202 C 
BRANCH  25  26
ATOM     26  C   UNL A   1      34.439  32.931  27.941  1.00  0.00     0.261 C 
BRANCH  26  27
ATOM     27  O   UNL A   1      33.987  31.635  28.361  1.00  0.00    -0.460 OA
BRANCH  27  28
ATOM     28  C   UNL A   1      34.578  30.577  27.755  1.00  0.00     0.338 C 
ATOM     29  O   UNL A   1      34.202  30.009  26.733  1.00  0.00    -0.246 OA
BRANCH  28  30
ATOM     30  C   UNL A   1      35.868  30.264  28.401  1.00  0.00     0.060 A 
ATOM     31  C   UNL A   1      37.058  30.492  27.696  1.00  0.00     0.016 A 
ATOM     32  C   UNL A   1      35.905  29.694  29.675  1.00  0.00     0.016 A 
ATOM     33  C   UNL A   1      38.288  30.121  28.249  1.00  0.00     0.010 A 
ATOM     34  C   UNL A   1      37.136  29.302  30.216  1.00  0.00     0.010 A 
ATOM     35  C   UNL A   1      38.332  29.482  29.496  1.00  0.00    -0.014 A 
BRANCH  35  36
ATOM     36  C   UNL A   1      39.584  28.838  29.975  1.00  0.00     0.031 A 
ATOM     37  C   UNL A   1      40.271  29.407  31.188  1.00  0.00     0.074 A 
ATOM     38  C   UNL A   1      40.124  27.776  29.348  1.00  0.00     0.049 A 
ATOM     39  N   UNL A   1      41.424  29.093  31.722  1.00  0.00    -0.248 NA
ATOM     40  C   UNL A   1      39.555  30.484  31.892  1.00  0.00     0.031 C 
ATOM     41  C   UNL A   1      39.547  27.088  28.198  1.00  0.00     0.029 A 
ATOM     42  N   UNL A   1      41.299  27.105  29.590  1.00  0.00    -0.354 N 
ATOM     43  C   UNL A   1      41.580  29.941  32.812  1.00  0.00     0.074 A 
ATOM     44  C   UNL A   1      40.416  30.801  32.847  1.00  0.00     0.031 C 
ATOM     45  C   UNL A   1      40.380  26.102  27.820  1.00  0.00     0.029 A 
ATOM     46  C   UNL A   1      41.566  26.116  28.674  1.00  0.00     0.049 A 
ATOM     47  H   UNL A   1      41.894  27.314  30.346  1.00  0.00     0.167 HD
ATOM     48  C   UNL A   1      42.597  30.000  33.705  1.00  0.00     0.037 A 
ATOM     49  C   UNL A   1      42.655  25.334  28.525  1.00  0.00     0.037 A 
ATOM     50  C   UNL A   1      43.762  29.153  33.671  1.00  0.00     0.049 A 
ATOM     51  C   UNL A   1      43.819  25.478  29.475  1.00  0.00     0.074 A 
ATOM     52  C   UNL A   1      44.838  29.130  34.542  1.00  0.00     0.029 A 
ATOM     53  N   UNL A   1      44.009  28.187  32.707  1.00  0.00    -0.354 N 
ATOM     54  N   UNL A   1      43.952  26.271  30.510  1.00  0.00    -0.248 NA
ATOM     55  C   UNL A   1      44.986  24.617  29.230  1.00  0.00     0.031 C 
ATOM     56  C   UNL A   1      45.762  28.192  34.072  1.00  0.00     0.029 A 
ATOM     57  C   UNL A   1      45.235  27.585  32.944  1.00  0.00     0.049 A 
ATOM     58  H   UNL A   1      43.404  27.963  31.963  1.00  0.00     0.167 HD
ATOM     59  C   UNL A   1      45.198  25.982  31.058  1.00  0.00     0.074 A 
ATOM     60  C   UNL A   1      45.777  24.933  30.246  1.00  0.00     0.031 C 
ATOM     61  C   UNL A   1      45.805  26.535  32.138  1.00  0.00     0.037 A 
BRANCH  48  62
ATOM     62  C   UNL A   1      42.510  31.047  34.778  1.00  0.00     0.057 A 
ATOM     63  C   UNL A   1      41.750  30.861  35.941  1.00  0.00     0.134 A 
ATOM     64  C   UNL A   1      43.212  32.254  34.654  1.00  0.00     0.134 A 
ATOM     65  F   UNL A   1      41.044  29.735  36.118  1.00  0.00    -0.206 F 
ATOM     66  C   UNL A   1      41.665  31.850  36.924  1.00  0.00     0.040 A 
ATOM     67  C   UNL A   1      43.160  33.236  35.644  1.00  0.00     0.040 A 
ATOM     68  F   UNL A   1      43.966  32.497  33.571  1.00  0.00    -0.206 F 
ATOM     69  C   UNL A   1      42.375  33.039  36.779  1.00  0.00     0.006 A 
ENDBRANCH  48  62
BRANCH  49  70
ATOM     70  C   UNL A   1      42.716  24.345  27.416  1.00  0.00     0.057 A 
ATOM     71  C   UNL A   1      43.217  24.698  26.157  1.00  0.00     0.134 A 
ATOM     72  C   UNL A   1      42.246  23.036  27.577  1.00  0.00     0.134 A 
ATOM     73  F   UNL A   1      43.651  25.946  25.930  1.00  0.00    -0.206 F 
ATOM     74  C   UNL A   1      43.235  23.791  25.096  1.00  0.00     0.040 A 
ATOM     75  C   UNL A   1      42.285  22.110  26.533  1.00  0.00     0.040 A 
ATOM     76  F   UNL A   1      41.746  22.636  28.756  1.00  0.00    -0.206 F 
ATOM     77  C   UNL A   1      42.774  22.490  25.285  1.00  0.00     0.006 A 
ENDBRANCH  49  70
BRANCH  61  78
ATOM     78  C   UNL A   1      47.148  25.990  32.538  1.00  0.00     0.057 A 
ATOM     79  C   UNL A   1      47.288  24.996  33.516  1.00  0.00     0.134 A 
ATOM     80  C   UNL A   1      48.316  26.433  31.902  1.00  0.00     0.134 A 
ATOM     81  F   UNL A   1      46.214  24.533  34.173  1.00  0.00    -0.206 F 
ATOM     82  C   UNL A   1      48.540  24.484  33.863  1.00  0.00     0.040 A 
ATOM     83  C   UNL A   1      49.569  25.908  32.219  1.00  0.00     0.040 A 
ATOM     84  F   UNL A   1      48.255  27.375  30.947  1.00  0.00    -0.206 F 
ATOM     85  C   UNL A   1      49.685  24.934  33.208  1.00  0.00     0.006 A 
ENDBRANCH  61  78
ENDBRANCH  35  36
ENDBRANCH  28  30
ENDBRANCH  27  28
ENDBRANCH  26  27
ENDBRANCH  25  26
ENDBRANCH  24  25
ENDBRANCH   1  24
TORSDOF 19
ENDMDL
MODEL 2
REMARK VINA RESULT:      -9.2      3.980      7.704
REMARK SMILES CO[C@@]1(C(=O)OCCOCCOCCOC(=O)c2ccc(-c3c4nc(c(-c5c(F)cccc5F)c5ccc([nH]5)c(-c5c(F)cccc5F)c5nc(c(-c6c(F)cccc6F)c6ccc3[nH]6)C=C5)C=C4)cc2)CC(c2ccccc2)=CC=C1C
REMARK SMILES IDX 11 1 10 2 9 3 8 4 7 5 6 6 4 7 5 8 3 9 72 10 82 11 73 12
REMARK SMILES IDX 81 13 83 14 80 15 2 16 1 17 74 18 75 19 79 20 76 21 78 22
REMARK SMILES IDX 77 23 12 24 13 25 14 26 15 27 16 28 17 29 18 30 19 31 71 32
REMARK SMILES IDX 20 33 70 34 21 35 22 36 23 37 64 38 24 39 69 40 63 41 65 42
REMARK SMILES IDX 25 43 68 44 62 45 61 46 26 48 52 49 35 50 51 51 36 52 39 53
REMARK SMILES IDX 50 54 66 55 37 56 38 57 49 59 67 60 40 61 27 62 28 63 33 64
REMARK SMILES IDX 29 65 30 66 32 67 34 68 31 69 53 70 54 71 59 72 55 73 56 74
REMARK SMILES IDX 58 75 60 76 57 77 41 78 42 79 47 80 43 81 44 82 46 83 48 84
REMARK SMILES IDX 45 85
REMARK H PARENT 65 47 39 58
REMARK Flexibility Score: inf
ROOT
ATOM      1  C   UNL A   1      33.718  33.782  28.264  1.00  0.00     0.188 C 
ENDROOT
BRANCH   1   2
ATOM      2  C   UNL A   1      33.208  32.474  27.619  1.00  0.00     0.188 C 
BRANCH   2   3
ATOM      3  O   UNL A   1      33.851  31.237  27.848  1.00  0.00    -0.376 OA
BRANCH   3   4
ATOM      4  C   UNL A   1      33.631  30.161  26.963  1.00  0.00     0.202 C 
BRANCH   4   5
ATOM      5  C   UNL A   1      33.138  28.821  27.517  1.00  0.00     0.261 C 
BRANCH   5   6
ATOM      6  O   UNL A   1      33.180  27.702  26.612  1.00  0.00    -0.461 OA
BRANCH   6   7
ATOM      7  C   UNL A   1      32.058  26.924  26.564  1.00  0.00     0.343 C 
ATOM      8  O   UNL A   1      31.068  27.158  27.251  1.00  0.00    -0.248 OA
BRANCH   7   9
ATOM      9  C   UNL A   1      32.166  25.745  25.506  1.00  0.00     0.190 C 
ATOM     10  C   UNL A   1      33.545  25.013  25.698  1.00  0.00     0.088 C 
ATOM     11  C   UNL A   1      32.137  26.423  24.114  1.00  0.00    -0.030 C 
ATOM     12  C   UNL A   1      34.179  24.444  24.449  1.00  0.00    -0.037 C 
ATOM     13  C   UNL A   1      32.986  26.078  23.127  1.00  0.00     0.003 C 
ATOM     14  C   UNL A   1      31.110  27.495  23.861  1.00  0.00     0.043 C 
ATOM     15  C   UNL A   1      33.910  24.980  23.251  1.00  0.00     0.004 C 
BRANCH   9  16
ATOM     16  O   UNL A   1      31.069  24.820  25.457  1.00  0.00    -0.362 OA
ATOM     17  C   UNL A   1      31.061  23.721  26.358  1.00  0.00     0.197 C 
ENDBRANCH   9  16
BRANCH  12  18
ATOM     18  C   UNL A   1      35.035  23.249  24.556  1.00  0.00    -0.022 A 
ATOM     19  C   UNL A   1      34.749  22.231  25.475  1.00  0.00     0.008 A 
ATOM     20  C   UNL A   1      36.183  23.138  23.760  1.00  0.00     0.008 A 
ATOM     21  C   UNL A   1      35.592  21.120  25.589  1.00  0.00     0.001 A 
ATOM     22  C   UNL A   1      37.029  22.031  23.879  1.00  0.00     0.001 A 
ATOM     23  C   UNL A   1      36.731  21.022  24.793  1.00  0.00     0.000 A 
ENDBRANCH  12  18
ENDBRANCH   7   9
ENDBRANCH   6   7
ENDBRANCH   5   6
ENDBRANCH   4   5
ENDBRANCH   3   4
ENDBRANCH   2   3
ENDBRANCH   1   2
BRANCH   1  24
ATOM     24  O   UNL A   1      32.992  34.442  29.273  1.00  0.00    -0.376 OA
BRANCH  24  25
ATOM     25  C   UNL A   1      33.653  35.139  30.307  1.00  0.00     0.202 C 
BRANCH  25  26
ATOM     26  C   UNL A   1      34.244  34.439  31.540  1.00  0.00     0.261 C 
BRANCH  26  27
ATOM     27  O   UNL A   1      34.560  33.045  31.403  1.00  0.00    -0.460 OA
BRANCH  27  28
ATOM     28  C   UNL A   1      35.379  32.527  32.351  1.00  0.00     0.338 C 
ATOM     29  O   UNL A   1      35.230  32.593  33.568  1.00  0.00    -0.246 OA
BRANCH  28  30
ATOM     30  C   UNL A   1      36.437  31.708  31.728  1.00  0.00     0.060 A 
ATOM     31  C   UNL A   1      37.318  30.991  32.550  1.00  0.00     0.016 A 
ATOM     32  C   UNL A   1      36.600  31.690  30.342  1.00  0.00     0.016 A 
ATOM     33  C   UNL A   1      38.384  30.279  31.990  1.00  0.00     0.010 A 
ATOM     34  C   UNL A   1      37.681  30.997  29.785  1.00  0.00     0.010 A 
ATOM     35  C   UNL A   1      38.599  30.313  30.605  1.00  0.00    -0.014 A 
BRANCH  35  36
ATOM     36  C   UNL A   1      39.868  29.800  30.022  1.00  0.00     0.031 A 
ATOM     37  C   UNL A   1      41.026  30.749  29.865  1.00  0.00     0.074 A 
ATOM     38  C   UNL A   1      40.002  28.522  29.620  1.00  0.00     0.049 A 
ATOM     39  N   UNL A   1      42.185  30.566  29.284  1.00  0.00    -0.248 NA
ATOM     40  C   UNL A   1      40.847  32.091  30.442  1.00  0.00     0.031 C 
ATOM     41  C   UNL A   1      38.988  27.480  29.756  1.00  0.00     0.029 A 
ATOM     42  N   UNL A   1      41.052  27.894  28.994  1.00  0.00    -0.354 N 
ATOM     43  C   UNL A   1      42.865  31.772  29.410  1.00  0.00     0.074 A 
ATOM     44  C   UNL A   1      41.980  32.685  30.100  1.00  0.00     0.031 C 
ATOM     45  C   UNL A   1      39.458  26.344  29.211  1.00  0.00     0.029 A 
ATOM     46  C   UNL A   1      40.787  26.589  28.652  1.00  0.00     0.049 A 
ATOM     47  H   UNL A   1      41.911  28.335  28.807  1.00  0.00     0.167 HD
ATOM     48  C   UNL A   1      44.114  32.091  28.993  1.00  0.00     0.037 A 
ATOM     49  C   UNL A   1      41.520  25.705  27.943  1.00  0.00     0.037 A 
ATOM     50  C   UNL A   1      44.997  31.189  28.298  1.00  0.00     0.049 A 
ATOM     51  C   UNL A   1      42.870  26.110  27.407  1.00  0.00     0.074 A 
ATOM     52  C   UNL A   1      46.287  31.419  27.849  1.00  0.00     0.029 A 
ATOM     53  N   UNL A   1      44.677  29.888  27.942  1.00  0.00    -0.354 N 
ATOM     54  N   UNL A   1      43.512  27.245  27.543  1.00  0.00    -0.248 NA
ATOM     55  C   UNL A   1      43.598  25.107  26.613  1.00  0.00     0.031 C 
ATOM     56  C   UNL A   1      46.724  30.278  27.170  1.00  0.00     0.029 A 
ATOM     57  C   UNL A   1      45.733  29.314  27.251  1.00  0.00     0.049 A 
ATOM     58  H   UNL A   1      43.826  29.438  28.148  1.00  0.00     0.167 HD
ATOM     59  C   UNL A   1      44.727  27.081  26.885  1.00  0.00     0.074 A 
ATOM     60  C   UNL A   1      44.737  25.734  26.357  1.00  0.00     0.031 C 
ATOM     61  C   UNL A   1      45.742  27.969  26.733  1.00  0.00     0.037 A 
BRANCH  48  62
ATOM     62  C   UNL A   1      44.586  33.494  29.246  1.00  0.00     0.057 A 
ATOM     63  C   UNL A   1      44.359  34.532  28.331  1.00  0.00     0.134 A 
ATOM     64  C   UNL A   1      45.262  33.816  30.430  1.00  0.00     0.134 A 
ATOM     65  F   UNL A   1      43.729  34.291  27.172  1.00  0.00    -0.206 F 
ATOM     66  C   UNL A   1      44.817  35.829  28.570  1.00  0.00     0.040 A 
ATOM     67  C   UNL A   1      45.697  35.116  30.694  1.00  0.00     0.040 A 
ATOM     68  F   UNL A   1      45.507  32.874  31.354  1.00  0.00    -0.206 F 
ATOM     69  C   UNL A   1      45.484  36.125  29.757  1.00  0.00     0.006 A 
ENDBRANCH  48  62
BRANCH  49  70
ATOM     70  C   UNL A   1      40.989  24.343  27.675  1.00  0.00     0.057 A 
ATOM     71  C   UNL A   1      41.535  23.215  28.299  1.00  0.00     0.134 A 
ATOM     72  C   UNL A   1      39.946  24.131  26.765  1.00  0.00     0.134 A 
ATOM     73  F   UNL A   1      42.558  23.348  29.156  1.00  0.00    -0.206 F 
ATOM     74  C   UNL A   1      41.075  21.927  28.018  1.00  0.00     0.040 A 
ATOM     75  C   UNL A   1      39.457  22.851  26.495  1.00  0.00     0.040 A 
ATOM     76  F   UNL A   1      39.383  25.168  26.125  1.00  0.00    -0.206 F 
ATOM     77  C   UNL A   1      40.028  21.744  27.118  1.00  0.00     0.006 A 
ENDBRANCH  49  70
BRANCH  61  78
ATOM     78  C   UNL A   1      46.973  27.502  26.007  1.00  0.00     0.057 A 
ATOM     79  C   UNL A   1      47.106  27.613  24.616  1.00  0.00     0.134 A 
ATOM     80  C   UNL A   1      48.061  26.973  26.715  1.00  0.00     0.134 A 
ATOM     81  F   UNL A   1      46.100  28.100  23.874  1.00  0.00    -0.206 F 
ATOM     82  C   UNL A   1      48.264  27.194  23.957  1.00  0.00     0.040 A 
ATOM     83  C   UNL A   1      49.234  26.579  26.071  1.00  0.00     0.040 A 
ATOM     84  F   UNL A   1      48.008  26.848  28.051  1.00  0.00    -0.206 F 
ATOM     85  C   UNL A   1      49.336  26.682  24.685  1.00  0.00     0.006 A 
ENDBRANCH  61  78
ENDBRANCH  35  36
ENDBRANCH  28  30
ENDBRANCH  27  28
ENDBRANCH  26  27
ENDBRANCH  25  26
ENDBRANCH  24  25
ENDBRANCH   1  24
TORSDOF 19
ENDMDL
MODEL 3
REMARK VINA RESULT:      -8.8      5.535     11.685
REMARK SMILES CO[C@@]1(C(=O)OCCOCCOCCOC(=O)c2ccc(-c3c4nc(c(-c5c(F)cccc5F)c5ccc([nH]5)c(-c5c(F)cccc5F)c5nc(c(-c6c(F)cccc6F)c6ccc3[nH]6)C=C5)C=C4)cc2)CC(c2ccccc2)=CC=C1C
REMARK SMILES IDX 11 1 10 2 9 3 8 4 7 5 6 6 4 7 5 8 3 9 72 10 82 11 73 12
REMARK SMILES IDX 81 13 83 14 80 15 2 16 1 17 74 18 75 19 79 20 76 21 78 22
REMARK SMILES IDX 77 23 12 24 13 25 14 26 15 27 16 28 17 29 18 30 19 31 71 32
REMARK SMILES IDX 20 33 70 34 21 35 22 36 23 37 64 38 24 39 69 40 63 41 65 42
REMARK SMILES IDX 25 43 68 44 62 45 61 46 26 48 52 49 35 50 51 51 36 52 39 53
REMARK SMILES IDX 50 54 66 55 37 56 38 57 49 59 67 60 40 61 27 62 28 63 33 64
REMARK SMILES IDX 29 65 30 66 32 67 34 68 31 69 53 70 54 71 59 72 55 73 56 74
REMARK SMILES IDX 58 75 60 76 57 77 41 78 42 79 47 80 43 81 44 82 46 83 48 84
REMARK SMILES IDX 45 85
REMARK H PARENT 65 47 39 58
REMARK Flexibility Score: inf
ROOT
ATOM      1  C   UNL A   1      39.799  21.169  26.275  1.00  0.00     0.188 C 
ENDROOT
BRANCH   1   2
ATOM      2  C   UNL A   1      38.954  22.436  26.534  1.00  0.00     0.188 C 
BRANCH   2   3
ATOM      3  O   UNL A   1      38.022  22.910  25.585  1.00  0.00    -0.376 OA
BRANCH   3   4
ATOM      4  C   UNL A   1      36.995  23.788  25.992  1.00  0.00     0.202 C 
BRANCH   4   5
ATOM      5  C   UNL A   1      35.876  24.142  25.008  1.00  0.00     0.261 C 
BRANCH   5   6
ATOM      6  O   UNL A   1      34.886  23.123  24.775  1.00  0.00    -0.461 OA
BRANCH   6   7
ATOM      7  C   UNL A   1      33.585  23.489  24.983  1.00  0.00     0.343 C 
ATOM      8  O   UNL A   1      33.270  24.627  25.315  1.00  0.00    -0.248 OA
BRANCH   7   9
ATOM      9  C   UNL A   1      32.558  22.311  24.701  1.00  0.00     0.190 C 
ATOM     10  C   UNL A   1      33.332  20.942  24.731  1.00  0.00     0.088 C 
ATOM     11  C   UNL A   1      32.014  22.559  23.273  1.00  0.00    -0.030 C 
ATOM     12  C   UNL A   1      32.817  19.863  23.806  1.00  0.00    -0.037 C 
ATOM     13  C   UNL A   1      31.895  21.570  22.366  1.00  0.00     0.003 C 
ATOM     14  C   UNL A   1      31.593  23.955  22.899  1.00  0.00     0.043 C 
ATOM     15  C   UNL A   1      32.157  20.191  22.687  1.00  0.00     0.004 C 
BRANCH   9  16
ATOM     16  O   UNL A   1      31.376  22.277  25.515  1.00  0.00    -0.362 OA
ATOM     17  C   UNL A   1      31.477  22.648  26.883  1.00  0.00     0.197 C 
ENDBRANCH   9  16
BRANCH  12  18
ATOM     18  C   UNL A   1      32.982  18.448  24.186  1.00  0.00    -0.022 A 
ATOM     19  C   UNL A   1      32.609  17.990  25.457  1.00  0.00     0.008 A 
ATOM     20  C   UNL A   1      33.563  17.546  23.286  1.00  0.00     0.008 A 
ATOM     21  C   UNL A   1      32.805  16.652  25.815  1.00  0.00     0.001 A 
ATOM     22  C   UNL A   1      33.766  16.210  23.647  1.00  0.00     0.001 A 
ATOM     23  C   UNL A   1      33.385  15.764  24.910  1.00  0.00     0.000 A 
ENDBRANCH  12  18
ENDBRANCH   7   9
ENDBRANCH   6   7
ENDBRANCH   5   6
ENDBRANCH   4   5
ENDBRANCH   3   4
ENDBRANCH   2   3
ENDBRANCH   1   2
BRANCH   1  24
ATOM     24  O   UNL A   1      40.715  20.683  27.227  1.00  0.00    -0.376 OA
BRANCH  24  25
ATOM     25  C   UNL A   1      42.041  20.362  26.862  1.00  0.00     0.202 C 
BRANCH  25  26
ATOM     26  C   UNL A   1      42.837  21.163  25.821  1.00  0.00     0.261 C 
BRANCH  26  27
ATOM     27  O   UNL A   1      43.594  22.282  26.305  1.00  0.00    -0.460 OA
BRANCH  27  28
ATOM     28  C   UNL A   1      43.495  23.423  25.581  1.00  0.00     0.338 C 
ATOM     29  O   UNL A   1      43.745  23.560  24.386  1.00  0.00    -0.246 OA
BRANCH  28  30
ATOM     30  C   UNL A   1      42.878  24.495  26.386  1.00  0.00     0.060 A 
ATOM     31  C   UNL A   1      43.443  25.779  26.360  1.00  0.00     0.016 A 
ATOM     32  C   UNL A   1      41.784  24.227  27.209  1.00  0.00     0.016 A 
ATOM     33  C   UNL A   1      42.934  26.790  27.182  1.00  0.00     0.010 A 
ATOM     34  C   UNL A   1      41.291  25.234  28.048  1.00  0.00     0.010 A 
ATOM     35  C   UNL A   1      41.881  26.512  28.065  1.00  0.00    -0.014 A 
BRANCH  35  36
ATOM     36  C   UNL A   1      41.511  27.481  29.132  1.00  0.00     0.031 A 
ATOM     37  C   UNL A   1      42.267  27.446  30.433  1.00  0.00     0.074 A 
ATOM     38  C   UNL A   1      40.514  28.371  28.971  1.00  0.00     0.049 A 
ATOM     39  N   UNL A   1      42.054  28.106  31.543  1.00  0.00    -0.248 NA
ATOM     40  C   UNL A   1      43.422  26.535  30.487  1.00  0.00     0.031 C 
ATOM     41  C   UNL A   1      39.731  28.555  27.753  1.00  0.00     0.029 A 
ATOM     42  N   UNL A   1      39.981  29.277  29.857  1.00  0.00    -0.354 N 
ATOM     43  C   UNL A   1      43.035  27.680  32.431  1.00  0.00     0.074 A 
ATOM     44  C   UNL A   1      43.827  26.686  31.739  1.00  0.00     0.031 C 
ATOM     45  C   UNL A   1      38.803  29.504  27.973  1.00  0.00     0.029 A 
ATOM     46  C   UNL A   1      38.899  29.963  29.358  1.00  0.00     0.049 A 
ATOM     47  H   UNL A   1      40.340  29.421  30.762  1.00  0.00     0.167 HD
ATOM     48  C   UNL A   1      43.261  28.080  33.705  1.00  0.00     0.037 A 
ATOM     49  C   UNL A   1      38.066  30.836  29.960  1.00  0.00     0.037 A 
ATOM     50  C   UNL A   1      42.471  29.063  34.403  1.00  0.00     0.049 A 
ATOM     51  C   UNL A   1      38.277  31.199  31.409  1.00  0.00     0.074 A 
ATOM     52  C   UNL A   1      42.632  29.543  35.692  1.00  0.00     0.029 A 
ATOM     53  N   UNL A   1      41.363  29.707  33.873  1.00  0.00    -0.354 N 
ATOM     54  N   UNL A   1      39.214  30.803  32.236  1.00  0.00    -0.248 NA
ATOM     55  C   UNL A   1      37.308  32.130  32.009  1.00  0.00     0.031 C 
ATOM     56  C   UNL A   1      41.588  30.432  35.962  1.00  0.00     0.029 A 
ATOM     57  C   UNL A   1      40.813  30.557  34.820  1.00  0.00     0.049 A 
ATOM     58  H   UNL A   1      41.018  29.580  32.960  1.00  0.00     0.167 HD
ATOM     59  C   UNL A   1      38.969  31.460  33.438  1.00  0.00     0.074 A 
ATOM     60  C   UNL A   1      37.800  32.288  33.229  1.00  0.00     0.031 C 
ATOM     61  C   UNL A   1      39.653  31.385  34.607  1.00  0.00     0.037 A 
BRANCH  48  62
ATOM     62  C   UNL A   1      44.390  27.421  34.444  1.00  0.00     0.057 A 
ATOM     63  C   UNL A   1      45.685  27.957  34.456  1.00  0.00     0.134 A 
ATOM     64  C   UNL A   1      44.175  26.240  35.167  1.00  0.00     0.134 A 
ATOM     65  F   UNL A   1      45.963  29.078  33.775  1.00  0.00    -0.206 F 
ATOM     66  C   UNL A   1      46.730  27.325  35.133  1.00  0.00     0.040 A 
ATOM     67  C   UNL A   1      45.205  25.616  35.873  1.00  0.00     0.040 A 
ATOM     68  F   UNL A   1      42.959  25.674  35.205  1.00  0.00    -0.206 F 
ATOM     69  C   UNL A   1      46.490  26.154  35.849  1.00  0.00     0.006 A 
ENDBRANCH  48  62
BRANCH  49  70
ATOM     70  C   UNL A   1      36.930  31.424  29.202  1.00  0.00     0.057 A 
ATOM     71  C   UNL A   1      35.791  30.668  28.898  1.00  0.00     0.134 A 
ATOM     72  C   UNL A   1      36.968  32.744  28.736  1.00  0.00     0.134 A 
ATOM     73  F   UNL A   1      35.708  29.388  29.288  1.00  0.00    -0.206 F 
ATOM     74  C   UNL A   1      34.740  31.197  28.147  1.00  0.00     0.040 A 
ATOM     75  C   UNL A   1      35.912  33.295  28.008  1.00  0.00     0.040 A 
ATOM     76  F   UNL A   1      38.034  33.520  28.985  1.00  0.00    -0.206 F 
ATOM     77  C   UNL A   1      34.796  32.517  27.705  1.00  0.00     0.006 A 
ENDBRANCH  49  70
BRANCH  61  78
ATOM     78  C   UNL A   1      39.188  32.252  35.744  1.00  0.00     0.057 A 
ATOM     79  C   UNL A   1      38.296  31.788  36.720  1.00  0.00     0.134 A 
ATOM     80  C   UNL A   1      39.675  33.559  35.889  1.00  0.00     0.134 A 
ATOM     81  F   UNL A   1      37.781  30.552  36.638  1.00  0.00    -0.206 F 
ATOM     82  C   UNL A   1      37.888  32.599  37.782  1.00  0.00     0.040 A 
ATOM     83  C   UNL A   1      39.298  34.367  36.962  1.00  0.00     0.040 A 
ATOM     84  F   UNL A   1      40.541  34.065  34.997  1.00  0.00    -0.206 F 
ATOM     85  C   UNL A   1      38.395  33.890  37.910  1.00  0.00     0.006 A 
ENDBRANCH  61  78
ENDBRANCH  35  36
ENDBRANCH  28  30
ENDBRANCH  27  28
ENDBRANCH  26  27
ENDBRANCH  25  26
ENDBRANCH  24  25
ENDBRANCH   1  24
TORSDOF 19
ENDMDL
