MODEL 1
REMARK VINA RESULT:     -11.8      0.000      0.000
REMARK SMILES Cc1ccccc1OCc1nc2cc(C(=O)OCCOCCOCCOC(=O)c3ccc(-c4c5nc(c(-c6c(F)cccc6F)c6ccc([nH]6)c(-c6c(F)cccc6F)c6nc(c(-c7c(F)cccc7F)c7ccc4[nH]7)C=C6)C=C5)cc3)ccc2n1C[C@H](C)O
REMARK SMILES IDX 21 1 20 2 19 3 18 4 17 5 15 6 16 7 14 8 10 9 11 10 86 11
REMARK SMILES IDX 12 12 85 13 13 14 84 15 83 16 9 17 8 18 7 19 1 20 2 21 3 22
REMARK SMILES IDX 4 23 6 24 5 25 87 26 88 27 89 28 90 29 22 31 23 32 24 33
REMARK SMILES IDX 25 34 26 35 27 36 28 37 29 38 30 39 82 40 31 41 81 42 32 43
REMARK SMILES IDX 33 44 34 45 75 46 35 47 80 48 74 49 76 50 36 51 79 52 73 53
REMARK SMILES IDX 72 54 37 56 63 57 46 58 62 59 47 60 50 61 61 62 77 63 48 64
REMARK SMILES IDX 49 65 60 67 78 68 51 69 38 70 39 71 44 72 40 73 41 74 43 75
REMARK SMILES IDX 45 76 42 77 64 78 65 79 70 80 66 81 67 82 69 83 71 84 68 85
REMARK SMILES IDX 52 86 53 87 58 88 54 89 55 90 57 91 59 92 56 93
REMARK H PARENT 90 30 76 55 50 66
REMARK Flexibility Score: inf
ROOT
ATOM      1  C   UNL A   1      33.817  35.554  29.555  1.00  0.00     0.188 C 
ENDROOT
BRANCH   1   2
ATOM      2  O   UNL A   1      34.361  35.023  28.338  1.00  0.00    -0.376 OA
BRANCH   2   3
ATOM      3  C   UNL A   1      35.055  33.770  28.056  1.00  0.00     0.202 C 
BRANCH   3   4
ATOM      4  C   UNL A   1      34.754  32.015  28.440  1.00  0.00     0.261 C 
BRANCH   4   5
ATOM      5  O   UNL A   1      33.836  30.809  27.423  1.00  0.00    -0.460 OA
BRANCH   5   6
ATOM      6  C   UNL A   1      32.658  30.508  26.416  1.00  0.00     0.338 C 
ATOM      7  O   UNL A   1      31.643  31.219  26.474  1.00  0.00    -0.246 OA
BRANCH   6   8
ATOM      8  C   UNL A   1      32.380  29.399  25.190  1.00  0.00     0.062 A 
ATOM      9  C   UNL A   1      32.968  25.555  23.077  1.00  0.00     0.148 A 
ATOM     10  N   UNL A   1      33.715  26.612  22.789  1.00  0.00    -0.229 NA
ATOM     11  N   UNL A   1      32.240  25.957  24.165  1.00  0.00    -0.322 N 
ATOM     12  C   UNL A   1      32.965  27.601  23.433  1.00  0.00     0.090 A 
ATOM     13  C   UNL A   1      31.675  27.151  23.613  1.00  0.00     0.068 A 
ATOM     14  C   UNL A   1      33.252  28.555  24.428  1.00  0.00     0.046 A 
ATOM     15  C   UNL A   1      30.735  28.172  23.916  1.00  0.00     0.029 A 
ATOM     16  C   UNL A   1      31.101  29.304  24.681  1.00  0.00     0.018 A 
BRANCH   9  17
ATOM     17  C   UNL A   1      32.551  24.258  22.531  1.00  0.00     0.304 C 
BRANCH  17  18
ATOM     18  O   UNL A   1      33.824  23.552  22.404  1.00  0.00    -0.485 OA
BRANCH  18  19
ATOM     19  C   UNL A   1      34.508  22.875  23.401  1.00  0.00     0.122 A 
ATOM     20  C   UNL A   1      32.938  20.866  24.387  1.00  0.00     0.048 C 
ATOM     21  C   UNL A   1      34.166  21.727  24.202  1.00  0.00    -0.009 A 
ATOM     22  C   UNL A   1      35.193  21.058  24.907  1.00  0.00     0.007 A 
ATOM     23  C   UNL A   1      36.519  21.386  24.768  1.00  0.00     0.001 A 
ATOM     24  C   UNL A   1      35.871  23.198  23.313  1.00  0.00     0.047 A 
ATOM     25  C   UNL A   1      36.859  22.447  23.956  1.00  0.00     0.004 A 
ENDBRANCH  18  19
ENDBRANCH  17  18
ENDBRANCH   9  17
BRANCH  11  26
ATOM     26  C   UNL A   1      32.768  25.473  25.476  1.00  0.00     0.155 C 
BRANCH  26  27
ATOM     27  C   UNL A   1      31.667  24.863  26.418  1.00  0.00     0.131 C 
ATOM     28  C   UNL A   1      31.277  23.400  26.200  1.00  0.00     0.040 C 
BRANCH  27  29
ATOM     29  O   UNL A   1      30.491  25.689  26.435  1.00  0.00    -0.392 OA
ATOM     30  H   UNL A   1      30.215  25.842  27.352  1.00  0.00     0.211 HD
ENDBRANCH  27  29
ENDBRANCH  26  27
ENDBRANCH  11  26
ENDBRANCH   6   8
ENDBRANCH   5   6
ENDBRANCH   4   5
ENDBRANCH   3   4
ENDBRANCH   2   3
ENDBRANCH   1   2
BRANCH   1  31
ATOM     31  C   UNL A   1      33.555  34.672  30.790  1.00  0.00     0.188 C 
BRANCH  31  32
ATOM     32  O   UNL A   1      33.952  35.265  31.995  1.00  0.00    -0.376 OA
BRANCH  32  33
ATOM     33  C   UNL A   1      34.551  34.256  32.785  1.00  0.00     0.202 C 
BRANCH  33  34
ATOM     34  C   UNL A   1      34.677  32.793  32.180  1.00  0.00     0.261 C 
BRANCH  34  35
ATOM     35  O   UNL A   1      35.949  31.868  31.970  1.00  0.00    -0.460 OA
BRANCH  35  36
ATOM     36  C   UNL A   1      37.069  31.117  31.811  1.00  0.00     0.338 C 
ATOM     37  O   UNL A   1      38.169  31.606  32.054  1.00  0.00    -0.246 OA
BRANCH  36  38
ATOM     38  C   UNL A   1      37.111  29.731  31.219  1.00  0.00     0.060 A 
ATOM     39  C   UNL A   1      37.530  28.625  31.962  1.00  0.00     0.016 A 
ATOM     40  C   UNL A   1      37.025  29.492  29.881  1.00  0.00     0.016 A 
ATOM     41  C   UNL A   1      38.561  27.838  31.437  1.00  0.00     0.010 A 
ATOM     42  C   UNL A   1      38.069  28.750  29.362  1.00  0.00     0.010 A 
ATOM     43  C   UNL A   1      39.062  28.228  30.205  1.00  0.00    -0.014 A 
BRANCH  43  44
ATOM     44  C   UNL A   1      40.556  28.284  29.750  1.00  0.00     0.031 A 
ATOM     45  C   UNL A   1      40.906  27.077  28.444  1.00  0.00     0.074 A 
ATOM     46  C   UNL A   1      41.504  29.191  30.463  1.00  0.00     0.049 A 
ATOM     47  N   UNL A   1      41.593  25.969  28.702  1.00  0.00    -0.248 NA
ATOM     48  C   UNL A   1      40.539  26.961  27.014  1.00  0.00     0.031 C 
ATOM     49  C   UNL A   1      43.064  29.570  30.380  1.00  0.00     0.029 A 
ATOM     50  N   UNL A   1      41.226  30.161  31.417  1.00  0.00    -0.354 N 
ATOM     51  C   UNL A   1      42.103  25.328  27.644  1.00  0.00     0.074 A 
ATOM     52  C   UNL A   1      41.232  25.856  26.599  1.00  0.00     0.031 C 
ATOM     53  C   UNL A   1      43.515  30.431  31.274  1.00  0.00     0.029 A 
ATOM     54  C   UNL A   1      42.401  30.584  32.094  1.00  0.00     0.049 A 
ATOM     55  H   UNL A   1      40.325  30.512  31.602  1.00  0.00     0.167 HD
ATOM     56  C   UNL A   1      43.248  24.573  27.833  1.00  0.00     0.037 A 
ATOM     57  C   UNL A   1      42.542  30.554  33.423  1.00  0.00     0.037 A 
ATOM     58  C   UNL A   1      44.115  25.023  29.028  1.00  0.00     0.049 A 
ATOM     59  C   UNL A   1      43.168  29.147  33.730  1.00  0.00     0.074 A 
ATOM     60  C   UNL A   1      45.218  25.878  29.023  1.00  0.00     0.029 A 
ATOM     61  N   UNL A   1      43.856  24.847  30.417  1.00  0.00    -0.354 N 
ATOM     62  N   UNL A   1      43.656  28.299  32.817  1.00  0.00    -0.248 NA
ATOM     63  C   UNL A   1      43.487  28.675  35.070  1.00  0.00     0.031 C 
ATOM     64  C   UNL A   1      45.458  26.385  30.344  1.00  0.00     0.029 A 
ATOM     65  C   UNL A   1      44.585  25.785  31.240  1.00  0.00     0.049 A 
ATOM     66  H   UNL A   1      43.248  24.161  30.776  1.00  0.00     0.167 HD
ATOM     67  C   UNL A   1      44.137  27.131  33.389  1.00  0.00     0.074 A 
ATOM     68  C   UNL A   1      44.141  27.524  34.807  1.00  0.00     0.031 C 
ATOM     69  C   UNL A   1      44.431  25.910  32.751  1.00  0.00     0.037 A 
BRANCH  56  70
ATOM     70  C   UNL A   1      43.819  23.681  26.730  1.00  0.00     0.057 A 
ATOM     71  C   UNL A   1      44.794  24.114  25.809  1.00  0.00     0.134 A 
ATOM     72  C   UNL A   1      43.495  22.317  26.607  1.00  0.00     0.134 A 
ATOM     73  F   UNL A   1      45.264  25.367  25.820  1.00  0.00    -0.206 F 
ATOM     74  C   UNL A   1      45.357  23.272  24.827  1.00  0.00     0.040 A 
ATOM     75  C   UNL A   1      44.052  21.462  25.638  1.00  0.00     0.040 A 
ATOM     76  F   UNL A   1      42.665  21.724  27.473  1.00  0.00    -0.206 F 
ATOM     77  C   UNL A   1      44.987  21.940  24.738  1.00  0.00     0.006 A 
ENDBRANCH  56  70
BRANCH  57  78
ATOM     78  C   UNL A   1      41.479  31.597  33.778  1.00  0.00     0.057 A 
ATOM     79  C   UNL A   1      40.447  31.019  34.620  1.00  0.00     0.134 A 
ATOM     80  C   UNL A   1      41.889  32.881  34.182  1.00  0.00     0.134 A 
ATOM     81  F   UNL A   1      39.981  29.787  34.342  1.00  0.00    -0.206 F 
ATOM     82  C   UNL A   1      40.170  31.492  35.925  1.00  0.00     0.040 A 
ATOM     83  C   UNL A   1      41.560  33.382  35.473  1.00  0.00     0.040 A 
ATOM     84  F   UNL A   1      42.876  33.500  33.520  1.00  0.00    -0.206 F 
ATOM     85  C   UNL A   1      40.773  32.656  36.373  1.00  0.00     0.006 A 
ENDBRANCH  57  78
BRANCH  69  86
ATOM     86  C   UNL A   1      44.690  24.641  33.576  1.00  0.00     0.057 A 
ATOM     87  C   UNL A   1      45.946  24.029  33.732  1.00  0.00     0.134 A 
ATOM     88  C   UNL A   1      43.657  24.003  34.299  1.00  0.00     0.134 A 
ATOM     89  F   UNL A   1      47.086  24.643  33.387  1.00  0.00    -0.206 F 
ATOM     90  C   UNL A   1      46.116  22.769  34.317  1.00  0.00     0.040 A 
ATOM     91  C   UNL A   1      43.838  22.800  34.995  1.00  0.00     0.040 A 
ATOM     92  F   UNL A   1      42.423  24.520  34.390  1.00  0.00    -0.206 F 
ATOM     93  C   UNL A   1      45.055  22.142  34.946  1.00  0.00     0.006 A 
ENDBRANCH  69  86
ENDBRANCH  43  44
ENDBRANCH  36  38
ENDBRANCH  35  36
ENDBRANCH  34  35
ENDBRANCH  33  34
ENDBRANCH  32  33
ENDBRANCH  31  32
ENDBRANCH   1  31
TORSDOF 23
ENDMDL
MODEL 2
REMARK VINA RESULT:     -10.4      4.064      6.687
REMARK SMILES Cc1ccccc1OCc1nc2cc(C(=O)OCCOCCOCCOC(=O)c3ccc(-c4c5nc(c(-c6c(F)cccc6F)c6ccc([nH]6)c(-c6c(F)cccc6F)c6nc(c(-c7c(F)cccc7F)c7ccc4[nH]7)C=C6)C=C5)cc3)ccc2n1C[C@H](C)O
REMARK SMILES IDX 21 1 20 2 19 3 18 4 17 5 15 6 16 7 14 8 10 9 11 10 86 11
REMARK SMILES IDX 12 12 85 13 13 14 84 15 83 16 9 17 8 18 7 19 1 20 2 21 3 22
REMARK SMILES IDX 4 23 6 24 5 25 87 26 88 27 89 28 90 29 22 31 23 32 24 33
REMARK SMILES IDX 25 34 26 35 27 36 28 37 29 38 30 39 82 40 31 41 81 42 32 43
REMARK SMILES IDX 33 44 34 45 75 46 35 47 80 48 74 49 76 50 36 51 79 52 73 53
REMARK SMILES IDX 72 54 37 56 63 57 46 58 62 59 47 60 50 61 61 62 77 63 48 64
REMARK SMILES IDX 49 65 60 67 78 68 51 69 38 70 39 71 44 72 40 73 41 74 43 75
REMARK SMILES IDX 45 76 42 77 64 78 65 79 70 80 66 81 67 82 69 83 71 84 68 85
REMARK SMILES IDX 52 86 53 87 58 88 54 89 55 90 57 91 59 92 56 93
REMARK H PARENT 90 30 76 55 50 66
REMARK Flexibility Score: inf
ROOT
ATOM      1  C   UNL A   1      38.757  29.524  28.131  1.00  0.00     0.188 C 
ENDROOT
BRANCH   1   2
ATOM      2  O   UNL A   1      37.503  30.137  27.800  1.00  0.00    -0.376 OA
BRANCH   2   3
ATOM      3  C   UNL A   1      36.129  29.662  27.937  1.00  0.00     0.202 C 
BRANCH   3   4
ATOM      4  C   UNL A   1      34.504  30.229  27.342  1.00  0.00     0.261 C 
BRANCH   4   5
ATOM      5  O   UNL A   1      32.986  29.231  27.169  1.00  0.00    -0.460 OA
BRANCH   5   6
ATOM      6  C   UNL A   1      32.309  27.810  27.037  1.00  0.00     0.338 C 
ATOM      7  O   UNL A   1      31.205  27.637  27.577  1.00  0.00    -0.246 OA
BRANCH   6   8
ATOM      8  C   UNL A   1      32.705  26.354  26.308  1.00  0.00     0.062 A 
ATOM      9  C   UNL A   1      31.856  22.724  23.923  1.00  0.00     0.148 A 
ATOM     10  N   UNL A   1      31.700  22.726  25.241  1.00  0.00    -0.229 NA
ATOM     11  N   UNL A   1      32.133  24.032  23.625  1.00  0.00    -0.322 N 
ATOM     12  C   UNL A   1      32.378  23.910  25.546  1.00  0.00     0.090 A 
ATOM     13  C   UNL A   1      33.237  24.223  24.516  1.00  0.00     0.068 A 
ATOM     14  C   UNL A   1      32.022  25.098  26.213  1.00  0.00     0.046 A 
ATOM     15  C   UNL A   1      34.233  25.179  24.853  1.00  0.00     0.029 A 
ATOM     16  C   UNL A   1      33.968  26.224  25.769  1.00  0.00     0.018 A 
BRANCH   9  17
ATOM     17  C   UNL A   1      32.016  21.810  22.785  1.00  0.00     0.304 C 
BRANCH  17  18
ATOM     18  O   UNL A   1      31.949  20.500  23.430  1.00  0.00    -0.485 OA
BRANCH  18  19
ATOM     19  C   UNL A   1      32.986  19.596  23.595  1.00  0.00     0.122 A 
ATOM     20  C   UNL A   1      34.824  20.617  25.341  1.00  0.00     0.048 C 
ATOM     21  C   UNL A   1      34.166  19.615  24.422  1.00  0.00    -0.009 A 
ATOM     22  C   UNL A   1      34.872  18.407  24.630  1.00  0.00     0.007 A 
ATOM     23  C   UNL A   1      34.415  17.196  24.171  1.00  0.00     0.001 A 
ATOM     24  C   UNL A   1      32.572  18.342  23.117  1.00  0.00     0.047 A 
ATOM     25  C   UNL A   1      33.253  17.163  23.427  1.00  0.00     0.004 A 
ENDBRANCH  18  19
ENDBRANCH  17  18
ENDBRANCH   9  17
BRANCH  11  26
ATOM     26  C   UNL A   1      30.966  24.808  23.109  1.00  0.00     0.155 C 
BRANCH  26  27
ATOM     27  C   UNL A   1      31.367  26.103  22.313  1.00  0.00     0.131 C 
ATOM     28  C   UNL A   1      32.695  26.087  21.553  1.00  0.00     0.040 C 
BRANCH  27  29
ATOM     29  O   UNL A   1      31.296  27.266  23.155  1.00  0.00    -0.392 OA
ATOM     30  H   UNL A   1      31.706  28.019  22.702  1.00  0.00     0.211 HD
ENDBRANCH  27  29
ENDBRANCH  26  27
ENDBRANCH  11  26
ENDBRANCH   6   8
ENDBRANCH   5   6
ENDBRANCH   4   5
ENDBRANCH   3   4
ENDBRANCH   2   3
ENDBRANCH   1   2
BRANCH   1  31
ATOM     31  C   UNL A   1      38.856  28.333  29.104  1.00  0.00     0.188 C 
BRANCH  31  32
ATOM     32  O   UNL A   1      40.148  28.121  29.598  1.00  0.00    -0.376 OA
BRANCH  32  33
ATOM     33  C   UNL A   1      40.812  27.264  28.690  1.00  0.00     0.202 C 
BRANCH  33  34
ATOM     34  C   UNL A   1      40.173  25.842  28.383  1.00  0.00     0.261 C 
BRANCH  34  35
ATOM     35  O   UNL A   1      40.824  24.523  27.789  1.00  0.00    -0.460 OA
BRANCH  35  36
ATOM     36  C   UNL A   1      41.333  23.385  27.251  1.00  0.00     0.338 C 
ATOM     37  O   UNL A   1      40.686  22.767  26.410  1.00  0.00    -0.246 OA
BRANCH  36  38
ATOM     38  C   UNL A   1      42.604  22.706  27.694  1.00  0.00     0.060 A 
ATOM     39  C   UNL A   1      42.915  22.536  29.047  1.00  0.00     0.016 A 
ATOM     40  C   UNL A   1      43.651  22.470  26.857  1.00  0.00     0.016 A 
ATOM     41  C   UNL A   1      44.150  23.014  29.498  1.00  0.00     0.010 A 
ATOM     42  C   UNL A   1      44.860  22.982  27.290  1.00  0.00     0.010 A 
ATOM     43  C   UNL A   1      44.964  23.605  28.543  1.00  0.00    -0.014 A 
BRANCH  43  44
ATOM     44  C   UNL A   1      45.814  24.909  28.679  1.00  0.00     0.031 A 
ATOM     45  C   UNL A   1      46.956  25.115  27.287  1.00  0.00     0.074 A 
ATOM     46  C   UNL A   1      45.683  25.741  29.912  1.00  0.00     0.049 A 
ATOM     47  N   UNL A   1      48.259  24.900  27.433  1.00  0.00    -0.248 NA
ATOM     48  C   UNL A   1      46.793  25.445  25.852  1.00  0.00     0.031 C 
ATOM     49  C   UNL A   1      46.324  27.094  30.497  1.00  0.00     0.029 A 
ATOM     50  N   UNL A   1      44.765  25.621  30.947  1.00  0.00    -0.354 N 
ATOM     51  C   UNL A   1      49.054  25.407  26.483  1.00  0.00     0.074 A 
ATOM     52  C   UNL A   1      48.082  25.543  25.403  1.00  0.00     0.031 C 
ATOM     53  C   UNL A   1      45.934  27.465  31.703  1.00  0.00     0.029 A 
ATOM     54  C   UNL A   1      45.155  26.376  32.086  1.00  0.00     0.049 A 
ATOM     55  H   UNL A   1      43.944  25.080  30.898  1.00  0.00     0.167 HD
ATOM     56  C   UNL A   1      50.352  25.739  26.832  1.00  0.00     0.037 A 
ATOM     57  C   UNL A   1      45.295  25.853  33.309  1.00  0.00     0.037 A 
ATOM     58  C   UNL A   1      50.546  26.050  28.332  1.00  0.00     0.049 A 
ATOM     59  C   UNL A   1      46.800  25.414  33.389  1.00  0.00     0.074 A 
ATOM     60  C   UNL A   1      50.534  27.293  28.965  1.00  0.00     0.029 A 
ATOM     61  N   UNL A   1      50.562  25.137  29.423  1.00  0.00    -0.354 N 
ATOM     62  N   UNL A   1      47.750  25.729  32.500  1.00  0.00    -0.248 NA
ATOM     63  C   UNL A   1      47.400  24.779  34.554  1.00  0.00     0.031 C 
ATOM     64  C   UNL A   1      50.307  27.131  30.373  1.00  0.00     0.029 A 
ATOM     65  C   UNL A   1      50.275  25.779  30.687  1.00  0.00     0.049 A 
ATOM     66  H   UNL A   1      50.747  24.174  29.329  1.00  0.00     0.167 HD
ATOM     67  C   UNL A   1      48.983  25.192  32.835  1.00  0.00     0.074 A 
ATOM     68  C   UNL A   1      48.706  24.755  34.212  1.00  0.00     0.031 C 
ATOM     69  C   UNL A   1      50.118  25.045  32.013  1.00  0.00     0.037 A 
BRANCH  56  70
ATOM     70  C   UNL A   1      51.382  26.176  25.791  1.00  0.00     0.057 A 
ATOM     71  C   UNL A   1      52.395  25.328  25.298  1.00  0.00     0.134 A 
ATOM     72  C   UNL A   1      51.342  27.432  25.157  1.00  0.00     0.134 A 
ATOM     73  F   UNL A   1      52.542  24.075  25.746  1.00  0.00    -0.206 F 
ATOM     74  C   UNL A   1      53.310  25.718  24.299  1.00  0.00     0.040 A 
ATOM     75  C   UNL A   1      52.243  27.834  24.153  1.00  0.00     0.040 A 
ATOM     76  F   UNL A   1      50.375  28.314  25.434  1.00  0.00    -0.206 F 
ATOM     77  C   UNL A   1      53.237  26.975  23.721  1.00  0.00     0.006 A 
ENDBRANCH  56  70
BRANCH  57  78
ATOM     78  C   UNL A   1      43.830  25.486  33.556  1.00  0.00     0.057 A 
ATOM     79  C   UNL A   1      43.692  24.067  33.836  1.00  0.00     0.134 A 
ATOM     80  C   UNL A   1      43.051  26.307  34.391  1.00  0.00     0.134 A 
ATOM     81  F   UNL A   1      44.398  23.180  33.111  1.00  0.00    -0.206 F 
ATOM     82  C   UNL A   1      43.169  23.575  35.055  1.00  0.00     0.040 A 
ATOM     83  C   UNL A   1      42.473  25.798  35.587  1.00  0.00     0.040 A 
ATOM     84  F   UNL A   1      43.132  27.640  34.271  1.00  0.00    -0.206 F 
ATOM     85  C   UNL A   1      42.601  24.456  35.961  1.00  0.00     0.006 A 
ENDBRANCH  57  78
BRANCH  69  86
ATOM     86  C   UNL A   1      51.303  24.180  32.466  1.00  0.00     0.057 A 
ATOM     87  C   UNL A   1      52.631  24.632  32.572  1.00  0.00     0.134 A 
ATOM     88  C   UNL A   1      51.130  22.836  32.864  1.00  0.00     0.134 A 
ATOM     89  F   UNL A   1      52.945  25.933  32.539  1.00  0.00    -0.206 F 
ATOM     90  C   UNL A   1      53.715  23.774  32.790  1.00  0.00     0.040 A 
ATOM     91  C   UNL A   1      52.197  21.993  33.204  1.00  0.00     0.040 A 
ATOM     92  F   UNL A   1      49.918  22.271  32.968  1.00  0.00    -0.206 F 
ATOM     93  C   UNL A   1      53.502  22.443  33.099  1.00  0.00     0.006 A 
ENDBRANCH  69  86
ENDBRANCH  43  44
ENDBRANCH  36  38
ENDBRANCH  35  36
ENDBRANCH  34  35
ENDBRANCH  33  34
ENDBRANCH  32  33
ENDBRANCH  31  32
ENDBRANCH   1  31
TORSDOF 23
ENDMDL
MODEL 3
REMARK VINA RESULT:     -10.2      3.583      5.716
REMARK SMILES Cc1ccccc1OCc1nc2cc(C(=O)OCCOCCOCCOC(=O)c3ccc(-c4c5nc(c(-c6c(F)cccc6F)c6ccc([nH]6)c(-c6c(F)cccc6F)c6nc(c(-c7c(F)cccc7F)c7ccc4[nH]7)C=C6)C=C5)cc3)ccc2n1C[C@H](C)O
REMARK SMILES IDX 21 1 20 2 19 3 18 4 17 5 15 6 16 7 14 8 10 9 11 10 86 11
REMARK SMILES IDX 12 12 85 13 13 14 84 15 83 16 9 17 8 18 7 19 1 20 2 21 3 22
REMARK SMILES IDX 4 23 6 24 5 25 87 26 88 27 89 28 90 29 22 31 23 32 24 33
REMARK SMILES IDX 25 34 26 35 27 36 28 37 29 38 30 39 82 40 31 41 81 42 32 43
REMARK SMILES IDX 33 44 34 45 75 46 35 47 80 48 74 49 76 50 36 51 79 52 73 53
REMARK SMILES IDX 72 54 37 56 63 57 46 58 62 59 47 60 50 61 61 62 77 63 48 64
REMARK SMILES IDX 49 65 60 67 78 68 51 69 38 70 39 71 44 72 40 73 41 74 43 75
REMARK SMILES IDX 45 76 42 77 64 78 65 79 70 80 66 81 67 82 69 83 71 84 68 85
REMARK SMILES IDX 52 86 53 87 58 88 54 89 55 90 57 91 59 92 56 93
REMARK H PARENT 90 30 76 55 50 66
REMARK Flexibility Score: inf
ROOT
ATOM      1  C   UNL A   1      36.197  31.104  29.928  1.00  0.00     0.188 C 
ENDROOT
BRANCH   1   2
ATOM      2  O   UNL A   1      36.691  32.109  29.031  1.00  0.00    -0.376 OA
BRANCH   2   3
ATOM      3  C   UNL A   1      36.307  33.504  28.838  1.00  0.00     0.202 C 
BRANCH   3   4
ATOM      4  C   UNL A   1      34.797  34.362  28.290  1.00  0.00     0.261 C 
BRANCH   4   5
ATOM      5  O   UNL A   1      33.212  33.597  27.805  1.00  0.00    -0.460 OA
BRANCH   5   6
ATOM      6  C   UNL A   1      32.429  32.343  27.251  1.00  0.00     0.338 C 
ATOM      7  O   UNL A   1      31.333  32.534  26.701  1.00  0.00    -0.246 OA
BRANCH   6   8
ATOM      8  C   UNL A   1      32.695  30.689  27.198  1.00  0.00     0.062 A 
ATOM      9  C   UNL A   1      31.735  26.527  26.037  1.00  0.00     0.148 A 
ATOM     10  N   UNL A   1      31.284  27.038  27.175  1.00  0.00    -0.229 NA
ATOM     11  N   UNL A   1      32.318  27.595  25.408  1.00  0.00    -0.322 N 
ATOM     12  C   UNL A   1      32.089  28.180  27.243  1.00  0.00     0.090 A 
ATOM     13  C   UNL A   1      33.205  28.000  26.456  1.00  0.00     0.068 A 
ATOM     14  C   UNL A   1      31.824  29.560  27.341  1.00  0.00     0.046 A 
ATOM     15  C   UNL A   1      34.261  28.913  26.720  1.00  0.00     0.029 A 
ATOM     16  C   UNL A   1      33.999  30.246  27.115  1.00  0.00     0.018 A 
BRANCH   9  17
ATOM     17  C   UNL A   1      31.973  25.243  25.367  1.00  0.00     0.304 C 
BRANCH  17  18
ATOM     18  O   UNL A   1      32.771  24.522  26.357  1.00  0.00    -0.485 OA
BRANCH  18  19
ATOM     19  C   UNL A   1      33.968  23.858  26.143  1.00  0.00     0.122 A 
ATOM     20  C   UNL A   1      34.020  21.561  27.624  1.00  0.00     0.048 C 
ATOM     21  C   UNL A   1      34.480  22.602  26.630  1.00  0.00    -0.009 A 
ATOM     22  C   UNL A   1      35.595  22.023  25.981  1.00  0.00     0.007 A 
ATOM     23  C   UNL A   1      36.138  22.549  24.834  1.00  0.00     0.001 A 
ATOM     24  C   UNL A   1      34.573  24.379  24.988  1.00  0.00     0.047 A 
ATOM     25  C   UNL A   1      35.614  23.720  24.328  1.00  0.00     0.004 A 
ENDBRANCH  18  19
ENDBRANCH  17  18
ENDBRANCH   9  17
BRANCH  11  26
ATOM     26  C   UNL A   1      31.472  28.229  24.352  1.00  0.00     0.155 C 
BRANCH  26  27
ATOM     27  C   UNL A   1      32.053  28.081  22.899  1.00  0.00     0.131 C 
ATOM     28  C   UNL A   1      33.274  28.927  22.533  1.00  0.00     0.040 C 
BRANCH  27  29
ATOM     29  O   UNL A   1      31.021  28.254  21.914  1.00  0.00    -0.392 OA
ATOM     30  H   UNL A   1      30.913  29.197  21.720  1.00  0.00     0.211 HD
ENDBRANCH  27  29
ENDBRANCH  26  27
ENDBRANCH  11  26
ENDBRANCH   6   8
ENDBRANCH   5   6
ENDBRANCH   4   5
ENDBRANCH   3   4
ENDBRANCH   2   3
ENDBRANCH   1   2
BRANCH   1  31
ATOM     31  C   UNL A   1      37.073  30.495  31.039  1.00  0.00     0.188 C 
BRANCH  31  32
ATOM     32  O   UNL A   1      36.718  29.183  31.375  1.00  0.00    -0.376 OA
BRANCH  32  33
ATOM     33  C   UNL A   1      37.726  28.677  32.228  1.00  0.00     0.202 C 
BRANCH  33  34
ATOM     34  C   UNL A   1      38.392  29.661  33.283  1.00  0.00     0.261 C 
BRANCH  34  35
ATOM     35  O   UNL A   1      39.908  29.843  33.713  1.00  0.00    -0.460 OA
BRANCH  35  36
ATOM     36  C   UNL A   1      41.199  29.956  34.118  1.00  0.00     0.338 C 
ATOM     37  O   UNL A   1      41.568  29.384  35.140  1.00  0.00    -0.246 OA
BRANCH  36  38
ATOM     38  C   UNL A   1      42.232  30.855  33.488  1.00  0.00     0.060 A 
ATOM     39  C   UNL A   1      41.887  32.071  32.892  1.00  0.00     0.016 A 
ATOM     40  C   UNL A   1      43.498  30.444  33.201  1.00  0.00     0.016 A 
ATOM     41  C   UNL A   1      42.290  32.288  31.570  1.00  0.00     0.010 A 
ATOM     42  C   UNL A   1      43.875  30.623  31.883  1.00  0.00     0.010 A 
ATOM     43  C   UNL A   1      43.019  31.268  30.977  1.00  0.00    -0.014 A 
BRANCH  43  44
ATOM     44  C   UNL A   1      42.875  30.702  29.528  1.00  0.00     0.031 A 
ATOM     45  C   UNL A   1      41.900  29.174  29.498  1.00  0.00     0.074 A 
ATOM     46  C   UNL A   1      43.596  31.373  28.406  1.00  0.00     0.049 A 
ATOM     47  N   UNL A   1      42.482  27.994  29.317  1.00  0.00    -0.248 NA
ATOM     48  C   UNL A   1      40.468  28.855  29.698  1.00  0.00     0.031 C 
ATOM     49  C   UNL A   1      43.767  31.167  26.821  1.00  0.00     0.029 A 
ATOM     50  N   UNL A   1      44.288  32.577  28.416  1.00  0.00    -0.354 N 
ATOM     51  C   UNL A   1      41.679  26.985  28.957  1.00  0.00     0.074 A 
ATOM     52  C   UNL A   1      40.403  27.515  29.426  1.00  0.00     0.031 C 
ATOM     53  C   UNL A   1      44.570  32.008  26.195  1.00  0.00     0.029 A 
ATOM     54  C   UNL A   1      45.106  32.722  27.263  1.00  0.00     0.049 A 
ATOM     55  H   UNL A   1      44.221  33.247  29.133  1.00  0.00     0.167 HD
ATOM     56  C   UNL A   1      42.226  25.953  28.213  1.00  0.00     0.037 A 
ATOM     57  C   UNL A   1      46.420  32.962  27.312  1.00  0.00     0.037 A 
ATOM     58  C   UNL A   1      43.476  26.352  27.399  1.00  0.00     0.049 A 
ATOM     59  C   UNL A   1      47.089  31.542  27.305  1.00  0.00     0.074 A 
ATOM     60  C   UNL A   1      43.546  26.752  26.064  1.00  0.00     0.029 A 
ATOM     61  N   UNL A   1      44.791  26.609  27.878  1.00  0.00    -0.354 N 
ATOM     62  N   UNL A   1      46.458  30.387  27.062  1.00  0.00    -0.248 NA
ATOM     63  C   UNL A   1      48.528  31.322  27.358  1.00  0.00     0.031 C 
ATOM     64  C   UNL A   1      44.778  27.445  25.818  1.00  0.00     0.029 A 
ATOM     65  C   UNL A   1      45.568  27.410  26.958  1.00  0.00     0.049 A 
ATOM     66  H   UNL A   1      45.134  26.278  28.739  1.00  0.00     0.167 HD
ATOM     67  C   UNL A   1      47.311  29.297  27.132  1.00  0.00     0.074 A 
ATOM     68  C   UNL A   1      48.609  29.989  27.159  1.00  0.00     0.031 C 
ATOM     69  C   UNL A   1      46.971  27.934  27.242  1.00  0.00     0.037 A 
BRANCH  56  70
ATOM     70  C   UNL A   1      41.437  24.686  27.888  1.00  0.00     0.057 A 
ATOM     71  C   UNL A   1      40.321  24.666  27.026  1.00  0.00     0.134 A 
ATOM     72  C   UNL A   1      41.822  23.409  28.338  1.00  0.00     0.134 A 
ATOM     73  F   UNL A   1      39.853  25.784  26.458  1.00  0.00    -0.206 F 
ATOM     74  C   UNL A   1      39.628  23.487  26.686  1.00  0.00     0.040 A 
ATOM     75  C   UNL A   1      41.145  22.221  28.002  1.00  0.00     0.040 A 
ATOM     76  F   UNL A   1      42.924  23.241  29.077  1.00  0.00    -0.206 F 
ATOM     77  C   UNL A   1      40.038  22.257  27.174  1.00  0.00     0.006 A 
ENDBRANCH  56  70
BRANCH  57  78
ATOM     78  C   UNL A   1      46.363  34.357  27.939  1.00  0.00     0.057 A 
ATOM     79  C   UNL A   1      47.225  34.438  29.105  1.00  0.00     0.134 A 
ATOM     80  C   UNL A   1      46.433  35.487  27.103  1.00  0.00     0.134 A 
ATOM     81  F   UNL A   1      47.255  33.411  29.975  1.00  0.00    -0.206 F 
ATOM     82  C   UNL A   1      48.312  35.339  29.192  1.00  0.00     0.040 A 
ATOM     83  C   UNL A   1      47.493  36.427  27.229  1.00  0.00     0.040 A 
ATOM     84  F   UNL A   1      45.727  35.512  25.964  1.00  0.00    -0.206 F 
ATOM     85  C   UNL A   1      48.477  36.309  28.217  1.00  0.00     0.006 A 
ENDBRANCH  57  78
BRANCH  69  86
ATOM     86  C   UNL A   1      48.041  26.888  27.586  1.00  0.00     0.057 A 
ATOM     87  C   UNL A   1      48.467  26.578  28.891  1.00  0.00     0.134 A 
ATOM     88  C   UNL A   1      48.660  26.104  26.588  1.00  0.00     0.134 A 
ATOM     89  F   UNL A   1      47.793  26.982  29.976  1.00  0.00    -0.206 F 
ATOM     90  C   UNL A   1      49.579  25.772  29.160  1.00  0.00     0.040 A 
ATOM     91  C   UNL A   1      49.696  25.200  26.856  1.00  0.00     0.040 A 
ATOM     92  F   UNL A   1      48.282  26.154  25.303  1.00  0.00    -0.206 F 
ATOM     93  C   UNL A   1      50.208  25.084  28.138  1.00  0.00     0.006 A 
ENDBRANCH  69  86
ENDBRANCH  43  44
ENDBRANCH  36  38
ENDBRANCH  35  36
ENDBRANCH  34  35
ENDBRANCH  33  34
ENDBRANCH  32  33
ENDBRANCH  31  32
ENDBRANCH   1  31
TORSDOF 23
ENDMDL
