MODEL 1
REMARK VINA RESULT:     -11.1      0.000      0.000
REMARK SMILES C/C(=N\NC(N)=S)c1nnn(-c2ccc(C(=O)OCCOCCOCCOC(=O)c3ccc(-c4c5nc(c(-c6c(F)cccc6F)c6ccc([nH]6)c(-c6c(F)cccc6F)c6nc(c(-c7c(F)cccc7F)c7ccc4[nH]7)C=C6)C=C5)cc3)cc2)c1C
REMARK SMILES IDX 21 1 20 2 19 3 18 4 16 5 17 6 15 7 12 8 13 9 85 10 14 11
REMARK SMILES IDX 84 12 11 13 8 14 9 15 86 16 10 17 87 18 2 19 1 20 3 21 4 22
REMARK SMILES IDX 5 24 7 25 6 26 22 29 23 30 24 31 25 32 26 33 27 34 28 35
REMARK SMILES IDX 29 36 30 37 31 38 83 39 32 40 82 41 33 42 34 43 35 44 76 45
REMARK SMILES IDX 36 46 81 47 75 48 77 49 37 50 80 51 74 52 73 53 38 55 64 56
REMARK SMILES IDX 47 57 63 58 48 59 51 60 62 61 78 62 49 63 50 64 61 66 79 67
REMARK SMILES IDX 52 68 39 69 40 70 45 71 41 72 42 73 44 74 46 75 43 76 65 77
REMARK SMILES IDX 66 78 71 79 67 80 68 81 70 82 72 83 69 84 53 85 54 86 59 87
REMARK SMILES IDX 55 88 56 89 58 90 60 91 57 92
REMARK H PARENT 4 23 6 27 6 28 77 54 51 65
REMARK Flexibility Score: inf
ROOT
ATOM      1  O   UNL A   1      39.437  21.791  26.891  1.00  0.00    -0.376 OA
ENDROOT
BRANCH   1   2
ATOM      2  C   UNL A   1      38.669  22.125  25.746  1.00  0.00     0.202 C 
BRANCH   2   3
ATOM      3  C   UNL A   1      37.487  21.323  25.169  1.00  0.00     0.261 C 
BRANCH   3   4
ATOM      4  O   UNL A   1      36.207  21.508  25.766  1.00  0.00    -0.460 OA
BRANCH   4   5
ATOM      5  C   UNL A   1      35.146  21.124  25.021  1.00  0.00     0.338 C 
ATOM      6  O   UNL A   1      34.732  19.985  24.861  1.00  0.00    -0.246 OA
BRANCH   5   7
ATOM      7  C   UNL A   1      34.429  22.322  24.534  1.00  0.00     0.060 A 
ATOM      8  C   UNL A   1      33.070  24.639  23.884  1.00  0.00     0.067 A 
ATOM      9  C   UNL A   1      34.434  24.723  24.178  1.00  0.00     0.029 A 
ATOM     10  C   UNL A   1      32.424  23.401  23.765  1.00  0.00     0.029 A 
ATOM     11  C   UNL A   1      35.106  23.554  24.533  1.00  0.00     0.018 A 
ATOM     12  C   UNL A   1      33.108  22.236  24.085  1.00  0.00     0.018 A 
BRANCH   8  13
ATOM     13  N   UNL A   1      32.276  25.793  24.017  1.00  0.00    -0.217 N 
ATOM     14  C   UNL A   1      30.923  27.436  23.571  1.00  0.00     0.132 A 
ATOM     15  N   UNL A   1      30.935  27.227  24.927  1.00  0.00    -0.128 NA
ATOM     16  C   UNL A   1      31.731  26.500  22.959  1.00  0.00     0.071 A 
ATOM     17  N   UNL A   1      31.691  26.162  25.176  1.00  0.00    -0.061 NA
ATOM     18  C   UNL A   1      31.899  26.137  21.530  1.00  0.00     0.069 C 
BRANCH  14  19
ATOM     19  C   UNL A   1      30.022  28.365  22.917  1.00  0.00     0.087 C 
ATOM     20  C   UNL A   1      28.552  28.043  23.000  1.00  0.00     0.071 C 
ATOM     21  N   UNL A   1      30.588  29.379  22.332  1.00  0.00    -0.176 NA
BRANCH  21  22
ATOM     22  N   UNL A   1      29.844  30.331  21.699  1.00  0.00    -0.254 N 
ATOM     23  H   UNL A   1      29.764  30.245  20.723  1.00  0.00     0.193 HD
BRANCH  22  24
ATOM     24  C   UNL A   1      29.189  31.403  22.274  1.00  0.00     0.184 C 
ATOM     25  S   UNL A   1      28.115  32.476  21.593  1.00  0.00    -0.040 S 
BRANCH  24  26
ATOM     26  N   UNL A   1      29.502  31.550  23.597  1.00  0.00    -0.375 N 
ATOM     27  H   UNL A   1      30.244  31.033  23.987  1.00  0.00     0.159 HD
ATOM     28  H   UNL A   1      28.986  32.172  24.160  1.00  0.00     0.159 HD
ENDBRANCH  24  26
ENDBRANCH  22  24
ENDBRANCH  21  22
ENDBRANCH  14  19
ENDBRANCH   8  13
ENDBRANCH   5   7
ENDBRANCH   4   5
ENDBRANCH   3   4
ENDBRANCH   2   3
ENDBRANCH   1   2
BRANCH   1  29
ATOM     29  C   UNL A   1      40.589  20.990  26.796  1.00  0.00     0.188 C 
BRANCH  29  30
ATOM     30  C   UNL A   1      40.453  19.612  26.117  1.00  0.00     0.188 C 
BRANCH  30  31
ATOM     31  O   UNL A   1      41.581  18.803  25.847  1.00  0.00    -0.376 OA
BRANCH  31  32
ATOM     32  C   UNL A   1      42.914  19.257  26.005  1.00  0.00     0.202 C 
BRANCH  32  33
ATOM     33  C   UNL A   1      44.150  18.541  25.470  1.00  0.00     0.261 C 
BRANCH  33  34
ATOM     34  O   UNL A   1      45.202  19.364  25.019  1.00  0.00    -0.460 OA
BRANCH  34  35
ATOM     35  C   UNL A   1      44.860  20.114  23.952  1.00  0.00     0.338 C 
ATOM     36  O   UNL A   1      44.491  19.726  22.856  1.00  0.00    -0.246 OA
BRANCH  35  37
ATOM     37  C   UNL A   1      45.122  21.515  24.264  1.00  0.00     0.060 A 
ATOM     38  C   UNL A   1      46.049  21.763  25.276  1.00  0.00     0.016 A 
ATOM     39  C   UNL A   1      44.207  22.480  23.820  1.00  0.00     0.016 A 
ATOM     40  C   UNL A   1      45.903  22.916  26.008  1.00  0.00     0.010 A 
ATOM     41  C   UNL A   1      44.046  23.616  24.568  1.00  0.00     0.010 A 
ATOM     42  C   UNL A   1      44.839  23.771  25.702  1.00  0.00    -0.014 A 
BRANCH  42  43
ATOM     43  C   UNL A   1      44.637  24.917  26.558  1.00  0.00     0.031 A 
ATOM     44  C   UNL A   1      45.756  25.876  26.473  1.00  0.00     0.074 A 
ATOM     45  C   UNL A   1      43.506  25.100  27.263  1.00  0.00     0.049 A 
ATOM     46  N   UNL A   1      46.606  26.171  27.395  1.00  0.00    -0.248 NA
ATOM     47  C   UNL A   1      46.081  26.429  25.148  1.00  0.00     0.031 C 
ATOM     48  C   UNL A   1      42.255  24.343  27.174  1.00  0.00     0.029 A 
ATOM     49  N   UNL A   1      43.202  26.087  28.146  1.00  0.00    -0.354 N 
ATOM     50  C   UNL A   1      47.439  27.128  26.829  1.00  0.00     0.074 A 
ATOM     51  C   UNL A   1      47.212  27.084  25.410  1.00  0.00     0.031 C 
ATOM     52  C   UNL A   1      41.271  25.042  27.786  1.00  0.00     0.029 A 
ATOM     53  C   UNL A   1      41.845  26.226  28.404  1.00  0.00     0.049 A 
ATOM     54  H   UNL A   1      43.886  26.656  28.567  1.00  0.00     0.167 HD
ATOM     55  C   UNL A   1      48.009  28.086  27.607  1.00  0.00     0.037 A 
ATOM     56  C   UNL A   1      41.251  27.289  29.006  1.00  0.00     0.037 A 
ATOM     57  C   UNL A   1      48.044  27.675  28.990  1.00  0.00     0.049 A 
ATOM     58  C   UNL A   1      42.310  28.057  29.709  1.00  0.00     0.074 A 
ATOM     59  C   UNL A   1      48.567  26.589  29.665  1.00  0.00     0.029 A 
ATOM     60  N   UNL A   1      47.141  28.252  29.850  1.00  0.00    -0.354 N 
ATOM     61  N   UNL A   1      42.921  27.646  30.783  1.00  0.00    -0.248 NA
ATOM     62  C   UNL A   1      43.009  29.088  28.952  1.00  0.00     0.031 C 
ATOM     63  C   UNL A   1      47.621  26.296  30.690  1.00  0.00     0.029 A 
ATOM     64  C   UNL A   1      46.610  27.255  30.625  1.00  0.00     0.049 A 
ATOM     65  H   UNL A   1      46.918  29.208  29.900  1.00  0.00     0.167 HD
ATOM     66  C   UNL A   1      44.247  28.011  30.594  1.00  0.00     0.074 A 
ATOM     67  C   UNL A   1      44.223  28.976  29.497  1.00  0.00     0.031 C 
ATOM     68  C   UNL A   1      45.262  27.279  31.139  1.00  0.00     0.037 A 
BRANCH  55  69
ATOM     69  C   UNL A   1      48.110  29.532  27.184  1.00  0.00     0.057 A 
ATOM     70  C   UNL A   1      49.326  30.207  27.386  1.00  0.00     0.134 A 
ATOM     71  C   UNL A   1      47.009  30.366  26.890  1.00  0.00     0.134 A 
ATOM     72  F   UNL A   1      50.447  29.530  27.681  1.00  0.00    -0.206 F 
ATOM     73  C   UNL A   1      49.417  31.603  27.395  1.00  0.00     0.040 A 
ATOM     74  C   UNL A   1      47.101  31.757  26.841  1.00  0.00     0.040 A 
ATOM     75  F   UNL A   1      45.764  29.903  26.732  1.00  0.00    -0.206 F 
ATOM     76  C   UNL A   1      48.299  32.383  27.133  1.00  0.00     0.006 A 
ENDBRANCH  55  69
BRANCH  56  77
ATOM     77  C   UNL A   1      39.904  27.863  28.772  1.00  0.00     0.057 A 
ATOM     78  C   UNL A   1      38.947  27.896  29.798  1.00  0.00     0.134 A 
ATOM     79  C   UNL A   1      39.615  28.642  27.638  1.00  0.00     0.134 A 
ATOM     80  F   UNL A   1      39.147  27.218  30.938  1.00  0.00    -0.206 F 
ATOM     81  C   UNL A   1      37.789  28.681  29.716  1.00  0.00     0.040 A 
ATOM     82  C   UNL A   1      38.457  29.422  27.538  1.00  0.00     0.040 A 
ATOM     83  F   UNL A   1      40.486  28.748  26.626  1.00  0.00    -0.206 F 
ATOM     84  C   UNL A   1      37.547  29.457  28.587  1.00  0.00     0.006 A 
ENDBRANCH  56  77
BRANCH  68  85
ATOM     85  C   UNL A   1      44.916  26.262  32.190  1.00  0.00     0.057 A 
ATOM     86  C   UNL A   1      44.571  24.928  31.926  1.00  0.00     0.134 A 
ATOM     87  C   UNL A   1      45.069  26.622  33.534  1.00  0.00     0.134 A 
ATOM     88  F   UNL A   1      44.503  24.460  30.672  1.00  0.00    -0.206 F 
ATOM     89  C   UNL A   1      44.339  24.012  32.957  1.00  0.00     0.040 A 
ATOM     90  C   UNL A   1      44.879  25.707  34.571  1.00  0.00     0.040 A 
ATOM     91  F   UNL A   1      45.450  27.868  33.862  1.00  0.00    -0.206 F 
ATOM     92  C   UNL A   1      44.499  24.399  34.284  1.00  0.00     0.006 A 
ENDBRANCH  68  85
ENDBRANCH  42  43
ENDBRANCH  35  37
ENDBRANCH  34  35
ENDBRANCH  33  34
ENDBRANCH  32  33
ENDBRANCH  31  32
ENDBRANCH  30  31
ENDBRANCH  29  30
ENDBRANCH   1  29
TORSDOF 22
ENDMDL
MODEL 2
REMARK VINA RESULT:     -10.4      4.938      9.804
REMARK SMILES C/C(=N\NC(N)=S)c1nnn(-c2ccc(C(=O)OCCOCCOCCOC(=O)c3ccc(-c4c5nc(c(-c6c(F)cccc6F)c6ccc([nH]6)c(-c6c(F)cccc6F)c6nc(c(-c7c(F)cccc7F)c7ccc4[nH]7)C=C6)C=C5)cc3)cc2)c1C
REMARK SMILES IDX 21 1 20 2 19 3 18 4 16 5 17 6 15 7 12 8 13 9 85 10 14 11
REMARK SMILES IDX 84 12 11 13 8 14 9 15 86 16 10 17 87 18 2 19 1 20 3 21 4 22
REMARK SMILES IDX 5 24 7 25 6 26 22 29 23 30 24 31 25 32 26 33 27 34 28 35
REMARK SMILES IDX 29 36 30 37 31 38 83 39 32 40 82 41 33 42 34 43 35 44 76 45
REMARK SMILES IDX 36 46 81 47 75 48 77 49 37 50 80 51 74 52 73 53 38 55 64 56
REMARK SMILES IDX 47 57 63 58 48 59 51 60 62 61 78 62 49 63 50 64 61 66 79 67
REMARK SMILES IDX 52 68 39 69 40 70 45 71 41 72 42 73 44 74 46 75 43 76 65 77
REMARK SMILES IDX 66 78 71 79 67 80 68 81 70 82 72 83 69 84 53 85 54 86 59 87
REMARK SMILES IDX 55 88 56 89 58 90 60 91 57 92
REMARK H PARENT 4 23 6 27 6 28 77 54 51 65
REMARK Flexibility Score: inf
ROOT
ATOM      1  O   UNL A   1      32.392  26.525  24.329  1.00  0.00    -0.376 OA
ENDROOT
BRANCH   1   2
ATOM      2  C   UNL A   1      31.928  25.698  25.384  1.00  0.00     0.202 C 
BRANCH   2   3
ATOM      3  C   UNL A   1      31.227  24.333  25.240  1.00  0.00     0.261 C 
BRANCH   3   4
ATOM      4  O   UNL A   1      32.050  23.174  25.146  1.00  0.00    -0.460 OA
BRANCH   4   5
ATOM      5  C   UNL A   1      32.826  23.087  24.042  1.00  0.00     0.338 C 
ATOM      6  O   UNL A   1      32.510  23.373  22.897  1.00  0.00    -0.246 OA
BRANCH   5   7
ATOM      7  C   UNL A   1      34.207  22.741  24.438  1.00  0.00     0.060 A 
ATOM      8  C   UNL A   1      36.770  21.880  25.014  1.00  0.00     0.067 A 
ATOM      9  C   UNL A   1      36.546  22.560  23.813  1.00  0.00     0.029 A 
ATOM     10  C   UNL A   1      35.767  21.764  25.985  1.00  0.00     0.029 A 
ATOM     11  C   UNL A   1      35.246  22.966  23.518  1.00  0.00     0.018 A 
ATOM     12  C   UNL A   1      34.480  22.203  25.699  1.00  0.00     0.018 A 
BRANCH   8  13
ATOM     13  N   UNL A   1      37.896  21.043  25.118  1.00  0.00    -0.217 N 
ATOM     14  C   UNL A   1      39.814  20.223  25.733  1.00  0.00     0.132 A 
ATOM     15  N   UNL A   1      39.054  19.217  25.193  1.00  0.00    -0.128 NA
ATOM     16  C   UNL A   1      39.080  21.391  25.746  1.00  0.00     0.071 A 
ATOM     17  N   UNL A   1      37.852  19.711  24.909  1.00  0.00    -0.061 NA
ATOM     18  C   UNL A   1      39.330  22.696  26.407  1.00  0.00     0.069 C 
BRANCH  14  19
ATOM     19  C   UNL A   1      41.096  19.997  26.370  1.00  0.00     0.087 C 
ATOM     20  C   UNL A   1      41.149  20.200  27.863  1.00  0.00     0.071 C 
ATOM     21  N   UNL A   1      42.062  19.638  25.578  1.00  0.00    -0.176 NA
BRANCH  21  22
ATOM     22  N   UNL A   1      43.311  19.378  26.062  1.00  0.00    -0.254 N 
ATOM     23  H   UNL A   1      43.435  19.490  27.032  1.00  0.00     0.193 HD
BRANCH  22  24
ATOM     24  C   UNL A   1      44.421  18.973  25.346  1.00  0.00     0.184 C 
ATOM     25  S   UNL A   1      44.984  19.509  23.875  1.00  0.00    -0.040 S 
BRANCH  24  26
ATOM     26  N   UNL A   1      45.123  17.994  25.993  1.00  0.00    -0.375 N 
ATOM     27  H   UNL A   1      45.227  17.107  25.577  1.00  0.00     0.159 HD
ATOM     28  H   UNL A   1      45.525  18.174  26.873  1.00  0.00     0.159 HD
ENDBRANCH  24  26
ENDBRANCH  22  24
ENDBRANCH  21  22
ENDBRANCH  14  19
ENDBRANCH   8  13
ENDBRANCH   5   7
ENDBRANCH   4   5
ENDBRANCH   3   4
ENDBRANCH   2   3
ENDBRANCH   1   2
BRANCH   1  29
ATOM     29  C   UNL A   1      33.377  27.506  24.542  1.00  0.00     0.188 C 
BRANCH  29  30
ATOM     30  C   UNL A   1      32.950  28.985  24.453  1.00  0.00     0.188 C 
BRANCH  30  31
ATOM     31  O   UNL A   1      31.882  29.496  25.225  1.00  0.00    -0.376 OA
BRANCH  31  32
ATOM     32  C   UNL A   1      31.956  29.672  26.629  1.00  0.00     0.202 C 
BRANCH  32  33
ATOM     33  C   UNL A   1      32.808  30.723  27.335  1.00  0.00     0.261 C 
BRANCH  33  34
ATOM     34  O   UNL A   1      34.203  30.524  27.297  1.00  0.00    -0.460 OA
BRANCH  34  35
ATOM     35  C   UNL A   1      34.855  31.203  28.263  1.00  0.00     0.338 C 
ATOM     36  O   UNL A   1      34.372  31.912  29.130  1.00  0.00    -0.246 OA
BRANCH  35  37
ATOM     37  C   UNL A   1      36.290  31.067  28.041  1.00  0.00     0.060 A 
ATOM     38  C   UNL A   1      36.710  29.914  27.379  1.00  0.00     0.016 A 
ATOM     39  C   UNL A   1      37.159  31.870  28.793  1.00  0.00     0.016 A 
ATOM     40  C   UNL A   1      37.965  29.435  27.664  1.00  0.00     0.010 A 
ATOM     41  C   UNL A   1      38.401  31.376  29.096  1.00  0.00     0.010 A 
ATOM     42  C   UNL A   1      38.748  30.124  28.597  1.00  0.00    -0.014 A 
BRANCH  42  43
ATOM     43  C   UNL A   1      40.016  29.538  28.965  1.00  0.00     0.031 A 
ATOM     44  C   UNL A   1      40.225  29.543  30.426  1.00  0.00     0.074 A 
ATOM     45  C   UNL A   1      40.840  28.977  28.062  1.00  0.00     0.049 A 
ATOM     46  N   UNL A   1      41.099  30.219  31.090  1.00  0.00    -0.248 NA
ATOM     47  C   UNL A   1      39.221  28.863  31.261  1.00  0.00     0.031 C 
ATOM     48  C   UNL A   1      40.570  28.686  26.652  1.00  0.00     0.029 A 
ATOM     49  N   UNL A   1      42.077  28.446  28.250  1.00  0.00    -0.354 N 
ATOM     50  C   UNL A   1      40.900  29.865  32.418  1.00  0.00     0.074 A 
ATOM     51  C   UNL A   1      39.618  29.216  32.483  1.00  0.00     0.031 C 
ATOM     52  C   UNL A   1      41.509  27.827  26.190  1.00  0.00     0.029 A 
ATOM     53  C   UNL A   1      42.500  27.606  27.229  1.00  0.00     0.049 A 
ATOM     54  H   UNL A   1      42.626  28.641  29.044  1.00  0.00     0.167 HD
ATOM     55  C   UNL A   1      41.943  29.857  33.289  1.00  0.00     0.037 A 
ATOM     56  C   UNL A   1      43.542  26.736  27.291  1.00  0.00     0.037 A 
ATOM     57  C   UNL A   1      43.023  30.685  32.808  1.00  0.00     0.049 A 
ATOM     58  C   UNL A   1      44.393  27.134  28.443  1.00  0.00     0.074 A 
ATOM     59  C   UNL A   1      43.136  32.011  32.436  1.00  0.00     0.029 A 
ATOM     60  N   UNL A   1      44.128  30.055  32.289  1.00  0.00    -0.354 N 
ATOM     61  N   UNL A   1      45.136  28.203  28.468  1.00  0.00    -0.248 NA
ATOM     62  C   UNL A   1      44.063  26.574  29.748  1.00  0.00     0.031 C 
ATOM     63  C   UNL A   1      44.035  32.012  31.330  1.00  0.00     0.029 A 
ATOM     64  C   UNL A   1      44.471  30.702  31.132  1.00  0.00     0.049 A 
ATOM     65  H   UNL A   1      44.590  29.279  32.679  1.00  0.00     0.167 HD
ATOM     66  C   UNL A   1      44.985  28.704  29.754  1.00  0.00     0.074 A 
ATOM     67  C   UNL A   1      44.392  27.612  30.522  1.00  0.00     0.031 C 
ATOM     68  C   UNL A   1      45.078  30.043  30.000  1.00  0.00     0.037 A 
BRANCH  55  69
ATOM     69  C   UNL A   1      42.147  28.768  34.315  1.00  0.00     0.057 A 
ATOM     70  C   UNL A   1      42.304  29.135  35.662  1.00  0.00     0.134 A 
ATOM     71  C   UNL A   1      42.505  27.435  34.016  1.00  0.00     0.134 A 
ATOM     72  F   UNL A   1      42.006  30.378  36.074  1.00  0.00    -0.206 F 
ATOM     73  C   UNL A   1      42.867  28.278  36.613  1.00  0.00     0.040 A 
ATOM     74  C   UNL A   1      43.016  26.553  34.970  1.00  0.00     0.040 A 
ATOM     75  F   UNL A   1      42.482  26.932  32.777  1.00  0.00    -0.206 F 
ATOM     76  C   UNL A   1      43.236  26.985  36.265  1.00  0.00     0.006 A 
ENDBRANCH  55  69
BRANCH  56  77
ATOM     77  C   UNL A   1      43.698  25.417  26.633  1.00  0.00     0.057 A 
ATOM     78  C   UNL A   1      42.848  24.347  26.956  1.00  0.00     0.134 A 
ATOM     79  C   UNL A   1      44.487  25.249  25.482  1.00  0.00     0.134 A 
ATOM     80  F   UNL A   1      42.026  24.423  28.012  1.00  0.00    -0.206 F 
ATOM     81  C   UNL A   1      42.765  23.194  26.162  1.00  0.00     0.040 A 
ATOM     82  C   UNL A   1      44.422  24.098  24.688  1.00  0.00     0.040 A 
ATOM     83  F   UNL A   1      45.281  26.230  25.033  1.00  0.00    -0.206 F 
ATOM     84  C   UNL A   1      43.545  23.072  25.017  1.00  0.00     0.006 A 
ENDBRANCH  56  77
BRANCH  68  85
ATOM     85  C   UNL A   1      45.645  30.925  28.923  1.00  0.00     0.057 A 
ATOM     86  C   UNL A   1      44.901  31.469  27.865  1.00  0.00     0.134 A 
ATOM     87  C   UNL A   1      46.975  31.343  29.043  1.00  0.00     0.134 A 
ATOM     88  F   UNL A   1      43.593  31.212  27.727  1.00  0.00    -0.206 F 
ATOM     89  C   UNL A   1      45.475  32.348  26.940  1.00  0.00     0.040 A 
ATOM     90  C   UNL A   1      47.548  32.250  28.149  1.00  0.00     0.040 A 
ATOM     91  F   UNL A   1      47.733  30.906  30.062  1.00  0.00    -0.206 F 
ATOM     92  C   UNL A   1      46.800  32.746  27.086  1.00  0.00     0.006 A 
ENDBRANCH  68  85
ENDBRANCH  42  43
ENDBRANCH  35  37
ENDBRANCH  34  35
ENDBRANCH  33  34
ENDBRANCH  32  33
ENDBRANCH  31  32
ENDBRANCH  30  31
ENDBRANCH  29  30
ENDBRANCH   1  29
TORSDOF 22
ENDMDL
MODEL 3
REMARK VINA RESULT:     -10.0      5.574     10.257
REMARK SMILES C/C(=N\NC(N)=S)c1nnn(-c2ccc(C(=O)OCCOCCOCCOC(=O)c3ccc(-c4c5nc(c(-c6c(F)cccc6F)c6ccc([nH]6)c(-c6c(F)cccc6F)c6nc(c(-c7c(F)cccc7F)c7ccc4[nH]7)C=C6)C=C5)cc3)cc2)c1C
REMARK SMILES IDX 21 1 20 2 19 3 18 4 16 5 17 6 15 7 12 8 13 9 85 10 14 11
REMARK SMILES IDX 84 12 11 13 8 14 9 15 86 16 10 17 87 18 2 19 1 20 3 21 4 22
REMARK SMILES IDX 5 24 7 25 6 26 22 29 23 30 24 31 25 32 26 33 27 34 28 35
REMARK SMILES IDX 29 36 30 37 31 38 83 39 32 40 82 41 33 42 34 43 35 44 76 45
REMARK SMILES IDX 36 46 81 47 75 48 77 49 37 50 80 51 74 52 73 53 38 55 64 56
REMARK SMILES IDX 47 57 63 58 48 59 51 60 62 61 78 62 49 63 50 64 61 66 79 67
REMARK SMILES IDX 52 68 39 69 40 70 45 71 41 72 42 73 44 74 46 75 43 76 65 77
REMARK SMILES IDX 66 78 71 79 67 80 68 81 70 82 72 83 69 84 53 85 54 86 59 87
REMARK SMILES IDX 55 88 56 89 58 90 60 91 57 92
REMARK H PARENT 4 23 6 27 6 28 77 54 51 65
REMARK Flexibility Score: inf
ROOT
ATOM      1  O   UNL A   1      32.095  31.044  26.508  1.00  0.00    -0.376 OA
ENDROOT
BRANCH   1   2
ATOM      2  C   UNL A   1      31.810  30.027  25.562  1.00  0.00     0.202 C 
BRANCH   2   3
ATOM      3  C   UNL A   1      30.685  30.043  24.509  1.00  0.00     0.261 C 
BRANCH   3   4
ATOM      4  O   UNL A   1      30.868  29.261  23.333  1.00  0.00    -0.460 OA
BRANCH   4   5
ATOM      5  C   UNL A   1      29.986  28.250  23.153  1.00  0.00     0.338 C 
ATOM      6  O   UNL A   1      28.828  28.343  22.775  1.00  0.00    -0.246 OA
BRANCH   5   7
ATOM      7  C   UNL A   1      30.681  26.957  23.325  1.00  0.00     0.060 A 
ATOM      8  C   UNL A   1      32.006  24.603  23.908  1.00  0.00     0.067 A 
ATOM      9  C   UNL A   1      30.652  24.709  24.241  1.00  0.00     0.029 A 
ATOM     10  C   UNL A   1      32.653  25.593  23.158  1.00  0.00     0.029 A 
ATOM     11  C   UNL A   1      29.999  25.910  23.969  1.00  0.00     0.018 A 
ATOM     12  C   UNL A   1      31.985  26.774  22.858  1.00  0.00     0.018 A 
BRANCH   8  13
ATOM     13  N   UNL A   1      32.798  23.660  24.589  1.00  0.00    -0.217 N 
ATOM     14  C   UNL A   1      34.011  21.910  25.029  1.00  0.00     0.132 A 
ATOM     15  N   UNL A   1      34.287  22.884  25.954  1.00  0.00    -0.128 NA
ATOM     16  C   UNL A   1      33.102  22.396  24.113  1.00  0.00     0.071 A 
ATOM     17  N   UNL A   1      33.611  23.978  25.618  1.00  0.00    -0.061 NA
ATOM     18  C   UNL A   1      32.641  21.855  22.810  1.00  0.00     0.069 C 
BRANCH  14  19
ATOM     19  C   UNL A   1      34.745  20.662  24.944  1.00  0.00     0.087 C 
ATOM     20  C   UNL A   1      36.249  20.767  24.959  1.00  0.00     0.071 C 
ATOM     21  N   UNL A   1      34.019  19.586  24.868  1.00  0.00    -0.176 NA
BRANCH  21  22
ATOM     22  N   UNL A   1      34.595  18.351  24.803  1.00  0.00    -0.254 N 
ATOM     23  H   UNL A   1      35.536  18.293  25.086  1.00  0.00     0.193 HD
BRANCH  22  24
ATOM     24  C   UNL A   1      34.007  17.172  24.387  1.00  0.00     0.184 C 
ATOM     25  S   UNL A   1      33.212  16.015  25.279  1.00  0.00    -0.040 S 
BRANCH  24  26
ATOM     26  N   UNL A   1      34.121  16.987  23.037  1.00  0.00    -0.375 N 
ATOM     27  H   UNL A   1      33.944  17.735  22.421  1.00  0.00     0.159 HD
ATOM     28  H   UNL A   1      34.380  16.107  22.680  1.00  0.00     0.159 HD
ENDBRANCH  24  26
ENDBRANCH  22  24
ENDBRANCH  21  22
ENDBRANCH  14  19
ENDBRANCH   8  13
ENDBRANCH   5   7
ENDBRANCH   4   5
ENDBRANCH   3   4
ENDBRANCH   2   3
ENDBRANCH   1   2
BRANCH   1  29
ATOM     29  C   UNL A   1      33.269  31.020  27.284  1.00  0.00     0.188 C 
BRANCH  29  30
ATOM     30  C   UNL A   1      33.695  32.326  27.985  1.00  0.00     0.188 C 
BRANCH  30  31
ATOM     31  O   UNL A   1      34.926  32.431  28.673  1.00  0.00    -0.376 OA
BRANCH  31  32
ATOM     32  C   UNL A   1      35.244  33.514  29.528  1.00  0.00     0.202 C 
BRANCH  32  33
ATOM     33  C   UNL A   1      34.222  34.393  30.243  1.00  0.00     0.261 C 
BRANCH  33  34
ATOM     34  O   UNL A   1      33.900  34.027  31.566  1.00  0.00    -0.460 OA
BRANCH  34  35
ATOM     35  C   UNL A   1      34.582  34.737  32.487  1.00  0.00     0.338 C 
ATOM     36  O   UNL A   1      34.371  35.882  32.850  1.00  0.00    -0.246 OA
BRANCH  35  37
ATOM     37  C   UNL A   1      35.736  33.956  32.918  1.00  0.00     0.060 A 
ATOM     38  C   UNL A   1      36.983  34.564  32.783  1.00  0.00     0.016 A 
ATOM     39  C   UNL A   1      35.580  32.572  33.083  1.00  0.00     0.016 A 
ATOM     40  C   UNL A   1      38.072  33.753  32.581  1.00  0.00     0.010 A 
ATOM     41  C   UNL A   1      36.664  31.765  32.855  1.00  0.00     0.010 A 
ATOM     42  C   UNL A   1      37.872  32.369  32.520  1.00  0.00    -0.014 A 
BRANCH  42  43
ATOM     43  C   UNL A   1      39.012  31.545  32.193  1.00  0.00     0.031 A 
ATOM     44  C   UNL A   1      39.815  31.210  33.385  1.00  0.00     0.074 A 
ATOM     45  C   UNL A   1      39.229  31.076  30.951  1.00  0.00     0.049 A 
ATOM     46  N   UNL A   1      41.013  31.599  33.656  1.00  0.00    -0.248 NA
ATOM     47  C   UNL A   1      39.136  30.519  34.493  1.00  0.00     0.031 C 
ATOM     48  C   UNL A   1      38.330  31.131  29.795  1.00  0.00     0.029 A 
ATOM     49  N   UNL A   1      40.278  30.347  30.485  1.00  0.00    -0.354 N 
ATOM     50  C   UNL A   1      41.323  31.005  34.872  1.00  0.00     0.074 A 
ATOM     51  C   UNL A   1      40.081  30.546  35.433  1.00  0.00     0.031 C 
ATOM     52  C   UNL A   1      38.769  30.265  28.852  1.00  0.00     0.029 A 
ATOM     53  C   UNL A   1      40.031  29.691  29.287  1.00  0.00     0.049 A 
ATOM     54  H   UNL A   1      41.139  30.290  30.958  1.00  0.00     0.167 HD
ATOM     55  C   UNL A   1      42.606  30.665  35.162  1.00  0.00     0.037 A 
ATOM     56  C   UNL A   1      40.779  28.688  28.757  1.00  0.00     0.037 A 
ATOM     57  C   UNL A   1      43.535  31.414  34.350  1.00  0.00     0.049 A 
ATOM     58  C   UNL A   1      42.103  28.709  29.433  1.00  0.00     0.074 A 
ATOM     59  C   UNL A   1      43.770  32.759  34.137  1.00  0.00     0.029 A 
ATOM     60  N   UNL A   1      44.146  30.758  33.309  1.00  0.00    -0.354 N 
ATOM     61  N   UNL A   1      43.003  29.632  29.251  1.00  0.00    -0.248 NA
ATOM     62  C   UNL A   1      42.242  27.938  30.663  1.00  0.00     0.031 C 
ATOM     63  C   UNL A   1      44.092  32.866  32.753  1.00  0.00     0.029 A 
ATOM     64  C   UNL A   1      44.101  31.580  32.214  1.00  0.00     0.049 A 
ATOM     65  H   UNL A   1      44.545  29.859  33.344  1.00  0.00     0.167 HD
ATOM     66  C   UNL A   1      43.526  29.865  30.515  1.00  0.00     0.074 A 
ATOM     67  C   UNL A   1      43.089  28.731  31.325  1.00  0.00     0.031 C 
ATOM     68  C   UNL A   1      44.009  31.095  30.858  1.00  0.00     0.037 A 
BRANCH  55  69
ATOM     69  C   UNL A   1      42.979  29.366  35.836  1.00  0.00     0.057 A 
ATOM     70  C   UNL A   1      43.940  29.392  36.860  1.00  0.00     0.134 A 
ATOM     71  C   UNL A   1      42.685  28.081  35.329  1.00  0.00     0.134 A 
ATOM     72  F   UNL A   1      44.314  30.553  37.422  1.00  0.00    -0.206 F 
ATOM     73  C   UNL A   1      44.626  28.246  37.277  1.00  0.00     0.040 A 
ATOM     74  C   UNL A   1      43.324  26.923  35.776  1.00  0.00     0.040 A 
ATOM     75  F   UNL A   1      41.845  27.872  34.310  1.00  0.00    -0.206 F 
ATOM     76  C   UNL A   1      44.326  27.008  36.725  1.00  0.00     0.006 A 
ENDBRANCH  55  69
BRANCH  56  77
ATOM     77  C   UNL A   1      40.346  27.529  27.940  1.00  0.00     0.057 A 
ATOM     78  C   UNL A   1      40.934  27.268  26.693  1.00  0.00     0.134 A 
ATOM     79  C   UNL A   1      39.555  26.497  28.474  1.00  0.00     0.134 A 
ATOM     80  F   UNL A   1      41.738  28.172  26.115  1.00  0.00    -0.206 F 
ATOM     81  C   UNL A   1      40.772  26.042  26.033  1.00  0.00     0.040 A 
ATOM     82  C   UNL A   1      39.376  25.273  27.820  1.00  0.00     0.040 A 
ATOM     83  F   UNL A   1      39.002  26.602  29.691  1.00  0.00    -0.206 F 
ATOM     84  C   UNL A   1      40.001  25.035  26.602  1.00  0.00     0.006 A 
ENDBRANCH  56  77
BRANCH  68  85
ATOM     85  C   UNL A   1      44.245  32.095  29.761  1.00  0.00     0.057 A 
ATOM     86  C   UNL A   1      45.405  32.157  28.974  1.00  0.00     0.134 A 
ATOM     87  C   UNL A   1      43.192  32.945  29.404  1.00  0.00     0.134 A 
ATOM     88  F   UNL A   1      46.427  31.312  29.171  1.00  0.00    -0.206 F 
ATOM     89  C   UNL A   1      45.527  33.062  27.915  1.00  0.00     0.040 A 
ATOM     90  C   UNL A   1      43.286  33.826  28.324  1.00  0.00     0.040 A 
ATOM     91  F   UNL A   1      42.030  32.904  30.077  1.00  0.00    -0.206 F 
ATOM     92  C   UNL A   1      44.462  33.895  27.584  1.00  0.00     0.006 A 
ENDBRANCH  68  85
ENDBRANCH  42  43
ENDBRANCH  35  37
ENDBRANCH  34  35
ENDBRANCH  33  34
ENDBRANCH  32  33
ENDBRANCH  31  32
ENDBRANCH  30  31
ENDBRANCH  29  30
ENDBRANCH   1  29
TORSDOF 22
ENDMDL
