MODEL 1
REMARK VINA RESULT:      -9.9      0.000      0.000
REMARK SMILES C#CC[N@@H+](CC(=O)Nc1c(Cl)cccc1Cl)CC(=O)OCCOCCOCCOC(=O)c1ccc(-c2c3nc(c(-c4c(F)cccc4F)c4ccc([nH]4)c(-c4c(F)cccc4F)c4nc(c(-c5c(F)cccc5F)c5ccc2[nH]5)C=C4)C=C3)cc1
REMARK SMILES IDX 24 1 23 2 22 3 21 4 20 5 18 6 19 7 17 8 4 9 3 11 2 12 1 13
REMARK SMILES IDX 5 14 6 15 7 16 8 17 9 19 10 20 15 21 11 22 12 23 14 24 16 25
REMARK SMILES IDX 13 26 25 27 26 28 27 29 28 30 29 31 30 32 31 33 32 34 33 35
REMARK SMILES IDX 85 36 34 37 84 38 35 39 36 40 37 41 78 42 38 43 83 44 77 45
REMARK SMILES IDX 79 46 39 47 82 48 76 49 75 50 40 52 66 53 49 54 65 55 50 56
REMARK SMILES IDX 53 57 64 58 80 59 51 60 52 61 63 63 81 64 54 65 41 66 42 67
REMARK SMILES IDX 47 68 43 69 44 70 46 71 48 72 45 73 67 74 68 75 73 76 69 77
REMARK SMILES IDX 70 78 72 79 74 80 71 81 55 82 56 83 61 84 57 85 58 86 60 87
REMARK SMILES IDX 62 88 59 89
REMARK H PARENT 4 10 8 18 79 51 53 62
REMARK Flexibility Score: inf
ROOT
ATOM      1  C   UNL A   1      39.372  21.069  26.028  1.00  0.00     0.188 C 
ENDROOT
BRANCH   1   2
ATOM      2  O   UNL A   1      38.267  21.606  25.300  1.00  0.00    -0.376 OA
BRANCH   2   3
ATOM      3  C   UNL A   1      37.341  20.622  24.836  1.00  0.00     0.202 C 
BRANCH   3   4
ATOM      4  C   UNL A   1      35.913  21.171  24.833  1.00  0.00     0.261 C 
BRANCH   4   5
ATOM      5  O   UNL A   1      35.384  21.395  26.156  1.00  0.00    -0.459 OA
BRANCH   5   6
ATOM      6  C   UNL A   1      34.133  21.899  26.272  1.00  0.00     0.361 C 
ATOM      7  O   UNL A   1      33.103  21.285  26.022  1.00  0.00    -0.245 OA
BRANCH   6   8
ATOM      8  C   UNL A   1      34.172  23.388  26.616  1.00  0.00     0.387 C 
BRANCH   8   9
ATOM      9  N   UNL A   1      33.540  24.352  25.696  1.00  0.00    -0.308 N 
ATOM     10  H   UNL A   1      33.584  25.189  26.277  1.00  0.00     0.349 HD
BRANCH   9  11
ATOM     11  C   UNL A   1      34.270  24.579  24.481  1.00  0.00     0.354 C 
BRANCH  11  12
ATOM     12  C   UNL A   1      33.821  25.521  23.375  1.00  0.00    -0.047 C 
ATOM     13  C   UNL A   1      33.435  26.329  22.427  1.00  0.00     0.010 C 
ENDBRANCH  11  12
ENDBRANCH   9  11
BRANCH   9  14
ATOM     14  C   UNL A   1      32.088  24.157  25.382  1.00  0.00     0.365 C 
BRANCH  14  15
ATOM     15  C   UNL A   1      31.014  24.705  26.364  1.00  0.00     0.279 C 
ATOM     16  O   UNL A   1      30.619  24.001  27.303  1.00  0.00    -0.268 OA
ATOM     17  N   UNL A   1      30.497  25.979  26.324  1.00  0.00    -0.319 N 
ATOM     18  H   UNL A   1      29.810  26.150  27.008  1.00  0.00     0.170 HD
BRANCH  17  19
ATOM     19  C   UNL A   1      30.762  27.093  25.491  1.00  0.00     0.079 A 
ATOM     20  C   UNL A   1      31.885  27.905  25.721  1.00  0.00     0.066 A 
ATOM     21  C   UNL A   1      30.092  27.285  24.279  1.00  0.00     0.066 A 
ATOM     22  Cl  UNL A   1      32.973  27.574  26.991  1.00  0.00    -0.082 Cl
ATOM     23  C   UNL A   1      32.193  29.008  24.924  1.00  0.00     0.023 A 
ATOM     24  C   UNL A   1      30.441  28.350  23.428  1.00  0.00     0.023 A 
ATOM     25  Cl  UNL A   1      28.891  26.174  23.730  1.00  0.00    -0.082 Cl
ATOM     26  C   UNL A   1      31.459  29.239  23.775  1.00  0.00     0.003 A 
ENDBRANCH  17  19
ENDBRANCH  14  15
ENDBRANCH   9  14
ENDBRANCH   8   9
ENDBRANCH   6   8
ENDBRANCH   5   6
ENDBRANCH   4   5
ENDBRANCH   3   4
ENDBRANCH   2   3
ENDBRANCH   1   2
BRANCH   1  27
ATOM     27  C   UNL A   1      39.536  19.572  25.754  1.00  0.00     0.188 C 
BRANCH  27  28
ATOM     28  O   UNL A   1      40.922  19.197  25.752  1.00  0.00    -0.376 OA
BRANCH  28  29
ATOM     29  C   UNL A   1      41.686  19.945  26.706  1.00  0.00     0.202 C 
BRANCH  29  30
ATOM     30  C   UNL A   1      42.963  20.580  26.132  1.00  0.00     0.261 C 
BRANCH  30  31
ATOM     31  O   UNL A   1      43.180  21.904  26.656  1.00  0.00    -0.460 OA
BRANCH  31  32
ATOM     32  C   UNL A   1      42.920  22.902  25.774  1.00  0.00     0.338 C 
ATOM     33  O   UNL A   1      42.994  22.819  24.561  1.00  0.00    -0.246 OA
BRANCH  32  34
ATOM     34  C   UNL A   1      42.419  24.123  26.467  1.00  0.00     0.060 A 
ATOM     35  C   UNL A   1      42.440  25.380  25.858  1.00  0.00     0.016 A 
ATOM     36  C   UNL A   1      42.084  24.039  27.818  1.00  0.00     0.016 A 
ATOM     37  C   UNL A   1      42.265  26.545  26.616  1.00  0.00     0.010 A 
ATOM     38  C   UNL A   1      41.777  25.201  28.539  1.00  0.00     0.010 A 
ATOM     39  C   UNL A   1      41.903  26.485  27.966  1.00  0.00    -0.014 A 
BRANCH  39  40
ATOM     40  C   UNL A   1      41.684  27.696  28.824  1.00  0.00     0.031 A 
ATOM     41  C   UNL A   1      42.623  27.954  29.977  1.00  0.00     0.074 A 
ATOM     42  C   UNL A   1      40.660  28.561  28.664  1.00  0.00     0.049 A 
ATOM     43  N   UNL A   1      42.391  28.520  31.134  1.00  0.00    -0.248 NA
ATOM     44  C   UNL A   1      44.004  27.477  29.805  1.00  0.00     0.031 C 
ATOM     45  C   UNL A   1      39.720  28.609  27.546  1.00  0.00     0.029 A 
ATOM     46  N   UNL A   1      40.225  29.573  29.497  1.00  0.00    -0.354 N 
ATOM     47  C   UNL A   1      43.557  28.355  31.873  1.00  0.00     0.074 A 
ATOM     48  C   UNL A   1      44.512  27.687  31.013  1.00  0.00     0.031 C 
ATOM     49  C   UNL A   1      38.836  29.597  27.750  1.00  0.00     0.029 A 
ATOM     50  C   UNL A   1      39.051  30.155  29.079  1.00  0.00     0.049 A 
ATOM     51  H   UNL A   1      40.708  29.851  30.309  1.00  0.00     0.167 HD
ATOM     52  C   UNL A   1      43.785  28.699  33.164  1.00  0.00     0.037 A 
ATOM     53  C   UNL A   1      38.179  30.956  29.720  1.00  0.00     0.037 A 
ATOM     54  C   UNL A   1      42.860  29.454  33.971  1.00  0.00     0.049 A 
ATOM     55  C   UNL A   1      38.407  31.302  31.165  1.00  0.00     0.074 A 
ATOM     56  C   UNL A   1      42.967  29.826  35.301  1.00  0.00     0.029 A 
ATOM     57  N   UNL A   1      41.673  29.993  33.501  1.00  0.00    -0.354 N 
ATOM     58  N   UNL A   1      39.401  30.964  31.949  1.00  0.00    -0.248 NA
ATOM     59  C   UNL A   1      37.366  32.102  31.827  1.00  0.00     0.031 C 
ATOM     60  C   UNL A   1      41.836  30.581  35.637  1.00  0.00     0.029 A 
ATOM     61  C   UNL A   1      41.044  30.705  34.508  1.00  0.00     0.049 A 
ATOM     62  H   UNL A   1      41.328  29.886  32.586  1.00  0.00     0.167 HD
ATOM     63  C   UNL A   1      39.105  31.507  33.193  1.00  0.00     0.074 A 
ATOM     64  C   UNL A   1      37.852  32.219  33.055  1.00  0.00     0.031 C 
ATOM     65  C   UNL A   1      39.804  31.416  34.352  1.00  0.00     0.037 A 
BRANCH  52  66
ATOM     66  C   UNL A   1      45.044  28.199  33.806  1.00  0.00     0.057 A 
ATOM     67  C   UNL A   1      45.129  26.958  34.445  1.00  0.00     0.134 A 
ATOM     68  C   UNL A   1      46.210  28.980  33.753  1.00  0.00     0.134 A 
ATOM     69  F   UNL A   1      44.049  26.170  34.545  1.00  0.00    -0.206 F 
ATOM     70  C   UNL A   1      46.321  26.520  35.028  1.00  0.00     0.040 A 
ATOM     71  C   UNL A   1      47.412  28.542  34.311  1.00  0.00     0.040 A 
ATOM     72  F   UNL A   1      46.199  30.179  33.151  1.00  0.00    -0.206 F 
ATOM     73  C   UNL A   1      47.468  27.310  34.957  1.00  0.00     0.006 A 
ENDBRANCH  52  66
BRANCH  53  74
ATOM     74  C   UNL A   1      36.933  31.392  29.035  1.00  0.00     0.057 A 
ATOM     75  C   UNL A   1      36.800  32.691  28.534  1.00  0.00     0.134 A 
ATOM     76  C   UNL A   1      35.849  30.521  28.865  1.00  0.00     0.134 A 
ATOM     77  F   UNL A   1      37.790  33.582  28.698  1.00  0.00    -0.206 F 
ATOM     78  C   UNL A   1      35.634  33.110  27.890  1.00  0.00     0.040 A 
ATOM     79  C   UNL A   1      34.689  30.916  28.197  1.00  0.00     0.040 A 
ATOM     80  F   UNL A   1      35.909  29.264  29.330  1.00  0.00    -0.206 F 
ATOM     81  C   UNL A   1      34.579  32.216  27.710  1.00  0.00     0.006 A 
ENDBRANCH  53  74
BRANCH  65  82
ATOM     82  C   UNL A   1      39.248  32.133  35.543  1.00  0.00     0.057 A 
ATOM     83  C   UNL A   1      39.543  33.478  35.797  1.00  0.00     0.134 A 
ATOM     84  C   UNL A   1      38.388  31.477  36.432  1.00  0.00     0.134 A 
ATOM     85  F   UNL A   1      40.373  34.156  34.989  1.00  0.00    -0.206 F 
ATOM     86  C   UNL A   1      39.014  34.142  36.905  1.00  0.00     0.040 A 
ATOM     87  C   UNL A   1      37.839  32.136  37.534  1.00  0.00     0.040 A 
ATOM     88  F   UNL A   1      38.064  30.190  36.241  1.00  0.00    -0.206 F 
ATOM     89  C   UNL A   1      38.155  33.471  37.773  1.00  0.00     0.006 A 
ENDBRANCH  65  82
ENDBRANCH  39  40
ENDBRANCH  32  34
ENDBRANCH  31  32
ENDBRANCH  30  31
ENDBRANCH  29  30
ENDBRANCH  28  29
ENDBRANCH  27  28
ENDBRANCH   1  27
TORSDOF 23
ENDMDL
MODEL 2
REMARK VINA RESULT:      -9.3      1.735      6.458
REMARK SMILES C#CC[N@@H+](CC(=O)Nc1c(Cl)cccc1Cl)CC(=O)OCCOCCOCCOC(=O)c1ccc(-c2c3nc(c(-c4c(F)cccc4F)c4ccc([nH]4)c(-c4c(F)cccc4F)c4nc(c(-c5c(F)cccc5F)c5ccc2[nH]5)C=C4)C=C3)cc1
REMARK SMILES IDX 24 1 23 2 22 3 21 4 20 5 18 6 19 7 17 8 4 9 3 11 2 12 1 13
REMARK SMILES IDX 5 14 6 15 7 16 8 17 9 19 10 20 15 21 11 22 12 23 14 24 16 25
REMARK SMILES IDX 13 26 25 27 26 28 27 29 28 30 29 31 30 32 31 33 32 34 33 35
REMARK SMILES IDX 85 36 34 37 84 38 35 39 36 40 37 41 78 42 38 43 83 44 77 45
REMARK SMILES IDX 79 46 39 47 82 48 76 49 75 50 40 52 66 53 49 54 65 55 50 56
REMARK SMILES IDX 53 57 64 58 80 59 51 60 52 61 63 63 81 64 54 65 41 66 42 67
REMARK SMILES IDX 47 68 43 69 44 70 46 71 48 72 45 73 67 74 68 75 73 76 69 77
REMARK SMILES IDX 70 78 72 79 74 80 71 81 55 82 56 83 61 84 57 85 58 86 60 87
REMARK SMILES IDX 62 88 59 89
REMARK H PARENT 4 10 8 18 79 51 53 62
REMARK Flexibility Score: inf
ROOT
ATOM      1  C   UNL A   1      40.842  20.826  26.540  1.00  0.00     0.188 C 
ENDROOT
BRANCH   1   2
ATOM      2  O   UNL A   1      40.148  21.779  25.734  1.00  0.00    -0.376 OA
BRANCH   2   3
ATOM      3  C   UNL A   1      38.842  22.106  26.212  1.00  0.00     0.202 C 
BRANCH   3   4
ATOM      4  C   UNL A   1      37.774  21.737  25.180  1.00  0.00     0.261 C 
BRANCH   4   5
ATOM      5  O   UNL A   1      36.435  21.743  25.715  1.00  0.00    -0.459 OA
BRANCH   5   6
ATOM      6  C   UNL A   1      35.753  22.911  25.732  1.00  0.00     0.361 C 
ATOM      7  O   UNL A   1      36.257  24.016  25.890  1.00  0.00    -0.245 OA
BRANCH   6   8
ATOM      8  C   UNL A   1      34.245  22.666  25.677  1.00  0.00     0.387 C 
BRANCH   8   9
ATOM      9  N   UNL A   1      33.410  23.532  24.823  1.00  0.00    -0.308 N 
ATOM     10  H   UNL A   1      33.684  24.443  25.193  1.00  0.00     0.349 HD
BRANCH   9  11
ATOM     11  C   UNL A   1      33.729  23.473  23.425  1.00  0.00     0.354 C 
BRANCH  11  12
ATOM     12  C   UNL A   1      33.217  24.459  22.387  1.00  0.00    -0.047 C 
ATOM     13  C   UNL A   1      32.779  25.305  21.497  1.00  0.00     0.010 C 
ENDBRANCH  11  12
ENDBRANCH   9  11
BRANCH   9  14
ATOM     14  C   UNL A   1      31.924  23.456  25.005  1.00  0.00     0.365 C 
BRANCH  14  15
ATOM     15  C   UNL A   1      31.238  24.361  26.067  1.00  0.00     0.279 C 
ATOM     16  O   UNL A   1      30.951  23.899  27.180  1.00  0.00    -0.268 OA
ATOM     17  N   UNL A   1      30.976  25.700  25.900  1.00  0.00    -0.319 N 
ATOM     18  H   UNL A   1      30.516  26.113  26.666  1.00  0.00     0.170 HD
BRANCH  17  19
ATOM     19  C   UNL A   1      31.240  26.601  24.840  1.00  0.00     0.079 A 
ATOM     20  C   UNL A   1      30.213  26.991  23.964  1.00  0.00     0.066 A 
ATOM     21  C   UNL A   1      32.431  27.330  24.768  1.00  0.00     0.066 A 
ATOM     22  Cl  UNL A   1      28.621  26.412  24.151  1.00  0.00    -0.082 Cl
ATOM     23  C   UNL A   1      30.421  27.881  22.909  1.00  0.00     0.023 A 
ATOM     24  C   UNL A   1      32.626  28.286  23.755  1.00  0.00     0.023 A 
ATOM     25  Cl  UNL A   1      33.658  27.166  25.970  1.00  0.00    -0.082 Cl
ATOM     26  C   UNL A   1      31.640  28.526  22.797  1.00  0.00     0.003 A 
ENDBRANCH  17  19
ENDBRANCH  14  15
ENDBRANCH   9  14
ENDBRANCH   8   9
ENDBRANCH   6   8
ENDBRANCH   5   6
ENDBRANCH   4   5
ENDBRANCH   3   4
ENDBRANCH   2   3
ENDBRANCH   1   2
BRANCH   1  27
ATOM     27  C   UNL A   1      42.318  20.742  26.144  1.00  0.00     0.188 C 
BRANCH  27  28
ATOM     28  O   UNL A   1      43.080  21.787  26.768  1.00  0.00    -0.376 OA
BRANCH  28  29
ATOM     29  C   UNL A   1      43.850  22.536  25.819  1.00  0.00     0.202 C 
BRANCH  29  30
ATOM     30  C   UNL A   1      43.047  23.608  25.062  1.00  0.00     0.261 C 
BRANCH  30  31
ATOM     31  O   UNL A   1      42.270  24.422  25.961  1.00  0.00    -0.460 OA
BRANCH  31  32
ATOM     32  C   UNL A   1      42.304  25.749  25.682  1.00  0.00     0.338 C 
ATOM     33  O   UNL A   1      42.676  26.249  24.634  1.00  0.00    -0.246 OA
BRANCH  32  34
ATOM     34  C   UNL A   1      41.722  26.554  26.793  1.00  0.00     0.060 A 
ATOM     35  C   UNL A   1      42.112  27.874  27.034  1.00  0.00     0.016 A 
ATOM     36  C   UNL A   1      40.898  25.919  27.723  1.00  0.00     0.016 A 
ATOM     37  C   UNL A   1      41.800  28.502  28.247  1.00  0.00     0.010 A 
ATOM     38  C   UNL A   1      40.478  26.604  28.871  1.00  0.00     0.010 A 
ATOM     39  C   UNL A   1      40.954  27.895  29.181  1.00  0.00    -0.014 A 
BRANCH  39  40
ATOM     40  C   UNL A   1      40.568  28.525  30.487  1.00  0.00     0.031 A 
ATOM     41  C   UNL A   1      39.413  29.497  30.517  1.00  0.00     0.074 A 
ATOM     42  C   UNL A   1      41.221  28.317  31.650  1.00  0.00     0.049 A 
ATOM     43  N   UNL A   1      39.220  30.543  31.278  1.00  0.00    -0.248 NA
ATOM     44  C   UNL A   1      38.350  29.267  29.526  1.00  0.00     0.031 C 
ATOM     45  C   UNL A   1      42.260  27.321  31.905  1.00  0.00     0.029 A 
ATOM     46  N   UNL A   1      41.110  28.985  32.854  1.00  0.00    -0.354 N 
ATOM     47  C   UNL A   1      38.082  31.166  30.778  1.00  0.00     0.074 A 
ATOM     48  C   UNL A   1      37.598  30.349  29.685  1.00  0.00     0.031 C 
ATOM     49  C   UNL A   1      42.678  27.429  33.175  1.00  0.00     0.029 A 
ATOM     50  C   UNL A   1      42.049  28.596  33.780  1.00  0.00     0.049 A 
ATOM     51  H   UNL A   1      40.426  29.670  33.030  1.00  0.00     0.167 HD
ATOM     52  C   UNL A   1      37.524  32.335  31.178  1.00  0.00     0.037 A 
ATOM     53  C   UNL A   1      42.447  29.166  34.935  1.00  0.00     0.037 A 
ATOM     54  C   UNL A   1      37.959  33.081  32.332  1.00  0.00     0.049 A 
ATOM     55  C   UNL A   1      41.861  30.484  35.356  1.00  0.00     0.074 A 
ATOM     56  C   UNL A   1      37.495  34.295  32.810  1.00  0.00     0.029 A 
ATOM     57  N   UNL A   1      38.934  32.651  33.218  1.00  0.00    -0.354 N 
ATOM     58  N   UNL A   1      40.936  31.203  34.770  1.00  0.00    -0.248 NA
ATOM     59  C   UNL A   1      42.411  31.092  36.577  1.00  0.00     0.031 C 
ATOM     60  C   UNL A   1      38.200  34.604  33.980  1.00  0.00     0.029 A 
ATOM     61  C   UNL A   1      39.077  33.567  34.246  1.00  0.00     0.049 A 
ATOM     62  H   UNL A   1      39.448  31.816  33.130  1.00  0.00     0.167 HD
ATOM     63  C   UNL A   1      40.794  32.346  35.548  1.00  0.00     0.074 A 
ATOM     64  C   UNL A   1      41.709  32.214  36.662  1.00  0.00     0.031 C 
ATOM     65  C   UNL A   1      39.985  33.416  35.352  1.00  0.00     0.037 A 
BRANCH  52  66
ATOM     66  C   UNL A   1      36.439  32.917  30.324  1.00  0.00     0.057 A 
ATOM     67  C   UNL A   1      35.082  32.816  30.648  1.00  0.00     0.134 A 
ATOM     68  C   UNL A   1      36.774  33.622  29.157  1.00  0.00     0.134 A 
ATOM     69  F   UNL A   1      34.692  32.142  31.739  1.00  0.00    -0.206 F 
ATOM     70  C   UNL A   1      34.095  33.375  29.831  1.00  0.00     0.040 A 
ATOM     71  C   UNL A   1      35.799  34.206  28.347  1.00  0.00     0.040 A 
ATOM     72  F   UNL A   1      38.057  33.761  28.791  1.00  0.00    -0.206 F 
ATOM     73  C   UNL A   1      34.453  34.077  28.681  1.00  0.00     0.006 A 
ENDBRANCH  52  66
BRANCH  53  74
ATOM     74  C   UNL A   1      43.551  28.552  35.719  1.00  0.00     0.057 A 
ATOM     75  C   UNL A   1      43.294  27.567  36.679  1.00  0.00     0.134 A 
ATOM     76  C   UNL A   1      44.885  28.935  35.529  1.00  0.00     0.134 A 
ATOM     77  F   UNL A   1      42.034  27.184  36.932  1.00  0.00    -0.206 F 
ATOM     78  C   UNL A   1      44.323  26.986  37.422  1.00  0.00     0.040 A 
ATOM     79  C   UNL A   1      45.927  28.341  36.242  1.00  0.00     0.040 A 
ATOM     80  F   UNL A   1      45.197  29.880  34.630  1.00  0.00    -0.206 F 
ATOM     81  C   UNL A   1      45.645  27.365  37.195  1.00  0.00     0.006 A 
ENDBRANCH  53  74
BRANCH  65  82
ATOM     82  C   UNL A   1      40.028  34.503  36.382  1.00  0.00     0.057 A 
ATOM     83  C   UNL A   1      40.882  35.604  36.255  1.00  0.00     0.134 A 
ATOM     84  C   UNL A   1      39.186  34.457  37.500  1.00  0.00     0.134 A 
ATOM     85  F   UNL A   1      41.723  35.696  35.213  1.00  0.00    -0.206 F 
ATOM     86  C   UNL A   1      40.910  36.618  37.215  1.00  0.00     0.040 A 
ATOM     87  C   UNL A   1      39.192  35.474  38.457  1.00  0.00     0.040 A 
ATOM     88  F   UNL A   1      38.342  33.430  37.675  1.00  0.00    -0.206 F 
ATOM     89  C   UNL A   1      40.059  36.555  38.317  1.00  0.00     0.006 A 
ENDBRANCH  65  82
ENDBRANCH  39  40
ENDBRANCH  32  34
ENDBRANCH  31  32
ENDBRANCH  30  31
ENDBRANCH  29  30
ENDBRANCH  28  29
ENDBRANCH  27  28
ENDBRANCH   1  27
TORSDOF 23
ENDMDL
MODEL 3
REMARK VINA RESULT:      -9.3      5.335     11.610
REMARK SMILES C#CC[N@@H+](CC(=O)Nc1c(Cl)cccc1Cl)CC(=O)OCCOCCOCCOC(=O)c1ccc(-c2c3nc(c(-c4c(F)cccc4F)c4ccc([nH]4)c(-c4c(F)cccc4F)c4nc(c(-c5c(F)cccc5F)c5ccc2[nH]5)C=C4)C=C3)cc1
REMARK SMILES IDX 24 1 23 2 22 3 21 4 20 5 18 6 19 7 17 8 4 9 3 11 2 12 1 13
REMARK SMILES IDX 5 14 6 15 7 16 8 17 9 19 10 20 15 21 11 22 12 23 14 24 16 25
REMARK SMILES IDX 13 26 25 27 26 28 27 29 28 30 29 31 30 32 31 33 32 34 33 35
REMARK SMILES IDX 85 36 34 37 84 38 35 39 36 40 37 41 78 42 38 43 83 44 77 45
REMARK SMILES IDX 79 46 39 47 82 48 76 49 75 50 40 52 66 53 49 54 65 55 50 56
REMARK SMILES IDX 53 57 64 58 80 59 51 60 52 61 63 63 81 64 54 65 41 66 42 67
REMARK SMILES IDX 47 68 43 69 44 70 46 71 48 72 45 73 67 74 68 75 73 76 69 77
REMARK SMILES IDX 70 78 72 79 74 80 71 81 55 82 56 83 61 84 57 85 58 86 60 87
REMARK SMILES IDX 62 88 59 89
REMARK H PARENT 4 10 8 18 79 51 53 62
REMARK Flexibility Score: inf
ROOT
ATOM      1  C   UNL A   1      32.873  36.076  31.150  1.00  0.00     0.188 C 
ENDROOT
BRANCH   1   2
ATOM      2  O   UNL A   1      33.089  34.781  31.714  1.00  0.00    -0.376 OA
BRANCH   2   3
ATOM      3  C   UNL A   1      34.044  34.760  32.775  1.00  0.00     0.202 C 
BRANCH   3   4
ATOM      4  C   UNL A   1      35.221  33.843  32.434  1.00  0.00     0.261 C 
BRANCH   4   5
ATOM      5  O   UNL A   1      36.440  34.559  32.150  1.00  0.00    -0.459 OA
BRANCH   5   6
ATOM      6  C   UNL A   1      37.479  34.427  33.006  1.00  0.00     0.361 C 
ATOM      7  O   UNL A   1      37.547  34.945  34.113  1.00  0.00    -0.245 OA
BRANCH   6   8
ATOM      8  C   UNL A   1      38.633  33.664  32.354  1.00  0.00     0.387 C 
BRANCH   8   9
ATOM      9  N   UNL A   1      39.295  32.584  33.110  1.00  0.00    -0.308 N 
ATOM     10  H   UNL A   1      39.926  32.238  32.387  1.00  0.00     0.349 HD
BRANCH   9  11
ATOM     11  C   UNL A   1      40.064  33.033  34.236  1.00  0.00     0.354 C 
BRANCH  11  12
ATOM     12  C   UNL A   1      41.035  34.202  34.199  1.00  0.00    -0.047 C 
ATOM     13  C   UNL A   1      41.869  35.204  34.167  1.00  0.00     0.010 C 
ENDBRANCH  11  12
ENDBRANCH   9  11
BRANCH   9  14
ATOM     14  C   UNL A   1      38.459  31.406  33.509  1.00  0.00     0.365 C 
BRANCH  14  15
ATOM     15  C   UNL A   1      38.832  30.604  34.788  1.00  0.00     0.279 C 
ATOM     16  O   UNL A   1      38.061  30.593  35.757  1.00  0.00    -0.268 OA
ATOM     17  N   UNL A   1      39.950  29.814  34.915  1.00  0.00    -0.319 N 
ATOM     18  H   UNL A   1      40.042  29.396  35.802  1.00  0.00     0.170 HD
BRANCH  17  19
ATOM     19  C   UNL A   1      40.997  29.487  34.019  1.00  0.00     0.079 A 
ATOM     20  C   UNL A   1      42.322  29.858  34.305  1.00  0.00     0.066 A 
ATOM     21  C   UNL A   1      40.816  28.581  32.970  1.00  0.00     0.066 A 
ATOM     22  Cl  UNL A   1      42.720  30.695  35.735  1.00  0.00    -0.082 Cl
ATOM     23  C   UNL A   1      43.389  29.552  33.458  1.00  0.00     0.023 A 
ATOM     24  C   UNL A   1      41.898  28.205  32.153  1.00  0.00     0.023 A 
ATOM     25  Cl  UNL A   1      39.295  27.812  32.699  1.00  0.00    -0.082 Cl
ATOM     26  C   UNL A   1      43.173  28.729  32.368  1.00  0.00     0.003 A 
ENDBRANCH  17  19
ENDBRANCH  14  15
ENDBRANCH   9  14
ENDBRANCH   8   9
ENDBRANCH   6   8
ENDBRANCH   5   6
ENDBRANCH   4   5
ENDBRANCH   3   4
ENDBRANCH   2   3
ENDBRANCH   1   2
BRANCH   1  27
ATOM     27  C   UNL A   1      33.230  36.094  29.662  1.00  0.00     0.188 C 
BRANCH  27  28
ATOM     28  O   UNL A   1      34.253  35.131  29.366  1.00  0.00    -0.376 OA
BRANCH  28  29
ATOM     29  C   UNL A   1      34.117  34.585  28.047  1.00  0.00     0.202 C 
BRANCH  29  30
ATOM     30  C   UNL A   1      33.584  33.143  28.013  1.00  0.00     0.261 C 
BRANCH  30  31
ATOM     31  O   UNL A   1      34.519  32.219  28.602  1.00  0.00    -0.460 OA
BRANCH  31  32
ATOM     32  C   UNL A   1      34.470  30.968  28.079  1.00  0.00     0.338 C 
ATOM     33  O   UNL A   1      33.547  30.499  27.436  1.00  0.00    -0.246 OA
BRANCH  32  34
ATOM     34  C   UNL A   1      35.752  30.239  28.292  1.00  0.00     0.060 A 
ATOM     35  C   UNL A   1      36.117  29.734  29.543  1.00  0.00     0.016 A 
ATOM     36  C   UNL A   1      36.691  30.213  27.261  1.00  0.00     0.016 A 
ATOM     37  C   UNL A   1      37.437  29.338  29.798  1.00  0.00     0.010 A 
ATOM     38  C   UNL A   1      37.970  29.688  27.488  1.00  0.00     0.010 A 
ATOM     39  C   UNL A   1      38.387  29.279  28.772  1.00  0.00    -0.014 A 
BRANCH  39  40
ATOM     40  C   UNL A   1      39.809  28.846  28.980  1.00  0.00     0.031 A 
ATOM     41  C   UNL A   1      40.833  29.875  29.392  1.00  0.00     0.074 A 
ATOM     42  C   UNL A   1      40.254  27.588  28.774  1.00  0.00     0.049 A 
ATOM     43  N   UNL A   1      42.109  29.942  29.114  1.00  0.00    -0.248 NA
ATOM     44  C   UNL A   1      40.333  30.996  30.203  1.00  0.00     0.031 C 
ATOM     45  C   UNL A   1      39.439  26.401  28.522  1.00  0.00     0.029 A 
ATOM     46  N   UNL A   1      41.548  27.112  28.719  1.00  0.00    -0.354 N 
ATOM     47  C   UNL A   1      42.538  31.170  29.607  1.00  0.00     0.074 A 
ATOM     48  C   UNL A   1      41.397  31.788  30.250  1.00  0.00     0.031 C 
ATOM     49  C   UNL A   1      40.242  25.339  28.355  1.00  0.00     0.029 A 
ATOM     50  C   UNL A   1      41.626  25.793  28.337  1.00  0.00     0.049 A 
ATOM     51  H   UNL A   1      42.337  27.662  28.932  1.00  0.00     0.167 HD
ATOM     52  C   UNL A   1      43.764  31.735  29.493  1.00  0.00     0.037 A 
ATOM     53  C   UNL A   1      42.667  25.051  27.911  1.00  0.00     0.037 A 
ATOM     54  C   UNL A   1      44.912  31.063  28.940  1.00  0.00     0.049 A 
ATOM     55  C   UNL A   1      44.018  25.689  27.741  1.00  0.00     0.074 A 
ATOM     56  C   UNL A   1      46.193  31.549  28.738  1.00  0.00     0.029 A 
ATOM     57  N   UNL A   1      44.924  29.735  28.544  1.00  0.00    -0.354 N 
ATOM     58  N   UNL A   1      44.388  26.921  27.992  1.00  0.00    -0.248 NA
ATOM     59  C   UNL A   1      45.083  24.844  27.182  1.00  0.00     0.031 C 
ATOM     60  C   UNL A   1      46.977  30.516  28.208  1.00  0.00     0.029 A 
ATOM     61  C   UNL A   1      46.190  29.380  28.112  1.00  0.00     0.049 A 
ATOM     62  H   UNL A   1      44.146  29.132  28.567  1.00  0.00     0.167 HD
ATOM     63  C   UNL A   1      45.725  26.998  27.623  1.00  0.00     0.074 A 
ATOM     64  C   UNL A   1      46.109  25.683  27.153  1.00  0.00     0.031 C 
ATOM     65  C   UNL A   1      46.559  28.066  27.657  1.00  0.00     0.037 A 
BRANCH  52  66
ATOM     66  C   UNL A   1      43.909  33.171  29.901  1.00  0.00     0.057 A 
ATOM     67  C   UNL A   1      44.252  33.559  31.200  1.00  0.00     0.134 A 
ATOM     68  C   UNL A   1      43.726  34.187  28.950  1.00  0.00     0.134 A 
ATOM     69  F   UNL A   1      44.424  32.640  32.161  1.00  0.00    -0.206 F 
ATOM     70  C   UNL A   1      44.384  34.907  31.546  1.00  0.00     0.040 A 
ATOM     71  C   UNL A   1      43.880  35.535  29.278  1.00  0.00     0.040 A 
ATOM     72  F   UNL A   1      43.401  33.884  27.684  1.00  0.00    -0.206 F 
ATOM     73  C   UNL A   1      44.204  35.898  30.582  1.00  0.00     0.006 A 
ENDBRANCH  52  66
BRANCH  53  74
ATOM     74  C   UNL A   1      42.448  23.641  27.493  1.00  0.00     0.057 A 
ATOM     75  C   UNL A   1      42.402  22.607  28.433  1.00  0.00     0.134 A 
ATOM     76  C   UNL A   1      42.280  23.295  26.146  1.00  0.00     0.134 A 
ATOM     77  F   UNL A   1      42.592  22.870  29.735  1.00  0.00    -0.206 F 
ATOM     78  C   UNL A   1      42.198  21.280  28.051  1.00  0.00     0.040 A 
ATOM     79  C   UNL A   1      42.045  21.977  25.751  1.00  0.00     0.040 A 
ATOM     80  F   UNL A   1      42.322  24.238  25.193  1.00  0.00    -0.206 F 
ATOM     81  C   UNL A   1      42.007  20.965  26.706  1.00  0.00     0.006 A 
ENDBRANCH  53  74
BRANCH  65  82
ATOM     82  C   UNL A   1      47.972  27.844  27.214  1.00  0.00     0.057 A 
ATOM     83  C   UNL A   1      48.354  27.981  25.875  1.00  0.00     0.134 A 
ATOM     84  C   UNL A   1      48.966  27.514  28.144  1.00  0.00     0.134 A 
ATOM     85  F   UNL A   1      47.443  28.280  24.935  1.00  0.00    -0.206 F 
ATOM     86  C   UNL A   1      49.675  27.781  25.470  1.00  0.00     0.040 A 
ATOM     87  C   UNL A   1      50.294  27.330  27.754  1.00  0.00     0.040 A 
ATOM     88  F   UNL A   1      48.664  27.373  29.442  1.00  0.00    -0.206 F 
ATOM     89  C   UNL A   1      50.650  27.459  26.413  1.00  0.00     0.006 A 
ENDBRANCH  65  82
ENDBRANCH  39  40
ENDBRANCH  32  34
ENDBRANCH  31  32
ENDBRANCH  30  31
ENDBRANCH  29  30
ENDBRANCH  28  29
ENDBRANCH  27  28
ENDBRANCH   1  27
TORSDOF 23
ENDMDL
