MODEL 1
REMARK VINA RESULT:     -12.3      0.000      0.000
REMARK SMILES Cc1cnn(C2(C(=O)OCCOCCOCCOC(=O)c3ccc(-c4c5nc(c(-c6c(F)cccc6F)c6ccc([nH]6)c(-c6c(F)cccc6F)c6nc(c(-c7c(F)cccc7F)c7ccc4[nH]7)C=C6)C=C5)cc3)CCN(C(=O)c3cc4ccccc4[nH]3)CC2)c1
REMARK SMILES IDX 14 1 13 2 12 3 11 4 10 5 9 6 7 7 8 8 6 9 75 10 90 11 76 12
REMARK SMILES IDX 89 13 77 14 78 15 79 16 5 17 1 18 2 19 3 20 91 21 4 22 80 23
REMARK SMILES IDX 81 24 88 25 82 26 87 27 83 29 86 30 84 31 85 32 15 33 16 34
REMARK SMILES IDX 17 35 18 36 19 37 20 38 21 39 22 40 74 41 23 42 73 43 24 44
REMARK SMILES IDX 25 45 26 46 67 47 27 48 72 49 66 50 68 51 28 52 71 53 65 54
REMARK SMILES IDX 64 55 29 57 55 58 38 59 54 60 39 61 42 62 53 63 69 64 40 65
REMARK SMILES IDX 41 66 52 68 70 69 43 70 30 71 31 72 36 73 32 74 33 75 35 76
REMARK SMILES IDX 37 77 34 78 56 79 57 80 62 81 58 82 59 83 61 84 63 85 60 86
REMARK SMILES IDX 44 87 45 88 50 89 46 90 47 91 49 92 51 93 48 94
REMARK H PARENT 88 28 68 56 42 67
REMARK Flexibility Score: inf
ROOT
ATOM      1  C   UNL A   1      40.019  21.304  26.543  1.00  0.00     0.188 C 
ENDROOT
BRANCH   1   2
ATOM      2  C   UNL A   1      39.023  20.494  25.711  1.00  0.00     0.188 C 
BRANCH   2   3
ATOM      3  O   UNL A   1      38.082  21.207  24.950  1.00  0.00    -0.376 OA
BRANCH   3   4
ATOM      4  C   UNL A   1      36.848  21.539  25.568  1.00  0.00     0.202 C 
BRANCH   4   5
ATOM      5  C   UNL A   1      36.449  22.972  25.997  1.00  0.00     0.261 C 
BRANCH   5   6
ATOM      6  O   UNL A   1      36.015  23.883  24.964  1.00  0.00    -0.461 OA
BRANCH   6   7
ATOM      7  C   UNL A   1      35.262  23.346  23.958  1.00  0.00     0.334 C 
ATOM      8  O   UNL A   1      35.752  23.008  22.881  1.00  0.00    -0.249 OA
BRANCH   7   9
ATOM      9  C   UNL A   1      33.728  23.308  24.228  1.00  0.00     0.163 C 
ATOM     10  C   UNL A   1      33.287  23.704  25.658  1.00  0.00     0.064 C 
ATOM     11  C   UNL A   1      33.263  24.388  23.229  1.00  0.00     0.064 C 
ATOM     12  C   UNL A   1      31.840  24.172  25.769  1.00  0.00     0.123 C 
ATOM     13  C   UNL A   1      31.846  24.878  23.399  1.00  0.00     0.123 C 
ATOM     14  N   UNL A   1      31.526  25.190  24.787  1.00  0.00    -0.337 N 
ATOM     15  C   UNL A   1      30.909  26.370  25.211  1.00  0.00     0.270 C 
ATOM     16  O   UNL A   1      30.876  26.706  26.393  1.00  0.00    -0.267 OA
BRANCH   9  17
ATOM     17  N   UNL A   1      33.210  21.963  23.885  1.00  0.00    -0.255 N 
ATOM     18  C   UNL A   1      32.514  18.383  24.246  1.00  0.00     0.048 C 
ATOM     19  C   UNL A   1      32.676  19.808  23.881  1.00  0.00    -0.013 A 
ATOM     20  C   UNL A   1      32.155  20.490  22.769  1.00  0.00     0.138 A 
ATOM     21  C   UNL A   1      33.392  20.776  24.550  1.00  0.00     0.113 A 
ATOM     22  N   UNL A   1      32.534  21.767  22.730  1.00  0.00    -0.180 NA
ENDBRANCH   9  17
BRANCH  15  23
ATOM     23  C   UNL A   1      30.357  27.217  24.181  1.00  0.00     0.105 A 
ATOM     24  C   UNL A   1      30.984  28.029  23.253  1.00  0.00     0.042 A 
ATOM     25  N   UNL A   1      29.005  27.353  23.970  1.00  0.00    -0.351 N 
ATOM     26  C   UNL A   1      30.008  28.907  22.730  1.00  0.00     0.000 A 
ATOM     27  C   UNL A   1      28.766  28.427  23.144  1.00  0.00     0.046 A 
ATOM     28  H   UNL A   1      28.311  26.770  24.354  1.00  0.00     0.167 HD
ATOM     29  C   UNL A   1      30.072  30.081  21.962  1.00  0.00     0.010 A 
ATOM     30  C   UNL A   1      27.565  29.021  22.750  1.00  0.00     0.026 A 
ATOM     31  C   UNL A   1      28.883  30.719  21.603  1.00  0.00     0.001 A 
ATOM     32  C   UNL A   1      27.650  30.180  21.970  1.00  0.00     0.002 A 
ENDBRANCH  15  23
ENDBRANCH   7   9
ENDBRANCH   6   7
ENDBRANCH   5   6
ENDBRANCH   4   5
ENDBRANCH   3   4
ENDBRANCH   2   3
ENDBRANCH   1   2
BRANCH   1  33
ATOM     33  O   UNL A   1      40.870  20.760  27.540  1.00  0.00    -0.376 OA
BRANCH  33  34
ATOM     34  C   UNL A   1      42.147  20.177  27.311  1.00  0.00     0.202 C 
BRANCH  34  35
ATOM     35  C   UNL A   1      42.436  19.138  26.230  1.00  0.00     0.261 C 
BRANCH  35  36
ATOM     36  O   UNL A   1      42.838  19.683  25.001  1.00  0.00    -0.460 OA
BRANCH  36  37
ATOM     37  C   UNL A   1      44.172  19.688  24.818  1.00  0.00     0.338 C 
ATOM     38  O   UNL A   1      44.913  18.728  24.638  1.00  0.00    -0.246 OA
BRANCH  37  39
ATOM     39  C   UNL A   1      44.603  21.086  24.856  1.00  0.00     0.060 A 
ATOM     40  C   UNL A   1      45.650  21.403  25.718  1.00  0.00     0.016 A 
ATOM     41  C   UNL A   1      43.796  22.063  24.254  1.00  0.00     0.016 A 
ATOM     42  C   UNL A   1      45.647  22.660  26.262  1.00  0.00     0.010 A 
ATOM     43  C   UNL A   1      43.784  23.310  24.807  1.00  0.00     0.010 A 
ATOM     44  C   UNL A   1      44.612  23.530  25.898  1.00  0.00    -0.014 A 
BRANCH  44  45
ATOM     45  C   UNL A   1      44.414  24.721  26.679  1.00  0.00     0.031 A 
ATOM     46  C   UNL A   1      45.549  25.645  26.547  1.00  0.00     0.074 A 
ATOM     47  C   UNL A   1      43.284  24.936  27.379  1.00  0.00     0.049 A 
ATOM     48  N   UNL A   1      46.480  25.840  27.417  1.00  0.00    -0.248 NA
ATOM     49  C   UNL A   1      45.819  26.224  25.222  1.00  0.00     0.031 C 
ATOM     50  C   UNL A   1      42.032  24.173  27.369  1.00  0.00     0.029 A 
ATOM     51  N   UNL A   1      43.003  25.965  28.221  1.00  0.00    -0.354 N 
ATOM     52  C   UNL A   1      47.324  26.770  26.833  1.00  0.00     0.074 A 
ATOM     53  C   UNL A   1      47.011  26.785  25.429  1.00  0.00     0.031 C 
ATOM     54  C   UNL A   1      41.062  24.892  27.983  1.00  0.00     0.029 A 
ATOM     55  C   UNL A   1      41.655  26.089  28.552  1.00  0.00     0.049 A 
ATOM     56  H   UNL A   1      43.694  26.574  28.567  1.00  0.00     0.167 HD
ATOM     57  C   UNL A   1      47.985  27.668  27.607  1.00  0.00     0.037 A 
ATOM     58  C   UNL A   1      41.101  27.153  29.190  1.00  0.00     0.037 A 
ATOM     59  C   UNL A   1      48.000  27.254  28.988  1.00  0.00     0.049 A 
ATOM     60  C   UNL A   1      42.205  27.862  29.891  1.00  0.00     0.074 A 
ATOM     61  C   UNL A   1      48.505  26.165  29.669  1.00  0.00     0.029 A 
ATOM     62  N   UNL A   1      47.063  27.822  29.819  1.00  0.00    -0.354 N 
ATOM     63  N   UNL A   1      42.851  27.358  30.906  1.00  0.00    -0.248 NA
ATOM     64  C   UNL A   1      42.915  28.895  29.151  1.00  0.00     0.031 C 
ATOM     65  C   UNL A   1      47.537  25.870  30.675  1.00  0.00     0.029 A 
ATOM     66  C   UNL A   1      46.531  26.834  30.607  1.00  0.00     0.049 A 
ATOM     67  H   UNL A   1      46.817  28.775  29.843  1.00  0.00     0.167 HD
ATOM     68  C   UNL A   1      44.182  27.670  30.667  1.00  0.00     0.074 A 
ATOM     69  C   UNL A   1      44.152  28.676  29.607  1.00  0.00     0.031 C 
ATOM     70  C   UNL A   1      45.183  26.867  31.132  1.00  0.00     0.037 A 
BRANCH  57  71
ATOM     71  C   UNL A   1      48.221  29.093  27.189  1.00  0.00     0.057 A 
ATOM     72  C   UNL A   1      49.518  29.617  27.273  1.00  0.00     0.134 A 
ATOM     73  C   UNL A   1      47.196  30.043  26.990  1.00  0.00     0.134 A 
ATOM     74  F   UNL A   1      50.571  28.813  27.489  1.00  0.00    -0.206 F 
ATOM     75  C   UNL A   1      49.771  30.992  27.223  1.00  0.00     0.040 A 
ATOM     76  C   UNL A   1      47.443  31.411  26.881  1.00  0.00     0.040 A 
ATOM     77  F   UNL A   1      45.897  29.720  26.997  1.00  0.00    -0.206 F 
ATOM     78  C   UNL A   1      48.731  31.894  27.029  1.00  0.00     0.006 A 
ENDBRANCH  57  71
BRANCH  58  79
ATOM     79  C   UNL A   1      39.793  27.805  28.938  1.00  0.00     0.057 A 
ATOM     80  C   UNL A   1      38.867  27.998  29.976  1.00  0.00     0.134 A 
ATOM     81  C   UNL A   1      39.547  28.524  27.756  1.00  0.00     0.134 A 
ATOM     82  F   UNL A   1      39.037  27.392  31.160  1.00  0.00    -0.206 F 
ATOM     83  C   UNL A   1      37.778  28.874  29.855  1.00  0.00     0.040 A 
ATOM     84  C   UNL A   1      38.462  29.400  27.622  1.00  0.00     0.040 A 
ATOM     85  F   UNL A   1      40.403  28.476  26.726  1.00  0.00    -0.206 F 
ATOM     86  C   UNL A   1      37.581  29.589  28.679  1.00  0.00     0.006 A 
ENDBRANCH  58  79
BRANCH  70  87
ATOM     87  C   UNL A   1      44.816  25.791  32.121  1.00  0.00     0.057 A 
ATOM     88  C   UNL A   1      44.431  24.487  31.771  1.00  0.00     0.134 A 
ATOM     89  C   UNL A   1      45.001  26.049  33.482  1.00  0.00     0.134 A 
ATOM     90  F   UNL A   1      44.320  24.116  30.489  1.00  0.00    -0.206 F 
ATOM     91  C   UNL A   1      44.204  23.500  32.737  1.00  0.00     0.040 A 
ATOM     92  C   UNL A   1      44.811  25.065  34.454  1.00  0.00     0.040 A 
ATOM     93  F   UNL A   1      45.420  27.258  33.889  1.00  0.00    -0.206 F 
ATOM     94  C   UNL A   1      44.402  23.787  34.085  1.00  0.00     0.006 A 
ENDBRANCH  70  87
ENDBRANCH  44  45
ENDBRANCH  37  39
ENDBRANCH  36  37
ENDBRANCH  35  36
ENDBRANCH  34  35
ENDBRANCH  33  34
ENDBRANCH   1  33
TORSDOF 19
ENDMDL
MODEL 2
REMARK VINA RESULT:     -12.0      5.097     10.691
REMARK SMILES Cc1cnn(C2(C(=O)OCCOCCOCCOC(=O)c3ccc(-c4c5nc(c(-c6c(F)cccc6F)c6ccc([nH]6)c(-c6c(F)cccc6F)c6nc(c(-c7c(F)cccc7F)c7ccc4[nH]7)C=C6)C=C5)cc3)CCN(C(=O)c3cc4ccccc4[nH]3)CC2)c1
REMARK SMILES IDX 14 1 13 2 12 3 11 4 10 5 9 6 7 7 8 8 6 9 75 10 90 11 76 12
REMARK SMILES IDX 89 13 77 14 78 15 79 16 5 17 1 18 2 19 3 20 91 21 4 22 80 23
REMARK SMILES IDX 81 24 88 25 82 26 87 27 83 29 86 30 84 31 85 32 15 33 16 34
REMARK SMILES IDX 17 35 18 36 19 37 20 38 21 39 22 40 74 41 23 42 73 43 24 44
REMARK SMILES IDX 25 45 26 46 67 47 27 48 72 49 66 50 68 51 28 52 71 53 65 54
REMARK SMILES IDX 64 55 29 57 55 58 38 59 54 60 39 61 42 62 53 63 69 64 40 65
REMARK SMILES IDX 41 66 52 68 70 69 43 70 30 71 31 72 36 73 32 74 33 75 35 76
REMARK SMILES IDX 37 77 34 78 56 79 57 80 62 81 58 82 59 83 61 84 63 85 60 86
REMARK SMILES IDX 44 87 45 88 50 89 46 90 47 91 49 92 51 93 48 94
REMARK H PARENT 88 28 68 56 42 67
REMARK Flexibility Score: inf
ROOT
ATOM      1  C   UNL A   1      33.814  32.646  28.058  1.00  0.00     0.188 C 
ENDROOT
BRANCH   1   2
ATOM      2  C   UNL A   1      32.518  32.704  27.246  1.00  0.00     0.188 C 
BRANCH   2   3
ATOM      3  O   UNL A   1      32.070  31.512  26.653  1.00  0.00    -0.376 OA
BRANCH   3   4
ATOM      4  C   UNL A   1      32.470  30.287  27.248  1.00  0.00     0.202 C 
BRANCH   4   5
ATOM      5  C   UNL A   1      33.215  29.159  26.495  1.00  0.00     0.261 C 
BRANCH   5   6
ATOM      6  O   UNL A   1      32.447  28.335  25.592  1.00  0.00    -0.461 OA
BRANCH   6   7
ATOM      7  C   UNL A   1      32.666  28.528  24.258  1.00  0.00     0.334 C 
ATOM      8  O   UNL A   1      33.332  29.471  23.832  1.00  0.00    -0.249 OA
BRANCH   7   9
ATOM      9  C   UNL A   1      31.913  27.543  23.314  1.00  0.00     0.163 C 
ATOM     10  C   UNL A   1      32.634  27.198  21.988  1.00  0.00     0.064 C 
ATOM     11  C   UNL A   1      31.879  26.293  24.221  1.00  0.00     0.064 C 
ATOM     12  C   UNL A   1      32.189  25.890  21.346  1.00  0.00     0.123 C 
ATOM     13  C   UNL A   1      31.495  25.000  23.546  1.00  0.00     0.123 C 
ATOM     14  N   UNL A   1      32.207  24.792  22.291  1.00  0.00    -0.337 N 
ATOM     15  C   UNL A   1      32.855  23.605  21.935  1.00  0.00     0.270 C 
ATOM     16  O   UNL A   1      33.642  23.544  20.993  1.00  0.00    -0.267 OA
BRANCH   9  17
ATOM     17  N   UNL A   1      30.558  28.076  23.040  1.00  0.00    -0.255 N 
ATOM     18  C   UNL A   1      26.923  28.454  23.315  1.00  0.00     0.048 C 
ATOM     19  C   UNL A   1      28.375  28.480  23.030  1.00  0.00    -0.013 A 
ATOM     20  C   UNL A   1      29.084  29.350  22.185  1.00  0.00     0.138 A 
ATOM     21  C   UNL A   1      29.350  27.641  23.524  1.00  0.00     0.113 A 
ATOM     22  N   UNL A   1      30.385  29.063  22.132  1.00  0.00    -0.180 NA
ENDBRANCH   9  17
BRANCH  15  23
ATOM     23  C   UNL A   1      32.602  22.456  22.770  1.00  0.00     0.105 A 
ATOM     24  C   UNL A   1      32.784  22.274  24.129  1.00  0.00     0.042 A 
ATOM     25  N   UNL A   1      32.112  21.269  22.279  1.00  0.00    -0.351 N 
ATOM     26  C   UNL A   1      32.735  20.885  24.382  1.00  0.00     0.000 A 
ATOM     27  C   UNL A   1      32.251  20.278  23.224  1.00  0.00     0.046 A 
ATOM     28  H   UNL A   1      31.720  21.146  21.385  1.00  0.00     0.167 HD
ATOM     29  C   UNL A   1      33.082  20.088  25.484  1.00  0.00     0.010 A 
ATOM     30  C   UNL A   1      32.011  18.905  23.143  1.00  0.00     0.026 A 
ATOM     31  C   UNL A   1      32.899  18.705  25.402  1.00  0.00     0.001 A 
ATOM     32  C   UNL A   1      32.347  18.130  24.258  1.00  0.00     0.002 A 
ENDBRANCH  15  23
ENDBRANCH   7   9
ENDBRANCH   6   7
ENDBRANCH   5   6
ENDBRANCH   4   5
ENDBRANCH   3   4
ENDBRANCH   2   3
ENDBRANCH   1   2
BRANCH   1  33
ATOM     33  O   UNL A   1      34.739  33.715  28.180  1.00  0.00    -0.376 OA
BRANCH  33  34
ATOM     34  C   UNL A   1      34.534  34.906  28.930  1.00  0.00     0.202 C 
BRANCH  34  35
ATOM     35  C   UNL A   1      33.277  35.205  29.743  1.00  0.00     0.261 C 
BRANCH  35  36
ATOM     36  O   UNL A   1      33.516  35.893  30.942  1.00  0.00    -0.460 OA
BRANCH  36  37
ATOM     37  C   UNL A   1      33.006  35.286  32.030  1.00  0.00     0.338 C 
ATOM     38  O   UNL A   1      31.834  35.236  32.386  1.00  0.00    -0.246 OA
BRANCH  37  39
ATOM     39  C   UNL A   1      34.126  34.660  32.735  1.00  0.00     0.060 A 
ATOM     40  C   UNL A   1      35.271  35.431  32.917  1.00  0.00     0.016 A 
ATOM     41  C   UNL A   1      34.107  33.273  32.946  1.00  0.00     0.016 A 
ATOM     42  C   UNL A   1      36.468  34.768  32.946  1.00  0.00     0.010 A 
ATOM     43  C   UNL A   1      35.300  32.612  32.960  1.00  0.00     0.010 A 
ATOM     44  C   UNL A   1      36.449  33.375  32.811  1.00  0.00    -0.014 A 
BRANCH  44  45
ATOM     45  C   UNL A   1      37.687  32.698  32.529  1.00  0.00     0.031 A 
ATOM     46  C   UNL A   1      38.563  32.665  33.708  1.00  0.00     0.074 A 
ATOM     47  C   UNL A   1      37.936  32.135  31.331  1.00  0.00     0.049 A 
ATOM     48  N   UNL A   1      39.599  33.404  33.911  1.00  0.00    -0.248 NA
ATOM     49  C   UNL A   1      38.103  31.920  34.890  1.00  0.00     0.031 C 
ATOM     50  C   UNL A   1      37.026  31.931  30.200  1.00  0.00     0.029 A 
ATOM     51  N   UNL A   1      39.084  31.547  30.904  1.00  0.00    -0.354 N 
ATOM     52  C   UNL A   1      40.069  33.025  35.157  1.00  0.00     0.074 A 
ATOM     53  C   UNL A   1      39.001  32.305  35.798  1.00  0.00     0.031 C 
ATOM     54  C   UNL A   1      37.590  31.070  29.319  1.00  0.00     0.029 A 
ATOM     55  C   UNL A   1      38.946  30.781  29.748  1.00  0.00     0.049 A 
ATOM     56  H   UNL A   1      39.943  31.653  31.373  1.00  0.00     0.167 HD
ATOM     57  C   UNL A   1      41.399  33.066  35.424  1.00  0.00     0.037 A 
ATOM     58  C   UNL A   1      39.885  29.931  29.257  1.00  0.00     0.037 A 
ATOM     59  C   UNL A   1      42.098  33.884  34.464  1.00  0.00     0.049 A 
ATOM     60  C   UNL A   1      41.191  30.343  29.838  1.00  0.00     0.074 A 
ATOM     61  C   UNL A   1      42.042  35.215  34.099  1.00  0.00     0.029 A 
ATOM     62  N   UNL A   1      42.726  33.233  33.429  1.00  0.00    -0.354 N 
ATOM     63  N   UNL A   1      41.787  31.464  29.540  1.00  0.00    -0.248 NA
ATOM     64  C   UNL A   1      41.573  29.753  31.113  1.00  0.00     0.031 C 
ATOM     65  C   UNL A   1      42.231  35.224  32.686  1.00  0.00     0.029 A 
ATOM     66  C   UNL A   1      42.466  33.914  32.269  1.00  0.00     0.049 A 
ATOM     67  H   UNL A   1      43.271  32.416  33.510  1.00  0.00     0.167 HD
ATOM     68  C   UNL A   1      42.262  31.944  30.752  1.00  0.00     0.074 A 
ATOM     69  C   UNL A   1      42.159  30.814  31.675  1.00  0.00     0.031 C 
ATOM     70  C   UNL A   1      42.404  33.285  30.967  1.00  0.00     0.037 A 
BRANCH  57  71
ATOM     71  C   UNL A   1      42.098  32.035  36.266  1.00  0.00     0.057 A 
ATOM     72  C   UNL A   1      42.918  32.464  37.319  1.00  0.00     0.134 A 
ATOM     73  C   UNL A   1      42.231  30.676  35.910  1.00  0.00     0.134 A 
ATOM     74  F   UNL A   1      42.899  33.743  37.727  1.00  0.00    -0.206 F 
ATOM     75  C   UNL A   1      43.846  31.617  37.934  1.00  0.00     0.040 A 
ATOM     76  C   UNL A   1      43.113  29.808  36.555  1.00  0.00     0.040 A 
ATOM     77  F   UNL A   1      41.603  30.137  34.859  1.00  0.00    -0.206 F 
ATOM     78  C   UNL A   1      43.948  30.285  37.550  1.00  0.00     0.006 A 
ENDBRANCH  57  71
BRANCH  58  79
ATOM     79  C   UNL A   1      39.693  28.595  28.642  1.00  0.00     0.057 A 
ATOM     80  C   UNL A   1      40.251  28.285  27.392  1.00  0.00     0.134 A 
ATOM     81  C   UNL A   1      39.225  27.502  29.392  1.00  0.00     0.134 A 
ATOM     82  F   UNL A   1      40.767  29.252  26.619  1.00  0.00    -0.206 F 
ATOM     83  C   UNL A   1      40.364  26.966  26.928  1.00  0.00     0.040 A 
ATOM     84  C   UNL A   1      39.329  26.181  28.939  1.00  0.00     0.040 A 
ATOM     85  F   UNL A   1      38.740  27.670  30.630  1.00  0.00    -0.206 F 
ATOM     86  C   UNL A   1      39.914  25.907  27.709  1.00  0.00     0.006 A 
ENDBRANCH  58  79
BRANCH  70  87
ATOM     87  C   UNL A   1      42.280  34.201  29.778  1.00  0.00     0.057 A 
ATOM     88  C   UNL A   1      41.078  34.780  29.341  1.00  0.00     0.134 A 
ATOM     89  C   UNL A   1      43.451  34.627  29.143  1.00  0.00     0.134 A 
ATOM     90  F   UNL A   1      39.916  34.508  29.949  1.00  0.00    -0.206 F 
ATOM     91  C   UNL A   1      41.043  35.708  28.294  1.00  0.00     0.040 A 
ATOM     92  C   UNL A   1      43.435  35.576  28.120  1.00  0.00     0.040 A 
ATOM     93  F   UNL A   1      44.643  34.157  29.542  1.00  0.00    -0.206 F 
ATOM     94  C   UNL A   1      42.227  36.114  27.684  1.00  0.00     0.006 A 
ENDBRANCH  70  87
ENDBRANCH  44  45
ENDBRANCH  37  39
ENDBRANCH  36  37
ENDBRANCH  35  36
ENDBRANCH  34  35
ENDBRANCH  33  34
ENDBRANCH   1  33
TORSDOF 19
ENDMDL
MODEL 3
REMARK VINA RESULT:     -11.9      1.512      2.046
REMARK SMILES Cc1cnn(C2(C(=O)OCCOCCOCCOC(=O)c3ccc(-c4c5nc(c(-c6c(F)cccc6F)c6ccc([nH]6)c(-c6c(F)cccc6F)c6nc(c(-c7c(F)cccc7F)c7ccc4[nH]7)C=C6)C=C5)cc3)CCN(C(=O)c3cc4ccccc4[nH]3)CC2)c1
REMARK SMILES IDX 14 1 13 2 12 3 11 4 10 5 9 6 7 7 8 8 6 9 75 10 90 11 76 12
REMARK SMILES IDX 89 13 77 14 78 15 79 16 5 17 1 18 2 19 3 20 91 21 4 22 80 23
REMARK SMILES IDX 81 24 88 25 82 26 87 27 83 29 86 30 84 31 85 32 15 33 16 34
REMARK SMILES IDX 17 35 18 36 19 37 20 38 21 39 22 40 74 41 23 42 73 43 24 44
REMARK SMILES IDX 25 45 26 46 67 47 27 48 72 49 66 50 68 51 28 52 71 53 65 54
REMARK SMILES IDX 64 55 29 57 55 58 38 59 54 60 39 61 42 62 53 63 69 64 40 65
REMARK SMILES IDX 41 66 52 68 70 69 43 70 30 71 31 72 36 73 32 74 33 75 35 76
REMARK SMILES IDX 37 77 34 78 56 79 57 80 62 81 58 82 59 83 61 84 63 85 60 86
REMARK SMILES IDX 44 87 45 88 50 89 46 90 47 91 49 92 51 93 48 94
REMARK H PARENT 88 28 68 56 42 67
REMARK Flexibility Score: inf
ROOT
ATOM      1  C   UNL A   1      42.309  19.943  26.114  1.00  0.00     0.188 C 
ENDROOT
BRANCH   1   2
ATOM      2  C   UNL A   1      40.810  19.977  26.422  1.00  0.00     0.188 C 
BRANCH   2   3
ATOM      3  O   UNL A   1      40.116  21.164  26.134  1.00  0.00    -0.376 OA
BRANCH   3   4
ATOM      4  C   UNL A   1      38.748  21.058  25.772  1.00  0.00     0.202 C 
BRANCH   4   5
ATOM      5  C   UNL A   1      37.759  22.248  25.752  1.00  0.00     0.261 C 
BRANCH   5   6
ATOM      6  O   UNL A   1      36.381  21.968  25.427  1.00  0.00    -0.461 OA
BRANCH   6   7
ATOM      7  C   UNL A   1      35.666  22.993  24.875  1.00  0.00     0.334 C 
ATOM      8  O   UNL A   1      36.208  23.931  24.291  1.00  0.00    -0.249 OA
BRANCH   7   9
ATOM      9  C   UNL A   1      34.132  22.950  25.145  1.00  0.00     0.163 C 
ATOM     10  C   UNL A   1      33.678  23.465  26.532  1.00  0.00     0.064 C 
ATOM     11  C   UNL A   1      33.650  23.928  24.051  1.00  0.00     0.064 C 
ATOM     12  C   UNL A   1      32.223  23.913  26.598  1.00  0.00     0.123 C 
ATOM     13  C   UNL A   1      32.224  24.404  24.174  1.00  0.00     0.123 C 
ATOM     14  N   UNL A   1      31.893  24.833  25.528  1.00  0.00    -0.337 N 
ATOM     15  C   UNL A   1      31.252  26.035  25.844  1.00  0.00     0.270 C 
ATOM     16  O   UNL A   1      31.208  26.474  26.990  1.00  0.00    -0.267 OA
BRANCH   9  17
ATOM     17  N   UNL A   1      33.640  21.570  24.922  1.00  0.00    -0.255 N 
ATOM     18  C   UNL A   1      32.500  18.184  25.736  1.00  0.00     0.048 C 
ATOM     19  C   UNL A   1      32.928  19.482  25.170  1.00  0.00    -0.013 A 
ATOM     20  C   UNL A   1      32.919  19.894  23.826  1.00  0.00     0.138 A 
ATOM     21  C   UNL A   1      33.447  20.568  25.840  1.00  0.00     0.113 A 
ATOM     22  N   UNL A   1      33.414  21.122  23.666  1.00  0.00    -0.180 NA
ENDBRANCH   9  17
BRANCH  15  23
ATOM     23  C   UNL A   1      30.689  26.775  24.741  1.00  0.00     0.105 A 
ATOM     24  C   UNL A   1      31.297  27.574  23.789  1.00  0.00     0.042 A 
ATOM     25  N   UNL A   1      29.342  26.799  24.467  1.00  0.00    -0.351 N 
ATOM     26  C   UNL A   1      30.286  28.345  23.173  1.00  0.00     0.000 A 
ATOM     27  C   UNL A   1      29.064  27.801  23.565  1.00  0.00     0.046 A 
ATOM     28  H   UNL A   1      28.674  26.190  24.858  1.00  0.00     0.167 HD
ATOM     29  C   UNL A   1      30.302  29.472  22.336  1.00  0.00     0.010 A 
ATOM     30  C   UNL A   1      27.843  28.280  23.086  1.00  0.00     0.026 A 
ATOM     31  C   UNL A   1      29.087  29.998  21.889  1.00  0.00     0.001 A 
ATOM     32  C   UNL A   1      27.881  29.393  22.239  1.00  0.00     0.002 A 
ENDBRANCH  15  23
ENDBRANCH   7   9
ENDBRANCH   6   7
ENDBRANCH   5   6
ENDBRANCH   4   5
ENDBRANCH   3   4
ENDBRANCH   2   3
ENDBRANCH   1   2
BRANCH   1  33
ATOM     33  O   UNL A   1      42.895  19.236  25.032  1.00  0.00    -0.376 OA
BRANCH  33  34
ATOM     34  C   UNL A   1      44.281  18.961  24.876  1.00  0.00     0.202 C 
BRANCH  34  35
ATOM     35  C   UNL A   1      45.231  19.790  24.015  1.00  0.00     0.261 C 
BRANCH  35  36
ATOM     36  O   UNL A   1      44.751  21.069  23.697  1.00  0.00    -0.460 OA
BRANCH  36  37
ATOM     37  C   UNL A   1      45.433  22.070  24.285  1.00  0.00     0.338 C 
ATOM     38  O   UNL A   1      46.566  22.462  24.030  1.00  0.00    -0.246 OA
BRANCH  37  39
ATOM     39  C   UNL A   1      44.556  22.642  25.308  1.00  0.00     0.060 A 
ATOM     40  C   UNL A   1      43.378  23.240  24.870  1.00  0.00     0.016 A 
ATOM     41  C   UNL A   1      45.048  22.804  26.612  1.00  0.00     0.016 A 
ATOM     42  C   UNL A   1      42.900  24.287  25.612  1.00  0.00     0.010 A 
ATOM     43  C   UNL A   1      44.581  23.855  27.344  1.00  0.00     0.010 A 
ATOM     44  C   UNL A   1      43.614  24.659  26.757  1.00  0.00    -0.014 A 
BRANCH  44  45
ATOM     45  C   UNL A   1      43.316  25.927  27.367  1.00  0.00     0.031 A 
ATOM     46  C   UNL A   1      44.339  26.932  27.047  1.00  0.00     0.074 A 
ATOM     47  C   UNL A   1      42.195  26.127  28.086  1.00  0.00     0.049 A 
ATOM     48  N   UNL A   1      45.273  27.347  27.831  1.00  0.00    -0.248 NA
ATOM     49  C   UNL A   1      44.499  27.332  25.640  1.00  0.00     0.031 C 
ATOM     50  C   UNL A   1      41.033  25.248  28.249  1.00  0.00     0.029 A 
ATOM     51  N   UNL A   1      41.834  27.237  28.783  1.00  0.00    -0.354 N 
ATOM     52  C   UNL A   1      45.991  28.261  27.077  1.00  0.00     0.074 A 
ATOM     53  C   UNL A   1      45.629  28.036  25.703  1.00  0.00     0.031 C 
ATOM     54  C   UNL A   1      40.014  25.948  28.801  1.00  0.00     0.029 A 
ATOM     55  C   UNL A   1      40.493  27.270  29.161  1.00  0.00     0.049 A 
ATOM     56  H   UNL A   1      42.467  27.957  29.003  1.00  0.00     0.167 HD
ATOM     57  C   UNL A   1      46.578  29.327  27.679  1.00  0.00     0.037 A 
ATOM     58  C   UNL A   1      39.850  28.355  29.666  1.00  0.00     0.037 A 
ATOM     59  C   UNL A   1      46.686  29.127  29.103  1.00  0.00     0.049 A 
ATOM     60  C   UNL A   1      40.895  29.269  30.201  1.00  0.00     0.074 A 
ATOM     61  C   UNL A   1      47.330  28.208  29.908  1.00  0.00     0.029 A 
ATOM     62  N   UNL A   1      45.723  29.713  29.890  1.00  0.00    -0.354 N 
ATOM     63  N   UNL A   1      41.627  28.990  31.244  1.00  0.00    -0.248 NA
ATOM     64  C   UNL A   1      41.462  30.248  29.285  1.00  0.00     0.031 C 
ATOM     65  C   UNL A   1      46.435  27.969  30.993  1.00  0.00     0.029 A 
ATOM     66  C   UNL A   1      45.329  28.804  30.838  1.00  0.00     0.049 A 
ATOM     67  H   UNL A   1      45.376  30.629  29.789  1.00  0.00     0.167 HD
ATOM     68  C   UNL A   1      42.907  29.396  30.896  1.00  0.00     0.074 A 
ATOM     69  C   UNL A   1      42.731  30.225  29.704  1.00  0.00     0.031 C 
ATOM     70  C   UNL A   1      44.005  28.777  31.421  1.00  0.00     0.037 A 
BRANCH  57  71
ATOM     71  C   UNL A   1      46.643  30.690  27.049  1.00  0.00     0.057 A 
ATOM     72  C   UNL A   1      47.884  31.339  26.966  1.00  0.00     0.134 A 
ATOM     73  C   UNL A   1      45.518  31.502  26.791  1.00  0.00     0.134 A 
ATOM     74  F   UNL A   1      49.023  30.676  27.218  1.00  0.00    -0.206 F 
ATOM     75  C   UNL A   1      47.993  32.709  26.705  1.00  0.00     0.040 A 
ATOM     76  C   UNL A   1      45.619  32.857  26.474  1.00  0.00     0.040 A 
ATOM     77  F   UNL A   1      44.261  31.066  26.936  1.00  0.00    -0.206 F 
ATOM     78  C   UNL A   1      46.857  33.473  26.461  1.00  0.00     0.006 A 
ENDBRANCH  57  71
BRANCH  58  79
ATOM     79  C   UNL A   1      38.471  28.826  29.389  1.00  0.00     0.057 A 
ATOM     80  C   UNL A   1      37.539  28.991  30.427  1.00  0.00     0.134 A 
ATOM     81  C   UNL A   1      38.129  29.413  28.159  1.00  0.00     0.134 A 
ATOM     82  F   UNL A   1      37.793  28.506  31.652  1.00  0.00    -0.206 F 
ATOM     83  C   UNL A   1      36.353  29.720  30.259  1.00  0.00     0.040 A 
ATOM     84  C   UNL A   1      36.946  30.142  27.978  1.00  0.00     0.040 A 
ATOM     85  F   UNL A   1      38.974  29.384  27.120  1.00  0.00    -0.206 F 
ATOM     86  C   UNL A   1      36.060  30.310  29.034  1.00  0.00     0.006 A 
ENDBRANCH  58  79
BRANCH  70  87
ATOM     87  C   UNL A   1      43.791  27.829  32.571  1.00  0.00     0.057 A 
ATOM     88  C   UNL A   1      43.761  26.430  32.454  1.00  0.00     0.134 A 
ATOM     89  C   UNL A   1      43.760  28.353  33.867  1.00  0.00     0.134 A 
ATOM     90  F   UNL A   1      43.880  25.831  31.262  1.00  0.00    -0.206 F 
ATOM     91  C   UNL A   1      43.664  25.597  33.574  1.00  0.00     0.040 A 
ATOM     92  C   UNL A   1      43.698  27.533  34.995  1.00  0.00     0.040 A 
ATOM     93  F   UNL A   1      43.839  29.678  34.060  1.00  0.00    -0.206 F 
ATOM     94  C   UNL A   1      43.640  26.149  34.852  1.00  0.00     0.006 A 
ENDBRANCH  70  87
ENDBRANCH  44  45
ENDBRANCH  37  39
ENDBRANCH  36  37
ENDBRANCH  35  36
ENDBRANCH  34  35
ENDBRANCH  33  34
ENDBRANCH   1  33
TORSDOF 19
ENDMDL
