MODEL 1
REMARK VINA RESULT:     -11.2      0.000      0.000
REMARK SMILES CC(C)(C)OC(=O)N1CCC[C@H]1C(=O)N1CCC[C@H]1C(=O)N1CCC[C@@H]1C(=O)OCCOCCOCCOC(=O)c1ccc(-c2c3nc(c(-c4c(F)cccc4F)c4ccc([nH]4)c(-c4c(F)cccc4F)c4nc(c(-c5c(F)cccc5F)c5ccc2[nH]5)C=C4)C=C3)cc1
REMARK SMILES IDX 31 1 30 2 29 3 27 4 28 5 26 6 22 7 23 8 24 9 25 10 20 11
REMARK SMILES IDX 21 12 19 13 15 14 16 15 17 16 18 17 13 18 14 19 12 20 8 21
REMARK SMILES IDX 9 22 10 23 11 24 6 25 7 26 5 27 2 28 1 29 3 30 4 31 32 32
REMARK SMILES IDX 33 33 34 34 35 35 36 36 37 37 38 38 39 39 40 40 41 41 42 42
REMARK SMILES IDX 94 43 43 44 93 45 44 46 45 47 46 48 87 49 47 50 92 51 86 52
REMARK SMILES IDX 88 53 48 54 91 55 85 56 84 57 49 59 75 60 58 61 74 62 59 63
REMARK SMILES IDX 62 64 73 65 89 66 60 67 61 68 72 70 90 71 63 72 50 73 51 74
REMARK SMILES IDX 56 75 52 76 53 77 55 78 57 79 54 80 76 81 77 82 82 83 78 84
REMARK SMILES IDX 79 85 81 86 83 87 80 88 64 89 65 90 70 91 66 92 67 93 69 94
REMARK SMILES IDX 71 95 68 96
REMARK H PARENT 88 58 62 69
REMARK Flexibility Score: inf
ROOT
ATOM      1  C   UNL A   1      38.645  22.949  26.374  1.00  0.00     0.202 C 
ENDROOT
BRANCH   1   2
ATOM      2  C   UNL A   1      37.212  22.818  25.821  1.00  0.00     0.261 C 
BRANCH   2   3
ATOM      3  O   UNL A   1      36.650  21.485  25.751  1.00  0.00    -0.462 OA
BRANCH   3   4
ATOM      4  C   UNL A   1      35.310  21.395  25.937  1.00  0.00     0.328 C 
ATOM      5  O   UNL A   1      34.770  21.673  27.008  1.00  0.00    -0.250 OA
BRANCH   4   6
ATOM      6  C   UNL A   1      34.472  20.888  24.740  1.00  0.00     0.195 C 
ATOM      7  N   UNL A   1      33.370  21.771  24.434  1.00  0.00    -0.327 N 
ATOM      8  C   UNL A   1      32.457  21.109  23.532  1.00  0.00     0.120 C 
ATOM      9  C   UNL A   1      32.468  19.666  24.001  1.00  0.00     0.024 C 
ATOM     10  C   UNL A   1      33.807  19.504  24.731  1.00  0.00     0.039 C 
BRANCH   7  11
ATOM     11  C   UNL A   1      33.536  23.130  24.393  1.00  0.00     0.246 C 
ATOM     12  O   UNL A   1      34.164  23.689  23.496  1.00  0.00    -0.272 OA
BRANCH  11  13
ATOM     13  C   UNL A   1      32.724  23.898  25.471  1.00  0.00     0.174 C 
ATOM     14  N   UNL A   1      31.971  25.135  25.155  1.00  0.00    -0.329 N 
ATOM     15  C   UNL A   1      30.588  25.036  25.571  1.00  0.00     0.120 C 
ATOM     16  C   UNL A   1      30.547  23.877  26.543  1.00  0.00     0.024 C 
ATOM     17  C   UNL A   1      31.657  22.956  26.057  1.00  0.00     0.037 C 
BRANCH  14  18
ATOM     18  C   UNL A   1      32.624  26.311  24.844  1.00  0.00     0.246 C 
ATOM     19  O   UNL A   1      33.369  26.886  25.637  1.00  0.00    -0.272 OA
BRANCH  18  20
ATOM     20  C   UNL A   1      32.387  26.942  23.464  1.00  0.00     0.178 C 
ATOM     21  N   UNL A   1      32.228  28.385  23.668  1.00  0.00    -0.296 N 
ATOM     22  C   UNL A   1      33.386  29.118  23.208  1.00  0.00     0.124 C 
ATOM     23  C   UNL A   1      33.918  28.238  22.093  1.00  0.00     0.024 C 
ATOM     24  C   UNL A   1      33.620  26.812  22.566  1.00  0.00     0.037 C 
BRANCH  21  25
ATOM     25  C   UNL A   1      31.168  28.891  24.372  1.00  0.00     0.410 C 
ATOM     26  O   UNL A   1      31.312  29.482  25.442  1.00  0.00    -0.224 OA
BRANCH  25  27
ATOM     27  O   UNL A   1      29.979  28.631  23.778  1.00  0.00    -0.444 OA
BRANCH  27  28
ATOM     28  C   UNL A   1      29.253  29.625  23.002  1.00  0.00     0.106 C 
ATOM     29  C   UNL A   1      29.294  30.898  23.859  1.00  0.00     0.056 C 
ATOM     30  C   UNL A   1      27.803  29.160  22.852  1.00  0.00     0.056 C 
ATOM     31  C   UNL A   1      29.863  29.959  21.634  1.00  0.00     0.056 C 
ENDBRANCH  27  28
ENDBRANCH  25  27
ENDBRANCH  21  25
ENDBRANCH  18  20
ENDBRANCH  14  18
ENDBRANCH  11  13
ENDBRANCH   7  11
ENDBRANCH   4   6
ENDBRANCH   3   4
ENDBRANCH   2   3
ENDBRANCH   1   2
BRANCH   1  32
ATOM     32  O   UNL A   1      39.392  21.793  26.733  1.00  0.00    -0.376 OA
BRANCH  32  33
ATOM     33  C   UNL A   1      40.433  21.356  25.874  1.00  0.00     0.188 C 
BRANCH  33  34
ATOM     34  C   UNL A   1      41.298  20.166  26.309  1.00  0.00     0.188 C 
BRANCH  34  35
ATOM     35  O   UNL A   1      42.185  19.673  25.336  1.00  0.00    -0.376 OA
BRANCH  35  36
ATOM     36  C   UNL A   1      43.576  19.852  25.527  1.00  0.00     0.202 C 
BRANCH  36  37
ATOM     37  C   UNL A   1      44.250  21.216  25.273  1.00  0.00     0.261 C 
BRANCH  37  38
ATOM     38  O   UNL A   1      43.717  22.361  25.959  1.00  0.00    -0.460 OA
BRANCH  38  39
ATOM     39  C   UNL A   1      43.942  23.580  25.410  1.00  0.00     0.338 C 
ATOM     40  O   UNL A   1      44.385  23.813  24.301  1.00  0.00    -0.246 OA
BRANCH  39  41
ATOM     41  C   UNL A   1      43.294  24.584  26.291  1.00  0.00     0.060 A 
ATOM     42  C   UNL A   1      43.743  25.915  26.255  1.00  0.00     0.016 A 
ATOM     43  C   UNL A   1      42.222  24.229  27.111  1.00  0.00     0.016 A 
ATOM     44  C   UNL A   1      43.135  26.888  27.052  1.00  0.00     0.010 A 
ATOM     45  C   UNL A   1      41.638  25.196  27.935  1.00  0.00     0.010 A 
ATOM     46  C   UNL A   1      42.110  26.522  27.932  1.00  0.00    -0.014 A 
BRANCH  46  47
ATOM     47  C   UNL A   1      41.687  27.454  29.006  1.00  0.00     0.031 A 
ATOM     48  C   UNL A   1      42.435  27.410  30.310  1.00  0.00     0.074 A 
ATOM     49  C   UNL A   1      40.672  28.321  28.841  1.00  0.00     0.049 A 
ATOM     50  N   UNL A   1      42.198  28.042  31.430  1.00  0.00    -0.248 NA
ATOM     51  C   UNL A   1      43.610  26.522  30.353  1.00  0.00     0.031 C 
ATOM     52  C   UNL A   1      39.904  28.506  27.613  1.00  0.00     0.029 A 
ATOM     53  N   UNL A   1      40.106  29.201  29.731  1.00  0.00    -0.354 N 
ATOM     54  C   UNL A   1      43.184  27.618  32.314  1.00  0.00     0.074 A 
ATOM     55  C   UNL A   1      44.002  26.655  31.611  1.00  0.00     0.031 C 
ATOM     56  C   UNL A   1      38.949  29.429  27.834  1.00  0.00     0.029 A 
ATOM     57  C   UNL A   1      39.016  29.868  29.227  1.00  0.00     0.049 A 
ATOM     58  H   UNL A   1      40.448  29.340  30.644  1.00  0.00     0.167 HD
ATOM     59  C   UNL A   1      43.391  28.000  33.596  1.00  0.00     0.037 A 
ATOM     60  C   UNL A   1      38.156  30.712  29.833  1.00  0.00     0.037 A 
ATOM     61  C   UNL A   1      42.573  28.954  34.297  1.00  0.00     0.049 A 
ATOM     62  C   UNL A   1      38.352  31.053  31.289  1.00  0.00     0.074 A 
ATOM     63  C   UNL A   1      42.710  29.416  35.593  1.00  0.00     0.029 A 
ATOM     64  N   UNL A   1      41.459  29.583  33.762  1.00  0.00    -0.354 N 
ATOM     65  N   UNL A   1      39.294  30.662  32.115  1.00  0.00    -0.248 NA
ATOM     66  C   UNL A   1      37.363  31.956  31.898  1.00  0.00     0.031 C 
ATOM     67  C   UNL A   1      41.643  30.279  35.864  1.00  0.00     0.029 A 
ATOM     68  C   UNL A   1      40.881  30.406  34.713  1.00  0.00     0.049 A 
ATOM     69  H   UNL A   1      41.129  29.462  32.842  1.00  0.00     0.167 HD
ATOM     70  C   UNL A   1      39.030  31.296  33.325  1.00  0.00     0.074 A 
ATOM     71  C   UNL A   1      37.849  32.106  33.123  1.00  0.00     0.031 C 
ATOM     72  C   UNL A   1      39.708  31.216  34.497  1.00  0.00     0.037 A 
BRANCH  59  73
ATOM     73  C   UNL A   1      44.528  27.353  34.333  1.00  0.00     0.057 A 
ATOM     74  C   UNL A   1      44.361  26.177  35.076  1.00  0.00     0.134 A 
ATOM     75  C   UNL A   1      45.814  27.904  34.278  1.00  0.00     0.134 A 
ATOM     76  F   UNL A   1      43.151  25.607  35.185  1.00  0.00    -0.206 F 
ATOM     77  C   UNL A   1      45.426  25.588  35.760  1.00  0.00     0.040 A 
ATOM     78  C   UNL A   1      46.894  27.308  34.931  1.00  0.00     0.040 A 
ATOM     79  F   UNL A   1      46.045  29.029  33.583  1.00  0.00    -0.206 F 
ATOM     80  C   UNL A   1      46.699  26.150  35.680  1.00  0.00     0.006 A 
ENDBRANCH  59  73
BRANCH  60  81
ATOM     81  C   UNL A   1      37.008  31.281  29.078  1.00  0.00     0.057 A 
ATOM     82  C   UNL A   1      37.015  32.609  28.636  1.00  0.00     0.134 A 
ATOM     83  C   UNL A   1      35.859  30.523  28.816  1.00  0.00     0.134 A 
ATOM     84  F   UNL A   1      38.073  33.395  28.882  1.00  0.00    -0.206 F 
ATOM     85  C   UNL A   1      35.918  33.169  27.978  1.00  0.00     0.040 A 
ATOM     86  C   UNL A   1      34.767  31.061  28.134  1.00  0.00     0.040 A 
ATOM     87  F   UNL A   1      35.784  29.246  29.218  1.00  0.00    -0.206 F 
ATOM     88  C   UNL A   1      34.790  32.391  27.722  1.00  0.00     0.006 A 
ENDBRANCH  60  81
BRANCH  72  89
ATOM     89  C   UNL A   1      39.220  32.060  35.642  1.00  0.00     0.057 A 
ATOM     90  C   UNL A   1      38.345  31.562  36.615  1.00  0.00     0.134 A 
ATOM     91  C   UNL A   1      39.672  33.379  35.796  1.00  0.00     0.134 A 
ATOM     92  F   UNL A   1      37.867  30.312  36.525  1.00  0.00    -0.206 F 
ATOM     93  C   UNL A   1      37.916  32.353  37.684  1.00  0.00     0.040 A 
ATOM     94  C   UNL A   1      39.276  34.167  36.876  1.00  0.00     0.040 A 
ATOM     95  F   UNL A   1      40.522  33.916  34.907  1.00  0.00    -0.206 F 
ATOM     96  C   UNL A   1      38.389  33.657  37.821  1.00  0.00     0.006 A 
ENDBRANCH  72  89
ENDBRANCH  46  47
ENDBRANCH  39  41
ENDBRANCH  38  39
ENDBRANCH  37  38
ENDBRANCH  36  37
ENDBRANCH  35  36
ENDBRANCH  34  35
ENDBRANCH  33  34
ENDBRANCH  32  33
ENDBRANCH   1  32
TORSDOF 24
ENDMDL
MODEL 2
REMARK VINA RESULT:      -9.8      5.084      8.433
REMARK SMILES CC(C)(C)OC(=O)N1CCC[C@H]1C(=O)N1CCC[C@H]1C(=O)N1CCC[C@@H]1C(=O)OCCOCCOCCOC(=O)c1ccc(-c2c3nc(c(-c4c(F)cccc4F)c4ccc([nH]4)c(-c4c(F)cccc4F)c4nc(c(-c5c(F)cccc5F)c5ccc2[nH]5)C=C4)C=C3)cc1
REMARK SMILES IDX 31 1 30 2 29 3 27 4 28 5 26 6 22 7 23 8 24 9 25 10 20 11
REMARK SMILES IDX 21 12 19 13 15 14 16 15 17 16 18 17 13 18 14 19 12 20 8 21
REMARK SMILES IDX 9 22 10 23 11 24 6 25 7 26 5 27 2 28 1 29 3 30 4 31 32 32
REMARK SMILES IDX 33 33 34 34 35 35 36 36 37 37 38 38 39 39 40 40 41 41 42 42
REMARK SMILES IDX 94 43 43 44 93 45 44 46 45 47 46 48 87 49 47 50 92 51 86 52
REMARK SMILES IDX 88 53 48 54 91 55 85 56 84 57 49 59 75 60 58 61 74 62 59 63
REMARK SMILES IDX 62 64 73 65 89 66 60 67 61 68 72 70 90 71 63 72 50 73 51 74
REMARK SMILES IDX 56 75 52 76 53 77 55 78 57 79 54 80 76 81 77 82 82 83 78 84
REMARK SMILES IDX 79 85 81 86 83 87 80 88 64 89 65 90 70 91 66 92 67 93 69 94
REMARK SMILES IDX 71 95 68 96
REMARK H PARENT 88 58 62 69
REMARK Flexibility Score: inf
ROOT
ATOM      1  C   UNL A   1      38.549  23.988  26.195  1.00  0.00     0.202 C 
ENDROOT
BRANCH   1   2
ATOM      2  C   UNL A   1      37.015  23.943  26.065  1.00  0.00     0.261 C 
BRANCH   2   3
ATOM      3  O   UNL A   1      36.450  22.875  25.264  1.00  0.00    -0.462 OA
BRANCH   3   4
ATOM      4  C   UNL A   1      35.197  22.480  25.600  1.00  0.00     0.328 C 
ATOM      5  O   UNL A   1      34.771  22.538  26.753  1.00  0.00    -0.250 OA
BRANCH   4   6
ATOM      6  C   UNL A   1      34.317  21.912  24.462  1.00  0.00     0.195 C 
ATOM      7  N   UNL A   1      33.385  22.893  23.954  1.00  0.00    -0.327 N 
ATOM      8  C   UNL A   1      32.397  22.237  23.128  1.00  0.00     0.120 C 
ATOM      9  C   UNL A   1      32.158  20.915  23.833  1.00  0.00     0.024 C 
ATOM     10  C   UNL A   1      33.432  20.672  24.650  1.00  0.00     0.039 C 
BRANCH   7  11
ATOM     11  C   UNL A   1      33.774  24.179  23.694  1.00  0.00     0.246 C 
ATOM     12  O   UNL A   1      34.667  24.446  22.893  1.00  0.00    -0.272 OA
BRANCH  11  13
ATOM     13  C   UNL A   1      32.881  25.257  24.365  1.00  0.00     0.174 C 
ATOM     14  N   UNL A   1      31.709  25.847  23.677  1.00  0.00    -0.329 N 
ATOM     15  C   UNL A   1      30.510  25.740  24.482  1.00  0.00     0.120 C 
ATOM     16  C   UNL A   1      30.998  25.448  25.884  1.00  0.00     0.024 C 
ATOM     17  C   UNL A   1      32.293  24.680  25.665  1.00  0.00     0.037 C 
BRANCH  14  18
ATOM     18  C   UNL A   1      31.863  26.686  22.591  1.00  0.00     0.246 C 
ATOM     19  O   UNL A   1      31.524  26.367  21.452  1.00  0.00    -0.272 OA
BRANCH  18  20
ATOM     20  C   UNL A   1      32.509  28.062  22.810  1.00  0.00     0.178 C 
ATOM     21  N   UNL A   1      31.486  28.935  23.391  1.00  0.00    -0.296 N 
ATOM     22  C   UNL A   1      31.737  29.193  24.791  1.00  0.00     0.124 C 
ATOM     23  C   UNL A   1      33.249  29.091  24.883  1.00  0.00     0.024 C 
ATOM     24  C   UNL A   1      33.613  28.004  23.869  1.00  0.00     0.037 C 
BRANCH  21  25
ATOM     25  C   UNL A   1      30.364  29.283  22.686  1.00  0.00     0.410 C 
ATOM     26  O   UNL A   1      30.294  29.166  21.463  1.00  0.00    -0.224 OA
BRANCH  25  27
ATOM     27  O   UNL A   1      29.391  29.792  23.478  1.00  0.00    -0.444 OA
BRANCH  27  28
ATOM     28  C   UNL A   1      28.072  30.145  22.975  1.00  0.00     0.106 C 
ATOM     29  C   UNL A   1      27.256  28.847  23.066  1.00  0.00     0.056 C 
ATOM     30  C   UNL A   1      28.207  30.559  21.508  1.00  0.00     0.056 C 
ATOM     31  C   UNL A   1      27.332  31.223  23.779  1.00  0.00     0.056 C 
ENDBRANCH  27  28
ENDBRANCH  25  27
ENDBRANCH  21  25
ENDBRANCH  18  20
ENDBRANCH  14  18
ENDBRANCH  11  13
ENDBRANCH   7  11
ENDBRANCH   4   6
ENDBRANCH   3   4
ENDBRANCH   2   3
ENDBRANCH   1   2
BRANCH   1  32
ATOM     32  O   UNL A   1      39.258  22.915  26.803  1.00  0.00    -0.376 OA
BRANCH  32  33
ATOM     33  C   UNL A   1      39.527  21.750  26.039  1.00  0.00     0.188 C 
BRANCH  33  34
ATOM     34  C   UNL A   1      40.639  20.802  26.505  1.00  0.00     0.188 C 
BRANCH  34  35
ATOM     35  O   UNL A   1      40.661  19.542  25.882  1.00  0.00    -0.376 OA
BRANCH  35  36
ATOM     36  C   UNL A   1      41.866  18.798  25.891  1.00  0.00     0.202 C 
BRANCH  36  37
ATOM     37  C   UNL A   1      43.237  19.497  25.979  1.00  0.00     0.261 C 
BRANCH  37  38
ATOM     38  O   UNL A   1      43.628  20.339  24.883  1.00  0.00    -0.460 OA
BRANCH  38  39
ATOM     39  C   UNL A   1      44.942  20.365  24.550  1.00  0.00     0.338 C 
ATOM     40  O   UNL A   1      45.539  19.559  23.862  1.00  0.00    -0.246 OA
BRANCH  39  41
ATOM     41  C   UNL A   1      45.468  21.698  24.942  1.00  0.00     0.060 A 
ATOM     42  C   UNL A   1      45.625  21.996  26.306  1.00  0.00     0.016 A 
ATOM     43  C   UNL A   1      45.846  22.628  23.974  1.00  0.00     0.016 A 
ATOM     44  C   UNL A   1      46.142  23.230  26.704  1.00  0.00     0.010 A 
ATOM     45  C   UNL A   1      46.330  23.878  24.374  1.00  0.00     0.010 A 
ATOM     46  C   UNL A   1      46.453  24.196  25.739  1.00  0.00    -0.014 A 
BRANCH  46  47
ATOM     47  C   UNL A   1      46.684  25.604  26.147  1.00  0.00     0.031 A 
ATOM     48  C   UNL A   1      45.488  26.424  26.550  1.00  0.00     0.074 A 
ATOM     49  C   UNL A   1      47.912  26.151  26.166  1.00  0.00     0.049 A 
ATOM     50  N   UNL A   1      45.409  27.695  26.845  1.00  0.00    -0.248 NA
ATOM     51  C   UNL A   1      44.204  25.706  26.620  1.00  0.00     0.031 C 
ATOM     52  C   UNL A   1      49.157  25.453  25.856  1.00  0.00     0.029 A 
ATOM     53  N   UNL A   1      48.304  27.436  26.449  1.00  0.00    -0.354 N 
ATOM     54  C   UNL A   1      44.067  27.932  27.122  1.00  0.00     0.074 A 
ATOM     55  C   UNL A   1      43.366  26.682  26.932  1.00  0.00     0.031 C 
ATOM     56  C   UNL A   1      50.177  26.327  25.945  1.00  0.00     0.029 A 
ATOM     57  C   UNL A   1      49.651  27.650  26.278  1.00  0.00     0.049 A 
ATOM     58  H   UNL A   1      47.680  28.138  26.744  1.00  0.00     0.167 HD
ATOM     59  C   UNL A   1      43.474  29.087  27.505  1.00  0.00     0.037 A 
ATOM     60  C   UNL A   1      50.367  28.791  26.353  1.00  0.00     0.037 A 
ATOM     61  C   UNL A   1      44.172  30.331  27.689  1.00  0.00     0.049 A 
ATOM     62  C   UNL A   1      49.669  30.085  26.692  1.00  0.00     0.074 A 
ATOM     63  C   UNL A   1      43.661  31.553  28.088  1.00  0.00     0.029 A 
ATOM     64  N   UNL A   1      45.530  30.514  27.475  1.00  0.00    -0.354 N 
ATOM     65  N   UNL A   1      48.404  30.299  26.969  1.00  0.00    -0.248 NA
ATOM     66  C   UNL A   1      50.501  31.297  26.730  1.00  0.00     0.031 C 
ATOM     67  C   UNL A   1      44.699  32.491  28.056  1.00  0.00     0.029 A 
ATOM     68  C   UNL A   1      45.869  31.837  27.703  1.00  0.00     0.049 A 
ATOM     69  H   UNL A   1      46.159  29.808  27.201  1.00  0.00     0.167 HD
ATOM     70  C   UNL A   1      48.298  31.658  27.246  1.00  0.00     0.074 A 
ATOM     71  C   UNL A   1      49.627  32.216  27.116  1.00  0.00     0.031 C 
ATOM     72  C   UNL A   1      47.199  32.380  27.580  1.00  0.00     0.037 A 
BRANCH  59  73
ATOM     73  C   UNL A   1      41.988  29.062  27.714  1.00  0.00     0.057 A 
ATOM     74  C   UNL A   1      41.415  29.048  28.992  1.00  0.00     0.134 A 
ATOM     75  C   UNL A   1      41.117  29.075  26.617  1.00  0.00     0.134 A 
ATOM     76  F   UNL A   1      42.192  29.017  30.085  1.00  0.00    -0.206 F 
ATOM     77  C   UNL A   1      40.030  29.022  29.172  1.00  0.00     0.040 A 
ATOM     78  C   UNL A   1      39.731  29.080  26.783  1.00  0.00     0.040 A 
ATOM     79  F   UNL A   1      41.598  29.090  25.364  1.00  0.00    -0.206 F 
ATOM     80  C   UNL A   1      39.185  29.047  28.065  1.00  0.00     0.006 A 
ENDBRANCH  59  73
BRANCH  60  81
ATOM     81  C   UNL A   1      51.828  28.777  26.079  1.00  0.00     0.057 A 
ATOM     82  C   UNL A   1      52.762  28.701  27.118  1.00  0.00     0.134 A 
ATOM     83  C   UNL A   1      52.326  28.881  24.773  1.00  0.00     0.134 A 
ATOM     84  F   UNL A   1      52.349  28.631  28.392  1.00  0.00    -0.206 F 
ATOM     85  C   UNL A   1      54.137  28.747  26.874  1.00  0.00     0.040 A 
ATOM     86  C   UNL A   1      53.697  28.899  24.512  1.00  0.00     0.040 A 
ATOM     87  F   UNL A   1      51.486  28.964  23.732  1.00  0.00    -0.206 F 
ATOM     88  C   UNL A   1      54.607  28.842  25.565  1.00  0.00     0.006 A 
ENDBRANCH  60  81
BRANCH  72  89
ATOM     89  C   UNL A   1      47.389  33.841  27.876  1.00  0.00     0.057 A 
ATOM     90  C   UNL A   1      47.704  34.306  29.159  1.00  0.00     0.134 A 
ATOM     91  C   UNL A   1      47.299  34.792  26.850  1.00  0.00     0.134 A 
ATOM     92  F   UNL A   1      47.796  33.453  30.189  1.00  0.00    -0.206 F 
ATOM     93  C   UNL A   1      47.897  35.666  29.415  1.00  0.00     0.040 A 
ATOM     94  C   UNL A   1      47.522  36.149  27.087  1.00  0.00     0.040 A 
ATOM     95  F   UNL A   1      47.013  34.415  25.594  1.00  0.00    -0.206 F 
ATOM     96  C   UNL A   1      47.814  36.591  28.375  1.00  0.00     0.006 A 
ENDBRANCH  72  89
ENDBRANCH  46  47
ENDBRANCH  39  41
ENDBRANCH  38  39
ENDBRANCH  37  38
ENDBRANCH  36  37
ENDBRANCH  35  36
ENDBRANCH  34  35
ENDBRANCH  33  34
ENDBRANCH  32  33
ENDBRANCH   1  32
TORSDOF 24
ENDMDL
MODEL 3
REMARK VINA RESULT:      -9.5      1.435      2.412
REMARK SMILES CC(C)(C)OC(=O)N1CCC[C@H]1C(=O)N1CCC[C@H]1C(=O)N1CCC[C@@H]1C(=O)OCCOCCOCCOC(=O)c1ccc(-c2c3nc(c(-c4c(F)cccc4F)c4ccc([nH]4)c(-c4c(F)cccc4F)c4nc(c(-c5c(F)cccc5F)c5ccc2[nH]5)C=C4)C=C3)cc1
REMARK SMILES IDX 31 1 30 2 29 3 27 4 28 5 26 6 22 7 23 8 24 9 25 10 20 11
REMARK SMILES IDX 21 12 19 13 15 14 16 15 17 16 18 17 13 18 14 19 12 20 8 21
REMARK SMILES IDX 9 22 10 23 11 24 6 25 7 26 5 27 2 28 1 29 3 30 4 31 32 32
REMARK SMILES IDX 33 33 34 34 35 35 36 36 37 37 38 38 39 39 40 40 41 41 42 42
REMARK SMILES IDX 94 43 43 44 93 45 44 46 45 47 46 48 87 49 47 50 92 51 86 52
REMARK SMILES IDX 88 53 48 54 91 55 85 56 84 57 49 59 75 60 58 61 74 62 59 63
REMARK SMILES IDX 62 64 73 65 89 66 60 67 61 68 72 70 90 71 63 72 50 73 51 74
REMARK SMILES IDX 56 75 52 76 53 77 55 78 57 79 54 80 76 81 77 82 82 83 78 84
REMARK SMILES IDX 79 85 81 86 83 87 80 88 64 89 65 90 70 91 66 92 67 93 69 94
REMARK SMILES IDX 71 95 68 96
REMARK H PARENT 88 58 62 69
REMARK Flexibility Score: inf
ROOT
ATOM      1  C   UNL A   1      38.128  23.684  26.001  1.00  0.00     0.202 C 
ENDROOT
BRANCH   1   2
ATOM      2  C   UNL A   1      36.912  23.247  25.162  1.00  0.00     0.261 C 
BRANCH   2   3
ATOM      3  O   UNL A   1      36.667  21.824  25.045  1.00  0.00    -0.462 OA
BRANCH   3   4
ATOM      4  C   UNL A   1      35.501  21.377  25.573  1.00  0.00     0.328 C 
ATOM      5  O   UNL A   1      35.222  21.502  26.765  1.00  0.00    -0.250 OA
BRANCH   4   6
ATOM      6  C   UNL A   1      34.527  20.662  24.607  1.00  0.00     0.195 C 
ATOM      7  N   UNL A   1      33.313  21.418  24.399  1.00  0.00    -0.327 N 
ATOM      8  C   UNL A   1      32.328  20.582  23.752  1.00  0.00     0.120 C 
ATOM      9  C   UNL A   1      32.549  19.217  24.376  1.00  0.00     0.024 C 
ATOM     10  C   UNL A   1      33.998  19.245  24.875  1.00  0.00     0.039 C 
BRANCH   7  11
ATOM     11  C   UNL A   1      33.345  22.768  24.172  1.00  0.00     0.246 C 
ATOM     12  O   UNL A   1      33.877  23.255  23.177  1.00  0.00    -0.272 OA
BRANCH  11  13
ATOM     13  C   UNL A   1      32.510  23.598  25.184  1.00  0.00     0.174 C 
ATOM     14  N   UNL A   1      31.092  23.950  24.932  1.00  0.00    -0.329 N 
ATOM     15  C   UNL A   1      30.242  23.551  26.035  1.00  0.00     0.120 C 
ATOM     16  C   UNL A   1      31.183  23.313  27.195  1.00  0.00     0.024 C 
ATOM     17  C   UNL A   1      32.472  22.853  26.529  1.00  0.00     0.037 C 
BRANCH  14  18
ATOM     18  C   UNL A   1      30.741  24.847  23.944  1.00  0.00     0.246 C 
ATOM     19  O   UNL A   1      30.787  24.567  22.746  1.00  0.00    -0.272 OA
BRANCH  18  20
ATOM     20  C   UNL A   1      30.303  26.260  24.355  1.00  0.00     0.178 C 
ATOM     21  N   UNL A   1      31.119  27.207  23.590  1.00  0.00    -0.296 N 
ATOM     22  C   UNL A   1      30.352  27.854  22.550  1.00  0.00     0.124 C 
ATOM     23  C   UNL A   1      28.948  27.859  23.125  1.00  0.00     0.024 C 
ATOM     24  C   UNL A   1      28.864  26.553  23.921  1.00  0.00     0.037 C 
BRANCH  21  25
ATOM     25  C   UNL A   1      32.474  27.289  23.775  1.00  0.00     0.410 C 
ATOM     26  O   UNL A   1      33.257  26.493  23.257  1.00  0.00    -0.224 OA
BRANCH  25  27
ATOM     27  O   UNL A   1      32.824  28.300  24.605  1.00  0.00    -0.444 OA
BRANCH  27  28
ATOM     28  C   UNL A   1      33.039  28.108  26.032  1.00  0.00     0.106 C 
ATOM     29  C   UNL A   1      34.315  28.902  26.346  1.00  0.00     0.056 C 
ATOM     30  C   UNL A   1      33.290  26.620  26.289  1.00  0.00     0.056 C 
ATOM     31  C   UNL A   1      31.920  28.637  26.939  1.00  0.00     0.056 C 
ENDBRANCH  27  28
ENDBRANCH  25  27
ENDBRANCH  21  25
ENDBRANCH  18  20
ENDBRANCH  14  18
ENDBRANCH  11  13
ENDBRANCH   7  11
ENDBRANCH   4   6
ENDBRANCH   3   4
ENDBRANCH   2   3
ENDBRANCH   1   2
BRANCH   1  32
ATOM     32  O   UNL A   1      38.876  22.730  26.746  1.00  0.00    -0.376 OA
BRANCH  32  33
ATOM     33  C   UNL A   1      40.011  22.128  26.144  1.00  0.00     0.188 C 
BRANCH  33  34
ATOM     34  C   UNL A   1      41.288  21.962  26.977  1.00  0.00     0.188 C 
BRANCH  34  35
ATOM     35  O   UNL A   1      42.403  21.460  26.285  1.00  0.00    -0.376 OA
BRANCH  35  36
ATOM     36  C   UNL A   1      43.057  22.296  25.347  1.00  0.00     0.202 C 
BRANCH  36  37
ATOM     37  C   UNL A   1      42.666  23.779  25.189  1.00  0.00     0.261 C 
BRANCH  37  38
ATOM     38  O   UNL A   1      43.728  24.742  25.088  1.00  0.00    -0.460 OA
BRANCH  38  39
ATOM     39  C   UNL A   1      44.729  24.669  25.998  1.00  0.00     0.338 C 
ATOM     40  O   UNL A   1      45.833  24.183  25.835  1.00  0.00    -0.246 OA
BRANCH  39  41
ATOM     41  C   UNL A   1      44.344  25.531  27.144  1.00  0.00     0.060 A 
ATOM     42  C   UNL A   1      43.588  24.978  28.192  1.00  0.00     0.016 A 
ATOM     43  C   UNL A   1      44.763  26.860  27.210  1.00  0.00     0.016 A 
ATOM     44  C   UNL A   1      43.235  25.756  29.295  1.00  0.00     0.010 A 
ATOM     45  C   UNL A   1      44.378  27.649  28.298  1.00  0.00     0.010 A 
ATOM     46  C   UNL A   1      43.588  27.110  29.331  1.00  0.00    -0.014 A 
BRANCH  46  47
ATOM     47  C   UNL A   1      42.949  28.018  30.316  1.00  0.00     0.031 A 
ATOM     48  C   UNL A   1      43.571  28.123  31.681  1.00  0.00     0.074 A 
ATOM     49  C   UNL A   1      41.850  28.734  30.019  1.00  0.00     0.049 A 
ATOM     50  N   UNL A   1      43.150  28.759  32.743  1.00  0.00    -0.248 NA
ATOM     51  C   UNL A   1      44.841  27.402  31.872  1.00  0.00     0.031 C 
ATOM     52  C   UNL A   1      41.184  28.769  28.721  1.00  0.00     0.029 A 
ATOM     53  N   UNL A   1      41.094  29.564  30.811  1.00  0.00    -0.354 N 
ATOM     54  C   UNL A   1      44.095  28.504  33.731  1.00  0.00     0.074 A 
ATOM     55  C   UNL A   1      45.093  27.634  33.151  1.00  0.00     0.031 C 
ATOM     56  C   UNL A   1      40.101  29.564  28.810  1.00  0.00     0.029 A 
ATOM     57  C   UNL A   1      39.980  30.061  30.180  1.00  0.00     0.049 A 
ATOM     58  H   UNL A   1      41.329  29.782  31.742  1.00  0.00     0.167 HD
ATOM     59  C   UNL A   1      44.129  28.958  35.006  1.00  0.00     0.037 A 
ATOM     60  C   UNL A   1      38.964  30.804  30.665  1.00  0.00     0.037 A 
ATOM     61  C   UNL A   1      43.133  29.821  35.583  1.00  0.00     0.049 A 
ATOM     62  C   UNL A   1      38.977  31.223  32.114  1.00  0.00     0.074 A 
ATOM     63  C   UNL A   1      43.086  30.345  36.862  1.00  0.00     0.029 A 
ATOM     64  N   UNL A   1      42.002  30.275  34.921  1.00  0.00    -0.354 N 
ATOM     65  N   UNL A   1      39.880  30.993  33.038  1.00  0.00    -0.248 NA
ATOM     66  C   UNL A   1      37.827  32.008  32.588  1.00  0.00     0.031 C 
ATOM     67  C   UNL A   1      41.896  31.068  36.994  1.00  0.00     0.029 A 
ATOM     68  C   UNL A   1      41.235  31.049  35.776  1.00  0.00     0.049 A 
ATOM     69  H   UNL A   1      41.778  30.077  33.983  1.00  0.00     0.167 HD
ATOM     70  C   UNL A   1      39.424  31.631  34.187  1.00  0.00     0.074 A 
ATOM     71  C   UNL A   1      38.172  32.268  33.842  1.00  0.00     0.031 C 
ATOM     72  C   UNL A   1      39.993  31.687  35.417  1.00  0.00     0.037 A 
BRANCH  59  73
ATOM     73  C   UNL A   1      45.266  28.497  35.871  1.00  0.00     0.057 A 
ATOM     74  C   UNL A   1      46.457  29.225  35.986  1.00  0.00     0.134 A 
ATOM     75  C   UNL A   1      45.155  27.319  36.619  1.00  0.00     0.134 A 
ATOM     76  F   UNL A   1      46.636  30.354  35.283  1.00  0.00    -0.206 F 
ATOM     77  C   UNL A   1      47.508  28.783  36.792  1.00  0.00     0.040 A 
ATOM     78  C   UNL A   1      46.186  26.882  37.453  1.00  0.00     0.040 A 
ATOM     79  F   UNL A   1      44.041  26.574  36.558  1.00  0.00    -0.206 F 
ATOM     80  C   UNL A   1      47.370  27.613  37.535  1.00  0.00     0.006 A 
ENDBRANCH  59  73
BRANCH  60  81
ATOM     81  C   UNL A   1      37.829  31.186  29.785  1.00  0.00     0.057 A 
ATOM     82  C   UNL A   1      37.800  32.423  29.130  1.00  0.00     0.134 A 
ATOM     83  C   UNL A   1      36.725  30.341  29.609  1.00  0.00     0.134 A 
ATOM     84  F   UNL A   1      38.812  33.289  29.282  1.00  0.00    -0.206 F 
ATOM     85  C   UNL A   1      36.711  32.814  28.348  1.00  0.00     0.040 A 
ATOM     86  C   UNL A   1      35.643  30.707  28.808  1.00  0.00     0.040 A 
ATOM     87  F   UNL A   1      36.685  29.145  30.213  1.00  0.00    -0.206 F 
ATOM     88  C   UNL A   1      35.629  31.951  28.182  1.00  0.00     0.006 A 
ENDBRANCH  60  81
BRANCH  72  89
ATOM     89  C   UNL A   1      39.295  32.501  36.471  1.00  0.00     0.057 A 
ATOM     90  C   UNL A   1      38.258  31.976  37.252  1.00  0.00     0.134 A 
ATOM     91  C   UNL A   1      39.700  33.816  36.737  1.00  0.00     0.134 A 
ATOM     92  F   UNL A   1      37.813  30.727  37.045  1.00  0.00    -0.206 F 
ATOM     93  C   UNL A   1      37.631  32.738  38.241  1.00  0.00     0.040 A 
ATOM     94  C   UNL A   1      39.104  34.576  37.744  1.00  0.00     0.040 A 
ATOM     95  F   UNL A   1      40.696  34.377  36.036  1.00  0.00    -0.206 F 
ATOM     96  C   UNL A   1      38.060  34.040  38.495  1.00  0.00     0.006 A 
ENDBRANCH  72  89
ENDBRANCH  46  47
ENDBRANCH  39  41
ENDBRANCH  38  39
ENDBRANCH  37  38
ENDBRANCH  36  37
ENDBRANCH  35  36
ENDBRANCH  34  35
ENDBRANCH  33  34
ENDBRANCH  32  33
ENDBRANCH   1  32
TORSDOF 24
ENDMDL
