MODEL 1
REMARK VINA RESULT:     -11.1      0.000      0.000
REMARK SMILES CC(C)CN(C)c1cc2c(cc1Cl)C=C(C(=O)OCCOCCOCCOC(=O)c1ccc(-c3c4nc(c(-c5c(F)cccc5F)c5ccc([nH]5)c(-c5c(F)cccc5F)c5nc(c(-c6c(F)cccc6F)c6ccc3[nH]6)C=C5)C=C4)cc1)[C@@H](C(F)(F)F)O2
REMARK SMILES IDX 22 1 21 2 20 3 19 4 18 5 16 6 17 7 15 8 7 9 8 10 12 11 9 12
REMARK SMILES IDX 11 13 13 14 10 15 89 16 14 17 84 18 5 19 6 20 4 21 2 22 1 23
REMARK SMILES IDX 3 24 85 25 86 26 87 27 88 28 23 29 24 30 25 31 26 32 27 33
REMARK SMILES IDX 28 34 29 35 30 36 31 37 83 38 32 39 82 40 33 41 34 42 35 43
REMARK SMILES IDX 76 44 36 45 81 46 75 47 77 48 37 49 80 50 74 51 73 52 38 54
REMARK SMILES IDX 64 55 47 56 63 57 48 58 51 59 62 60 78 61 49 62 50 63 61 65
REMARK SMILES IDX 79 66 52 67 39 68 40 69 45 70 41 71 42 72 44 73 46 74 43 75
REMARK SMILES IDX 65 76 66 77 71 78 67 79 68 80 70 81 72 82 69 83 53 84 54 85
REMARK SMILES IDX 59 86 55 87 56 88 58 89 60 90 57 91
REMARK H PARENT 77 53 51 64
REMARK Flexibility Score: inf
ROOT
ATOM      1  C   UNL A   1      40.761  20.188  26.231  1.00  0.00     0.188 C 
ENDROOT
BRANCH   1   2
ATOM      2  O   UNL A   1      40.106  21.365  26.638  1.00  0.00    -0.376 OA
BRANCH   2   3
ATOM      3  C   UNL A   1      39.217  22.056  25.778  1.00  0.00     0.202 C 
BRANCH   3   4
ATOM      4  C   UNL A   1      37.763  21.657  25.462  1.00  0.00     0.261 C 
BRANCH   4   5
ATOM      5  O   UNL A   1      36.861  22.704  25.101  1.00  0.00    -0.460 OA
BRANCH   5   6
ATOM      6  C   UNL A   1      35.596  22.535  25.552  1.00  0.00     0.338 C 
ATOM      7  O   UNL A   1      35.243  21.816  26.474  1.00  0.00    -0.246 OA
BRANCH   6   8
ATOM      8  C   UNL A   1      34.684  23.478  24.885  1.00  0.00     0.087 C 
ATOM      9  C   UNL A   1      31.359  27.181  24.218  1.00  0.00     0.059 A 
ATOM     10  C   UNL A   1      31.797  26.103  23.415  1.00  0.00     0.074 A 
ATOM     11  C   UNL A   1      32.044  27.390  25.435  1.00  0.00     0.065 A 
ATOM     12  C   UNL A   1      32.842  25.263  23.827  1.00  0.00     0.130 A 
ATOM     13  C   UNL A   1      33.168  26.638  25.777  1.00  0.00     0.034 A 
ATOM     14  Cl  UNL A   1      31.475  28.456  26.675  1.00  0.00    -0.082 Cl
ATOM     15  C   UNL A   1      33.547  25.558  24.990  1.00  0.00     0.019 A 
ATOM     16  O   UNL A   1      33.122  24.160  23.061  1.00  0.00    -0.475 OA
ATOM     17  C   UNL A   1      34.596  24.681  25.462  1.00  0.00     0.027 C 
ATOM     18  C   UNL A   1      33.859  23.064  23.697  1.00  0.00     0.316 C 
BRANCH   9  19
ATOM     19  N   UNL A   1      30.243  27.946  23.850  1.00  0.00    -0.373 N 
ATOM     20  C   UNL A   1      29.025  27.191  23.559  1.00  0.00     0.143 C 
BRANCH  19  21
ATOM     21  C   UNL A   1      30.433  29.209  23.103  1.00  0.00     0.119 C 
BRANCH  21  22
ATOM     22  C   UNL A   1      29.174  30.100  23.078  1.00  0.00     0.002 C 
ATOM     23  C   UNL A   1      29.342  31.337  23.965  1.00  0.00     0.009 C 
ATOM     24  C   UNL A   1      28.807  30.551  21.661  1.00  0.00     0.009 C 
ENDBRANCH  21  22
ENDBRANCH  19  21
ENDBRANCH   9  19
BRANCH  18  25
ATOM     25  C   UNL A   1      32.909  21.913  24.053  1.00  0.00     0.430 C 
ATOM     26  F   UNL A   1      32.351  22.087  25.273  1.00  0.00    -0.167 F 
ATOM     27  F   UNL A   1      31.889  21.827  23.165  1.00  0.00    -0.167 F 
ATOM     28  F   UNL A   1      33.538  20.716  24.059  1.00  0.00    -0.167 F 
ENDBRANCH  18  25
ENDBRANCH   6   8
ENDBRANCH   5   6
ENDBRANCH   4   5
ENDBRANCH   3   4
ENDBRANCH   2   3
ENDBRANCH   1   2
BRANCH   1  29
ATOM     29  C   UNL A   1      42.298  20.136  26.362  1.00  0.00     0.188 C 
BRANCH  29  30
ATOM     30  O   UNL A   1      43.128  20.392  25.245  1.00  0.00    -0.376 OA
BRANCH  30  31
ATOM     31  C   UNL A   1      44.150  21.374  25.343  1.00  0.00     0.202 C 
BRANCH  31  32
ATOM     32  C   UNL A   1      44.311  22.491  24.300  1.00  0.00     0.261 C 
BRANCH  32  33
ATOM     33  O   UNL A   1      43.676  23.737  24.621  1.00  0.00    -0.460 OA
BRANCH  33  34
ATOM     34  C   UNL A   1      44.500  24.712  25.077  1.00  0.00     0.338 C 
ATOM     35  O   UNL A   1      45.579  25.048  24.617  1.00  0.00    -0.246 OA
BRANCH  34  36
ATOM     36  C   UNL A   1      43.797  25.475  26.126  1.00  0.00     0.060 A 
ATOM     37  C   UNL A   1      42.774  24.887  26.870  1.00  0.00     0.016 A 
ATOM     38  C   UNL A   1      44.178  26.804  26.364  1.00  0.00     0.016 A 
ATOM     39  C   UNL A   1      42.148  25.629  27.874  1.00  0.00     0.010 A 
ATOM     40  C   UNL A   1      43.538  27.549  27.355  1.00  0.00     0.010 A 
ATOM     41  C   UNL A   1      42.534  26.956  28.133  1.00  0.00    -0.014 A 
BRANCH  41  42
ATOM     42  C   UNL A   1      42.000  27.655  29.327  1.00  0.00     0.031 A 
ATOM     43  C   UNL A   1      42.645  27.534  30.674  1.00  0.00     0.074 A 
ATOM     44  C   UNL A   1      40.907  28.424  29.168  1.00  0.00     0.049 A 
ATOM     45  N   UNL A   1      42.351  28.167  31.782  1.00  0.00    -0.248 NA
ATOM     46  C   UNL A   1      43.755  26.581  30.798  1.00  0.00     0.031 C 
ATOM     47  C   UNL A   1      40.169  28.583  27.913  1.00  0.00     0.029 A 
ATOM     48  N   UNL A   1      40.232  29.217  30.057  1.00  0.00    -0.354 N 
ATOM     49  C   UNL A   1      43.266  27.725  32.728  1.00  0.00     0.074 A 
ATOM     50  C   UNL A   1      44.084  26.719  32.077  1.00  0.00     0.031 C 
ATOM     51  C   UNL A   1      39.152  29.436  28.110  1.00  0.00     0.029 A 
ATOM     52  C   UNL A   1      39.158  29.869  29.503  1.00  0.00     0.049 A 
ATOM     53  H   UNL A   1      40.491  29.310  31.003  1.00  0.00     0.167 HD
ATOM     54  C   UNL A   1      43.424  28.141  34.009  1.00  0.00     0.037 A 
ATOM     55  C   UNL A   1      38.279  30.723  30.056  1.00  0.00     0.037 A 
ATOM     56  C   UNL A   1      42.580  29.111  34.665  1.00  0.00     0.049 A 
ATOM     57  C   UNL A   1      38.442  31.117  31.497  1.00  0.00     0.074 A 
ATOM     58  C   UNL A   1      42.667  29.597  35.959  1.00  0.00     0.029 A 
ATOM     59  N   UNL A   1      41.485  29.732  34.083  1.00  0.00    -0.354 N 
ATOM     60  N   UNL A   1      39.364  30.756  32.355  1.00  0.00    -0.248 NA
ATOM     61  C   UNL A   1      37.447  32.051  32.041  1.00  0.00     0.031 C 
ATOM     62  C   UNL A   1      41.602  30.479  36.173  1.00  0.00     0.029 A 
ATOM     63  C   UNL A   1      40.878  30.581  34.997  1.00  0.00     0.049 A 
ATOM     64  H   UNL A   1      41.183  29.590  33.156  1.00  0.00     0.167 HD
ATOM     65  C   UNL A   1      39.076  31.437  33.530  1.00  0.00     0.074 A 
ATOM     66  C   UNL A   1      37.911  32.254  33.265  1.00  0.00     0.031 C 
ATOM     67  C   UNL A   1      39.717  31.389  34.724  1.00  0.00     0.037 A 
BRANCH  54  68
ATOM     68  C   UNL A   1      44.570  27.562  34.788  1.00  0.00     0.057 A 
ATOM     69  C   UNL A   1      45.825  28.183  34.806  1.00  0.00     0.134 A 
ATOM     70  C   UNL A   1      44.444  26.342  35.466  1.00  0.00     0.134 A 
ATOM     71  F   UNL A   1      46.020  29.346  34.166  1.00  0.00    -0.206 F 
ATOM     72  C   UNL A   1      46.913  27.610  35.467  1.00  0.00     0.040 A 
ATOM     73  C   UNL A   1      45.518  25.770  36.150  1.00  0.00     0.040 A 
ATOM     74  F   UNL A   1      43.268  25.696  35.490  1.00  0.00    -0.206 F 
ATOM     75  C   UNL A   1      46.761  26.402  36.146  1.00  0.00     0.006 A 
ENDBRANCH  54  68
BRANCH  55  76
ATOM     76  C   UNL A   1      37.163  31.276  29.248  1.00  0.00     0.057 A 
ATOM     77  C   UNL A   1      35.992  30.539  29.032  1.00  0.00     0.134 A 
ATOM     78  C   UNL A   1      37.221  32.569  28.718  1.00  0.00     0.134 A 
ATOM     79  F   UNL A   1      35.880  29.290  29.506  1.00  0.00    -0.206 F 
ATOM     80  C   UNL A   1      34.914  31.073  28.326  1.00  0.00     0.040 A 
ATOM     81  C   UNL A   1      36.138  33.127  28.035  1.00  0.00     0.040 A 
ATOM     82  F   UNL A   1      38.310  33.327  28.906  1.00  0.00    -0.206 F 
ATOM     83  C   UNL A   1      34.980  32.377  27.840  1.00  0.00     0.006 A 
ENDBRANCH  55  76
BRANCH  67  84
ATOM     84  C   UNL A   1      39.180  32.266  35.818  1.00  0.00     0.057 A 
ATOM     85  C   UNL A   1      38.258  31.769  36.747  1.00  0.00     0.134 A 
ATOM     86  C   UNL A   1      39.579  33.603  35.959  1.00  0.00     0.134 A 
ATOM     87  F   UNL A   1      37.827  30.501  36.668  1.00  0.00    -0.206 F 
ATOM     88  C   UNL A   1      37.757  32.565  37.778  1.00  0.00     0.040 A 
ATOM     89  C   UNL A   1      39.109  34.401  37.003  1.00  0.00     0.040 A 
ATOM     90  F   UNL A   1      40.474  34.137  35.113  1.00  0.00    -0.206 F 
ATOM     91  C   UNL A   1      38.192  33.882  37.915  1.00  0.00     0.006 A 
ENDBRANCH  67  84
ENDBRANCH  41  42
ENDBRANCH  34  36
ENDBRANCH  33  34
ENDBRANCH  32  33
ENDBRANCH  31  32
ENDBRANCH  30  31
ENDBRANCH  29  30
ENDBRANCH   1  29
TORSDOF 21
ENDMDL
MODEL 2
REMARK VINA RESULT:     -10.9      0.516      5.950
REMARK SMILES CC(C)CN(C)c1cc2c(cc1Cl)C=C(C(=O)OCCOCCOCCOC(=O)c1ccc(-c3c4nc(c(-c5c(F)cccc5F)c5ccc([nH]5)c(-c5c(F)cccc5F)c5nc(c(-c6c(F)cccc6F)c6ccc3[nH]6)C=C5)C=C4)cc1)[C@@H](C(F)(F)F)O2
REMARK SMILES IDX 22 1 21 2 20 3 19 4 18 5 16 6 17 7 15 8 7 9 8 10 12 11 9 12
REMARK SMILES IDX 11 13 13 14 10 15 89 16 14 17 84 18 5 19 6 20 4 21 2 22 1 23
REMARK SMILES IDX 3 24 85 25 86 26 87 27 88 28 23 29 24 30 25 31 26 32 27 33
REMARK SMILES IDX 28 34 29 35 30 36 31 37 83 38 32 39 82 40 33 41 34 42 35 43
REMARK SMILES IDX 76 44 36 45 81 46 75 47 77 48 37 49 80 50 74 51 73 52 38 54
REMARK SMILES IDX 64 55 47 56 63 57 48 58 51 59 62 60 78 61 49 62 50 63 61 65
REMARK SMILES IDX 79 66 52 67 39 68 40 69 45 70 41 71 42 72 44 73 46 74 43 75
REMARK SMILES IDX 65 76 66 77 71 78 67 79 68 80 70 81 72 82 69 83 53 84 54 85
REMARK SMILES IDX 59 86 55 87 56 88 58 89 60 90 57 91
REMARK H PARENT 77 53 51 64
REMARK Flexibility Score: inf
ROOT
ATOM      1  C   UNL A   1      40.794  20.136  26.642  1.00  0.00     0.188 C 
ENDROOT
BRANCH   1   2
ATOM      2  O   UNL A   1      40.025  21.188  27.173  1.00  0.00    -0.376 OA
BRANCH   2   3
ATOM      3  C   UNL A   1      39.349  22.112  26.337  1.00  0.00     0.202 C 
BRANCH   3   4
ATOM      4  C   UNL A   1      38.113  21.815  25.468  1.00  0.00     0.261 C 
BRANCH   4   5
ATOM      5  O   UNL A   1      37.131  22.847  25.352  1.00  0.00    -0.460 OA
BRANCH   5   6
ATOM      6  C   UNL A   1      35.867  22.450  25.625  1.00  0.00     0.338 C 
ATOM      7  O   UNL A   1      35.532  21.576  26.409  1.00  0.00    -0.246 OA
BRANCH   6   8
ATOM      8  C   UNL A   1      34.898  23.340  24.964  1.00  0.00     0.087 C 
ATOM      9  C   UNL A   1      31.353  26.839  24.323  1.00  0.00     0.059 A 
ATOM     10  C   UNL A   1      31.854  25.793  23.514  1.00  0.00     0.074 A 
ATOM     11  C   UNL A   1      32.027  27.082  25.541  1.00  0.00     0.065 A 
ATOM     12  C   UNL A   1      32.949  25.016  23.919  1.00  0.00     0.130 A 
ATOM     13  C   UNL A   1      33.195  26.397  25.877  1.00  0.00     0.034 A 
ATOM     14  Cl  UNL A   1      31.395  28.103  26.788  1.00  0.00    -0.082 Cl
ATOM     15  C   UNL A   1      33.637  25.347  25.083  1.00  0.00     0.019 A 
ATOM     16  O   UNL A   1      33.294  23.936  23.146  1.00  0.00    -0.475 OA
ATOM     17  C   UNL A   1      34.738  24.532  25.548  1.00  0.00     0.027 C 
ATOM     18  C   UNL A   1      34.097  22.884  23.775  1.00  0.00     0.316 C 
BRANCH   9  19
ATOM     19  N   UNL A   1      30.192  27.536  23.961  1.00  0.00    -0.373 N 
ATOM     20  C   UNL A   1      28.989  26.722  23.796  1.00  0.00     0.143 C 
BRANCH  19  21
ATOM     21  C   UNL A   1      30.297  28.743  23.111  1.00  0.00     0.119 C 
BRANCH  21  22
ATOM     22  C   UNL A   1      29.039  29.634  23.159  1.00  0.00     0.002 C 
ATOM     23  C   UNL A   1      29.324  30.976  23.842  1.00  0.00     0.009 C 
ATOM     24  C   UNL A   1      28.459  29.900  21.766  1.00  0.00     0.009 C 
ENDBRANCH  21  22
ENDBRANCH  19  21
ENDBRANCH   9  19
BRANCH  18  25
ATOM     25  C   UNL A   1      33.220  21.674  24.126  1.00  0.00     0.430 C 
ATOM     26  F   UNL A   1      32.591  21.842  25.312  1.00  0.00    -0.167 F 
ATOM     27  F   UNL A   1      32.253  21.485  23.194  1.00  0.00    -0.167 F 
ATOM     28  F   UNL A   1      33.935  20.530  24.201  1.00  0.00    -0.167 F 
ENDBRANCH  18  25
ENDBRANCH   6   8
ENDBRANCH   5   6
ENDBRANCH   4   5
ENDBRANCH   3   4
ENDBRANCH   2   3
ENDBRANCH   1   2
BRANCH   1  29
ATOM     29  C   UNL A   1      42.325  20.322  26.579  1.00  0.00     0.188 C 
BRANCH  29  30
ATOM     30  O   UNL A   1      42.964  20.644  25.358  1.00  0.00    -0.376 OA
BRANCH  30  31
ATOM     31  C   UNL A   1      44.068  21.538  25.362  1.00  0.00     0.202 C 
BRANCH  31  32
ATOM     32  C   UNL A   1      44.186  22.694  24.355  1.00  0.00     0.261 C 
BRANCH  32  33
ATOM     33  O   UNL A   1      43.585  23.932  24.758  1.00  0.00    -0.460 OA
BRANCH  33  34
ATOM     34  C   UNL A   1      44.444  24.879  25.210  1.00  0.00     0.338 C 
ATOM     35  O   UNL A   1      45.550  25.149  24.771  1.00  0.00    -0.246 OA
BRANCH  34  36
ATOM     36  C   UNL A   1      43.752  25.705  26.218  1.00  0.00     0.060 A 
ATOM     37  C   UNL A   1      42.966  25.113  27.207  1.00  0.00     0.016 A 
ATOM     38  C   UNL A   1      43.900  27.099  26.164  1.00  0.00     0.016 A 
ATOM     39  C   UNL A   1      42.347  25.923  28.162  1.00  0.00     0.010 A 
ATOM     40  C   UNL A   1      43.266  27.907  27.109  1.00  0.00     0.010 A 
ATOM     41  C   UNL A   1      42.504  27.320  28.129  1.00  0.00    -0.014 A 
BRANCH  41  42
ATOM     42  C   UNL A   1      42.008  28.140  29.261  1.00  0.00     0.031 A 
ATOM     43  C   UNL A   1      40.768  28.973  29.156  1.00  0.00     0.074 A 
ATOM     44  C   UNL A   1      42.707  28.109  30.411  1.00  0.00     0.049 A 
ATOM     45  N   UNL A   1      40.160  29.658  30.093  1.00  0.00    -0.248 NA
ATOM     46  C   UNL A   1      40.131  29.058  27.836  1.00  0.00     0.031 C 
ATOM     47  C   UNL A   1      43.953  27.367  30.616  1.00  0.00     0.029 A 
ATOM     48  N   UNL A   1      42.470  28.706  31.620  1.00  0.00    -0.354 N 
ATOM     49  C   UNL A   1      39.043  30.219  29.491  1.00  0.00     0.074 A 
ATOM     50  C   UNL A   1      39.095  29.848  28.090  1.00  0.00     0.031 C 
ATOM     51  C   UNL A   1      44.361  27.541  31.882  1.00  0.00     0.029 A 
ATOM     52  C   UNL A   1      43.418  28.416  32.570  1.00  0.00     0.049 A 
ATOM     53  H   UNL A   1      41.694  29.288  31.792  1.00  0.00     0.167 HD
ATOM     54  C   UNL A   1      38.054  30.951  30.062  1.00  0.00     0.037 A 
ATOM     55  C   UNL A   1      43.513  28.809  33.852  1.00  0.00     0.037 A 
ATOM     56  C   UNL A   1      38.029  31.355  31.447  1.00  0.00     0.049 A 
ATOM     57  C   UNL A   1      42.434  29.673  34.440  1.00  0.00     0.074 A 
ATOM     58  C   UNL A   1      37.067  32.094  32.115  1.00  0.00     0.029 A 
ATOM     59  N   UNL A   1      39.019  31.066  32.375  1.00  0.00    -0.354 N 
ATOM     60  N   UNL A   1      41.339  30.125  33.880  1.00  0.00    -0.248 NA
ATOM     61  C   UNL A   1      42.600  30.070  35.845  1.00  0.00     0.031 C 
ATOM     62  C   UNL A   1      37.493  32.287  33.433  1.00  0.00     0.029 A 
ATOM     63  C   UNL A   1      38.699  31.628  33.602  1.00  0.00     0.049 A 
ATOM     64  H   UNL A   1      39.830  30.539  32.189  1.00  0.00     0.167 HD
ATOM     65  C   UNL A   1      40.673  30.836  34.870  1.00  0.00     0.074 A 
ATOM     66  C   UNL A   1      41.474  30.731  36.072  1.00  0.00     0.031 C 
ATOM     67  C   UNL A   1      39.504  31.519  34.792  1.00  0.00     0.037 A 
BRANCH  54  68
ATOM     68  C   UNL A   1      36.898  31.351  29.190  1.00  0.00     0.057 A 
ATOM     69  C   UNL A   1      36.784  32.651  28.684  1.00  0.00     0.134 A 
ATOM     70  C   UNL A   1      35.857  30.455  28.911  1.00  0.00     0.134 A 
ATOM     71  F   UNL A   1      37.737  33.563  28.925  1.00  0.00    -0.206 F 
ATOM     72  C   UNL A   1      35.673  33.048  27.936  1.00  0.00     0.040 A 
ATOM     73  C   UNL A   1      34.752  30.832  28.144  1.00  0.00     0.040 A 
ATOM     74  F   UNL A   1      35.906  29.193  29.363  1.00  0.00    -0.206 F 
ATOM     75  C   UNL A   1      34.655  32.136  27.660  1.00  0.00     0.006 A 
ENDBRANCH  54  68
BRANCH  55  76
ATOM     76  C   UNL A   1      44.671  28.386  34.680  1.00  0.00     0.057 A 
ATOM     77  C   UNL A   1      45.769  29.232  34.873  1.00  0.00     0.134 A 
ATOM     78  C   UNL A   1      44.682  27.150  35.336  1.00  0.00     0.134 A 
ATOM     79  F   UNL A   1      45.823  30.425  34.263  1.00  0.00    -0.206 F 
ATOM     80  C   UNL A   1      46.834  28.868  35.699  1.00  0.00     0.040 A 
ATOM     81  C   UNL A   1      45.726  26.786  36.188  1.00  0.00     0.040 A 
ATOM     82  F   UNL A   1      43.650  26.305  35.201  1.00  0.00    -0.206 F 
ATOM     83  C   UNL A   1      46.805  27.648  36.371  1.00  0.00     0.006 A 
ENDBRANCH  55  76
BRANCH  67  84
ATOM     84  C   UNL A   1      39.018  32.177  36.051  1.00  0.00     0.057 A 
ATOM     85  C   UNL A   1      39.408  33.484  36.371  1.00  0.00     0.134 A 
ATOM     86  C   UNL A   1      38.158  31.524  36.944  1.00  0.00     0.134 A 
ATOM     87  F   UNL A   1      40.234  34.166  35.565  1.00  0.00    -0.206 F 
ATOM     88  C   UNL A   1      38.956  34.118  37.531  1.00  0.00     0.040 A 
ATOM     89  C   UNL A   1      37.675  32.157  38.091  1.00  0.00     0.040 A 
ATOM     90  F   UNL A   1      37.731  30.277  36.688  1.00  0.00    -0.206 F 
ATOM     91  C   UNL A   1      38.078  33.458  38.388  1.00  0.00     0.006 A 
ENDBRANCH  67  84
ENDBRANCH  41  42
ENDBRANCH  34  36
ENDBRANCH  33  34
ENDBRANCH  32  33
ENDBRANCH  31  32
ENDBRANCH  30  31
ENDBRANCH  29  30
ENDBRANCH   1  29
TORSDOF 21
ENDMDL
MODEL 3
REMARK VINA RESULT:     -10.7      4.028      6.124
REMARK SMILES CC(C)CN(C)c1cc2c(cc1Cl)C=C(C(=O)OCCOCCOCCOC(=O)c1ccc(-c3c4nc(c(-c5c(F)cccc5F)c5ccc([nH]5)c(-c5c(F)cccc5F)c5nc(c(-c6c(F)cccc6F)c6ccc3[nH]6)C=C5)C=C4)cc1)[C@@H](C(F)(F)F)O2
REMARK SMILES IDX 22 1 21 2 20 3 19 4 18 5 16 6 17 7 15 8 7 9 8 10 12 11 9 12
REMARK SMILES IDX 11 13 13 14 10 15 89 16 14 17 84 18 5 19 6 20 4 21 2 22 1 23
REMARK SMILES IDX 3 24 85 25 86 26 87 27 88 28 23 29 24 30 25 31 26 32 27 33
REMARK SMILES IDX 28 34 29 35 30 36 31 37 83 38 32 39 82 40 33 41 34 42 35 43
REMARK SMILES IDX 76 44 36 45 81 46 75 47 77 48 37 49 80 50 74 51 73 52 38 54
REMARK SMILES IDX 64 55 47 56 63 57 48 58 51 59 62 60 78 61 49 62 50 63 61 65
REMARK SMILES IDX 79 66 52 67 39 68 40 69 45 70 41 71 42 72 44 73 46 74 43 75
REMARK SMILES IDX 65 76 66 77 71 78 67 79 68 80 70 81 72 82 69 83 53 84 54 85
REMARK SMILES IDX 59 86 55 87 56 88 58 89 60 90 57 91
REMARK H PARENT 77 53 51 64
REMARK Flexibility Score: inf
ROOT
ATOM      1  C   UNL A   1      37.404  23.595  25.955  1.00  0.00     0.188 C 
ENDROOT
BRANCH   1   2
ATOM      2  O   UNL A   1      36.876  23.604  24.651  1.00  0.00    -0.376 OA
BRANCH   2   3
ATOM      3  C   UNL A   1      36.398  22.421  24.034  1.00  0.00     0.202 C 
BRANCH   3   4
ATOM      4  C   UNL A   1      35.349  21.453  24.614  1.00  0.00     0.261 C 
BRANCH   4   5
ATOM      5  O   UNL A   1      34.079  22.003  24.970  1.00  0.00    -0.460 OA
BRANCH   5   6
ATOM      6  C   UNL A   1      33.111  21.820  24.042  1.00  0.00     0.338 C 
ATOM      7  O   UNL A   1      32.767  20.757  23.548  1.00  0.00    -0.246 OA
BRANCH   6   8
ATOM      8  C   UNL A   1      32.380  23.078  23.811  1.00  0.00     0.087 C 
ATOM      9  C   UNL A   1      31.464  27.974  23.181  1.00  0.00     0.059 A 
ATOM     10  C   UNL A   1      30.652  26.858  23.485  1.00  0.00     0.074 A 
ATOM     11  C   UNL A   1      32.814  27.712  22.859  1.00  0.00     0.065 A 
ATOM     12  C   UNL A   1      31.174  25.556  23.496  1.00  0.00     0.130 A 
ATOM     13  C   UNL A   1      33.295  26.408  22.739  1.00  0.00     0.034 A 
ATOM     14  Cl  UNL A   1      34.022  28.948  22.751  1.00  0.00    -0.082 Cl
ATOM     15  C   UNL A   1      32.486  25.335  23.087  1.00  0.00     0.019 A 
ATOM     16  O   UNL A   1      30.361  24.540  23.931  1.00  0.00    -0.475 OA
ATOM     17  C   UNL A   1      33.062  24.009  23.136  1.00  0.00     0.027 C 
ATOM     18  C   UNL A   1      31.005  23.303  24.379  1.00  0.00     0.316 C 
BRANCH   9  19
ATOM     19  N   UNL A   1      30.961  29.279  23.281  1.00  0.00    -0.373 N 
ATOM     20  C   UNL A   1      31.026  29.884  24.610  1.00  0.00     0.143 C 
BRANCH  19  21
ATOM     21  C   UNL A   1      29.836  29.699  22.416  1.00  0.00     0.119 C 
BRANCH  21  22
ATOM     22  C   UNL A   1      28.573  30.095  23.208  1.00  0.00     0.002 C 
ATOM     23  C   UNL A   1      28.164  31.545  22.927  1.00  0.00     0.009 C 
ATOM     24  C   UNL A   1      27.384  29.177  22.906  1.00  0.00     0.009 C 
ENDBRANCH  21  22
ENDBRANCH  19  21
ENDBRANCH   9  19
BRANCH  18  25
ATOM     25  C   UNL A   1      31.018  23.227  25.912  1.00  0.00     0.430 C 
ATOM     26  F   UNL A   1      32.135  23.789  26.429  1.00  0.00    -0.167 F 
ATOM     27  F   UNL A   1      29.964  23.894  26.443  1.00  0.00    -0.167 F 
ATOM     28  F   UNL A   1      30.956  21.954  26.361  1.00  0.00    -0.167 F 
ENDBRANCH  18  25
ENDBRANCH   6   8
ENDBRANCH   5   6
ENDBRANCH   4   5
ENDBRANCH   3   4
ENDBRANCH   2   3
ENDBRANCH   1   2
BRANCH   1  29
ATOM     29  C   UNL A   1      38.880  23.181  26.134  1.00  0.00     0.188 C 
BRANCH  29  30
ATOM     30  O   UNL A   1      39.216  21.898  26.627  1.00  0.00    -0.376 OA
BRANCH  30  31
ATOM     31  C   UNL A   1      39.136  20.773  25.763  1.00  0.00     0.202 C 
BRANCH  31  32
ATOM     32  C   UNL A   1      39.841  19.445  26.085  1.00  0.00     0.261 C 
BRANCH  32  33
ATOM     33  O   UNL A   1      41.067  19.207  25.380  1.00  0.00    -0.460 OA
BRANCH  33  34
ATOM     34  C   UNL A   1      42.198  19.334  26.116  1.00  0.00     0.338 C 
ATOM     35  O   UNL A   1      43.046  18.483  26.329  1.00  0.00    -0.246 OA
BRANCH  34  36
ATOM     36  C   UNL A   1      42.374  20.755  26.474  1.00  0.00     0.060 A 
ATOM     37  C   UNL A   1      42.361  21.160  27.808  1.00  0.00     0.016 A 
ATOM     38  C   UNL A   1      42.556  21.692  25.446  1.00  0.00     0.016 A 
ATOM     39  C   UNL A   1      42.557  22.509  28.114  1.00  0.00     0.010 A 
ATOM     40  C   UNL A   1      42.733  23.042  25.753  1.00  0.00     0.010 A 
ATOM     41  C   UNL A   1      42.759  23.455  27.092  1.00  0.00    -0.014 A 
BRANCH  41  42
ATOM     42  C   UNL A   1      43.164  24.837  27.443  1.00  0.00     0.031 A 
ATOM     43  C   UNL A   1      44.559  25.337  27.227  1.00  0.00     0.074 A 
ATOM     44  C   UNL A   1      42.226  25.653  27.960  1.00  0.00     0.049 A 
ATOM     45  N   UNL A   1      45.029  26.549  27.389  1.00  0.00    -0.248 NA
ATOM     46  C   UNL A   1      45.556  24.357  26.779  1.00  0.00     0.031 C 
ATOM     47  C   UNL A   1      40.845  25.264  28.255  1.00  0.00     0.029 A 
ATOM     48  N   UNL A   1      42.287  26.972  28.324  1.00  0.00    -0.354 N 
ATOM     49  C   UNL A   1      46.366  26.491  27.021  1.00  0.00     0.074 A 
ATOM     50  C   UNL A   1      46.648  25.107  26.690  1.00  0.00     0.031 C 
ATOM     51  C   UNL A   1      40.186  26.328  28.739  1.00  0.00     0.029 A 
ATOM     52  C   UNL A   1      41.098  27.464  28.803  1.00  0.00     0.049 A 
ATOM     53  H   UNL A   1      43.105  27.516  28.249  1.00  0.00     0.167 HD
ATOM     54  C   UNL A   1      47.265  27.504  26.942  1.00  0.00     0.037 A 
ATOM     55  C   UNL A   1      40.779  28.695  29.241  1.00  0.00     0.037 A 
ATOM     56  C   UNL A   1      46.992  28.872  27.314  1.00  0.00     0.049 A 
ATOM     57  C   UNL A   1      41.815  29.782  29.200  1.00  0.00     0.074 A 
ATOM     58  C   UNL A   1      47.839  29.966  27.264  1.00  0.00     0.029 A 
ATOM     59  N   UNL A   1      45.785  29.329  27.820  1.00  0.00    -0.354 N 
ATOM     60  N   UNL A   1      43.051  29.732  28.768  1.00  0.00    -0.248 NA
ATOM     61  C   UNL A   1      41.403  31.103  29.696  1.00  0.00     0.031 C 
ATOM     62  C   UNL A   1      47.159  31.076  27.777  1.00  0.00     0.029 A 
ATOM     63  C   UNL A   1      45.871  30.685  28.104  1.00  0.00     0.049 A 
ATOM     64  H   UNL A   1      44.984  28.774  27.959  1.00  0.00     0.167 HD
ATOM     65  C   UNL A   1      43.556  31.018  28.915  1.00  0.00     0.074 A 
ATOM     66  C   UNL A   1      42.483  31.830  29.450  1.00  0.00     0.031 C 
ATOM     67  C   UNL A   1      44.798  31.484  28.637  1.00  0.00     0.037 A 
BRANCH  54  68
ATOM     68  C   UNL A   1      48.631  27.177  26.411  1.00  0.00     0.057 A 
ATOM     69  C   UNL A   1      48.905  27.208  25.038  1.00  0.00     0.134 A 
ATOM     70  C   UNL A   1      49.661  26.761  27.266  1.00  0.00     0.134 A 
ATOM     71  F   UNL A   1      47.960  27.584  24.163  1.00  0.00    -0.206 F 
ATOM     72  C   UNL A   1      50.151  26.832  24.534  1.00  0.00     0.040 A 
ATOM     73  C   UNL A   1      50.919  26.405  26.776  1.00  0.00     0.040 A 
ATOM     74  F   UNL A   1      49.465  26.711  28.592  1.00  0.00    -0.206 F 
ATOM     75  C   UNL A   1      51.165  26.434  25.405  1.00  0.00     0.006 A 
ENDBRANCH  54  68
BRANCH  55  76
ATOM     76  C   UNL A   1      39.415  28.976  29.753  1.00  0.00     0.057 A 
ATOM     77  C   UNL A   1      38.401  29.427  28.900  1.00  0.00     0.134 A 
ATOM     78  C   UNL A   1      39.081  28.751  31.093  1.00  0.00     0.134 A 
ATOM     79  F   UNL A   1      38.660  29.671  27.608  1.00  0.00    -0.206 F 
ATOM     80  C   UNL A   1      37.099  29.635  29.359  1.00  0.00     0.040 A 
ATOM     81  C   UNL A   1      37.777  28.926  31.559  1.00  0.00     0.040 A 
ATOM     82  F   UNL A   1      40.007  28.304  31.954  1.00  0.00    -0.206 F 
ATOM     83  C   UNL A   1      36.782  29.368  30.689  1.00  0.00     0.006 A 
ENDBRANCH  55  76
BRANCH  67  84
ATOM     84  C   UNL A   1      45.044  32.945  28.883  1.00  0.00     0.057 A 
ATOM     85  C   UNL A   1      45.559  33.388  30.107  1.00  0.00     0.134 A 
ATOM     86  C   UNL A   1      44.780  33.916  27.906  1.00  0.00     0.134 A 
ATOM     87  F   UNL A   1      45.828  32.515  31.089  1.00  0.00    -0.206 F 
ATOM     88  C   UNL A   1      45.807  34.741  30.350  1.00  0.00     0.040 A 
ATOM     89  C   UNL A   1      45.052  35.267  28.125  1.00  0.00     0.040 A 
ATOM     90  F   UNL A   1      44.304  33.557  26.703  1.00  0.00    -0.206 F 
ATOM     91  C   UNL A   1      45.564  35.683  29.353  1.00  0.00     0.006 A 
ENDBRANCH  67  84
ENDBRANCH  41  42
ENDBRANCH  34  36
ENDBRANCH  33  34
ENDBRANCH  32  33
ENDBRANCH  31  32
ENDBRANCH  30  31
ENDBRANCH  29  30
ENDBRANCH   1  29
TORSDOF 21
ENDMDL
