MODEL 1
REMARK VINA RESULT:     -12.0      0.000      0.000
REMARK SMILES COc1ccc([N+](=O)[O-])cc1C(=O)N[C@@H](Cc1c[nH]c2ccccc12)C(=O)OCCOCCOCCOC(=O)c1ccc(-c2c3nc(c(-c4c(F)cccc4F)c4ccc([nH]4)c(-c4c(F)cccc4F)c4nc(c(-c5c(F)cccc5F)c5ccc2[nH]5)C=C4)C=C3)cc1
REMARK SMILES IDX 32 1 31 2 30 3 29 4 28 5 26 6 27 7 15 8 14 9 12 10 13 11
REMARK SMILES IDX 11 13 3 14 4 15 5 16 10 17 6 18 2 19 1 20 7 21 8 22 9 23
REMARK SMILES IDX 16 24 17 25 18 26 25 27 19 28 20 29 24 30 21 32 23 33 22 34
REMARK SMILES IDX 33 35 34 36 35 37 36 38 37 39 38 40 39 41 40 42 41 43 93 44
REMARK SMILES IDX 42 45 92 46 43 47 44 48 45 49 86 50 46 51 91 52 85 53 87 54
REMARK SMILES IDX 47 55 90 56 84 57 83 58 48 60 74 61 57 62 73 63 58 64 61 65
REMARK SMILES IDX 72 66 88 67 59 68 60 69 71 71 89 72 62 73 49 74 50 75 55 76
REMARK SMILES IDX 51 77 52 78 54 79 56 80 53 81 75 82 76 83 81 84 77 85 78 86
REMARK SMILES IDX 80 87 82 88 79 89 63 90 64 91 69 92 65 93 66 94 68 95 70 96
REMARK SMILES IDX 67 97
REMARK H PARENT 14 12 19 31 87 59 61 70
REMARK Flexibility Score: inf
ROOT
ATOM      1  C   UNL A   1      40.091  21.249  26.586  1.00  0.00     0.188 C 
ENDROOT
BRANCH   1   2
ATOM      2  O   UNL A   1      39.030  21.945  25.973  1.00  0.00    -0.376 OA
BRANCH   2   3
ATOM      3  C   UNL A   1      38.066  21.159  25.279  1.00  0.00     0.202 C 
BRANCH   3   4
ATOM      4  C   UNL A   1      37.059  21.823  24.310  1.00  0.00     0.261 C 
BRANCH   4   5
ATOM      5  O   UNL A   1      35.676  21.826  24.753  1.00  0.00    -0.462 OA
BRANCH   5   6
ATOM      6  C   UNL A   1      35.134  23.061  24.985  1.00  0.00     0.329 C 
ATOM      7  O   UNL A   1      35.573  23.819  25.848  1.00  0.00    -0.250 OA
BRANCH   6   8
ATOM      8  C   UNL A   1      33.858  23.410  24.147  1.00  0.00     0.197 C 
BRANCH   8   9
ATOM      9  N   UNL A   1      33.911  24.602  23.260  1.00  0.00    -0.338 N 
ATOM     10  C   UNL A   1      33.115  25.532  22.662  1.00  0.00     0.256 C 
ATOM     11  O   UNL A   1      33.699  26.208  21.803  1.00  0.00    -0.269 OA
ATOM     12  H   UNL A   1      34.849  24.782  23.024  1.00  0.00     0.164 HD
BRANCH  10  13
ATOM     13  C   UNL A   1      31.706  25.935  22.938  1.00  0.00     0.088 A 
ATOM     14  C   UNL A   1      30.858  25.425  23.922  1.00  0.00     0.132 A 
ATOM     15  C   UNL A   1      29.635  26.061  24.228  1.00  0.00     0.054 A 
ATOM     16  C   UNL A   1      29.273  27.262  23.615  1.00  0.00     0.089 A 
ATOM     17  C   UNL A   1      31.296  27.132  22.288  1.00  0.00     0.103 A 
ATOM     18  C   UNL A   1      30.114  27.801  22.645  1.00  0.00     0.270 A 
BRANCH  14  19
ATOM     19  O   UNL A   1      31.179  24.326  24.667  1.00  0.00    -0.496 OA
ATOM     20  C   UNL A   1      30.693  24.499  25.997  1.00  0.00     0.278 C 
ENDBRANCH  14  19
BRANCH  18  21
ATOM     21  N   UNL A   1      29.815  29.123  22.069  1.00  0.00     0.062 N 
ATOM     22  O   UNL A   1      28.634  29.373  21.793  1.00  0.00    -0.258 OA
ATOM     23  O   UNL A   1      30.755  29.914  21.921  1.00  0.00    -0.258 OA
ENDBRANCH  18  21
ENDBRANCH  10  13
ENDBRANCH   8   9
BRANCH   8  24
ATOM     24  C   UNL A   1      33.518  22.123  23.291  1.00  0.00     0.074 C 
BRANCH  24  25
ATOM     25  C   UNL A   1      32.747  21.081  24.088  1.00  0.00    -0.020 A 
ATOM     26  C   UNL A   1      32.369  21.108  25.418  1.00  0.00     0.087 A 
ATOM     27  C   UNL A   1      32.656  19.687  23.817  1.00  0.00     0.003 A 
ATOM     28  N   UNL A   1      33.095  20.068  25.952  1.00  0.00    -0.361 N 
ATOM     29  C   UNL A   1      33.159  19.096  24.979  1.00  0.00     0.046 A 
ATOM     30  C   UNL A   1      32.347  18.865  22.722  1.00  0.00     0.010 A 
ATOM     31  H   UNL A   1      33.491  20.026  26.852  1.00  0.00     0.166 HD
ATOM     32  C   UNL A   1      33.604  17.781  25.030  1.00  0.00     0.026 A 
ATOM     33  C   UNL A   1      32.594  17.492  22.835  1.00  0.00     0.001 A 
ATOM     34  C   UNL A   1      33.278  16.976  23.937  1.00  0.00     0.002 A 
ENDBRANCH  24  25
ENDBRANCH   8  24
ENDBRANCH   6   8
ENDBRANCH   5   6
ENDBRANCH   4   5
ENDBRANCH   3   4
ENDBRANCH   2   3
ENDBRANCH   1   2
BRANCH   1  35
ATOM     35  C   UNL A   1      40.404  19.830  26.100  1.00  0.00     0.188 C 
BRANCH  35  36
ATOM     36  O   UNL A   1      41.618  19.499  25.458  1.00  0.00    -0.376 OA
BRANCH  36  37
ATOM     37  C   UNL A   1      42.846  19.864  26.071  1.00  0.00     0.202 C 
BRANCH  37  38
ATOM     38  C   UNL A   1      43.722  21.038  25.597  1.00  0.00     0.261 C 
BRANCH  38  39
ATOM     39  O   UNL A   1      43.650  22.254  26.347  1.00  0.00    -0.460 OA
BRANCH  39  40
ATOM     40  C   UNL A   1      43.546  23.383  25.601  1.00  0.00     0.338 C 
ATOM     41  O   UNL A   1      43.728  23.494  24.394  1.00  0.00    -0.246 OA
BRANCH  40  42
ATOM     42  C   UNL A   1      42.966  24.448  26.443  1.00  0.00     0.060 A 
ATOM     43  C   UNL A   1      43.508  25.740  26.371  1.00  0.00     0.016 A 
ATOM     44  C   UNL A   1      41.896  24.175  27.294  1.00  0.00     0.016 A 
ATOM     45  C   UNL A   1      42.975  26.765  27.149  1.00  0.00     0.010 A 
ATOM     46  C   UNL A   1      41.394  25.197  28.107  1.00  0.00     0.010 A 
ATOM     47  C   UNL A   1      41.945  26.492  28.053  1.00  0.00    -0.014 A 
BRANCH  47  48
ATOM     48  C   UNL A   1      41.584  27.491  29.090  1.00  0.00     0.031 A 
ATOM     49  C   UNL A   1      42.351  27.479  30.383  1.00  0.00     0.074 A 
ATOM     50  C   UNL A   1      40.608  28.397  28.900  1.00  0.00     0.049 A 
ATOM     51  N   UNL A   1      42.113  28.118  31.498  1.00  0.00    -0.248 NA
ATOM     52  C   UNL A   1      43.546  26.620  30.419  1.00  0.00     0.031 C 
ATOM     53  C   UNL A   1      39.843  28.579  27.669  1.00  0.00     0.029 A 
ATOM     54  N   UNL A   1      40.081  29.325  29.765  1.00  0.00    -0.354 N 
ATOM     55  C   UNL A   1      43.113  27.720  32.378  1.00  0.00     0.074 A 
ATOM     56  C   UNL A   1      43.949  26.774  31.671  1.00  0.00     0.031 C 
ATOM     57  C   UNL A   1      38.921  29.538  27.869  1.00  0.00     0.029 A 
ATOM     58  C   UNL A   1      38.998  29.999  29.255  1.00  0.00     0.049 A 
ATOM     59  H   UNL A   1      40.445  29.491  30.665  1.00  0.00     0.167 HD
ATOM     60  C   UNL A   1      43.316  28.108  33.658  1.00  0.00     0.037 A 
ATOM     61  C   UNL A   1      38.139  30.848  29.854  1.00  0.00     0.037 A 
ATOM     62  C   UNL A   1      42.495  29.061  34.355  1.00  0.00     0.049 A 
ATOM     63  C   UNL A   1      38.321  31.189  31.313  1.00  0.00     0.074 A 
ATOM     64  C   UNL A   1      42.624  29.522  35.654  1.00  0.00     0.029 A 
ATOM     65  N   UNL A   1      41.391  29.698  33.811  1.00  0.00    -0.354 N 
ATOM     66  N   UNL A   1      39.254  30.796  32.148  1.00  0.00    -0.248 NA
ATOM     67  C   UNL A   1      37.326  32.088  31.918  1.00  0.00     0.031 C 
ATOM     68  C   UNL A   1      41.563  30.393  35.915  1.00  0.00     0.029 A 
ATOM     69  C   UNL A   1      40.813  30.527  34.758  1.00  0.00     0.049 A 
ATOM     70  H   UNL A   1      41.067  29.581  32.889  1.00  0.00     0.167 HD
ATOM     71  C   UNL A   1      38.980  31.426  33.357  1.00  0.00     0.074 A 
ATOM     72  C   UNL A   1      37.798  32.233  33.149  1.00  0.00     0.031 C 
ATOM     73  C   UNL A   1      39.648  31.345  34.534  1.00  0.00     0.037 A 
BRANCH  60  74
ATOM     74  C   UNL A   1      44.448  27.466  34.406  1.00  0.00     0.057 A 
ATOM     75  C   UNL A   1      44.281  26.287  35.143  1.00  0.00     0.134 A 
ATOM     76  C   UNL A   1      45.733  28.020  34.355  1.00  0.00     0.134 A 
ATOM     77  F   UNL A   1      43.073  25.714  35.244  1.00  0.00    -0.206 F 
ATOM     78  C   UNL A   1      45.348  25.695  35.821  1.00  0.00     0.040 A 
ATOM     79  C   UNL A   1      46.813  27.421  35.003  1.00  0.00     0.040 A 
ATOM     80  F   UNL A   1      45.963  29.146  33.663  1.00  0.00    -0.206 F 
ATOM     81  C   UNL A   1      46.621  26.258  35.745  1.00  0.00     0.006 A 
ENDBRANCH  60  74
BRANCH  61  82
ATOM     82  C   UNL A   1      36.988  31.410  29.099  1.00  0.00     0.057 A 
ATOM     83  C   UNL A   1      36.990  32.737  28.651  1.00  0.00     0.134 A 
ATOM     84  C   UNL A   1      35.837  30.651  28.852  1.00  0.00     0.134 A 
ATOM     85  F   UNL A   1      38.050  33.524  28.880  1.00  0.00    -0.206 F 
ATOM     86  C   UNL A   1      35.883  33.295  28.009  1.00  0.00     0.040 A 
ATOM     87  C   UNL A   1      34.734  31.186  28.184  1.00  0.00     0.040 A 
ATOM     88  F   UNL A   1      35.767  29.374  29.256  1.00  0.00    -0.206 F 
ATOM     89  C   UNL A   1      34.752  32.516  27.769  1.00  0.00     0.006 A 
ENDBRANCH  61  82
BRANCH  73  90
ATOM     90  C   UNL A   1      39.163  32.193  35.676  1.00  0.00     0.057 A 
ATOM     91  C   UNL A   1      38.305  31.694  36.664  1.00  0.00     0.134 A 
ATOM     92  C   UNL A   1      39.617  33.511  35.823  1.00  0.00     0.134 A 
ATOM     93  F   UNL A   1      37.824  30.444  36.580  1.00  0.00    -0.206 F 
ATOM     94  C   UNL A   1      37.902  32.480  37.746  1.00  0.00     0.040 A 
ATOM     95  C   UNL A   1      39.244  34.297  36.914  1.00  0.00     0.040 A 
ATOM     96  F   UNL A   1      40.449  34.049  34.919  1.00  0.00    -0.206 F 
ATOM     97  C   UNL A   1      38.380  33.784  37.877  1.00  0.00     0.006 A 
ENDBRANCH  73  90
ENDBRANCH  47  48
ENDBRANCH  40  42
ENDBRANCH  39  40
ENDBRANCH  38  39
ENDBRANCH  37  38
ENDBRANCH  36  37
ENDBRANCH  35  36
ENDBRANCH   1  35
TORSDOF 23
ENDMDL
MODEL 2
REMARK VINA RESULT:     -11.5      1.099      2.244
REMARK SMILES COc1ccc([N+](=O)[O-])cc1C(=O)N[C@@H](Cc1c[nH]c2ccccc12)C(=O)OCCOCCOCCOC(=O)c1ccc(-c2c3nc(c(-c4c(F)cccc4F)c4ccc([nH]4)c(-c4c(F)cccc4F)c4nc(c(-c5c(F)cccc5F)c5ccc2[nH]5)C=C4)C=C3)cc1
REMARK SMILES IDX 32 1 31 2 30 3 29 4 28 5 26 6 27 7 15 8 14 9 12 10 13 11
REMARK SMILES IDX 11 13 3 14 4 15 5 16 10 17 6 18 2 19 1 20 7 21 8 22 9 23
REMARK SMILES IDX 16 24 17 25 18 26 25 27 19 28 20 29 24 30 21 32 23 33 22 34
REMARK SMILES IDX 33 35 34 36 35 37 36 38 37 39 38 40 39 41 40 42 41 43 93 44
REMARK SMILES IDX 42 45 92 46 43 47 44 48 45 49 86 50 46 51 91 52 85 53 87 54
REMARK SMILES IDX 47 55 90 56 84 57 83 58 48 60 74 61 57 62 73 63 58 64 61 65
REMARK SMILES IDX 72 66 88 67 59 68 60 69 71 71 89 72 62 73 49 74 50 75 55 76
REMARK SMILES IDX 51 77 52 78 54 79 56 80 53 81 75 82 76 83 81 84 77 85 78 86
REMARK SMILES IDX 80 87 82 88 79 89 63 90 64 91 69 92 65 93 66 94 68 95 70 96
REMARK SMILES IDX 67 97
REMARK H PARENT 14 12 19 31 87 59 61 70
REMARK Flexibility Score: inf
ROOT
ATOM      1  C   UNL A   1      40.393  20.539  26.592  1.00  0.00     0.188 C 
ENDROOT
BRANCH   1   2
ATOM      2  O   UNL A   1      39.495  21.186  25.720  1.00  0.00    -0.376 OA
BRANCH   2   3
ATOM      3  C   UNL A   1      38.900  22.390  26.194  1.00  0.00     0.202 C 
BRANCH   3   4
ATOM      4  C   UNL A   1      37.418  22.708  25.886  1.00  0.00     0.261 C 
BRANCH   4   5
ATOM      5  O   UNL A   1      37.194  23.663  24.813  1.00  0.00    -0.462 OA
BRANCH   5   6
ATOM      6  C   UNL A   1      36.338  23.252  23.827  1.00  0.00     0.329 C 
ATOM      7  O   UNL A   1      36.723  22.620  22.845  1.00  0.00    -0.250 OA
BRANCH   6   8
ATOM      8  C   UNL A   1      34.852  23.720  23.982  1.00  0.00     0.197 C 
BRANCH   8   9
ATOM      9  N   UNL A   1      34.488  25.067  23.467  1.00  0.00    -0.338 N 
ATOM     10  C   UNL A   1      33.456  25.954  23.414  1.00  0.00     0.256 C 
ATOM     11  O   UNL A   1      33.643  26.888  22.621  1.00  0.00    -0.269 OA
ATOM     12  H   UNL A   1      35.266  25.451  23.002  1.00  0.00     0.164 HD
BRANCH  10  13
ATOM     13  C   UNL A   1      32.202  26.042  24.216  1.00  0.00     0.088 A 
ATOM     14  C   UNL A   1      31.162  26.961  24.061  1.00  0.00     0.132 A 
ATOM     15  C   UNL A   1      29.930  26.783  24.729  1.00  0.00     0.054 A 
ATOM     16  C   UNL A   1      29.685  25.645  25.499  1.00  0.00     0.089 A 
ATOM     17  C   UNL A   1      31.951  24.915  25.046  1.00  0.00     0.103 A 
ATOM     18  C   UNL A   1      30.702  24.705  25.651  1.00  0.00     0.270 A 
BRANCH  14  19
ATOM     19  O   UNL A   1      31.256  28.041  23.230  1.00  0.00    -0.496 OA
ATOM     20  C   UNL A   1      29.972  28.325  22.677  1.00  0.00     0.278 C 
ENDBRANCH  14  19
BRANCH  18  21
ATOM     21  N   UNL A   1      30.431  23.442  26.360  1.00  0.00     0.062 N 
ATOM     22  O   UNL A   1      30.526  22.391  25.713  1.00  0.00    -0.258 OA
ATOM     23  O   UNL A   1      30.152  23.505  27.563  1.00  0.00    -0.258 OA
ENDBRANCH  18  21
ENDBRANCH  10  13
ENDBRANCH   8   9
BRANCH   8  24
ATOM     24  C   UNL A   1      33.959  22.620  23.279  1.00  0.00     0.074 C 
BRANCH  24  25
ATOM     25  C   UNL A   1      33.529  21.519  24.237  1.00  0.00    -0.020 A 
ATOM     26  C   UNL A   1      33.795  21.389  25.588  1.00  0.00     0.087 A 
ATOM     27  C   UNL A   1      33.187  20.178  23.906  1.00  0.00     0.003 A 
ATOM     28  N   UNL A   1      34.575  20.256  25.627  1.00  0.00    -0.361 N 
ATOM     29  C   UNL A   1      34.096  19.418  24.645  1.00  0.00     0.046 A 
ATOM     30  C   UNL A   1      32.337  19.522  23.002  1.00  0.00     0.010 A 
ATOM     31  H   UNL A   1      35.327  20.079  26.236  1.00  0.00     0.166 HD
ATOM     32  C   UNL A   1      34.382  18.088  24.361  1.00  0.00     0.026 A 
ATOM     33  C   UNL A   1      32.468  18.135  22.857  1.00  0.00     0.001 A 
ATOM     34  C   UNL A   1      33.521  17.449  23.468  1.00  0.00     0.002 A 
ENDBRANCH  24  25
ENDBRANCH   8  24
ENDBRANCH   6   8
ENDBRANCH   5   6
ENDBRANCH   4   5
ENDBRANCH   3   4
ENDBRANCH   2   3
ENDBRANCH   1   2
BRANCH   1  35
ATOM     35  C   UNL A   1      41.881  20.889  26.491  1.00  0.00     0.188 C 
BRANCH  35  36
ATOM     36  O   UNL A   1      42.706  20.406  25.452  1.00  0.00    -0.376 OA
BRANCH  36  37
ATOM     37  C   UNL A   1      44.114  20.393  25.635  1.00  0.00     0.202 C 
BRANCH  37  38
ATOM     38  C   UNL A   1      44.991  21.659  25.604  1.00  0.00     0.261 C 
BRANCH  38  39
ATOM     39  O   UNL A   1      44.495  22.817  26.282  1.00  0.00    -0.460 OA
BRANCH  39  40
ATOM     40  C   UNL A   1      43.807  23.689  25.502  1.00  0.00     0.338 C 
ATOM     41  O   UNL A   1      43.578  23.589  24.302  1.00  0.00    -0.246 OA
BRANCH  40  42
ATOM     42  C   UNL A   1      43.181  24.702  26.373  1.00  0.00     0.060 A 
ATOM     43  C   UNL A   1      43.619  26.032  26.290  1.00  0.00     0.016 A 
ATOM     44  C   UNL A   1      42.170  24.345  27.264  1.00  0.00     0.016 A 
ATOM     45  C   UNL A   1      43.041  27.010  27.096  1.00  0.00     0.010 A 
ATOM     46  C   UNL A   1      41.624  25.321  28.104  1.00  0.00     0.010 A 
ATOM     47  C   UNL A   1      42.071  26.655  28.038  1.00  0.00    -0.014 A 
BRANCH  47  48
ATOM     48  C   UNL A   1      41.677  27.619  29.095  1.00  0.00     0.031 A 
ATOM     49  C   UNL A   1      42.449  27.611  30.385  1.00  0.00     0.074 A 
ATOM     50  C   UNL A   1      40.666  28.491  28.925  1.00  0.00     0.049 A 
ATOM     51  N   UNL A   1      42.190  28.218  31.513  1.00  0.00    -0.248 NA
ATOM     52  C   UNL A   1      43.675  26.797  30.401  1.00  0.00     0.031 C 
ATOM     53  C   UNL A   1      39.891  28.667  27.700  1.00  0.00     0.029 A 
ATOM     54  N   UNL A   1      40.107  29.382  29.810  1.00  0.00    -0.354 N 
ATOM     55  C   UNL A   1      43.208  27.842  32.382  1.00  0.00     0.074 A 
ATOM     56  C   UNL A   1      44.076  26.942  31.654  1.00  0.00     0.031 C 
ATOM     57  C   UNL A   1      38.934  29.587  27.922  1.00  0.00     0.029 A 
ATOM     58  C   UNL A   1      38.998  30.023  29.317  1.00  0.00     0.049 A 
ATOM     59  H   UNL A   1      40.468  29.544  30.712  1.00  0.00     0.167 HD
ATOM     60  C   UNL A   1      43.401  28.212  33.669  1.00  0.00     0.037 A 
ATOM     61  C   UNL A   1      38.110  30.827  29.935  1.00  0.00     0.037 A 
ATOM     62  C   UNL A   1      42.546  29.120  34.387  1.00  0.00     0.049 A 
ATOM     63  C   UNL A   1      38.284  31.146  31.400  1.00  0.00     0.074 A 
ATOM     64  C   UNL A   1      42.663  29.559  35.694  1.00  0.00     0.029 A 
ATOM     65  N   UNL A   1      41.417  29.725  33.859  1.00  0.00    -0.354 N 
ATOM     66  N   UNL A   1      39.234  30.772  32.224  1.00  0.00    -0.248 NA
ATOM     67  C   UNL A   1      37.257  31.995  32.025  1.00  0.00     0.031 C 
ATOM     68  C   UNL A   1      41.570  30.384  35.976  1.00  0.00     0.029 A 
ATOM     69  C   UNL A   1      40.811  30.512  34.824  1.00  0.00     0.049 A 
ATOM     70  H   UNL A   1      41.094  29.613  32.936  1.00  0.00     0.167 HD
ATOM     71  C   UNL A   1      38.941  31.368  33.446  1.00  0.00     0.074 A 
ATOM     72  C   UNL A   1      37.728  32.133  33.257  1.00  0.00     0.031 C 
ATOM     73  C   UNL A   1      39.616  31.290  34.619  1.00  0.00     0.037 A 
BRANCH  60  74
ATOM     74  C   UNL A   1      44.558  27.599  34.401  1.00  0.00     0.057 A 
ATOM     75  C   UNL A   1      45.814  28.214  34.460  1.00  0.00     0.134 A 
ATOM     76  C   UNL A   1      44.398  26.389  35.088  1.00  0.00     0.134 A 
ATOM     77  F   UNL A   1      46.038  29.367  33.812  1.00  0.00    -0.206 F 
ATOM     78  C   UNL A   1      46.877  27.637  35.158  1.00  0.00     0.040 A 
ATOM     79  C   UNL A   1      45.444  25.817  35.814  1.00  0.00     0.040 A 
ATOM     80  F   UNL A   1      43.219  25.748  35.076  1.00  0.00    -0.206 F 
ATOM     81  C   UNL A   1      46.689  26.439  35.846  1.00  0.00     0.006 A 
ENDBRANCH  60  74
BRANCH  61  82
ATOM     82  C   UNL A   1      36.935  31.360  29.194  1.00  0.00     0.057 A 
ATOM     83  C   UNL A   1      35.839  30.545  28.885  1.00  0.00     0.134 A 
ATOM     84  C   UNL A   1      36.903  32.681  28.730  1.00  0.00     0.134 A 
ATOM     85  F   UNL A   1      35.821  29.263  29.276  1.00  0.00    -0.206 F 
ATOM     86  C   UNL A   1      34.768  31.015  28.123  1.00  0.00     0.040 A 
ATOM     87  C   UNL A   1      35.825  33.174  27.993  1.00  0.00     0.040 A 
ATOM     88  F   UNL A   1      37.922  33.516  28.987  1.00  0.00    -0.206 F 
ATOM     89  C   UNL A   1      34.757  32.337  27.679  1.00  0.00     0.006 A 
ENDBRANCH  61  82
BRANCH  73  90
ATOM     90  C   UNL A   1      39.103  32.096  35.779  1.00  0.00     0.057 A 
ATOM     91  C   UNL A   1      38.260  31.548  36.754  1.00  0.00     0.134 A 
ATOM     92  C   UNL A   1      39.515  33.424  35.956  1.00  0.00     0.134 A 
ATOM     93  F   UNL A   1      37.820  30.285  36.642  1.00  0.00    -0.206 F 
ATOM     94  C   UNL A   1      37.831  32.297  37.853  1.00  0.00     0.040 A 
ATOM     95  C   UNL A   1      39.116  34.174  37.064  1.00  0.00     0.040 A 
ATOM     96  F   UNL A   1      40.330  34.009  35.066  1.00  0.00    -0.206 F 
ATOM     97  C   UNL A   1      38.268  33.611  38.014  1.00  0.00     0.006 A 
ENDBRANCH  73  90
ENDBRANCH  47  48
ENDBRANCH  40  42
ENDBRANCH  39  40
ENDBRANCH  38  39
ENDBRANCH  37  38
ENDBRANCH  36  37
ENDBRANCH  35  36
ENDBRANCH   1  35
TORSDOF 23
ENDMDL
MODEL 3
REMARK VINA RESULT:     -11.1      1.531      6.101
REMARK SMILES COc1ccc([N+](=O)[O-])cc1C(=O)N[C@@H](Cc1c[nH]c2ccccc12)C(=O)OCCOCCOCCOC(=O)c1ccc(-c2c3nc(c(-c4c(F)cccc4F)c4ccc([nH]4)c(-c4c(F)cccc4F)c4nc(c(-c5c(F)cccc5F)c5ccc2[nH]5)C=C4)C=C3)cc1
REMARK SMILES IDX 32 1 31 2 30 3 29 4 28 5 26 6 27 7 15 8 14 9 12 10 13 11
REMARK SMILES IDX 11 13 3 14 4 15 5 16 10 17 6 18 2 19 1 20 7 21 8 22 9 23
REMARK SMILES IDX 16 24 17 25 18 26 25 27 19 28 20 29 24 30 21 32 23 33 22 34
REMARK SMILES IDX 33 35 34 36 35 37 36 38 37 39 38 40 39 41 40 42 41 43 93 44
REMARK SMILES IDX 42 45 92 46 43 47 44 48 45 49 86 50 46 51 91 52 85 53 87 54
REMARK SMILES IDX 47 55 90 56 84 57 83 58 48 60 74 61 57 62 73 63 58 64 61 65
REMARK SMILES IDX 72 66 88 67 59 68 60 69 71 71 89 72 62 73 49 74 50 75 55 76
REMARK SMILES IDX 51 77 52 78 54 79 56 80 53 81 75 82 76 83 81 84 77 85 78 86
REMARK SMILES IDX 80 87 82 88 79 89 63 90 64 91 69 92 65 93 66 94 68 95 70 96
REMARK SMILES IDX 67 97
REMARK H PARENT 14 12 19 31 87 59 61 70
REMARK Flexibility Score: inf
ROOT
ATOM      1  C   UNL A   1      41.419  20.507  26.511  1.00  0.00     0.188 C 
ENDROOT
BRANCH   1   2
ATOM      2  O   UNL A   1      40.080  20.875  26.268  1.00  0.00    -0.376 OA
BRANCH   2   3
ATOM      3  C   UNL A   1      39.729  22.228  26.542  1.00  0.00     0.202 C 
BRANCH   3   4
ATOM      4  C   UNL A   1      38.327  22.767  26.173  1.00  0.00     0.261 C 
BRANCH   4   5
ATOM      5  O   UNL A   1      37.900  22.511  24.808  1.00  0.00    -0.462 OA
BRANCH   5   6
ATOM      6  C   UNL A   1      36.911  21.575  24.666  1.00  0.00     0.329 C 
ATOM      7  O   UNL A   1      37.129  20.452  24.214  1.00  0.00    -0.250 OA
BRANCH   6   8
ATOM      8  C   UNL A   1      35.465  22.058  25.026  1.00  0.00     0.197 C 
BRANCH   8   9
ATOM      9  N   UNL A   1      34.576  22.485  23.914  1.00  0.00    -0.338 N 
ATOM     10  C   UNL A   1      33.672  23.444  23.568  1.00  0.00     0.256 C 
ATOM     11  O   UNL A   1      33.032  23.178  22.541  1.00  0.00    -0.269 OA
ATOM     12  H   UNL A   1      34.675  21.853  23.166  1.00  0.00     0.164 HD
BRANCH  10  13
ATOM     13  C   UNL A   1      33.404  24.789  24.154  1.00  0.00     0.088 A 
ATOM     14  C   UNL A   1      33.324  25.121  25.508  1.00  0.00     0.132 A 
ATOM     15  C   UNL A   1      33.303  26.471  25.924  1.00  0.00     0.054 A 
ATOM     16  C   UNL A   1      33.441  27.512  25.005  1.00  0.00     0.089 A 
ATOM     17  C   UNL A   1      33.493  25.865  23.228  1.00  0.00     0.103 A 
ATOM     18  C   UNL A   1      33.544  27.203  23.651  1.00  0.00     0.270 A 
BRANCH  14  19
ATOM     19  O   UNL A   1      33.311  24.177  26.494  1.00  0.00    -0.496 OA
ATOM     20  C   UNL A   1      32.063  23.486  26.470  1.00  0.00     0.278 C 
ENDBRANCH  14  19
BRANCH  18  21
ATOM     21  N   UNL A   1      33.809  28.274  22.674  1.00  0.00     0.062 N 
ATOM     22  O   UNL A   1      33.617  29.441  23.038  1.00  0.00    -0.258 OA
ATOM     23  O   UNL A   1      34.233  27.945  21.559  1.00  0.00    -0.258 OA
ENDBRANCH  18  21
ENDBRANCH  10  13
ENDBRANCH   8   9
BRANCH   8  24
ATOM     24  C   UNL A   1      34.785  20.877  25.831  1.00  0.00     0.074 C 
BRANCH  24  25
ATOM     25  C   UNL A   1      33.940  19.978  24.941  1.00  0.00    -0.020 A 
ATOM     26  C   UNL A   1      32.651  20.173  24.481  1.00  0.00     0.087 A 
ATOM     27  C   UNL A   1      34.068  18.570  24.775  1.00  0.00     0.003 A 
ATOM     28  N   UNL A   1      31.959  19.157  25.099  1.00  0.00    -0.361 N 
ATOM     29  C   UNL A   1      32.817  18.082  25.160  1.00  0.00     0.046 A 
ATOM     30  C   UNL A   1      35.089  17.653  24.482  1.00  0.00     0.010 A 
ATOM     31  H   UNL A   1      31.034  19.191  25.432  1.00  0.00     0.166 HD
ATOM     32  C   UNL A   1      32.595  16.756  25.511  1.00  0.00     0.026 A 
ATOM     33  C   UNL A   1      34.815  16.288  24.628  1.00  0.00     0.001 A 
ATOM     34  C   UNL A   1      33.617  15.856  25.204  1.00  0.00     0.002 A 
ENDBRANCH  24  25
ENDBRANCH   8  24
ENDBRANCH   6   8
ENDBRANCH   5   6
ENDBRANCH   4   5
ENDBRANCH   3   4
ENDBRANCH   2   3
ENDBRANCH   1   2
BRANCH   1  35
ATOM     35  C   UNL A   1      42.530  21.390  25.932  1.00  0.00     0.188 C 
BRANCH  35  36
ATOM     36  O   UNL A   1      43.561  20.874  25.118  1.00  0.00    -0.376 OA
BRANCH  36  37
ATOM     37  C   UNL A   1      44.697  21.682  24.846  1.00  0.00     0.202 C 
BRANCH  37  38
ATOM     38  C   UNL A   1      44.632  23.020  24.086  1.00  0.00     0.261 C 
BRANCH  38  39
ATOM     39  O   UNL A   1      43.894  24.084  24.695  1.00  0.00    -0.460 OA
BRANCH  39  40
ATOM     40  C   UNL A   1      44.649  25.102  25.179  1.00  0.00     0.338 C 
ATOM     41  O   UNL A   1      45.704  25.526  24.722  1.00  0.00    -0.246 OA
BRANCH  40  42
ATOM     42  C   UNL A   1      43.889  25.779  26.248  1.00  0.00     0.060 A 
ATOM     43  C   UNL A   1      44.140  27.136  26.504  1.00  0.00     0.016 A 
ATOM     44  C   UNL A   1      42.937  25.084  26.991  1.00  0.00     0.016 A 
ATOM     45  C   UNL A   1      43.433  27.802  27.502  1.00  0.00     0.010 A 
ATOM     46  C   UNL A   1      42.261  25.745  28.023  1.00  0.00     0.010 A 
ATOM     47  C   UNL A   1      42.521  27.101  28.297  1.00  0.00    -0.014 A 
BRANCH  47  48
ATOM     48  C   UNL A   1      41.998  27.717  29.542  1.00  0.00     0.031 A 
ATOM     49  C   UNL A   1      40.746  28.545  29.450  1.00  0.00     0.074 A 
ATOM     50  C   UNL A   1      42.602  27.548  30.732  1.00  0.00     0.049 A 
ATOM     51  N   UNL A   1      40.197  29.324  30.344  1.00  0.00    -0.248 NA
ATOM     52  C   UNL A   1      40.023  28.487  28.169  1.00  0.00     0.031 C 
ATOM     53  C   UNL A   1      43.769  26.706  30.982  1.00  0.00     0.029 A 
ATOM     54  N   UNL A   1      42.320  28.106  31.956  1.00  0.00    -0.354 N 
ATOM     55  C   UNL A   1      39.077  29.870  29.726  1.00  0.00     0.074 A 
ATOM     56  C   UNL A   1      39.037  29.344  28.379  1.00  0.00     0.031 C 
ATOM     57  C   UNL A   1      44.123  26.827  32.274  1.00  0.00     0.029 A 
ATOM     58  C   UNL A   1      43.240  27.795  32.926  1.00  0.00     0.049 A 
ATOM     59  H   UNL A   1      41.532  28.674  32.120  1.00  0.00     0.167 HD
ATOM     60  C   UNL A   1      38.166  30.731  30.236  1.00  0.00     0.037 A 
ATOM     61  C   UNL A   1      43.382  28.276  34.178  1.00  0.00     0.037 A 
ATOM     62  C   UNL A   1      38.198  31.241  31.580  1.00  0.00     0.049 A 
ATOM     63  C   UNL A   1      42.416  29.315  34.693  1.00  0.00     0.074 A 
ATOM     64  C   UNL A   1      37.315  32.116  32.190  1.00  0.00     0.029 A 
ATOM     65  N   UNL A   1      39.163  30.923  32.522  1.00  0.00    -0.354 N 
ATOM     66  N   UNL A   1      41.372  29.844  34.101  1.00  0.00    -0.248 NA
ATOM     67  C   UNL A   1      42.651  29.830  36.051  1.00  0.00     0.031 C 
ATOM     68  C   UNL A   1      37.780  32.374  33.483  1.00  0.00     0.029 A 
ATOM     69  C   UNL A   1      38.914  31.608  33.700  1.00  0.00     0.049 A 
ATOM     70  H   UNL A   1      39.914  30.303  32.377  1.00  0.00     0.167 HD
ATOM     71  C   UNL A   1      40.809  30.720  35.023  1.00  0.00     0.074 A 
ATOM     72  C   UNL A   1      41.622  30.648  36.217  1.00  0.00     0.031 C 
ATOM     73  C   UNL A   1      39.716  31.511  34.893  1.00  0.00     0.037 A 
BRANCH  60  74
ATOM     74  C   UNL A   1      37.080  31.215  29.319  1.00  0.00     0.057 A 
ATOM     75  C   UNL A   1      35.960  30.433  29.014  1.00  0.00     0.134 A 
ATOM     76  C   UNL A   1      37.144  32.499  28.765  1.00  0.00     0.134 A 
ATOM     77  F   UNL A   1      35.845  29.189  29.500  1.00  0.00    -0.206 F 
ATOM     78  C   UNL A   1      34.951  30.904  28.170  1.00  0.00     0.040 A 
ATOM     79  C   UNL A   1      36.128  32.992  27.945  1.00  0.00     0.040 A 
ATOM     80  F   UNL A   1      38.188  33.301  29.021  1.00  0.00    -0.206 F 
ATOM     81  C   UNL A   1      35.030  32.191  27.641  1.00  0.00     0.006 A 
ENDBRANCH  60  74
BRANCH  61  82
ATOM     82  C   UNL A   1      44.513  27.825  35.032  1.00  0.00     0.057 A 
ATOM     83  C   UNL A   1      44.391  26.711  35.872  1.00  0.00     0.134 A 
ATOM     84  C   UNL A   1      45.725  28.527  35.070  1.00  0.00     0.134 A 
ATOM     85  F   UNL A   1      43.247  26.013  35.903  1.00  0.00    -0.206 F 
ATOM     86  C   UNL A   1      45.420  26.327  36.733  1.00  0.00     0.040 A 
ATOM     87  C   UNL A   1      46.773  28.137  35.904  1.00  0.00     0.040 A 
ATOM     88  F   UNL A   1      45.908  29.606  34.293  1.00  0.00    -0.206 F 
ATOM     89  C   UNL A   1      46.619  27.039  36.747  1.00  0.00     0.006 A 
ENDBRANCH  61  82
BRANCH  73  90
ATOM     90  C   UNL A   1      39.290  32.320  36.085  1.00  0.00     0.057 A 
ATOM     91  C   UNL A   1      39.754  33.623  36.309  1.00  0.00     0.134 A 
ATOM     92  C   UNL A   1      38.346  31.809  36.988  1.00  0.00     0.134 A 
ATOM     93  F   UNL A   1      40.665  34.170  35.490  1.00  0.00    -0.206 F 
ATOM     94  C   UNL A   1      39.311  34.379  37.396  1.00  0.00     0.040 A 
ATOM     95  C   UNL A   1      37.874  32.566  38.062  1.00  0.00     0.040 A 
ATOM     96  F   UNL A   1      37.851  30.573  36.828  1.00  0.00    -0.206 F 
ATOM     97  C   UNL A   1      38.360  33.854  38.271  1.00  0.00     0.006 A 
ENDBRANCH  73  90
ENDBRANCH  47  48
ENDBRANCH  40  42
ENDBRANCH  39  40
ENDBRANCH  38  39
ENDBRANCH  37  38
ENDBRANCH  36  37
ENDBRANCH  35  36
ENDBRANCH   1  35
TORSDOF 23
ENDMDL
