MODEL 1
REMARK VINA RESULT:     -10.6      0.000      0.000
REMARK SMILES O=C(CN1C(=O)/C(=C2/Sc3ccccc3N2CCCS(=O)(=O)[O-])SC1=S)OCCOCCOCCOC(=O)c1ccc(-c2c3nc(c(-c4c(F)cccc4F)c4ccc([nH]4)c(-c4c(F)cccc4F)c4nc(c(-c5c(F)cccc5F)c5ccc2[nH]5)C=C4)C=C3)cc1
REMARK SMILES IDX 30 1 29 2 28 3 27 4 2 5 1 6 3 7 4 8 5 9 25 10 6 11 7 12
REMARK SMILES IDX 24 13 26 14 8 15 9 16 16 17 10 18 15 19 11 20 14 21 12 22
REMARK SMILES IDX 13 23 17 24 18 25 19 26 20 27 21 28 22 29 23 30 31 31 32 32
REMARK SMILES IDX 33 33 34 34 35 35 36 36 37 37 38 38 39 39 40 40 92 41 41 42
REMARK SMILES IDX 91 43 42 44 43 45 44 46 85 47 45 48 90 49 84 50 86 51 46 52
REMARK SMILES IDX 89 53 83 54 82 55 47 57 73 58 56 59 72 60 57 61 60 62 71 63
REMARK SMILES IDX 87 64 58 65 59 66 70 68 88 69 61 70 48 71 49 72 54 73 50 74
REMARK SMILES IDX 51 75 53 76 55 77 52 78 74 79 75 80 80 81 76 82 77 83 79 84
REMARK SMILES IDX 81 85 78 86 62 87 63 88 68 89 64 90 65 91 67 92 69 93 66 94
REMARK H PARENT 86 56 60 67
REMARK Flexibility Score: inf
ROOT
ATOM      1  O   UNL A   1      40.019  21.662  27.311  1.00  0.00    -0.376 OA
ENDROOT
BRANCH   1   2
ATOM      2  C   UNL A   1      39.423  21.798  26.044  1.00  0.00     0.202 C 
BRANCH   2   3
ATOM      3  C   UNL A   1      38.350  22.861  25.849  1.00  0.00     0.261 C 
BRANCH   3   4
ATOM      4  O   UNL A   1      37.175  22.709  24.917  1.00  0.00    -0.462 OA
BRANCH   4   5
ATOM      5  C   UNL A   1      36.421  22.463  23.838  1.00  0.00     0.326 C 
ATOM      6  O   UNL A   1      36.737  23.048  22.795  1.00  0.00    -0.250 OA
BRANCH   5   7
ATOM      7  C   UNL A   1      35.213  21.509  23.786  1.00  0.00     0.250 C 
BRANCH   7   8
ATOM      8  N   UNL A   1      33.996  22.047  24.512  1.00  0.00    -0.281 N 
ATOM      9  C   UNL A   1      33.495  23.282  24.226  1.00  0.00     0.269 C 
ATOM     10  C   UNL A   1      33.028  21.337  25.179  1.00  0.00     0.148 C 
ATOM     11  O   UNL A   1      33.484  23.772  23.109  1.00  0.00    -0.268 OA
ATOM     12  C   UNL A   1      32.632  23.829  25.284  1.00  0.00     0.111 C 
ATOM     13  S   UNL A   1      31.840  22.440  25.929  1.00  0.00    -0.052 SA
ATOM     14  S   UNL A   1      32.816  19.694  25.232  1.00  0.00    -0.052 S 
ATOM     15  C   UNL A   1      32.559  25.130  25.657  1.00  0.00     0.100 C 
ATOM     16  S   UNL A   1      31.185  25.647  26.723  1.00  0.00    -0.068 SA
ATOM     17  N   UNL A   1      33.433  26.216  25.378  1.00  0.00    -0.334 N 
ATOM     18  C   UNL A   1      31.853  27.299  26.771  1.00  0.00     0.037 A 
ATOM     19  C   UNL A   1      33.104  27.370  26.150  1.00  0.00     0.056 A 
ATOM     20  C   UNL A   1      31.261  28.441  27.288  1.00  0.00     0.017 A 
ATOM     21  C   UNL A   1      33.866  28.536  26.244  1.00  0.00     0.027 A 
ATOM     22  C   UNL A   1      31.989  29.636  27.291  1.00  0.00     0.001 A 
ATOM     23  C   UNL A   1      33.305  29.673  26.818  1.00  0.00     0.002 A 
BRANCH  17  24
ATOM     24  C   UNL A   1      33.981  26.617  24.083  1.00  0.00     0.124 C 
BRANCH  24  25
ATOM     25  C   UNL A   1      33.159  27.730  23.454  1.00  0.00     0.037 C 
BRANCH  25  26
ATOM     26  C   UNL A   1      31.900  27.202  22.858  1.00  0.00     0.124 C 
BRANCH  26  27
ATOM     27  S   UNL A   1      30.460  28.305  23.012  1.00  0.00     0.095 S 
ATOM     28  O   UNL A   1      30.664  29.236  24.076  1.00  0.00    -0.243 OA
ATOM     29  O   UNL A   1      29.914  28.714  21.726  1.00  0.00    -0.243 OA
ATOM     30  O   UNL A   1      29.390  27.224  23.537  1.00  0.00    -0.748 OA
ENDBRANCH  26  27
ENDBRANCH  25  26
ENDBRANCH  24  25
ENDBRANCH  17  24
ENDBRANCH   7   8
ENDBRANCH   5   7
ENDBRANCH   4   5
ENDBRANCH   3   4
ENDBRANCH   2   3
ENDBRANCH   1   2
BRANCH   1  31
ATOM     31  C   UNL A   1      41.332  21.159  27.329  1.00  0.00     0.188 C 
BRANCH  31  32
ATOM     32  C   UNL A   1      41.657  20.122  26.235  1.00  0.00     0.188 C 
BRANCH  32  33
ATOM     33  O   UNL A   1      42.839  20.194  25.445  1.00  0.00    -0.376 OA
BRANCH  33  34
ATOM     34  C   UNL A   1      43.866  21.131  25.714  1.00  0.00     0.202 C 
BRANCH  34  35
ATOM     35  C   UNL A   1      44.203  22.216  24.679  1.00  0.00     0.261 C 
BRANCH  35  36
ATOM     36  O   UNL A   1      43.520  23.469  24.822  1.00  0.00    -0.460 OA
BRANCH  36  37
ATOM     37  C   UNL A   1      44.293  24.544  25.121  1.00  0.00     0.338 C 
ATOM     38  O   UNL A   1      45.311  24.891  24.547  1.00  0.00    -0.246 OA
BRANCH  37  39
ATOM     39  C   UNL A   1      43.594  25.383  26.135  1.00  0.00     0.060 A 
ATOM     40  C   UNL A   1      42.484  24.907  26.837  1.00  0.00     0.016 A 
ATOM     41  C   UNL A   1      44.026  26.705  26.333  1.00  0.00     0.016 A 
ATOM     42  C   UNL A   1      41.860  25.728  27.785  1.00  0.00     0.010 A 
ATOM     43  C   UNL A   1      43.382  27.535  27.255  1.00  0.00     0.010 A 
ATOM     44  C   UNL A   1      42.326  27.035  28.029  1.00  0.00    -0.014 A 
BRANCH  44  45
ATOM     45  C   UNL A   1      41.899  27.768  29.250  1.00  0.00     0.031 A 
ATOM     46  C   UNL A   1      42.541  27.591  30.591  1.00  0.00     0.074 A 
ATOM     47  C   UNL A   1      40.838  28.590  29.135  1.00  0.00     0.049 A 
ATOM     48  N   UNL A   1      42.289  28.222  31.715  1.00  0.00    -0.248 NA
ATOM     49  C   UNL A   1      43.592  26.574  30.688  1.00  0.00     0.031 C 
ATOM     50  C   UNL A   1      40.077  28.812  27.904  1.00  0.00     0.029 A 
ATOM     51  N   UNL A   1      40.217  29.384  30.063  1.00  0.00    -0.354 N 
ATOM     52  C   UNL A   1      43.172  27.701  32.651  1.00  0.00     0.074 A 
ATOM     53  C   UNL A   1      43.921  26.673  31.969  1.00  0.00     0.031 C 
ATOM     54  C   UNL A   1      39.106  29.704  28.147  1.00  0.00     0.029 A 
ATOM     55  C   UNL A   1      39.157  30.091  29.553  1.00  0.00     0.049 A 
ATOM     56  H   UNL A   1      40.503  29.443  31.002  1.00  0.00     0.167 HD
ATOM     57  C   UNL A   1      43.359  28.049  33.949  1.00  0.00     0.037 A 
ATOM     58  C   UNL A   1      38.317  30.955  30.151  1.00  0.00     0.037 A 
ATOM     59  C   UNL A   1      42.581  29.041  34.647  1.00  0.00     0.049 A 
ATOM     60  C   UNL A   1      38.499  31.283  31.605  1.00  0.00     0.074 A 
ATOM     61  C   UNL A   1      42.717  29.487  35.951  1.00  0.00     0.029 A 
ATOM     62  N   UNL A   1      41.502  29.718  34.105  1.00  0.00    -0.354 N 
ATOM     63  N   UNL A   1      39.413  30.863  32.445  1.00  0.00    -0.248 NA
ATOM     64  C   UNL A   1      37.529  32.217  32.193  1.00  0.00     0.031 C 
ATOM     65  C   UNL A   1      41.684  30.393  36.216  1.00  0.00     0.029 A 
ATOM     66  C   UNL A   1      40.943  30.556  35.057  1.00  0.00     0.049 A 
ATOM     67  H   UNL A   1      41.180  29.620  33.180  1.00  0.00     0.167 HD
ATOM     68  C   UNL A   1      39.152  31.510  33.646  1.00  0.00     0.074 A 
ATOM     69  C   UNL A   1      38.004  32.363  33.421  1.00  0.00     0.031 C 
ATOM     70  C   UNL A   1      39.806  31.408  34.829  1.00  0.00     0.037 A 
BRANCH  57  71
ATOM     71  C   UNL A   1      44.457  27.356  34.711  1.00  0.00     0.057 A 
ATOM     72  C   UNL A   1      45.774  27.835  34.685  1.00  0.00     0.134 A 
ATOM     73  C   UNL A   1      44.221  26.168  35.418  1.00  0.00     0.134 A 
ATOM     74  F   UNL A   1      46.079  28.953  34.010  1.00  0.00    -0.206 F 
ATOM     75  C   UNL A   1      46.812  27.160  35.333  1.00  0.00     0.040 A 
ATOM     76  C   UNL A   1      45.245  25.498  36.092  1.00  0.00     0.040 A 
ATOM     77  F   UNL A   1      42.984  25.651  35.482  1.00  0.00    -0.206 F 
ATOM     78  C   UNL A   1      46.546  25.992  36.046  1.00  0.00     0.006 A 
ENDBRANCH  57  71
BRANCH  58  79
ATOM     79  C   UNL A   1      37.228  31.590  29.369  1.00  0.00     0.057 A 
ATOM     80  C   UNL A   1      36.014  30.932  29.142  1.00  0.00     0.134 A 
ATOM     81  C   UNL A   1      37.363  32.891  28.871  1.00  0.00     0.134 A 
ATOM     82  F   UNL A   1      35.828  29.679  29.583  1.00  0.00    -0.206 F 
ATOM     83  C   UNL A   1      34.969  31.548  28.454  1.00  0.00     0.040 A 
ATOM     84  C   UNL A   1      36.315  33.530  28.210  1.00  0.00     0.040 A 
ATOM     85  F   UNL A   1      38.499  33.576  29.070  1.00  0.00    -0.206 F 
ATOM     86  C   UNL A   1      35.114  32.857  28.000  1.00  0.00     0.006 A 
ENDBRANCH  58  79
BRANCH  70  87
ATOM     87  C   UNL A   1      39.325  32.274  35.958  1.00  0.00     0.057 A 
ATOM     88  C   UNL A   1      39.851  33.560  36.141  1.00  0.00     0.134 A 
ATOM     89  C   UNL A   1      38.356  31.838  36.871  1.00  0.00     0.134 A 
ATOM     90  F   UNL A   1      40.788  34.039  35.308  1.00  0.00    -0.206 F 
ATOM     91  C   UNL A   1      39.430  34.380  37.188  1.00  0.00     0.040 A 
ATOM     92  C   UNL A   1      37.905  32.661  37.905  1.00  0.00     0.040 A 
ATOM     93  F   UNL A   1      37.801  30.623  36.746  1.00  0.00    -0.206 F 
ATOM     94  C   UNL A   1      38.447  33.935  38.069  1.00  0.00     0.006 A 
ENDBRANCH  70  87
ENDBRANCH  44  45
ENDBRANCH  37  39
ENDBRANCH  36  37
ENDBRANCH  35  36
ENDBRANCH  34  35
ENDBRANCH  33  34
ENDBRANCH  32  33
ENDBRANCH  31  32
ENDBRANCH   1  31
TORSDOF 22
ENDMDL
MODEL 2
REMARK VINA RESULT:     -10.5      0.567      5.744
REMARK SMILES O=C(CN1C(=O)/C(=C2/Sc3ccccc3N2CCCS(=O)(=O)[O-])SC1=S)OCCOCCOCCOC(=O)c1ccc(-c2c3nc(c(-c4c(F)cccc4F)c4ccc([nH]4)c(-c4c(F)cccc4F)c4nc(c(-c5c(F)cccc5F)c5ccc2[nH]5)C=C4)C=C3)cc1
REMARK SMILES IDX 30 1 29 2 28 3 27 4 2 5 1 6 3 7 4 8 5 9 25 10 6 11 7 12
REMARK SMILES IDX 24 13 26 14 8 15 9 16 16 17 10 18 15 19 11 20 14 21 12 22
REMARK SMILES IDX 13 23 17 24 18 25 19 26 20 27 21 28 22 29 23 30 31 31 32 32
REMARK SMILES IDX 33 33 34 34 35 35 36 36 37 37 38 38 39 39 40 40 92 41 41 42
REMARK SMILES IDX 91 43 42 44 43 45 44 46 85 47 45 48 90 49 84 50 86 51 46 52
REMARK SMILES IDX 89 53 83 54 82 55 47 57 73 58 56 59 72 60 57 61 60 62 71 63
REMARK SMILES IDX 87 64 58 65 59 66 70 68 88 69 61 70 48 71 49 72 54 73 50 74
REMARK SMILES IDX 51 75 53 76 55 77 52 78 74 79 75 80 80 81 76 82 77 83 79 84
REMARK SMILES IDX 81 85 78 86 62 87 63 88 68 89 64 90 65 91 67 92 69 93 66 94
REMARK H PARENT 86 56 60 67
REMARK Flexibility Score: inf
ROOT
ATOM      1  O   UNL A   1      40.154  21.482  27.423  1.00  0.00    -0.376 OA
ENDROOT
BRANCH   1   2
ATOM      2  C   UNL A   1      39.737  21.986  26.177  1.00  0.00     0.202 C 
BRANCH   2   3
ATOM      3  C   UNL A   1      38.361  22.632  26.071  1.00  0.00     0.261 C 
BRANCH   3   4
ATOM      4  O   UNL A   1      37.359  22.304  24.994  1.00  0.00    -0.462 OA
BRANCH   4   5
ATOM      5  C   UNL A   1      36.561  22.384  23.922  1.00  0.00     0.326 C 
ATOM      6  O   UNL A   1      36.918  23.150  23.019  1.00  0.00    -0.250 OA
BRANCH   5   7
ATOM      7  C   UNL A   1      35.254  21.595  23.716  1.00  0.00     0.250 C 
BRANCH   7   8
ATOM      8  N   UNL A   1      34.095  22.139  24.527  1.00  0.00    -0.281 N 
ATOM      9  C   UNL A   1      33.542  23.351  24.238  1.00  0.00     0.269 C 
ATOM     10  C   UNL A   1      33.207  21.440  25.307  1.00  0.00     0.148 C 
ATOM     11  O   UNL A   1      33.419  23.793  23.108  1.00  0.00    -0.268 OA
ATOM     12  C   UNL A   1      32.764  23.925  25.347  1.00  0.00     0.111 C 
ATOM     13  S   UNL A   1      32.065  22.549  26.117  1.00  0.00    -0.052 SA
ATOM     14  S   UNL A   1      33.038  19.796  25.445  1.00  0.00    -0.052 S 
ATOM     15  C   UNL A   1      32.694  25.239  25.673  1.00  0.00     0.100 C 
ATOM     16  S   UNL A   1      31.410  25.774  26.836  1.00  0.00    -0.068 SA
ATOM     17  N   UNL A   1      33.515  26.330  25.272  1.00  0.00    -0.334 N 
ATOM     18  C   UNL A   1      32.041  27.439  26.757  1.00  0.00     0.037 A 
ATOM     19  C   UNL A   1      33.229  27.508  26.024  1.00  0.00     0.056 A 
ATOM     20  C   UNL A   1      31.472  28.590  27.279  1.00  0.00     0.017 A 
ATOM     21  C   UNL A   1      33.970  28.692  26.000  1.00  0.00     0.027 A 
ATOM     22  C   UNL A   1      32.169  29.799  27.168  1.00  0.00     0.001 A 
ATOM     23  C   UNL A   1      33.436  29.841  26.577  1.00  0.00     0.002 A 
BRANCH  17  24
ATOM     24  C   UNL A   1      33.935  26.686  23.917  1.00  0.00     0.124 C 
BRANCH  24  25
ATOM     25  C   UNL A   1      32.961  27.658  23.273  1.00  0.00     0.037 C 
BRANCH  25  26
ATOM     26  C   UNL A   1      31.732  26.960  22.802  1.00  0.00     0.124 C 
BRANCH  26  27
ATOM     27  S   UNL A   1      30.199  27.932  22.947  1.00  0.00     0.095 S 
ATOM     28  O   UNL A   1      29.935  28.621  21.723  1.00  0.00    -0.243 OA
ATOM     29  O   UNL A   1      29.151  27.239  23.681  1.00  0.00    -0.243 OA
ATOM     30  O   UNL A   1      30.717  29.033  24.000  1.00  0.00    -0.748 OA
ENDBRANCH  26  27
ENDBRANCH  25  26
ENDBRANCH  24  25
ENDBRANCH  17  24
ENDBRANCH   7   8
ENDBRANCH   5   7
ENDBRANCH   4   5
ENDBRANCH   3   4
ENDBRANCH   2   3
ENDBRANCH   1   2
BRANCH   1  31
ATOM     31  C   UNL A   1      41.417  20.866  27.453  1.00  0.00     0.188 C 
BRANCH  31  32
ATOM     32  C   UNL A   1      41.696  19.874  26.305  1.00  0.00     0.188 C 
BRANCH  32  33
ATOM     33  O   UNL A   1      42.720  20.092  25.342  1.00  0.00    -0.376 OA
BRANCH  33  34
ATOM     34  C   UNL A   1      43.697  21.105  25.500  1.00  0.00     0.202 C 
BRANCH  34  35
ATOM     35  C   UNL A   1      43.586  22.408  24.693  1.00  0.00     0.261 C 
BRANCH  35  36
ATOM     36  O   UNL A   1      42.916  23.502  25.335  1.00  0.00    -0.460 OA
BRANCH  36  37
ATOM     37  C   UNL A   1      43.624  24.654  25.452  1.00  0.00     0.338 C 
ATOM     38  O   UNL A   1      44.567  25.003  24.762  1.00  0.00    -0.246 OA
BRANCH  37  39
ATOM     39  C   UNL A   1      42.940  25.554  26.423  1.00  0.00     0.060 A 
ATOM     40  C   UNL A   1      41.887  25.100  27.221  1.00  0.00     0.016 A 
ATOM     41  C   UNL A   1      43.323  26.904  26.480  1.00  0.00     0.016 A 
ATOM     42  C   UNL A   1      41.274  25.979  28.124  1.00  0.00     0.010 A 
ATOM     43  C   UNL A   1      42.688  27.789  27.358  1.00  0.00     0.010 A 
ATOM     44  C   UNL A   1      41.695  27.320  28.227  1.00  0.00    -0.014 A 
BRANCH  44  45
ATOM     45  C   UNL A   1      41.295  28.143  29.398  1.00  0.00     0.031 A 
ATOM     46  C   UNL A   1      40.202  29.166  29.359  1.00  0.00     0.074 A 
ATOM     47  C   UNL A   1      42.003  27.984  30.533  1.00  0.00     0.049 A 
ATOM     48  N   UNL A   1      39.727  29.901  30.338  1.00  0.00    -0.248 NA
ATOM     49  C   UNL A   1      39.566  29.400  28.060  1.00  0.00     0.031 C 
ATOM     50  C   UNL A   1      43.134  27.069  30.696  1.00  0.00     0.029 A 
ATOM     51  N   UNL A   1      41.880  28.589  31.757  1.00  0.00    -0.354 N 
ATOM     52  C   UNL A   1      38.712  30.668  29.781  1.00  0.00     0.074 A 
ATOM     53  C   UNL A   1      38.684  30.339  28.376  1.00  0.00     0.031 C 
ATOM     54  C   UNL A   1      43.585  27.154  31.955  1.00  0.00     0.029 A 
ATOM     55  C   UNL A   1      42.798  28.150  32.676  1.00  0.00     0.049 A 
ATOM     56  H   UNL A   1      41.200  29.271  31.956  1.00  0.00     0.167 HD
ATOM     57  C   UNL A   1      37.870  31.550  30.375  1.00  0.00     0.037 A 
ATOM     58  C   UNL A   1      42.989  28.508  33.958  1.00  0.00     0.037 A 
ATOM     59  C   UNL A   1      37.925  31.918  31.767  1.00  0.00     0.049 A 
ATOM     60  C   UNL A   1      42.087  29.534  34.585  1.00  0.00     0.074 A 
ATOM     61  C   UNL A   1      37.095  32.776  32.470  1.00  0.00     0.029 A 
ATOM     62  N   UNL A   1      38.883  31.470  32.662  1.00  0.00    -0.354 N 
ATOM     63  N   UNL A   1      41.060  30.164  34.070  1.00  0.00    -0.248 NA
ATOM     64  C   UNL A   1      42.370  29.889  35.982  1.00  0.00     0.031 C 
ATOM     65  C   UNL A   1      37.586  32.891  33.775  1.00  0.00     0.029 A 
ATOM     66  C   UNL A   1      38.684  32.057  33.901  1.00  0.00     0.049 A 
ATOM     67  H   UNL A   1      39.599  30.829  32.449  1.00  0.00     0.167 HD
ATOM     68  C   UNL A   1      40.553  30.960  35.090  1.00  0.00     0.074 A 
ATOM     69  C   UNL A   1      41.375  30.720  36.256  1.00  0.00     0.031 C 
ATOM     70  C   UNL A   1      39.499  31.812  35.062  1.00  0.00     0.037 A 
BRANCH  57  71
ATOM     71  C   UNL A   1      36.802  32.185  29.525  1.00  0.00     0.057 A 
ATOM     72  C   UNL A   1      36.908  33.516  29.098  1.00  0.00     0.134 A 
ATOM     73  C   UNL A   1      35.630  31.495  29.184  1.00  0.00     0.134 A 
ATOM     74  F   UNL A   1      37.991  34.245  29.406  1.00  0.00    -0.206 F 
ATOM     75  C   UNL A   1      35.891  34.134  28.366  1.00  0.00     0.040 A 
ATOM     76  C   UNL A   1      34.618  32.094  28.431  1.00  0.00     0.040 A 
ATOM     77  F   UNL A   1      35.460  30.218  29.563  1.00  0.00    -0.206 F 
ATOM     78  C   UNL A   1      34.745  33.419  28.024  1.00  0.00     0.006 A 
ENDBRANCH  57  71
BRANCH  58  79
ATOM     79  C   UNL A   1      44.074  27.881  34.750  1.00  0.00     0.057 A 
ATOM     80  C   UNL A   1      43.891  26.653  35.396  1.00  0.00     0.134 A 
ATOM     81  C   UNL A   1      45.337  28.477  34.839  1.00  0.00     0.134 A 
ATOM     82  F   UNL A   1      42.699  26.038  35.358  1.00  0.00    -0.206 F 
ATOM     83  C   UNL A   1      44.927  26.035  36.095  1.00  0.00     0.040 A 
ATOM     84  C   UNL A   1      46.391  27.855  35.508  1.00  0.00     0.040 A 
ATOM     85  F   UNL A   1      45.577  29.648  34.230  1.00  0.00    -0.206 F 
ATOM     86  C   UNL A   1      46.186  26.630  36.139  1.00  0.00     0.006 A 
ENDBRANCH  58  79
BRANCH  70  87
ATOM     87  C   UNL A   1      39.146  32.513  36.342  1.00  0.00     0.057 A 
ATOM     88  C   UNL A   1      39.699  33.764  36.644  1.00  0.00     0.134 A 
ATOM     89  C   UNL A   1      38.274  31.949  37.283  1.00  0.00     0.134 A 
ATOM     90  F   UNL A   1      40.548  34.358  35.792  1.00  0.00    -0.206 F 
ATOM     91  C   UNL A   1      39.396  34.430  37.832  1.00  0.00     0.040 A 
ATOM     92  C   UNL A   1      37.938  32.621  38.461  1.00  0.00     0.040 A 
ATOM     93  F   UNL A   1      37.697  30.760  37.051  1.00  0.00    -0.206 F 
ATOM     94  C   UNL A   1      38.505  33.863  38.741  1.00  0.00     0.006 A 
ENDBRANCH  70  87
ENDBRANCH  44  45
ENDBRANCH  37  39
ENDBRANCH  36  37
ENDBRANCH  35  36
ENDBRANCH  34  35
ENDBRANCH  33  34
ENDBRANCH  32  33
ENDBRANCH  31  32
ENDBRANCH   1  31
TORSDOF 22
ENDMDL
MODEL 3
REMARK VINA RESULT:      -9.5      7.160     10.532
REMARK SMILES O=C(CN1C(=O)/C(=C2/Sc3ccccc3N2CCCS(=O)(=O)[O-])SC1=S)OCCOCCOCCOC(=O)c1ccc(-c2c3nc(c(-c4c(F)cccc4F)c4ccc([nH]4)c(-c4c(F)cccc4F)c4nc(c(-c5c(F)cccc5F)c5ccc2[nH]5)C=C4)C=C3)cc1
REMARK SMILES IDX 30 1 29 2 28 3 27 4 2 5 1 6 3 7 4 8 5 9 25 10 6 11 7 12
REMARK SMILES IDX 24 13 26 14 8 15 9 16 16 17 10 18 15 19 11 20 14 21 12 22
REMARK SMILES IDX 13 23 17 24 18 25 19 26 20 27 21 28 22 29 23 30 31 31 32 32
REMARK SMILES IDX 33 33 34 34 35 35 36 36 37 37 38 38 39 39 40 40 92 41 41 42
REMARK SMILES IDX 91 43 42 44 43 45 44 46 85 47 45 48 90 49 84 50 86 51 46 52
REMARK SMILES IDX 89 53 83 54 82 55 47 57 73 58 56 59 72 60 57 61 60 62 71 63
REMARK SMILES IDX 87 64 58 65 59 66 70 68 88 69 61 70 48 71 49 72 54 73 50 74
REMARK SMILES IDX 51 75 53 76 55 77 52 78 74 79 75 80 80 81 76 82 77 83 79 84
REMARK SMILES IDX 81 85 78 86 62 87 63 88 68 89 64 90 65 91 67 92 69 93 66 94
REMARK H PARENT 86 56 60 67
REMARK Flexibility Score: inf
ROOT
ATOM      1  O   UNL A   1      41.591  28.121  31.462  1.00  0.00    -0.376 OA
ENDROOT
BRANCH   1   2
ATOM      2  C   UNL A   1      40.738  28.425  32.539  1.00  0.00     0.202 C 
BRANCH   2   3
ATOM      3  C   UNL A   1      39.260  28.074  32.424  1.00  0.00     0.261 C 
BRANCH   3   4
ATOM      4  O   UNL A   1      38.273  28.852  31.592  1.00  0.00    -0.462 OA
BRANCH   4   5
ATOM      5  C   UNL A   1      37.167  29.229  30.939  1.00  0.00     0.326 C 
ATOM      6  O   UNL A   1      36.203  29.573  31.632  1.00  0.00    -0.250 OA
BRANCH   5   7
ATOM      7  C   UNL A   1      37.004  29.283  29.408  1.00  0.00     0.250 C 
BRANCH   7   8
ATOM      8  N   UNL A   1      36.008  30.330  28.951  1.00  0.00    -0.281 N 
ATOM      9  C   UNL A   1      36.229  31.656  29.176  1.00  0.00     0.269 C 
ATOM     10  C   UNL A   1      35.051  30.216  27.973  1.00  0.00     0.148 C 
ATOM     11  O   UNL A   1      37.331  32.180  29.143  1.00  0.00    -0.268 OA
ATOM     12  C   UNL A   1      35.014  32.481  29.089  1.00  0.00     0.111 C 
ATOM     13  S   UNL A   1      34.079  31.711  27.861  1.00  0.00    -0.052 SA
ATOM     14  S   UNL A   1      34.827  28.974  26.898  1.00  0.00    -0.052 S 
ATOM     15  C   UNL A   1      34.726  33.557  29.862  1.00  0.00     0.100 C 
ATOM     16  S   UNL A   1      33.360  34.640  29.361  1.00  0.00    -0.068 SA
ATOM     17  N   UNL A   1      35.312  33.995  31.082  1.00  0.00    -0.334 N 
ATOM     18  C   UNL A   1      33.614  35.626  30.824  1.00  0.00     0.037 A 
ATOM     19  C   UNL A   1      34.561  35.051  31.678  1.00  0.00     0.056 A 
ATOM     20  C   UNL A   1      33.034  36.845  31.141  1.00  0.00     0.017 A 
ATOM     21  C   UNL A   1      34.764  35.579  32.954  1.00  0.00     0.027 A 
ATOM     22  C   UNL A   1      33.316  37.425  32.382  1.00  0.00     0.001 A 
ATOM     23  C   UNL A   1      34.137  36.771  33.307  1.00  0.00     0.002 A 
BRANCH  17  24
ATOM     24  C   UNL A   1      36.733  34.151  31.390  1.00  0.00     0.124 C 
BRANCH  24  25
ATOM     25  C   UNL A   1      37.266  32.961  32.169  1.00  0.00     0.037 C 
BRANCH  25  26
ATOM     26  C   UNL A   1      36.404  32.654  33.344  1.00  0.00     0.124 C 
BRANCH  26  27
ATOM     27  S   UNL A   1      37.040  33.262  34.938  1.00  0.00     0.095 S 
ATOM     28  O   UNL A   1      37.491  32.167  35.739  1.00  0.00    -0.243 OA
ATOM     29  O   UNL A   1      37.807  34.492  34.815  1.00  0.00    -0.243 OA
ATOM     30  O   UNL A   1      35.648  33.761  35.572  1.00  0.00    -0.748 OA
ENDBRANCH  26  27
ENDBRANCH  25  26
ENDBRANCH  24  25
ENDBRANCH  17  24
ENDBRANCH   7   8
ENDBRANCH   5   7
ENDBRANCH   4   5
ENDBRANCH   3   4
ENDBRANCH   2   3
ENDBRANCH   1   2
BRANCH   1  31
ATOM     31  C   UNL A   1      41.675  29.087  30.444  1.00  0.00     0.188 C 
BRANCH  31  32
ATOM     32  C   UNL A   1      40.960  28.722  29.127  1.00  0.00     0.188 C 
BRANCH  32  33
ATOM     33  O   UNL A   1      40.109  27.588  29.011  1.00  0.00    -0.376 OA
BRANCH  33  34
ATOM     34  C   UNL A   1      39.625  27.136  27.760  1.00  0.00     0.202 C 
BRANCH  34  35
ATOM     35  C   UNL A   1      39.428  25.631  27.513  1.00  0.00     0.261 C 
BRANCH  35  36
ATOM     36  O   UNL A   1      40.144  25.066  26.407  1.00  0.00    -0.460 OA
BRANCH  36  37
ATOM     37  C   UNL A   1      41.203  24.275  26.718  1.00  0.00     0.338 C 
ATOM     38  O   UNL A   1      41.190  23.066  26.869  1.00  0.00    -0.246 OA
BRANCH  37  39
ATOM     39  C   UNL A   1      42.455  25.080  26.637  1.00  0.00     0.060 A 
ATOM     40  C   UNL A   1      42.993  25.473  25.409  1.00  0.00     0.016 A 
ATOM     41  C   UNL A   1      43.138  25.388  27.825  1.00  0.00     0.016 A 
ATOM     42  C   UNL A   1      44.170  26.233  25.380  1.00  0.00     0.010 A 
ATOM     43  C   UNL A   1      44.330  26.118  27.794  1.00  0.00     0.010 A 
ATOM     44  C   UNL A   1      44.827  26.593  26.573  1.00  0.00    -0.014 A 
BRANCH  44  45
ATOM     45  C   UNL A   1      45.856  27.667  26.566  1.00  0.00     0.031 A 
ATOM     46  C   UNL A   1      47.330  27.403  26.528  1.00  0.00     0.074 A 
ATOM     47  C   UNL A   1      45.420  28.938  26.656  1.00  0.00     0.049 A 
ATOM     48  N   UNL A   1      48.319  28.264  26.459  1.00  0.00    -0.248 NA
ATOM     49  C   UNL A   1      47.748  26.000  26.582  1.00  0.00     0.031 C 
ATOM     50  C   UNL A   1      44.016  29.339  26.763  1.00  0.00     0.029 A 
ATOM     51  N   UNL A   1      46.111  30.121  26.676  1.00  0.00    -0.354 N 
ATOM     52  C   UNL A   1      49.482  27.507  26.429  1.00  0.00     0.074 A 
ATOM     53  C   UNL A   1      49.068  26.129  26.540  1.00  0.00     0.031 C 
ATOM     54  C   UNL A   1      43.947  30.677  26.812  1.00  0.00     0.029 A 
ATOM     55  C   UNL A   1      45.300  31.224  26.772  1.00  0.00     0.049 A 
ATOM     56  H   UNL A   1      47.092  30.175  26.627  1.00  0.00     0.167 HD
ATOM     57  C   UNL A   1      50.772  27.909  26.306  1.00  0.00     0.037 A 
ATOM     58  C   UNL A   1      45.609  32.532  26.823  1.00  0.00     0.037 A 
ATOM     59  C   UNL A   1      51.194  29.286  26.244  1.00  0.00     0.049 A 
ATOM     60  C   UNL A   1      47.048  32.959  26.749  1.00  0.00     0.074 A 
ATOM     61  C   UNL A   1      52.473  29.792  26.085  1.00  0.00     0.029 A 
ATOM     62  N   UNL A   1      50.347  30.374  26.367  1.00  0.00    -0.354 N 
ATOM     63  N   UNL A   1      48.126  32.228  26.607  1.00  0.00    -0.248 NA
ATOM     64  C   UNL A   1      47.308  34.403  26.833  1.00  0.00     0.031 C 
ATOM     65  C   UNL A   1      52.406  31.187  26.170  1.00  0.00     0.029 A 
ATOM     66  C   UNL A   1      51.078  31.550  26.319  1.00  0.00     0.049 A 
ATOM     67  H   UNL A   1      49.370  30.320  26.472  1.00  0.00     0.167 HD
ATOM     68  C   UNL A   1      49.186  33.124  26.547  1.00  0.00     0.074 A 
ATOM     69  C   UNL A   1      48.619  34.452  26.651  1.00  0.00     0.031 C 
ATOM     70  C   UNL A   1      50.511  32.869  26.416  1.00  0.00     0.037 A 
BRANCH  57  71
ATOM     71  C   UNL A   1      51.835  26.846  26.225  1.00  0.00     0.057 A 
ATOM     72  C   UNL A   1      52.603  26.498  27.345  1.00  0.00     0.134 A 
ATOM     73  C   UNL A   1      52.146  26.212  25.013  1.00  0.00     0.134 A 
ATOM     74  F   UNL A   1      52.377  27.080  28.532  1.00  0.00    -0.206 F 
ATOM     75  C   UNL A   1      53.637  25.562  27.262  1.00  0.00     0.040 A 
ATOM     76  C   UNL A   1      53.160  25.256  24.924  1.00  0.00     0.040 A 
ATOM     77  F   UNL A   1      51.453  26.499  23.900  1.00  0.00    -0.206 F 
ATOM     78  C   UNL A   1      53.912  24.932  26.050  1.00  0.00     0.006 A 
ENDBRANCH  57  71
BRANCH  58  79
ATOM     79  C   UNL A   1      44.531  33.544  26.937  1.00  0.00     0.057 A 
ATOM     80  C   UNL A   1      44.073  33.985  28.184  1.00  0.00     0.134 A 
ATOM     81  C   UNL A   1      43.967  34.127  25.797  1.00  0.00     0.134 A 
ATOM     82  F   UNL A   1      44.566  33.456  29.314  1.00  0.00    -0.206 F 
ATOM     83  C   UNL A   1      43.098  34.977  28.294  1.00  0.00     0.040 A 
ATOM     84  C   UNL A   1      43.015  35.141  25.892  1.00  0.00     0.040 A 
ATOM     85  F   UNL A   1      44.375  33.754  24.575  1.00  0.00    -0.206 F 
ATOM     86  C   UNL A   1      42.578  35.567  27.144  1.00  0.00     0.006 A 
ENDBRANCH  58  79
BRANCH  70  87
ATOM     87  C   UNL A   1      51.434  34.051  26.330  1.00  0.00     0.057 A 
ATOM     88  C   UNL A   1      51.785  34.590  25.086  1.00  0.00     0.134 A 
ATOM     89  C   UNL A   1      51.988  34.648  27.471  1.00  0.00     0.134 A 
ATOM     90  F   UNL A   1      51.298  34.062  23.952  1.00  0.00    -0.206 F 
ATOM     91  C   UNL A   1      52.650  35.680  24.979  1.00  0.00     0.040 A 
ATOM     92  C   UNL A   1      52.829  35.759  27.377  1.00  0.00     0.040 A 
ATOM     93  F   UNL A   1      51.683  34.191  28.695  1.00  0.00    -0.206 F 
ATOM     94  C   UNL A   1      53.167  36.274  26.127  1.00  0.00     0.006 A 
ENDBRANCH  70  87
ENDBRANCH  44  45
ENDBRANCH  37  39
ENDBRANCH  36  37
ENDBRANCH  35  36
ENDBRANCH  34  35
ENDBRANCH  33  34
ENDBRANCH  32  33
ENDBRANCH  31  32
ENDBRANCH   1  31
TORSDOF 22
ENDMDL
