MODEL 1
REMARK VINA RESULT:     -10.2      0.000      0.000
REMARK SMILES Cn1ncc(C(=O)OCCOCCOCCOC(=O)c2ccc(-c3c4nc(c(-c5c(F)cccc5F)c5ccc([nH]5)c(-c5c(F)cccc5F)c5nc(c(-c6c(F)cccc6F)c6ccc3[nH]6)C=C5)C=C4)cc2)c1NS(=O)(=O)[C@@H]1CCS(=O)(=O)C1
REMARK SMILES IDX 12 1 11 2 10 3 9 4 8 5 6 6 7 7 5 8 1 9 2 10 3 11 74 12 4 13
REMARK SMILES IDX 75 14 76 16 77 17 78 18 79 19 80 20 85 21 81 22 82 23 83 24
REMARK SMILES IDX 84 25 13 26 14 27 15 28 16 29 17 30 18 31 19 32 20 33 21 34
REMARK SMILES IDX 73 35 22 36 72 37 23 38 24 39 25 40 66 41 26 42 71 43 65 44
REMARK SMILES IDX 67 45 27 46 70 47 64 48 63 49 28 51 54 52 37 53 53 54 38 55
REMARK SMILES IDX 41 56 52 57 68 58 39 59 40 60 51 62 69 63 42 64 29 65 30 66
REMARK SMILES IDX 35 67 31 68 32 69 34 70 36 71 33 72 55 73 56 74 61 75 57 76
REMARK SMILES IDX 58 77 60 78 62 79 59 80 43 81 44 82 49 83 45 84 46 85 48 86
REMARK SMILES IDX 50 87 47 88
REMARK H PARENT 75 15 67 50 41 61
REMARK Flexibility Score: inf
ROOT
ATOM      1  C   UNL A   1      39.493  20.503  25.876  1.00  0.00     0.188 C 
ENDROOT
BRANCH   1   2
ATOM      2  O   UNL A   1      39.723  21.906  25.795  1.00  0.00    -0.376 OA
BRANCH   2   3
ATOM      3  C   UNL A   1      39.037  22.712  26.754  1.00  0.00     0.202 C 
BRANCH   3   4
ATOM      4  C   UNL A   1      38.223  23.836  26.091  1.00  0.00     0.261 C 
BRANCH   4   5
ATOM      5  O   UNL A   1      36.871  23.366  25.878  1.00  0.00    -0.460 OA
BRANCH   5   6
ATOM      6  C   UNL A   1      36.505  22.996  24.623  1.00  0.00     0.343 C 
ATOM      7  O   UNL A   1      37.103  23.313  23.617  1.00  0.00    -0.246 OA
BRANCH   6   8
ATOM      8  C   UNL A   1      35.490  21.954  24.643  1.00  0.00     0.123 A 
ATOM      9  C   UNL A   1      32.613  19.775  24.319  1.00  0.00     0.176 C 
ATOM     10  N   UNL A   1      33.849  20.490  24.556  1.00  0.00    -0.251 N 
ATOM     11  N   UNL A   1      34.907  19.750  24.898  1.00  0.00    -0.179 NA
ATOM     12  C   UNL A   1      34.105  21.863  24.482  1.00  0.00     0.152 A 
ATOM     13  C   UNL A   1      35.909  20.616  24.895  1.00  0.00     0.153 A 
BRANCH  12  14
ATOM     14  N   UNL A   1      33.051  22.751  24.249  1.00  0.00    -0.267 N 
ATOM     15  H   UNL A   1      32.383  22.716  24.972  1.00  0.00     0.181 HD
BRANCH  14  16
ATOM     16  S   UNL A   1      32.634  23.824  23.107  1.00  0.00     0.237 S 
ATOM     17  O   UNL A   1      33.428  23.577  21.923  1.00  0.00    -0.206 OA
ATOM     18  O   UNL A   1      31.190  23.751  23.014  1.00  0.00    -0.206 OA
BRANCH  16  19
ATOM     19  C   UNL A   1      32.977  25.466  23.605  1.00  0.00     0.145 C 
ATOM     20  C   UNL A   1      34.137  25.576  24.592  1.00  0.00     0.039 C 
ATOM     21  C   UNL A   1      31.764  26.199  24.159  1.00  0.00     0.158 C 
ATOM     22  C   UNL A   1      33.578  25.557  26.002  1.00  0.00     0.138 C 
ATOM     23  S   UNL A   1      32.057  26.464  25.888  1.00  0.00     0.151 S 
ATOM     24  O   UNL A   1      31.037  25.779  26.647  1.00  0.00    -0.229 OA
ATOM     25  O   UNL A   1      32.362  27.868  26.065  1.00  0.00    -0.229 OA
ENDBRANCH  16  19
ENDBRANCH  14  16
ENDBRANCH  12  14
ENDBRANCH   6   8
ENDBRANCH   5   6
ENDBRANCH   4   5
ENDBRANCH   3   4
ENDBRANCH   2   3
ENDBRANCH   1   2
BRANCH   1  26
ATOM     26  C   UNL A   1      40.701  19.741  26.372  1.00  0.00     0.188 C 
BRANCH  26  27
ATOM     27  O   UNL A   1      41.833  19.794  25.504  1.00  0.00    -0.376 OA
BRANCH  27  28
ATOM     28  C   UNL A   1      43.009  20.311  26.145  1.00  0.00     0.202 C 
BRANCH  28  29
ATOM     29  C   UNL A   1      43.806  21.355  25.331  1.00  0.00     0.261 C 
BRANCH  29  30
ATOM     30  O   UNL A   1      44.196  22.480  26.143  1.00  0.00    -0.460 OA
BRANCH  30  31
ATOM     31  C   UNL A   1      44.191  23.692  25.528  1.00  0.00     0.338 C 
ATOM     32  O   UNL A   1      44.463  23.920  24.362  1.00  0.00    -0.246 OA
BRANCH  31  33
ATOM     33  C   UNL A   1      43.486  24.667  26.405  1.00  0.00     0.060 A 
ATOM     34  C   UNL A   1      43.868  26.016  26.313  1.00  0.00     0.016 A 
ATOM     35  C   UNL A   1      42.390  24.304  27.196  1.00  0.00     0.016 A 
ATOM     36  C   UNL A   1      43.176  26.999  27.019  1.00  0.00     0.010 A 
ATOM     37  C   UNL A   1      41.717  25.285  27.930  1.00  0.00     0.010 A 
ATOM     38  C   UNL A   1      42.130  26.627  27.871  1.00  0.00    -0.014 A 
BRANCH  38  39
ATOM     39  C   UNL A   1      41.695  27.559  28.936  1.00  0.00     0.031 A 
ATOM     40  C   UNL A   1      42.447  27.492  30.237  1.00  0.00     0.074 A 
ATOM     41  C   UNL A   1      40.671  28.415  28.775  1.00  0.00     0.049 A 
ATOM     42  N   UNL A   1      42.222  28.109  31.364  1.00  0.00    -0.248 NA
ATOM     43  C   UNL A   1      43.612  26.588  30.266  1.00  0.00     0.031 C 
ATOM     44  C   UNL A   1      39.894  28.596  27.550  1.00  0.00     0.029 A 
ATOM     45  N   UNL A   1      40.098  29.283  29.669  1.00  0.00    -0.354 N 
ATOM     46  C   UNL A   1      43.209  27.661  32.236  1.00  0.00     0.074 A 
ATOM     47  C   UNL A   1      44.018  26.704  31.518  1.00  0.00     0.031 C 
ATOM     48  C   UNL A   1      38.926  29.503  27.779  1.00  0.00     0.029 A 
ATOM     49  C   UNL A   1      38.998  29.942  29.173  1.00  0.00     0.049 A 
ATOM     50  H   UNL A   1      40.440  29.422  30.582  1.00  0.00     0.167 HD
ATOM     51  C   UNL A   1      43.424  28.015  33.522  1.00  0.00     0.037 A 
ATOM     52  C   UNL A   1      38.138  30.775  29.791  1.00  0.00     0.037 A 
ATOM     53  C   UNL A   1      42.603  28.948  34.238  1.00  0.00     0.049 A 
ATOM     54  C   UNL A   1      38.353  31.100  31.250  1.00  0.00     0.074 A 
ATOM     55  C   UNL A   1      42.728  29.383  35.545  1.00  0.00     0.029 A 
ATOM     56  N   UNL A   1      41.493  29.583  33.704  1.00  0.00    -0.354 N 
ATOM     57  N   UNL A   1      39.302  30.692  32.058  1.00  0.00    -0.248 NA
ATOM     58  C   UNL A   1      37.373  31.997  31.882  1.00  0.00     0.031 C 
ATOM     59  C   UNL A   1      41.664  30.251  35.813  1.00  0.00     0.029 A 
ATOM     60  C   UNL A   1      40.908  30.392  34.660  1.00  0.00     0.049 A 
ATOM     61  H   UNL A   1      41.169  29.475  32.780  1.00  0.00     0.167 HD
ATOM     62  C   UNL A   1      39.051  31.302  33.283  1.00  0.00     0.074 A 
ATOM     63  C   UNL A   1      37.867  32.117  33.107  1.00  0.00     0.031 C 
ATOM     64  C   UNL A   1      39.735  31.200  34.449  1.00  0.00     0.037 A 
BRANCH  51  65
ATOM     65  C   UNL A   1      44.570  27.357  34.228  1.00  0.00     0.057 A 
ATOM     66  C   UNL A   1      44.404  26.175  34.964  1.00  0.00     0.134 A 
ATOM     67  C   UNL A   1      45.851  27.920  34.186  1.00  0.00     0.134 A 
ATOM     68  F   UNL A   1      43.194  25.604  35.068  1.00  0.00    -0.206 F 
ATOM     69  C   UNL A   1      45.468  25.589  35.651  1.00  0.00     0.040 A 
ATOM     70  C   UNL A   1      46.928  27.329  34.849  1.00  0.00     0.040 A 
ATOM     71  F   UNL A   1      46.074  29.056  33.511  1.00  0.00    -0.206 F 
ATOM     72  C   UNL A   1      46.736  26.163  35.589  1.00  0.00     0.006 A 
ENDBRANCH  51  65
BRANCH  52  73
ATOM     73  C   UNL A   1      36.982  31.350  29.054  1.00  0.00     0.057 A 
ATOM     74  C   UNL A   1      36.981  32.685  28.632  1.00  0.00     0.134 A 
ATOM     75  C   UNL A   1      35.834  30.594  28.790  1.00  0.00     0.134 A 
ATOM     76  F   UNL A   1      38.041  33.470  28.877  1.00  0.00    -0.206 F 
ATOM     77  C   UNL A   1      35.878  33.252  27.990  1.00  0.00     0.040 A 
ATOM     78  C   UNL A   1      34.731  31.139  28.129  1.00  0.00     0.040 A 
ATOM     79  F   UNL A   1      35.768  29.308  29.170  1.00  0.00    -0.206 F 
ATOM     80  C   UNL A   1      34.749  32.475  27.734  1.00  0.00     0.006 A 
ENDBRANCH  52  73
BRANCH  64  81
ATOM     81  C   UNL A   1      39.244  32.014  35.610  1.00  0.00     0.057 A 
ATOM     82  C   UNL A   1      39.607  33.355  35.778  1.00  0.00     0.134 A 
ATOM     83  C   UNL A   1      38.347  31.462  36.535  1.00  0.00     0.134 A 
ATOM     84  F   UNL A   1      40.469  33.938  34.932  1.00  0.00    -0.206 F 
ATOM     85  C   UNL A   1      39.108  34.115  36.837  1.00  0.00     0.040 A 
ATOM     86  C   UNL A   1      37.822  32.219  37.581  1.00  0.00     0.040 A 
ATOM     87  F   UNL A   1      37.951  30.185  36.419  1.00  0.00    -0.206 F 
ATOM     88  C   UNL A   1      38.207  33.549  37.738  1.00  0.00     0.006 A 
ENDBRANCH  64  81
ENDBRANCH  38  39
ENDBRANCH  31  33
ENDBRANCH  30  31
ENDBRANCH  29  30
ENDBRANCH  28  29
ENDBRANCH  27  28
ENDBRANCH  26  27
ENDBRANCH   1  26
TORSDOF 20
ENDMDL
MODEL 2
REMARK VINA RESULT:      -9.9      3.804      5.392
REMARK SMILES Cn1ncc(C(=O)OCCOCCOCCOC(=O)c2ccc(-c3c4nc(c(-c5c(F)cccc5F)c5ccc([nH]5)c(-c5c(F)cccc5F)c5nc(c(-c6c(F)cccc6F)c6ccc3[nH]6)C=C5)C=C4)cc2)c1NS(=O)(=O)[C@@H]1CCS(=O)(=O)C1
REMARK SMILES IDX 12 1 11 2 10 3 9 4 8 5 6 6 7 7 5 8 1 9 2 10 3 11 74 12 4 13
REMARK SMILES IDX 75 14 76 16 77 17 78 18 79 19 80 20 85 21 81 22 82 23 83 24
REMARK SMILES IDX 84 25 13 26 14 27 15 28 16 29 17 30 18 31 19 32 20 33 21 34
REMARK SMILES IDX 73 35 22 36 72 37 23 38 24 39 25 40 66 41 26 42 71 43 65 44
REMARK SMILES IDX 67 45 27 46 70 47 64 48 63 49 28 51 54 52 37 53 53 54 38 55
REMARK SMILES IDX 41 56 52 57 68 58 39 59 40 60 51 62 69 63 42 64 29 65 30 66
REMARK SMILES IDX 35 67 31 68 32 69 34 70 36 71 33 72 55 73 56 74 61 75 57 76
REMARK SMILES IDX 58 77 60 78 62 79 59 80 43 81 44 82 49 83 45 84 46 85 48 86
REMARK SMILES IDX 50 87 47 88
REMARK H PARENT 75 15 67 50 41 61
REMARK Flexibility Score: inf
ROOT
ATOM      1  C   UNL A   1      35.872  21.538  25.846  1.00  0.00     0.188 C 
ENDROOT
BRANCH   1   2
ATOM      2  O   UNL A   1      35.947  22.919  26.187  1.00  0.00    -0.376 OA
BRANCH   2   3
ATOM      3  C   UNL A   1      34.753  23.504  26.710  1.00  0.00     0.202 C 
BRANCH   3   4
ATOM      4  C   UNL A   1      34.185  24.591  25.782  1.00  0.00     0.261 C 
BRANCH   4   5
ATOM      5  O   UNL A   1      32.808  24.841  26.149  1.00  0.00    -0.460 OA
BRANCH   5   6
ATOM      6  C   UNL A   1      31.979  23.777  26.313  1.00  0.00     0.343 C 
ATOM      7  O   UNL A   1      31.180  23.668  27.219  1.00  0.00    -0.246 OA
BRANCH   6   8
ATOM      8  C   UNL A   1      31.958  22.925  25.134  1.00  0.00     0.123 A 
ATOM      9  C   UNL A   1      32.052  21.354  21.870  1.00  0.00     0.176 C 
ATOM     10  N   UNL A   1      31.977  21.791  23.248  1.00  0.00    -0.251 N 
ATOM     11  N   UNL A   1      32.127  20.846  24.180  1.00  0.00    -0.179 NA
ATOM     12  C   UNL A   1      31.764  23.075  23.758  1.00  0.00     0.152 A 
ATOM     13  C   UNL A   1      32.175  21.528  25.313  1.00  0.00     0.153 A 
BRANCH  12  14
ATOM     14  N   UNL A   1      31.476  24.127  22.884  1.00  0.00    -0.267 N 
ATOM     15  H   UNL A   1      30.614  23.991  22.427  1.00  0.00     0.181 HD
BRANCH  14  16
ATOM     16  S   UNL A   1      32.181  25.513  22.422  1.00  0.00     0.237 S 
ATOM     17  O   UNL A   1      33.614  25.318  22.387  1.00  0.00    -0.206 OA
ATOM     18  O   UNL A   1      31.494  25.912  21.210  1.00  0.00    -0.206 OA
BRANCH  16  19
ATOM     19  C   UNL A   1      31.879  26.804  23.564  1.00  0.00     0.145 C 
ATOM     20  C   UNL A   1      30.563  26.654  24.323  1.00  0.00     0.039 C 
ATOM     21  C   UNL A   1      31.957  28.193  22.946  1.00  0.00     0.158 C 
ATOM     22  C   UNL A   1      29.486  27.427  23.585  1.00  0.00     0.138 C 
ATOM     23  S   UNL A   1      30.318  28.870  22.971  1.00  0.00     0.151 S 
ATOM     24  O   UNL A   1      29.894  29.121  21.614  1.00  0.00    -0.229 OA
ATOM     25  O   UNL A   1      30.283  29.879  24.009  1.00  0.00    -0.229 OA
ENDBRANCH  16  19
ENDBRANCH  14  16
ENDBRANCH  12  14
ENDBRANCH   6   8
ENDBRANCH   5   6
ENDBRANCH   4   5
ENDBRANCH   3   4
ENDBRANCH   2   3
ENDBRANCH   1   2
BRANCH   1  26
ATOM     26  C   UNL A   1      37.063  21.070  25.042  1.00  0.00     0.188 C 
BRANCH  26  27
ATOM     27  O   UNL A   1      37.187  19.652  24.937  1.00  0.00    -0.376 OA
BRANCH  27  28
ATOM     28  C   UNL A   1      38.486  19.171  25.317  1.00  0.00     0.202 C 
BRANCH  28  29
ATOM     29  C   UNL A   1      39.494  20.255  25.760  1.00  0.00     0.261 C 
BRANCH  29  30
ATOM     30  O   UNL A   1      40.556  19.700  26.560  1.00  0.00    -0.460 OA
BRANCH  30  31
ATOM     31  C   UNL A   1      41.818  19.884  26.089  1.00  0.00     0.338 C 
ATOM     32  O   UNL A   1      42.413  19.172  25.299  1.00  0.00    -0.246 OA
BRANCH  31  33
ATOM     33  C   UNL A   1      42.255  21.266  26.428  1.00  0.00     0.060 A 
ATOM     34  C   UNL A   1      42.395  21.586  27.790  1.00  0.00     0.016 A 
ATOM     35  C   UNL A   1      42.652  22.186  25.452  1.00  0.00     0.016 A 
ATOM     36  C   UNL A   1      42.907  22.823  28.179  1.00  0.00     0.010 A 
ATOM     37  C   UNL A   1      43.136  23.438  25.841  1.00  0.00     0.010 A 
ATOM     38  C   UNL A   1      43.231  23.772  27.203  1.00  0.00    -0.014 A 
BRANCH  38  39
ATOM     39  C   UNL A   1      43.342  25.198  27.587  1.00  0.00     0.031 A 
ATOM     40  C   UNL A   1      44.735  25.751  27.720  1.00  0.00     0.074 A 
ATOM     41  C   UNL A   1      42.268  25.969  27.826  1.00  0.00     0.049 A 
ATOM     42  N   UNL A   1      45.132  26.922  28.136  1.00  0.00    -0.248 NA
ATOM     43  C   UNL A   1      45.832  24.843  27.336  1.00  0.00     0.031 C 
ATOM     44  C   UNL A   1      40.873  25.555  27.694  1.00  0.00     0.029 A 
ATOM     45  N   UNL A   1      42.194  27.270  28.256  1.00  0.00    -0.354 N 
ATOM     46  C   UNL A   1      46.520  26.887  28.074  1.00  0.00     0.074 A 
ATOM     47  C   UNL A   1      46.899  25.574  27.605  1.00  0.00     0.031 C 
ATOM     48  C   UNL A   1      40.078  26.578  28.060  1.00  0.00     0.029 A 
ATOM     49  C   UNL A   1      40.910  27.705  28.481  1.00  0.00     0.049 A 
ATOM     50  H   UNL A   1      42.986  27.840  28.391  1.00  0.00     0.167 HD
ATOM     51  C   UNL A   1      47.405  27.861  28.380  1.00  0.00     0.037 A 
ATOM     52  C   UNL A   1      40.472  28.870  28.998  1.00  0.00     0.037 A 
ATOM     53  C   UNL A   1      47.025  29.156  28.869  1.00  0.00     0.049 A 
ATOM     54  C   UNL A   1      41.479  29.919  29.404  1.00  0.00     0.074 A 
ATOM     55  C   UNL A   1      47.836  30.222  29.211  1.00  0.00     0.029 A 
ATOM     56  N   UNL A   1      45.716  29.552  29.095  1.00  0.00    -0.354 N 
ATOM     57  N   UNL A   1      42.788  29.886  29.318  1.00  0.00    -0.248 NA
ATOM     58  C   UNL A   1      40.948  31.162  29.983  1.00  0.00     0.031 C 
ATOM     59  C   UNL A   1      47.016  31.251  29.685  1.00  0.00     0.029 A 
ATOM     60  C   UNL A   1      45.694  30.842  29.592  1.00  0.00     0.049 A 
ATOM     61  H   UNL A   1      44.919  28.998  28.925  1.00  0.00     0.167 HD
ATOM     62  C   UNL A   1      43.234  31.110  29.805  1.00  0.00     0.074 A 
ATOM     63  C   UNL A   1      42.055  31.867  30.173  1.00  0.00     0.031 C 
ATOM     64  C   UNL A   1      44.502  31.571  29.938  1.00  0.00     0.037 A 
BRANCH  51  65
ATOM     65  C   UNL A   1      48.860  27.537  28.225  1.00  0.00     0.057 A 
ATOM     66  C   UNL A   1      49.536  27.738  27.014  1.00  0.00     0.134 A 
ATOM     67  C   UNL A   1      49.588  27.001  29.293  1.00  0.00     0.134 A 
ATOM     68  F   UNL A   1      48.885  28.218  25.943  1.00  0.00    -0.206 F 
ATOM     69  C   UNL A   1      50.881  27.397  26.866  1.00  0.00     0.040 A 
ATOM     70  C   UNL A   1      50.940  26.680  29.164  1.00  0.00     0.040 A 
ATOM     71  F   UNL A   1      48.997  26.773  30.475  1.00  0.00    -0.206 F 
ATOM     72  C   UNL A   1      51.589  26.872  27.945  1.00  0.00     0.006 A 
ENDBRANCH  51  65
BRANCH  52  73
ATOM     73  C   UNL A   1      39.016  29.112  29.187  1.00  0.00     0.057 A 
ATOM     74  C   UNL A   1      38.206  29.528  28.123  1.00  0.00     0.134 A 
ATOM     75  C   UNL A   1      38.408  28.975  30.440  1.00  0.00     0.134 A 
ATOM     76  F   UNL A   1      38.733  29.703  26.903  1.00  0.00    -0.206 F 
ATOM     77  C   UNL A   1      36.850  29.814  28.301  1.00  0.00     0.040 A 
ATOM     78  C   UNL A   1      37.049  29.234  30.629  1.00  0.00     0.040 A 
ATOM     79  F   UNL A   1      39.128  28.582  31.502  1.00  0.00    -0.206 F 
ATOM     80  C   UNL A   1      36.268  29.663  29.558  1.00  0.00     0.006 A 
ENDBRANCH  52  73
BRANCH  64  81
ATOM     81  C   UNL A   1      44.678  32.964  30.467  1.00  0.00     0.057 A 
ATOM     82  C   UNL A   1      44.598  34.086  29.633  1.00  0.00     0.134 A 
ATOM     83  C   UNL A   1      44.869  33.184  31.837  1.00  0.00     0.134 A 
ATOM     84  F   UNL A   1      44.427  33.941  28.311  1.00  0.00    -0.206 F 
ATOM     85  C   UNL A   1      44.719  35.379  30.143  1.00  0.00     0.040 A 
ATOM     86  C   UNL A   1      44.964  34.473  32.362  1.00  0.00     0.040 A 
ATOM     87  F   UNL A   1      44.941  32.150  32.689  1.00  0.00    -0.206 F 
ATOM     88  C   UNL A   1      44.895  35.576  31.512  1.00  0.00     0.006 A 
ENDBRANCH  64  81
ENDBRANCH  38  39
ENDBRANCH  31  33
ENDBRANCH  30  31
ENDBRANCH  29  30
ENDBRANCH  28  29
ENDBRANCH  27  28
ENDBRANCH  26  27
ENDBRANCH   1  26
TORSDOF 20
ENDMDL
MODEL 3
REMARK VINA RESULT:      -9.6      1.408      6.344
REMARK SMILES Cn1ncc(C(=O)OCCOCCOCCOC(=O)c2ccc(-c3c4nc(c(-c5c(F)cccc5F)c5ccc([nH]5)c(-c5c(F)cccc5F)c5nc(c(-c6c(F)cccc6F)c6ccc3[nH]6)C=C5)C=C4)cc2)c1NS(=O)(=O)[C@@H]1CCS(=O)(=O)C1
REMARK SMILES IDX 12 1 11 2 10 3 9 4 8 5 6 6 7 7 5 8 1 9 2 10 3 11 74 12 4 13
REMARK SMILES IDX 75 14 76 16 77 17 78 18 79 19 80 20 85 21 81 22 82 23 83 24
REMARK SMILES IDX 84 25 13 26 14 27 15 28 16 29 17 30 18 31 19 32 20 33 21 34
REMARK SMILES IDX 73 35 22 36 72 37 23 38 24 39 25 40 66 41 26 42 71 43 65 44
REMARK SMILES IDX 67 45 27 46 70 47 64 48 63 49 28 51 54 52 37 53 53 54 38 55
REMARK SMILES IDX 41 56 52 57 68 58 39 59 40 60 51 62 69 63 42 64 29 65 30 66
REMARK SMILES IDX 35 67 31 68 32 69 34 70 36 71 33 72 55 73 56 74 61 75 57 76
REMARK SMILES IDX 58 77 60 78 62 79 59 80 43 81 44 82 49 83 45 84 46 85 48 86
REMARK SMILES IDX 50 87 47 88
REMARK H PARENT 75 15 67 50 41 61
REMARK Flexibility Score: inf
ROOT
ATOM      1  C   UNL A   1      40.093  22.315  27.076  1.00  0.00     0.188 C 
ENDROOT
BRANCH   1   2
ATOM      2  O   UNL A   1      38.914  22.299  26.277  1.00  0.00    -0.376 OA
BRANCH   2   3
ATOM      3  C   UNL A   1      38.635  21.078  25.591  1.00  0.00     0.202 C 
BRANCH   3   4
ATOM      4  C   UNL A   1      37.284  21.120  24.857  1.00  0.00     0.261 C 
BRANCH   4   5
ATOM      5  O   UNL A   1      36.227  21.245  25.838  1.00  0.00    -0.460 OA
BRANCH   5   6
ATOM      6  C   UNL A   1      35.501  22.392  25.864  1.00  0.00     0.343 C 
ATOM      7  O   UNL A   1      35.914  23.452  26.286  1.00  0.00    -0.246 OA
BRANCH   6   8
ATOM      8  C   UNL A   1      34.283  22.277  25.077  1.00  0.00     0.123 A 
ATOM      9  C   UNL A   1      31.331  22.635  23.005  1.00  0.00     0.176 C 
ATOM     10  N   UNL A   1      32.461  22.290  23.841  1.00  0.00    -0.251 N 
ATOM     11  N   UNL A   1      32.810  21.001  23.866  1.00  0.00    -0.179 NA
ATOM     12  C   UNL A   1      33.255  23.118  24.642  1.00  0.00     0.152 A 
ATOM     13  C   UNL A   1      33.937  20.995  24.560  1.00  0.00     0.153 A 
BRANCH  12  14
ATOM     14  N   UNL A   1      32.917  24.466  24.790  1.00  0.00    -0.267 N 
ATOM     15  H   UNL A   1      33.006  24.956  23.941  1.00  0.00     0.181 HD
BRANCH  14  16
ATOM     16  S   UNL A   1      32.418  25.438  25.989  1.00  0.00     0.237 S 
ATOM     17  O   UNL A   1      31.802  24.632  27.019  1.00  0.00    -0.206 OA
ATOM     18  O   UNL A   1      33.566  26.257  26.327  1.00  0.00    -0.206 OA
BRANCH  16  19
ATOM     19  C   UNL A   1      31.198  26.567  25.440  1.00  0.00     0.145 C 
ATOM     20  C   UNL A   1      31.090  26.660  23.921  1.00  0.00     0.039 C 
ATOM     21  C   UNL A   1      31.353  27.962  26.028  1.00  0.00     0.158 C 
ATOM     22  C   UNL A   1      31.968  27.801  23.440  1.00  0.00     0.138 C 
ATOM     23  S   UNL A   1      31.805  29.043  24.697  1.00  0.00     0.151 S 
ATOM     24  O   UNL A   1      33.103  29.610  24.975  1.00  0.00    -0.229 OA
ATOM     25  O   UNL A   1      30.644  29.848  24.380  1.00  0.00    -0.229 OA
ENDBRANCH  16  19
ENDBRANCH  14  16
ENDBRANCH  12  14
ENDBRANCH   6   8
ENDBRANCH   5   6
ENDBRANCH   4   5
ENDBRANCH   3   4
ENDBRANCH   2   3
ENDBRANCH   1   2
BRANCH   1  26
ATOM     26  C   UNL A   1      41.114  21.294  26.628  1.00  0.00     0.188 C 
BRANCH  26  27
ATOM     27  O   UNL A   1      42.468  21.741  26.700  1.00  0.00    -0.376 OA
BRANCH  27  28
ATOM     28  C   UNL A   1      43.213  21.474  25.501  1.00  0.00     0.202 C 
BRANCH  28  29
ATOM     29  C   UNL A   1      44.190  22.589  25.064  1.00  0.00     0.261 C 
BRANCH  29  30
ATOM     30  O   UNL A   1      43.542  23.875  25.008  1.00  0.00    -0.460 OA
BRANCH  30  31
ATOM     31  C   UNL A   1      44.298  24.941  25.380  1.00  0.00     0.338 C 
ATOM     32  O   UNL A   1      45.258  25.400  24.786  1.00  0.00    -0.246 OA
BRANCH  31  33
ATOM     33  C   UNL A   1      43.582  25.676  26.460  1.00  0.00     0.060 A 
ATOM     34  C   UNL A   1      43.915  27.028  26.654  1.00  0.00     0.016 A 
ATOM     35  C   UNL A   1      42.519  25.110  27.172  1.00  0.00     0.016 A 
ATOM     36  C   UNL A   1      43.208  27.808  27.568  1.00  0.00     0.010 A 
ATOM     37  C   UNL A   1      41.831  25.882  28.112  1.00  0.00     0.010 A 
ATOM     38  C   UNL A   1      42.197  27.221  28.337  1.00  0.00    -0.014 A 
BRANCH  38  39
ATOM     39  C   UNL A   1      41.756  27.884  29.586  1.00  0.00     0.031 A 
ATOM     40  C   UNL A   1      40.531  28.752  29.490  1.00  0.00     0.074 A 
ATOM     41  C   UNL A   1      42.414  27.746  30.749  1.00  0.00     0.049 A 
ATOM     42  N   UNL A   1      39.984  29.526  30.387  1.00  0.00    -0.248 NA
ATOM     43  C   UNL A   1      39.836  28.750  28.190  1.00  0.00     0.031 C 
ATOM     44  C   UNL A   1      43.588  26.905  30.972  1.00  0.00     0.029 A 
ATOM     45  N   UNL A   1      42.189  28.340  31.966  1.00  0.00    -0.354 N 
ATOM     46  C   UNL A   1      38.890  30.108  29.757  1.00  0.00     0.074 A 
ATOM     47  C   UNL A   1      38.863  29.620  28.398  1.00  0.00     0.031 C 
ATOM     48  C   UNL A   1      43.997  27.055  32.246  1.00  0.00     0.029 A 
ATOM     49  C   UNL A   1      43.131  28.026  32.916  1.00  0.00     0.049 A 
ATOM     50  H   UNL A   1      41.425  28.935  32.143  1.00  0.00     0.167 HD
ATOM     51  C   UNL A   1      37.985  30.974  30.264  1.00  0.00     0.037 A 
ATOM     52  C   UNL A   1      43.285  28.499  34.169  1.00  0.00     0.037 A 
ATOM     53  C   UNL A   1      38.029  31.475  31.607  1.00  0.00     0.049 A 
ATOM     54  C   UNL A   1      42.306  29.522  34.693  1.00  0.00     0.074 A 
ATOM     55  C   UNL A   1      37.164  32.356  32.230  1.00  0.00     0.029 A 
ATOM     56  N   UNL A   1      39.006  31.142  32.534  1.00  0.00    -0.354 N 
ATOM     57  N   UNL A   1      41.261  30.047  34.099  1.00  0.00    -0.248 NA
ATOM     58  C   UNL A   1      42.533  30.021  36.057  1.00  0.00     0.031 C 
ATOM     59  C   UNL A   1      37.644  32.588  33.523  1.00  0.00     0.029 A 
ATOM     60  C   UNL A   1      38.779  31.816  33.719  1.00  0.00     0.049 A 
ATOM     61  H   UNL A   1      39.751  30.518  32.371  1.00  0.00     0.167 HD
ATOM     62  C   UNL A   1      40.690  30.915  35.024  1.00  0.00     0.074 A 
ATOM     63  C   UNL A   1      41.500  30.836  36.223  1.00  0.00     0.031 C 
ATOM     64  C   UNL A   1      39.597  31.707  34.898  1.00  0.00     0.037 A 
BRANCH  51  65
ATOM     65  C   UNL A   1      36.903  31.449  29.342  1.00  0.00     0.057 A 
ATOM     66  C   UNL A   1      36.919  32.735  28.786  1.00  0.00     0.134 A 
ATOM     67  C   UNL A   1      35.826  30.616  29.019  1.00  0.00     0.134 A 
ATOM     68  F   UNL A   1      37.908  33.592  29.082  1.00  0.00    -0.206 F 
ATOM     69  C   UNL A   1      35.888  33.183  27.958  1.00  0.00     0.040 A 
ATOM     70  C   UNL A   1      34.802  31.044  28.173  1.00  0.00     0.040 A 
ATOM     71  F   UNL A   1      35.745  29.378  29.527  1.00  0.00    -0.206 F 
ATOM     72  C   UNL A   1      34.829  32.335  27.645  1.00  0.00     0.006 A 
ENDBRANCH  51  65
BRANCH  52  73
ATOM     73  C   UNL A   1      44.416  28.036  35.018  1.00  0.00     0.057 A 
ATOM     74  C   UNL A   1      45.650  28.694  35.004  1.00  0.00     0.134 A 
ATOM     75  C   UNL A   1      44.303  26.900  35.829  1.00  0.00     0.134 A 
ATOM     76  F   UNL A   1      45.831  29.773  34.228  1.00  0.00    -0.206 F 
ATOM     77  C   UNL A   1      46.737  28.234  35.752  1.00  0.00     0.040 A 
ATOM     78  C   UNL A   1      45.373  26.441  36.601  1.00  0.00     0.040 A 
ATOM     79  F   UNL A   1      43.148  26.221  35.887  1.00  0.00    -0.206 F 
ATOM     80  C   UNL A   1      46.597  27.105  36.557  1.00  0.00     0.006 A 
ENDBRANCH  52  73
BRANCH  64  81
ATOM     81  C   UNL A   1      39.193  32.519  36.093  1.00  0.00     0.057 A 
ATOM     82  C   UNL A   1      38.365  31.998  37.094  1.00  0.00     0.134 A 
ATOM     83  C   UNL A   1      39.690  33.817  36.270  1.00  0.00     0.134 A 
ATOM     84  F   UNL A   1      37.849  30.766  36.978  1.00  0.00    -0.206 F 
ATOM     85  C   UNL A   1      38.031  32.748  38.223  1.00  0.00     0.040 A 
ATOM     86  C   UNL A   1      39.385  34.565  37.407  1.00  0.00     0.040 A 
ATOM     87  F   UNL A   1      40.499  34.367  35.351  1.00  0.00    -0.206 F 
ATOM     88  C   UNL A   1      38.549  34.032  38.385  1.00  0.00     0.006 A 
ENDBRANCH  64  81
ENDBRANCH  38  39
ENDBRANCH  31  33
ENDBRANCH  30  31
ENDBRANCH  29  30
ENDBRANCH  28  29
ENDBRANCH  27  28
ENDBRANCH  26  27
ENDBRANCH   1  26
TORSDOF 20
ENDMDL
