MODEL 1
REMARK VINA RESULT:     -10.5      0.000      0.000
REMARK SMILES Cc1coc2c(C)c3oc(=O)c(CCC(=O)N[C@H](CC(C)C)C(=O)OCCOCCOCCOC(=O)c4ccc(-c5c6nc(c(-c7c(F)cccc7F)c7ccc([nH]7)c(-c7c(F)cccc7F)c7nc(c(-c8c(F)cccc8F)c8ccc5[nH]8)C=C7)C=C6)cc4)c(C)c3cc12
REMARK SMILES IDX 29 1 28 2 27 3 26 4 25 5 23 6 24 7 18 8 17 9 15 10 16 11
REMARK SMILES IDX 14 13 13 14 12 15 1 16 2 17 3 18 95 19 4 20 5 21 94 22 6 23
REMARK SMILES IDX 93 24 7 25 8 26 91 27 9 28 92 29 10 30 11 31 19 32 20 33
REMARK SMILES IDX 21 34 22 35 30 36 31 37 32 38 33 39 34 40 35 41 36 42 37 43
REMARK SMILES IDX 38 44 90 45 39 46 89 47 40 48 41 49 42 50 83 51 43 52 88 53
REMARK SMILES IDX 82 54 84 55 44 56 87 57 81 58 80 59 45 61 71 62 54 63 70 64
REMARK SMILES IDX 55 65 58 66 69 67 85 68 56 69 57 70 68 72 86 73 59 74 46 75
REMARK SMILES IDX 47 76 52 77 48 78 49 79 51 80 53 81 50 82 72 83 73 84 78 85
REMARK SMILES IDX 74 86 75 87 77 88 79 89 76 90 60 91 61 92 66 93 62 94 63 95
REMARK SMILES IDX 65 96 67 97 64 98
REMARK H PARENT 17 12 84 60 58 71
REMARK Flexibility Score: inf
ROOT
ATOM      1  C   UNL A   1      37.603  20.953  25.079  1.00  0.00     0.188 C 
ENDROOT
BRANCH   1   2
ATOM      2  O   UNL A   1      36.229  21.256  25.177  1.00  0.00    -0.376 OA
BRANCH   2   3
ATOM      3  C   UNL A   1      35.620  21.859  26.321  1.00  0.00     0.202 C 
BRANCH   3   4
ATOM      4  C   UNL A   1      34.171  21.550  26.943  1.00  0.00     0.261 C 
BRANCH   4   5
ATOM      5  O   UNL A   1      32.665  22.255  26.363  1.00  0.00    -0.462 OA
BRANCH   5   6
ATOM      6  C   UNL A   1      31.612  23.785  26.289  1.00  0.00     0.328 C 
ATOM      7  O   UNL A   1      30.739  24.086  27.158  1.00  0.00    -0.250 OA
BRANCH   6   8
ATOM      8  C   UNL A   1      31.531  24.857  25.136  1.00  0.00     0.192 C 
BRANCH   8   9
ATOM      9  N   UNL A   1      30.473  25.767  24.720  1.00  0.00    -0.343 N 
ATOM     10  C   UNL A   1      30.554  27.140  24.664  1.00  0.00     0.221 C 
ATOM     11  O   UNL A   1      29.771  27.743  23.930  1.00  0.00    -0.275 OA
ATOM     12  H   UNL A   1      29.616  25.360  24.452  1.00  0.00     0.164 HD
BRANCH  10  13
ATOM     13  C   UNL A   1      31.519  27.899  25.568  1.00  0.00     0.105 C 
BRANCH  13  14
ATOM     14  C   UNL A   1      31.966  29.201  24.908  1.00  0.00     0.053 C 
BRANCH  14  15
ATOM     15  C   UNL A   1      32.358  30.111  26.016  1.00  0.00     0.042 A 
ATOM     16  C   UNL A   1      38.593  32.040  29.608  1.00  0.00     0.048 C 
ATOM     17  C   UNL A   1      37.337  32.829  29.654  1.00  0.00    -0.005 A 
ATOM     18  C   UNL A   1      37.251  34.121  30.114  1.00  0.00     0.199 A 
ATOM     19  C   UNL A   1      36.026  32.496  29.132  1.00  0.00     0.024 A 
ATOM     20  O   UNL A   1      36.033  34.631  29.866  1.00  0.00    -0.464 OA
ATOM     21  C   UNL A   1      35.282  33.687  29.210  1.00  0.00     0.140 A 
ATOM     22  C   UNL A   1      35.516  31.316  28.512  1.00  0.00     0.024 A 
ATOM     23  C   UNL A   1      33.998  34.027  28.687  1.00  0.00     0.036 A 
ATOM     24  C   UNL A   1      34.262  31.407  27.933  1.00  0.00     0.022 A 
ATOM     25  C   UNL A   1      33.543  35.419  28.811  1.00  0.00     0.052 C 
ATOM     26  C   UNL A   1      33.429  32.924  28.074  1.00  0.00     0.145 A 
ATOM     27  C   UNL A   1      33.630  29.993  26.888  1.00  0.00    -0.030 A 
ATOM     28  O   UNL A   1      31.831  33.028  27.125  1.00  0.00    -0.422 OA
ATOM     29  C   UNL A   1      34.557  28.813  26.917  1.00  0.00     0.046 C 
ATOM     30  C   UNL A   1      31.194  31.679  26.005  1.00  0.00     0.339 A 
ATOM     31  O   UNL A   1      30.215  31.748  25.266  1.00  0.00    -0.246 OA
ENDBRANCH  14  15
ENDBRANCH  13  14
ENDBRANCH  10  13
ENDBRANCH   8   9
BRANCH   8  32
ATOM     32  C   UNL A   1      32.479  24.276  24.038  1.00  0.00     0.040 C 
BRANCH  32  33
ATOM     33  C   UNL A   1      33.881  24.842  23.864  1.00  0.00    -0.015 C 
ATOM     34  C   UNL A   1      34.423  25.299  25.210  1.00  0.00     0.007 C 
ATOM     35  C   UNL A   1      34.798  23.763  23.281  1.00  0.00     0.007 C 
ENDBRANCH  32  33
ENDBRANCH   8  32
ENDBRANCH   6   8
ENDBRANCH   5   6
ENDBRANCH   4   5
ENDBRANCH   3   4
ENDBRANCH   2   3
ENDBRANCH   1   2
BRANCH   1  36
ATOM     36  C   UNL A   1      38.410  22.024  25.758  1.00  0.00     0.188 C 
BRANCH  36  37
ATOM     37  O   UNL A   1      39.499  21.572  26.544  1.00  0.00    -0.376 OA
BRANCH  37  38
ATOM     38  C   UNL A   1      40.640  22.407  26.692  1.00  0.00     0.202 C 
BRANCH  38  39
ATOM     39  C   UNL A   1      41.887  21.959  25.933  1.00  0.00     0.261 C 
BRANCH  39  40
ATOM     40  O   UNL A   1      42.959  22.864  26.118  1.00  0.00    -0.460 OA
BRANCH  40  41
ATOM     41  C   UNL A   1      43.761  23.010  25.035  1.00  0.00     0.338 C 
ATOM     42  O   UNL A   1      43.427  22.891  23.870  1.00  0.00    -0.246 OA
BRANCH  41  43
ATOM     43  C   UNL A   1      45.149  23.237  25.514  1.00  0.00     0.060 A 
ATOM     44  C   UNL A   1      45.456  22.716  26.769  1.00  0.00     0.016 A 
ATOM     45  C   UNL A   1      45.737  24.412  25.056  1.00  0.00     0.016 A 
ATOM     46  C   UNL A   1      45.755  23.636  27.739  1.00  0.00     0.010 A 
ATOM     47  C   UNL A   1      46.014  25.324  26.003  1.00  0.00     0.010 A 
ATOM     48  C   UNL A   1      45.810  24.960  27.329  1.00  0.00    -0.014 A 
BRANCH  48  49
ATOM     49  C   UNL A   1      45.559  26.043  28.242  1.00  0.00     0.031 A 
ATOM     50  C   UNL A   1      44.181  26.519  28.064  1.00  0.00     0.074 A 
ATOM     51  C   UNL A   1      46.386  26.281  29.280  1.00  0.00     0.049 A 
ATOM     52  N   UNL A   1      43.788  27.420  27.220  1.00  0.00    -0.248 NA
ATOM     53  C   UNL A   1      43.099  25.618  28.517  1.00  0.00     0.031 C 
ATOM     54  C   UNL A   1      47.594  25.560  29.701  1.00  0.00     0.029 A 
ATOM     55  N   UNL A   1      46.221  27.195  30.271  1.00  0.00    -0.354 N 
ATOM     56  C   UNL A   1      42.409  27.314  27.288  1.00  0.00     0.074 A 
ATOM     57  C   UNL A   1      42.149  25.952  27.640  1.00  0.00     0.031 C 
ATOM     58  C   UNL A   1      47.916  25.926  30.967  1.00  0.00     0.029 A 
ATOM     59  C   UNL A   1      47.001  26.962  31.405  1.00  0.00     0.049 A 
ATOM     60  H   UNL A   1      45.604  27.960  30.195  1.00  0.00     0.167 HD
ATOM     61  C   UNL A   1      41.636  28.383  27.625  1.00  0.00     0.037 A 
ATOM     62  C   UNL A   1      46.756  27.540  32.611  1.00  0.00     0.037 A 
ATOM     63  C   UNL A   1      42.405  29.604  27.547  1.00  0.00     0.049 A 
ATOM     64  C   UNL A   1      45.803  28.666  32.356  1.00  0.00     0.074 A 
ATOM     65  C   UNL A   1      43.149  30.207  26.551  1.00  0.00     0.029 A 
ATOM     66  N   UNL A   1      42.857  30.133  28.735  1.00  0.00    -0.354 N 
ATOM     67  N   UNL A   1      46.106  29.739  31.678  1.00  0.00    -0.248 NA
ATOM     68  C   UNL A   1      44.382  28.343  32.406  1.00  0.00     0.031 C 
ATOM     69  C   UNL A   1      44.300  30.733  27.204  1.00  0.00     0.029 A 
ATOM     70  C   UNL A   1      44.166  30.517  28.577  1.00  0.00     0.049 A 
ATOM     71  H   UNL A   1      42.330  30.221  29.561  1.00  0.00     0.167 HD
ATOM     72  C   UNL A   1      44.999  29.971  30.867  1.00  0.00     0.074 A 
ATOM     73  C   UNL A   1      43.945  29.113  31.404  1.00  0.00     0.031 C 
ATOM     74  C   UNL A   1      45.128  30.594  29.658  1.00  0.00     0.037 A 
BRANCH  61  75
ATOM     75  C   UNL A   1      40.344  28.270  28.407  1.00  0.00     0.057 A 
ATOM     76  C   UNL A   1      39.180  28.782  27.822  1.00  0.00     0.134 A 
ATOM     77  C   UNL A   1      40.196  27.866  29.758  1.00  0.00     0.134 A 
ATOM     78  F   UNL A   1      39.186  29.215  26.553  1.00  0.00    -0.206 F 
ATOM     79  C   UNL A   1      37.981  28.919  28.534  1.00  0.00     0.040 A 
ATOM     80  C   UNL A   1      38.992  27.944  30.457  1.00  0.00     0.040 A 
ATOM     81  F   UNL A   1      41.205  27.455  30.530  1.00  0.00    -0.206 F 
ATOM     82  C   UNL A   1      37.883  28.498  29.854  1.00  0.00     0.006 A 
ENDBRANCH  61  75
BRANCH  62  83
ATOM     83  C   UNL A   1      46.945  26.987  33.976  1.00  0.00     0.057 A 
ATOM     84  C   UNL A   1      46.299  25.803  34.367  1.00  0.00     0.134 A 
ATOM     85  C   UNL A   1      47.979  27.427  34.821  1.00  0.00     0.134 A 
ATOM     86  F   UNL A   1      45.319  25.283  33.612  1.00  0.00    -0.206 F 
ATOM     87  C   UNL A   1      46.683  25.079  35.504  1.00  0.00     0.040 A 
ATOM     88  C   UNL A   1      48.370  26.716  35.962  1.00  0.00     0.040 A 
ATOM     89  F   UNL A   1      48.710  28.507  34.520  1.00  0.00    -0.206 F 
ATOM     90  C   UNL A   1      47.734  25.526  36.297  1.00  0.00     0.006 A 
ENDBRANCH  62  83
BRANCH  74  91
ATOM     91  C   UNL A   1      46.453  31.240  29.338  1.00  0.00     0.057 A 
ATOM     92  C   UNL A   1      47.513  30.597  28.675  1.00  0.00     0.134 A 
ATOM     93  C   UNL A   1      46.600  32.611  29.569  1.00  0.00     0.134 A 
ATOM     94  F   UNL A   1      47.430  29.309  28.323  1.00  0.00    -0.206 F 
ATOM     95  C   UNL A   1      48.674  31.281  28.295  1.00  0.00     0.040 A 
ATOM     96  C   UNL A   1      47.737  33.313  29.163  1.00  0.00     0.040 A 
ATOM     97  F   UNL A   1      45.610  33.306  30.150  1.00  0.00    -0.206 F 
ATOM     98  C   UNL A   1      48.784  32.647  28.532  1.00  0.00     0.006 A 
ENDBRANCH  74  91
ENDBRANCH  48  49
ENDBRANCH  41  43
ENDBRANCH  40  41
ENDBRANCH  39  40
ENDBRANCH  38  39
ENDBRANCH  37  38
ENDBRANCH  36  37
ENDBRANCH   1  36
TORSDOF 23
ENDMDL
MODEL 2
REMARK VINA RESULT:     -10.4      2.328      4.605
REMARK SMILES Cc1coc2c(C)c3oc(=O)c(CCC(=O)N[C@H](CC(C)C)C(=O)OCCOCCOCCOC(=O)c4ccc(-c5c6nc(c(-c7c(F)cccc7F)c7ccc([nH]7)c(-c7c(F)cccc7F)c7nc(c(-c8c(F)cccc8F)c8ccc5[nH]8)C=C7)C=C6)cc4)c(C)c3cc12
REMARK SMILES IDX 29 1 28 2 27 3 26 4 25 5 23 6 24 7 18 8 17 9 15 10 16 11
REMARK SMILES IDX 14 13 13 14 12 15 1 16 2 17 3 18 95 19 4 20 5 21 94 22 6 23
REMARK SMILES IDX 93 24 7 25 8 26 91 27 9 28 92 29 10 30 11 31 19 32 20 33
REMARK SMILES IDX 21 34 22 35 30 36 31 37 32 38 33 39 34 40 35 41 36 42 37 43
REMARK SMILES IDX 38 44 90 45 39 46 89 47 40 48 41 49 42 50 83 51 43 52 88 53
REMARK SMILES IDX 82 54 84 55 44 56 87 57 81 58 80 59 45 61 71 62 54 63 70 64
REMARK SMILES IDX 55 65 58 66 69 67 85 68 56 69 57 70 68 72 86 73 59 74 46 75
REMARK SMILES IDX 47 76 52 77 48 78 49 79 51 80 53 81 50 82 72 83 73 84 78 85
REMARK SMILES IDX 74 86 75 87 77 88 79 89 76 90 60 91 61 92 66 93 62 94 63 95
REMARK SMILES IDX 65 96 67 97 64 98
REMARK H PARENT 17 12 84 60 58 71
REMARK Flexibility Score: inf
ROOT
ATOM      1  C   UNL A   1      38.490  22.252  25.748  1.00  0.00     0.188 C 
ENDROOT
BRANCH   1   2
ATOM      2  O   UNL A   1      37.344  21.616  25.226  1.00  0.00    -0.376 OA
BRANCH   2   3
ATOM      3  C   UNL A   1      36.014  22.119  25.365  1.00  0.00     0.202 C 
BRANCH   3   4
ATOM      4  C   UNL A   1      35.103  22.141  26.687  1.00  0.00     0.261 C 
BRANCH   4   5
ATOM      5  O   UNL A   1      33.761  23.250  26.958  1.00  0.00    -0.462 OA
BRANCH   5   6
ATOM      6  C   UNL A   1      31.942  23.549  26.719  1.00  0.00     0.328 C 
ATOM      7  O   UNL A   1      31.062  23.292  27.595  1.00  0.00    -0.250 OA
BRANCH   6   8
ATOM      8  C   UNL A   1      31.198  24.032  25.416  1.00  0.00     0.192 C 
BRANCH   8   9
ATOM      9  N   UNL A   1      30.149  25.019  25.198  1.00  0.00    -0.343 N 
ATOM     10  C   UNL A   1      30.039  25.867  24.120  1.00  0.00     0.221 C 
ATOM     11  O   UNL A   1      28.934  26.339  23.856  1.00  0.00    -0.275 OA
ATOM     12  H   UNL A   1      29.451  25.086  25.890  1.00  0.00     0.164 HD
BRANCH  10  13
ATOM     13  C   UNL A   1      31.278  26.292  23.338  1.00  0.00     0.105 C 
BRANCH  13  14
ATOM     14  C   UNL A   1      31.263  27.797  23.080  1.00  0.00     0.053 C 
BRANCH  14  15
ATOM     15  C   UNL A   1      31.735  28.436  24.336  1.00  0.00     0.042 A 
ATOM     16  C   UNL A   1      38.077  28.928  28.213  1.00  0.00     0.048 C 
ATOM     17  C   UNL A   1      36.920  29.836  28.406  1.00  0.00    -0.005 A 
ATOM     18  C   UNL A   1      36.974  31.023  29.097  1.00  0.00     0.199 A 
ATOM     19  C   UNL A   1      35.590  29.760  27.834  1.00  0.00     0.024 A 
ATOM     20  O   UNL A   1      35.828  31.707  28.951  1.00  0.00    -0.464 OA
ATOM     21  C   UNL A   1      34.986  30.996  28.132  1.00  0.00     0.140 A 
ATOM     22  C   UNL A   1      34.960  28.783  27.007  1.00  0.00     0.024 A 
ATOM     23  C   UNL A   1      33.761  31.573  27.684  1.00  0.00     0.036 A 
ATOM     24  C   UNL A   1      33.736  29.125  26.457  1.00  0.00     0.022 A 
ATOM     25  C   UNL A   1      33.467  32.962  28.064  1.00  0.00     0.052 C 
ATOM     26  C   UNL A   1      33.081  30.676  26.877  1.00  0.00     0.145 A 
ATOM     27  C   UNL A   1      32.967  28.011  25.169  1.00  0.00    -0.030 A 
ATOM     28  O   UNL A   1      31.525  31.139  25.967  1.00  0.00    -0.422 OA
ATOM     29  C   UNL A   1      33.751  26.745  24.978  1.00  0.00     0.046 C 
ATOM     30  C   UNL A   1      30.759  30.104  24.618  1.00  0.00     0.339 A 
ATOM     31  O   UNL A   1      29.810  30.421  23.906  1.00  0.00    -0.246 OA
ENDBRANCH  14  15
ENDBRANCH  13  14
ENDBRANCH  10  13
ENDBRANCH   8   9
BRANCH   8  32
ATOM     32  C   UNL A   1      31.221  22.766  24.499  1.00  0.00     0.040 C 
BRANCH  32  33
ATOM     33  C   UNL A   1      32.541  22.258  23.936  1.00  0.00    -0.015 C 
ATOM     34  C   UNL A   1      32.459  20.756  23.706  1.00  0.00     0.007 C 
ATOM     35  C   UNL A   1      32.833  22.965  22.609  1.00  0.00     0.007 C 
ENDBRANCH  32  33
ENDBRANCH   8  32
ENDBRANCH   6   8
ENDBRANCH   5   6
ENDBRANCH   4   5
ENDBRANCH   3   4
ENDBRANCH   2   3
ENDBRANCH   1   2
BRANCH   1  36
ATOM     36  C   UNL A   1      39.370  21.239  26.424  1.00  0.00     0.188 C 
BRANCH  36  37
ATOM     37  O   UNL A   1      40.677  21.103  25.893  1.00  0.00    -0.376 OA
BRANCH  37  38
ATOM     38  C   UNL A   1      41.504  20.042  26.352  1.00  0.00     0.202 C 
BRANCH  38  39
ATOM     39  C   UNL A   1      42.933  20.041  25.812  1.00  0.00     0.261 C 
BRANCH  39  40
ATOM     40  O   UNL A   1      43.288  21.303  25.281  1.00  0.00    -0.460 OA
BRANCH  40  41
ATOM     41  C   UNL A   1      44.622  21.537  25.238  1.00  0.00     0.338 C 
ATOM     42  O   UNL A   1      45.481  20.924  25.845  1.00  0.00    -0.246 OA
BRANCH  41  43
ATOM     43  C   UNL A   1      44.853  22.746  24.405  1.00  0.00     0.060 A 
ATOM     44  C   UNL A   1      46.181  23.048  24.118  1.00  0.00     0.016 A 
ATOM     45  C   UNL A   1      43.901  23.750  24.562  1.00  0.00     0.016 A 
ATOM     46  C   UNL A   1      46.653  24.221  24.645  1.00  0.00     0.010 A 
ATOM     47  C   UNL A   1      44.356  24.896  25.096  1.00  0.00     0.010 A 
ATOM     48  C   UNL A   1      45.725  25.007  25.313  1.00  0.00    -0.014 A 
BRANCH  48  49
ATOM     49  C   UNL A   1      46.121  25.923  26.350  1.00  0.00     0.031 A 
ATOM     50  C   UNL A   1      45.614  25.442  27.642  1.00  0.00     0.074 A 
ATOM     51  C   UNL A   1      47.077  26.847  26.132  1.00  0.00     0.049 A 
ATOM     52  N   UNL A   1      44.451  25.700  28.150  1.00  0.00    -0.248 NA
ATOM     53  C   UNL A   1      46.246  24.225  28.196  1.00  0.00     0.031 C 
ATOM     54  C   UNL A   1      47.880  27.100  24.928  1.00  0.00     0.029 A 
ATOM     55  N   UNL A   1      47.618  27.702  27.038  1.00  0.00    -0.354 N 
ATOM     56  C   UNL A   1      44.392  24.828  29.225  1.00  0.00     0.074 A 
ATOM     57  C   UNL A   1      45.204  23.712  28.853  1.00  0.00     0.031 C 
ATOM     58  C   UNL A   1      48.939  27.883  25.252  1.00  0.00     0.029 A 
ATOM     59  C   UNL A   1      48.838  28.257  26.649  1.00  0.00     0.049 A 
ATOM     60  H   UNL A   1      47.185  27.913  27.898  1.00  0.00     0.167 HD
ATOM     61  C   UNL A   1      44.203  25.286  30.493  1.00  0.00     0.037 A 
ATOM     62  C   UNL A   1      49.695  28.859  27.516  1.00  0.00     0.037 A 
ATOM     63  C   UNL A   1      43.756  26.660  30.471  1.00  0.00     0.049 A 
ATOM     64  C   UNL A   1      48.921  29.109  28.773  1.00  0.00     0.074 A 
ATOM     65  C   UNL A   1      42.699  27.315  29.867  1.00  0.00     0.029 A 
ATOM     66  N   UNL A   1      44.697  27.627  30.748  1.00  0.00    -0.354 N 
ATOM     67  N   UNL A   1      47.924  29.948  28.861  1.00  0.00    -0.248 NA
ATOM     68  C   UNL A   1      48.923  28.041  29.766  1.00  0.00     0.031 C 
ATOM     69  C   UNL A   1      43.233  28.556  29.414  1.00  0.00     0.029 A 
ATOM     70  C   UNL A   1      44.558  28.650  29.842  1.00  0.00     0.049 A 
ATOM     71  H   UNL A   1      45.359  27.591  31.475  1.00  0.00     0.167 HD
ATOM     72  C   UNL A   1      46.964  29.280  29.614  1.00  0.00     0.074 A 
ATOM     73  C   UNL A   1      47.660  28.134  30.193  1.00  0.00     0.031 C 
ATOM     74  C   UNL A   1      45.633  29.538  29.448  1.00  0.00     0.037 A 
BRANCH  61  75
ATOM     75  C   UNL A   1      44.813  24.637  31.719  1.00  0.00     0.057 A 
ATOM     76  C   UNL A   1      44.165  23.518  32.255  1.00  0.00     0.134 A 
ATOM     77  C   UNL A   1      45.876  25.138  32.511  1.00  0.00     0.134 A 
ATOM     78  F   UNL A   1      43.132  22.954  31.613  1.00  0.00    -0.206 F 
ATOM     79  C   UNL A   1      44.518  22.970  33.494  1.00  0.00     0.040 A 
ATOM     80  C   UNL A   1      46.273  24.565  33.718  1.00  0.00     0.040 A 
ATOM     81  F   UNL A   1      46.548  26.259  32.237  1.00  0.00    -0.206 F 
ATOM     82  C   UNL A   1      45.576  23.491  34.230  1.00  0.00     0.006 A 
ENDBRANCH  61  75
BRANCH  62  83
ATOM     83  C   UNL A   1      51.180  28.880  27.511  1.00  0.00     0.057 A 
ATOM     84  C   UNL A   1      51.881  30.096  27.523  1.00  0.00     0.134 A 
ATOM     85  C   UNL A   1      51.942  27.732  27.793  1.00  0.00     0.134 A 
ATOM     86  F   UNL A   1      51.240  31.252  27.298  1.00  0.00    -0.206 F 
ATOM     87  C   UNL A   1      53.246  30.172  27.838  1.00  0.00     0.040 A 
ATOM     88  C   UNL A   1      53.306  27.793  28.103  1.00  0.00     0.040 A 
ATOM     89  F   UNL A   1      51.372  26.523  27.872  1.00  0.00    -0.206 F 
ATOM     90  C   UNL A   1      53.959  29.019  28.146  1.00  0.00     0.006 A 
ENDBRANCH  62  83
BRANCH  74  91
ATOM     91  C   UNL A   1      45.247  30.733  28.610  1.00  0.00     0.057 A 
ATOM     92  C   UNL A   1      44.964  30.684  27.235  1.00  0.00     0.134 A 
ATOM     93  C   UNL A   1      45.000  31.949  29.257  1.00  0.00     0.134 A 
ATOM     94  F   UNL A   1      45.076  29.542  26.545  1.00  0.00    -0.206 F 
ATOM     95  C   UNL A   1      44.493  31.800  26.534  1.00  0.00     0.040 A 
ATOM     96  C   UNL A   1      44.496  33.059  28.577  1.00  0.00     0.040 A 
ATOM     97  F   UNL A   1      45.197  32.060  30.580  1.00  0.00    -0.206 F 
ATOM     98  C   UNL A   1      44.249  32.991  27.209  1.00  0.00     0.006 A 
ENDBRANCH  74  91
ENDBRANCH  48  49
ENDBRANCH  41  43
ENDBRANCH  40  41
ENDBRANCH  39  40
ENDBRANCH  38  39
ENDBRANCH  37  38
ENDBRANCH  36  37
ENDBRANCH   1  36
TORSDOF 23
ENDMDL
MODEL 3
REMARK VINA RESULT:     -10.3      2.755      6.307
REMARK SMILES Cc1coc2c(C)c3oc(=O)c(CCC(=O)N[C@H](CC(C)C)C(=O)OCCOCCOCCOC(=O)c4ccc(-c5c6nc(c(-c7c(F)cccc7F)c7ccc([nH]7)c(-c7c(F)cccc7F)c7nc(c(-c8c(F)cccc8F)c8ccc5[nH]8)C=C7)C=C6)cc4)c(C)c3cc12
REMARK SMILES IDX 29 1 28 2 27 3 26 4 25 5 23 6 24 7 18 8 17 9 15 10 16 11
REMARK SMILES IDX 14 13 13 14 12 15 1 16 2 17 3 18 95 19 4 20 5 21 94 22 6 23
REMARK SMILES IDX 93 24 7 25 8 26 91 27 9 28 92 29 10 30 11 31 19 32 20 33
REMARK SMILES IDX 21 34 22 35 30 36 31 37 32 38 33 39 34 40 35 41 36 42 37 43
REMARK SMILES IDX 38 44 90 45 39 46 89 47 40 48 41 49 42 50 83 51 43 52 88 53
REMARK SMILES IDX 82 54 84 55 44 56 87 57 81 58 80 59 45 61 71 62 54 63 70 64
REMARK SMILES IDX 55 65 58 66 69 67 85 68 56 69 57 70 68 72 86 73 59 74 46 75
REMARK SMILES IDX 47 76 52 77 48 78 49 79 51 80 53 81 50 82 72 83 73 84 78 85
REMARK SMILES IDX 74 86 75 87 77 88 79 89 76 90 60 91 61 92 66 93 62 94 63 95
REMARK SMILES IDX 65 96 67 97 64 98
REMARK H PARENT 17 12 84 60 58 71
REMARK Flexibility Score: inf
ROOT
ATOM      1  C   UNL A   1      37.023  21.158  24.730  1.00  0.00     0.188 C 
ENDROOT
BRANCH   1   2
ATOM      2  O   UNL A   1      36.027  20.774  25.652  1.00  0.00    -0.376 OA
BRANCH   2   3
ATOM      3  C   UNL A   1      34.813  21.498  25.870  1.00  0.00     0.202 C 
BRANCH   3   4
ATOM      4  C   UNL A   1      33.940  21.573  27.216  1.00  0.00     0.261 C 
BRANCH   4   5
ATOM      5  O   UNL A   1      32.663  22.749  27.514  1.00  0.00    -0.462 OA
BRANCH   5   6
ATOM      6  C   UNL A   1      31.263  23.720  26.770  1.00  0.00     0.328 C 
ATOM      7  O   UNL A   1      30.088  23.743  27.244  1.00  0.00    -0.250 OA
BRANCH   6   8
ATOM      8  C   UNL A   1      31.255  24.542  25.425  1.00  0.00     0.192 C 
BRANCH   8   9
ATOM      9  N   UNL A   1      30.274  25.443  24.836  1.00  0.00    -0.343 N 
ATOM     10  C   UNL A   1      30.425  26.797  24.640  1.00  0.00     0.221 C 
ATOM     11  O   UNL A   1      29.726  27.347  23.790  1.00  0.00    -0.275 OA
ATOM     12  H   UNL A   1      29.420  25.045  24.550  1.00  0.00     0.164 HD
BRANCH  10  13
ATOM     13  C   UNL A   1      31.360  27.610  25.529  1.00  0.00     0.105 C 
BRANCH  13  14
ATOM     14  C   UNL A   1      31.719  28.937  24.864  1.00  0.00     0.053 C 
BRANCH  14  15
ATOM     15  C   UNL A   1      32.173  29.837  25.956  1.00  0.00     0.042 A 
ATOM     16  C   UNL A   1      38.537  31.437  29.482  1.00  0.00     0.048 C 
ATOM     17  C   UNL A   1      37.331  32.301  29.525  1.00  0.00    -0.005 A 
ATOM     18  C   UNL A   1      37.325  33.602  29.967  1.00  0.00     0.199 A 
ATOM     19  C   UNL A   1      35.998  32.039  29.016  1.00  0.00     0.024 A 
ATOM     20  O   UNL A   1      36.138  34.180  29.720  1.00  0.00    -0.464 OA
ATOM     21  C   UNL A   1      35.327  33.275  29.081  1.00  0.00     0.140 A 
ATOM     22  C   UNL A   1      35.414  30.884  28.416  1.00  0.00     0.024 A 
ATOM     23  C   UNL A   1      34.063  33.683  28.561  1.00  0.00     0.036 A 
ATOM     24  C   UNL A   1      34.164  31.042  27.843  1.00  0.00     0.022 A 
ATOM     25  C   UNL A   1      33.693  35.102  28.668  1.00  0.00     0.052 C 
ATOM     26  C   UNL A   1      33.424  32.608  27.967  1.00  0.00     0.145 A 
ATOM     27  C   UNL A   1      33.441  29.654  26.822  1.00  0.00    -0.030 A 
ATOM     28  O   UNL A   1      31.829  32.795  27.027  1.00  0.00    -0.422 OA
ATOM     29  C   UNL A   1      34.296  28.421  26.862  1.00  0.00     0.046 C 
ATOM     30  C   UNL A   1      31.105  31.472  25.930  1.00  0.00     0.339 A 
ATOM     31  O   UNL A   1      30.127  31.589  25.196  1.00  0.00    -0.246 OA
ENDBRANCH  14  15
ENDBRANCH  13  14
ENDBRANCH  10  13
ENDBRANCH   8   9
BRANCH   8  32
ATOM     32  C   UNL A   1      32.124  23.667  24.464  1.00  0.00     0.040 C 
BRANCH  32  33
ATOM     33  C   UNL A   1      33.142  24.326  23.545  1.00  0.00    -0.015 C 
ATOM     34  C   UNL A   1      34.270  24.926  24.371  1.00  0.00     0.007 C 
ATOM     35  C   UNL A   1      33.711  23.281  22.582  1.00  0.00     0.007 C 
ENDBRANCH  32  33
ENDBRANCH   8  32
ENDBRANCH   6   8
ENDBRANCH   5   6
ENDBRANCH   4   5
ENDBRANCH   3   4
ENDBRANCH   2   3
ENDBRANCH   1   2
BRANCH   1  36
ATOM     36  C   UNL A   1      38.056  22.003  25.422  1.00  0.00     0.188 C 
BRANCH  36  37
ATOM     37  O   UNL A   1      38.988  21.302  26.228  1.00  0.00    -0.376 OA
BRANCH  37  38
ATOM     38  C   UNL A   1      40.371  21.607  26.112  1.00  0.00     0.202 C 
BRANCH  38  39
ATOM     39  C   UNL A   1      40.857  22.790  26.948  1.00  0.00     0.261 C 
BRANCH  39  40
ATOM     40  O   UNL A   1      40.505  24.025  26.353  1.00  0.00    -0.460 OA
BRANCH  40  41
ATOM     41  C   UNL A   1      41.015  25.113  26.980  1.00  0.00     0.338 C 
ATOM     42  O   UNL A   1      42.185  25.302  27.259  1.00  0.00    -0.246 OA
BRANCH  41  43
ATOM     43  C   UNL A   1      39.883  25.994  27.368  1.00  0.00     0.060 A 
ATOM     44  C   UNL A   1      40.021  27.343  27.051  1.00  0.00     0.016 A 
ATOM     45  C   UNL A   1      39.194  25.586  28.507  1.00  0.00     0.016 A 
ATOM     46  C   UNL A   1      40.094  28.201  28.116  1.00  0.00     0.010 A 
ATOM     47  C   UNL A   1      39.279  26.417  29.559  1.00  0.00     0.010 A 
ATOM     48  C   UNL A   1      39.924  27.634  29.370  1.00  0.00    -0.014 A 
BRANCH  48  49
ATOM     49  C   UNL A   1      40.496  28.228  30.549  1.00  0.00     0.031 A 
ATOM     50  C   UNL A   1      41.846  28.719  30.240  1.00  0.00     0.074 A 
ATOM     51  C   UNL A   1      39.727  28.543  31.610  1.00  0.00     0.049 A 
ATOM     52  N   UNL A   1      42.942  28.033  30.311  1.00  0.00    -0.248 NA
ATOM     53  C   UNL A   1      41.940  29.899  29.354  1.00  0.00     0.031 C 
ATOM     54  C   UNL A   1      38.276  28.400  31.793  1.00  0.00     0.029 A 
ATOM     55  N   UNL A   1      40.108  29.194  32.740  1.00  0.00    -0.354 N 
ATOM     56  C   UNL A   1      43.859  28.869  29.695  1.00  0.00     0.074 A 
ATOM     57  C   UNL A   1      43.102  29.635  28.754  1.00  0.00     0.031 C 
ATOM     58  C   UNL A   1      37.883  29.143  32.857  1.00  0.00     0.029 A 
ATOM     59  C   UNL A   1      39.053  29.731  33.479  1.00  0.00     0.049 A 
ATOM     60  H   UNL A   1      41.051  29.278  33.015  1.00  0.00     0.167 HD
ATOM     61  C   UNL A   1      44.977  29.291  30.347  1.00  0.00     0.037 A 
ATOM     62  C   UNL A   1      39.220  30.683  34.436  1.00  0.00     0.037 A 
ATOM     63  C   UNL A   1      45.193  28.500  31.538  1.00  0.00     0.049 A 
ATOM     64  C   UNL A   1      40.684  30.717  34.749  1.00  0.00     0.074 A 
ATOM     65  C   UNL A   1      45.326  27.146  31.778  1.00  0.00     0.029 A 
ATOM     66  N   UNL A   1      44.829  29.068  32.738  1.00  0.00    -0.354 N 
ATOM     67  N   UNL A   1      41.331  29.739  35.323  1.00  0.00    -0.248 NA
ATOM     68  C   UNL A   1      41.503  31.615  33.944  1.00  0.00     0.031 C 
ATOM     69  C   UNL A   1      44.614  26.905  32.989  1.00  0.00     0.029 A 
ATOM     70  C   UNL A   1      44.162  28.129  33.486  1.00  0.00     0.049 A 
ATOM     71  H   UNL A   1      45.016  29.993  33.015  1.00  0.00     0.167 HD
ATOM     72  C   UNL A   1      42.524  29.639  34.615  1.00  0.00     0.074 A 
ATOM     73  C   UNL A   1      42.599  30.861  33.817  1.00  0.00     0.031 C 
ATOM     74  C   UNL A   1      43.181  28.447  34.505  1.00  0.00     0.037 A 
BRANCH  61  75
ATOM     75  C   UNL A   1      45.609  30.650  30.134  1.00  0.00     0.057 A 
ATOM     76  C   UNL A   1      46.969  30.694  29.807  1.00  0.00     0.134 A 
ATOM     77  C   UNL A   1      45.028  31.915  30.406  1.00  0.00     0.134 A 
ATOM     78  F   UNL A   1      47.645  29.566  29.542  1.00  0.00    -0.206 F 
ATOM     79  C   UNL A   1      47.699  31.889  29.793  1.00  0.00     0.040 A 
ATOM     80  C   UNL A   1      45.732  33.116  30.337  1.00  0.00     0.040 A 
ATOM     81  F   UNL A   1      43.778  32.084  30.843  1.00  0.00    -0.206 F 
ATOM     82  C   UNL A   1      47.082  33.105  30.056  1.00  0.00     0.006 A 
ENDBRANCH  61  75
BRANCH  62  83
ATOM     83  C   UNL A   1      38.327  31.808  34.812  1.00  0.00     0.057 A 
ATOM     84  C   UNL A   1      37.782  31.892  36.103  1.00  0.00     0.134 A 
ATOM     85  C   UNL A   1      38.224  32.970  34.028  1.00  0.00     0.134 A 
ATOM     86  F   UNL A   1      37.857  30.847  36.941  1.00  0.00    -0.206 F 
ATOM     87  C   UNL A   1      37.209  33.071  36.600  1.00  0.00     0.040 A 
ATOM     88  C   UNL A   1      37.650  34.153  34.510  1.00  0.00     0.040 A 
ATOM     89  F   UNL A   1      38.763  33.033  32.803  1.00  0.00    -0.206 F 
ATOM     90  C   UNL A   1      37.156  34.212  35.808  1.00  0.00     0.006 A 
ENDBRANCH  62  83
BRANCH  74  91
ATOM     91  C   UNL A   1      42.713  27.303  35.370  1.00  0.00     0.057 A 
ATOM     92  C   UNL A   1      43.135  27.079  36.691  1.00  0.00     0.134 A 
ATOM     93  C   UNL A   1      41.675  26.492  34.899  1.00  0.00     0.134 A 
ATOM     94  F   UNL A   1      44.054  27.862  37.267  1.00  0.00    -0.206 F 
ATOM     95  C   UNL A   1      42.575  26.073  37.489  1.00  0.00     0.040 A 
ATOM     96  C   UNL A   1      41.084  25.509  35.696  1.00  0.00     0.040 A 
ATOM     97  F   UNL A   1      41.181  26.679  33.665  1.00  0.00    -0.206 F 
ATOM     98  C   UNL A   1      41.539  25.290  36.993  1.00  0.00     0.006 A 
ENDBRANCH  74  91
ENDBRANCH  48  49
ENDBRANCH  41  43
ENDBRANCH  40  41
ENDBRANCH  39  40
ENDBRANCH  38  39
ENDBRANCH  37  38
ENDBRANCH  36  37
ENDBRANCH   1  36
TORSDOF 23
ENDMDL
