MODEL 1
REMARK VINA RESULT:      -9.6      0.000      0.000
REMARK SMILES CC[C@@H](C)CNC(=O)N1CCO[C@@H](CC(=O)OCCOCCOCCOC(=O)c2ccc(-c3c4nc(c(-c5c(F)cccc5F)c5ccc([nH]5)c(-c5c(F)cccc5F)c5nc(c(-c6c(F)cccc6F)c6ccc3[nH]6)C=C5)C=C4)cc2)C1
REMARK SMILES IDX 20 1 19 2 18 3 17 4 15 5 16 6 14 7 13 8 9 9 10 10 83 11
REMARK SMILES IDX 11 12 12 13 7 14 6 15 8 17 5 18 3 19 4 20 2 21 1 22 21 23
REMARK SMILES IDX 22 24 23 25 24 26 25 27 26 28 27 29 28 30 29 31 30 32 82 33
REMARK SMILES IDX 31 34 81 35 32 36 33 37 34 38 75 39 35 40 80 41 74 42 76 43
REMARK SMILES IDX 36 44 79 45 73 46 72 47 37 49 63 50 46 51 62 52 47 53 50 54
REMARK SMILES IDX 61 55 77 56 48 57 49 58 60 60 78 61 51 62 38 63 39 64 44 65
REMARK SMILES IDX 40 66 41 67 43 68 45 69 42 70 64 71 65 72 70 73 66 74 67 75
REMARK SMILES IDX 69 76 71 77 68 78 52 79 53 80 58 81 54 82 55 83 57 84 59 85
REMARK SMILES IDX 56 86
REMARK H PARENT 6 16 76 48 50 59
REMARK Flexibility Score: inf
ROOT
ATOM      1  O   UNL A   1      33.228  29.325  23.638  1.00  0.00    -0.376 OA
ENDROOT
BRANCH   1   2
ATOM      2  C   UNL A   1      32.152  28.899  22.800  1.00  0.00     0.202 C 
BRANCH   2   3
ATOM      3  C   UNL A   1      30.782  28.750  23.478  1.00  0.00     0.261 C 
BRANCH   3   4
ATOM      4  O   UNL A   1      29.985  27.658  22.966  1.00  0.00    -0.463 OA
BRANCH   4   5
ATOM      5  C   UNL A   1      29.512  26.789  23.891  1.00  0.00     0.308 C 
ATOM      6  O   UNL A   1      28.345  26.415  23.961  1.00  0.00    -0.252 OA
BRANCH   5   7
ATOM      7  C   UNL A   1      30.559  26.206  24.805  1.00  0.00     0.156 C 
BRANCH   7   8
ATOM      8  C   UNL A   1      30.695  24.703  25.035  1.00  0.00     0.149 C 
ATOM      9  N   UNL A   1      32.231  22.803  25.443  1.00  0.00    -0.320 N 
ATOM     10  C   UNL A   1      31.787  22.744  26.831  1.00  0.00     0.150 C 
ATOM     11  C   UNL A   1      32.135  24.160  24.884  1.00  0.00     0.154 C 
ATOM     12  C   UNL A   1      30.329  23.188  26.889  1.00  0.00     0.182 C 
ATOM     13  O   UNL A   1      30.201  24.527  26.397  1.00  0.00    -0.374 OA
BRANCH   9  14
ATOM     14  C   UNL A   1      32.794  21.803  24.705  1.00  0.00     0.317 C 
ATOM     15  N   UNL A   1      34.121  21.546  24.762  1.00  0.00    -0.338 N 
ATOM     16  H   UNL A   1      34.456  21.026  23.997  1.00  0.00     0.165 HD
ATOM     17  O   UNL A   1      32.122  21.074  23.972  1.00  0.00    -0.249 OA
BRANCH  15  18
ATOM     18  C   UNL A   1      35.146  21.888  25.734  1.00  0.00     0.121 C 
BRANCH  18  19
ATOM     19  C   UNL A   1      36.308  22.713  25.146  1.00  0.00     0.005 C 
ATOM     20  C   UNL A   1      37.438  21.748  24.757  1.00  0.00     0.009 C 
BRANCH  19  21
ATOM     21  C   UNL A   1      36.801  23.798  26.121  1.00  0.00     0.002 C 
ATOM     22  C   UNL A   1      38.319  23.944  26.146  1.00  0.00     0.004 C 
ENDBRANCH  19  21
ENDBRANCH  18  19
ENDBRANCH  15  18
ENDBRANCH   9  14
ENDBRANCH   7   8
ENDBRANCH   5   7
ENDBRANCH   4   5
ENDBRANCH   3   4
ENDBRANCH   2   3
ENDBRANCH   1   2
BRANCH   1  23
ATOM     23  C   UNL A   1      33.585  28.458  24.711  1.00  0.00     0.188 C 
BRANCH  23  24
ATOM     24  C   UNL A   1      33.284  28.981  26.116  1.00  0.00     0.188 C 
BRANCH  24  25
ATOM     25  O   UNL A   1      33.069  30.381  26.202  1.00  0.00    -0.376 OA
BRANCH  25  26
ATOM     26  C   UNL A   1      31.785  30.822  26.654  1.00  0.00     0.202 C 
BRANCH  26  27
ATOM     27  C   UNL A   1      31.598  32.338  26.895  1.00  0.00     0.261 C 
BRANCH  27  28
ATOM     28  O   UNL A   1      32.806  33.133  26.878  1.00  0.00    -0.460 OA
BRANCH  28  29
ATOM     29  C   UNL A   1      33.262  33.603  28.061  1.00  0.00     0.338 C 
ATOM     30  O   UNL A   1      32.637  34.278  28.862  1.00  0.00    -0.246 OA
BRANCH  29  31
ATOM     31  C   UNL A   1      34.565  32.953  28.375  1.00  0.00     0.060 A 
ATOM     32  C   UNL A   1      34.538  31.611  28.779  1.00  0.00     0.016 A 
ATOM     33  C   UNL A   1      35.794  33.606  28.229  1.00  0.00     0.016 A 
ATOM     34  C   UNL A   1      35.720  30.944  29.105  1.00  0.00     0.010 A 
ATOM     35  C   UNL A   1      36.983  32.938  28.565  1.00  0.00     0.010 A 
ATOM     36  C   UNL A   1      36.947  31.620  29.054  1.00  0.00    -0.014 A 
BRANCH  36  37
ATOM     37  C   UNL A   1      38.126  31.009  29.725  1.00  0.00     0.031 A 
ATOM     38  C   UNL A   1      38.366  31.327  31.179  1.00  0.00     0.074 A 
ATOM     39  C   UNL A   1      38.923  30.119  29.106  1.00  0.00     0.049 A 
ATOM     40  N   UNL A   1      39.260  30.844  32.006  1.00  0.00    -0.248 NA
ATOM     41  C   UNL A   1      37.467  32.324  31.782  1.00  0.00     0.031 C 
ATOM     42  C   UNL A   1      38.788  29.684  27.719  1.00  0.00     0.029 A 
ATOM     43  N   UNL A   1      40.000  29.408  29.581  1.00  0.00    -0.354 N 
ATOM     44  C   UNL A   1      39.027  31.474  33.222  1.00  0.00     0.074 A 
ATOM     45  C   UNL A   1      37.943  32.409  33.013  1.00  0.00     0.031 C 
ATOM     46  C   UNL A   1      39.736  28.765  27.459  1.00  0.00     0.029 A 
ATOM     47  C   UNL A   1      40.557  28.564  28.653  1.00  0.00     0.049 A 
ATOM     48  H   UNL A   1      40.338  29.497  30.501  1.00  0.00     0.167 HD
ATOM     49  C   UNL A   1      39.644  31.283  34.414  1.00  0.00     0.037 A 
ATOM     50  C   UNL A   1      41.607  27.723  28.755  1.00  0.00     0.037 A 
ATOM     51  C   UNL A   1      40.733  30.367  34.628  1.00  0.00     0.049 A 
ATOM     52  C   UNL A   1      42.341  27.592  30.065  1.00  0.00     0.074 A 
ATOM     53  C   UNL A   1      41.414  30.098  35.803  1.00  0.00     0.029 A 
ATOM     54  N   UNL A   1      41.315  29.586  33.642  1.00  0.00    -0.354 N 
ATOM     55  N   UNL A   1      42.089  28.163  31.219  1.00  0.00    -0.248 NA
ATOM     56  C   UNL A   1      43.503  26.690  30.087  1.00  0.00     0.031 C 
ATOM     57  C   UNL A   1      42.449  29.201  35.513  1.00  0.00     0.029 A 
ATOM     58  C   UNL A   1      42.368  28.858  34.173  1.00  0.00     0.049 A 
ATOM     59  H   UNL A   1      41.023  29.552  32.703  1.00  0.00     0.167 HD
ATOM     60  C   UNL A   1      43.033  27.660  32.110  1.00  0.00     0.074 A 
ATOM     61  C   UNL A   1      43.859  26.736  31.363  1.00  0.00     0.031 C 
ATOM     62  C   UNL A   1      43.189  27.934  33.429  1.00  0.00     0.037 A 
BRANCH  49  63
ATOM     63  C   UNL A   1      39.170  32.124  35.566  1.00  0.00     0.057 A 
ATOM     64  C   UNL A   1      39.578  33.455  35.737  1.00  0.00     0.134 A 
ATOM     65  C   UNL A   1      38.306  31.589  36.531  1.00  0.00     0.134 A 
ATOM     66  F   UNL A   1      40.418  34.027  34.859  1.00  0.00    -0.206 F 
ATOM     67  C   UNL A   1      39.184  34.205  36.846  1.00  0.00     0.040 A 
ATOM     68  C   UNL A   1      37.877  32.340  37.625  1.00  0.00     0.040 A 
ATOM     69  F   UNL A   1      37.869  30.324  36.428  1.00  0.00    -0.206 F 
ATOM     70  C   UNL A   1      38.327  33.648  37.793  1.00  0.00     0.006 A 
ENDBRANCH  49  63
BRANCH  50  71
ATOM     71  C   UNL A   1      42.018  26.910  27.581  1.00  0.00     0.057 A 
ATOM     72  C   UNL A   1      41.557  25.598  27.412  1.00  0.00     0.134 A 
ATOM     73  C   UNL A   1      42.886  27.418  26.607  1.00  0.00     0.134 A 
ATOM     74  F   UNL A   1      40.749  25.043  28.326  1.00  0.00    -0.206 F 
ATOM     75  C   UNL A   1      41.947  24.821  26.319  1.00  0.00     0.040 A 
ATOM     76  C   UNL A   1      43.264  26.662  25.497  1.00  0.00     0.040 A 
ATOM     77  F   UNL A   1      43.368  28.665  26.716  1.00  0.00    -0.206 F 
ATOM     78  C   UNL A   1      42.797  25.356  25.353  1.00  0.00     0.006 A 
ENDBRANCH  50  71
BRANCH  62  79
ATOM     79  C   UNL A   1      44.265  27.190  34.173  1.00  0.00     0.057 A 
ATOM     80  C   UNL A   1      44.043  25.933  34.750  1.00  0.00     0.134 A 
ATOM     81  C   UNL A   1      45.556  27.727  34.278  1.00  0.00     0.134 A 
ATOM     82  F   UNL A   1      42.831  25.363  34.695  1.00  0.00    -0.206 F 
ATOM     83  C   UNL A   1      45.058  25.250  35.427  1.00  0.00     0.040 A 
ATOM     84  C   UNL A   1      46.585  27.041  34.925  1.00  0.00     0.040 A 
ATOM     85  F   UNL A   1      45.843  28.920  33.739  1.00  0.00    -0.206 F 
ATOM     86  C   UNL A   1      46.335  25.802  35.510  1.00  0.00     0.006 A 
ENDBRANCH  62  79
ENDBRANCH  36  37
ENDBRANCH  29  31
ENDBRANCH  28  29
ENDBRANCH  27  28
ENDBRANCH  26  27
ENDBRANCH  25  26
ENDBRANCH  24  25
ENDBRANCH  23  24
ENDBRANCH   1  23
TORSDOF 22
ENDMDL
MODEL 2
REMARK VINA RESULT:      -9.5      2.950      8.296
REMARK SMILES CC[C@@H](C)CNC(=O)N1CCO[C@@H](CC(=O)OCCOCCOCCOC(=O)c2ccc(-c3c4nc(c(-c5c(F)cccc5F)c5ccc([nH]5)c(-c5c(F)cccc5F)c5nc(c(-c6c(F)cccc6F)c6ccc3[nH]6)C=C5)C=C4)cc2)C1
REMARK SMILES IDX 20 1 19 2 18 3 17 4 15 5 16 6 14 7 13 8 9 9 10 10 83 11
REMARK SMILES IDX 11 12 12 13 7 14 6 15 8 17 5 18 3 19 4 20 2 21 1 22 21 23
REMARK SMILES IDX 22 24 23 25 24 26 25 27 26 28 27 29 28 30 29 31 30 32 82 33
REMARK SMILES IDX 31 34 81 35 32 36 33 37 34 38 75 39 35 40 80 41 74 42 76 43
REMARK SMILES IDX 36 44 79 45 73 46 72 47 37 49 63 50 46 51 62 52 47 53 50 54
REMARK SMILES IDX 61 55 77 56 48 57 49 58 60 60 78 61 51 62 38 63 39 64 44 65
REMARK SMILES IDX 40 66 41 67 43 68 45 69 42 70 64 71 65 72 70 73 66 74 67 75
REMARK SMILES IDX 69 76 71 77 68 78 52 79 53 80 58 81 54 82 55 83 57 84 59 85
REMARK SMILES IDX 56 86
REMARK H PARENT 6 16 76 48 50 59
REMARK Flexibility Score: inf
ROOT
ATOM      1  O   UNL A   1      38.859  22.124  26.245  1.00  0.00    -0.376 OA
ENDROOT
BRANCH   1   2
ATOM      2  C   UNL A   1      38.197  21.309  25.276  1.00  0.00     0.202 C 
BRANCH   2   3
ATOM      3  C   UNL A   1      36.670  21.204  25.407  1.00  0.00     0.261 C 
BRANCH   3   4
ATOM      4  O   UNL A   1      35.949  21.560  24.206  1.00  0.00    -0.463 OA
BRANCH   4   5
ATOM      5  C   UNL A   1      36.022  22.862  23.838  1.00  0.00     0.308 C 
ATOM      6  O   UNL A   1      36.491  23.258  22.775  1.00  0.00    -0.252 OA
BRANCH   5   7
ATOM      7  C   UNL A   1      35.380  23.828  24.800  1.00  0.00     0.156 C 
BRANCH   7   8
ATOM      8  C   UNL A   1      33.955  24.342  24.610  1.00  0.00     0.149 C 
ATOM      9  N   UNL A   1      32.077  24.702  23.036  1.00  0.00    -0.320 N 
ATOM     10  C   UNL A   1      31.353  23.596  23.650  1.00  0.00     0.150 C 
ATOM     11  C   UNL A   1      33.535  24.537  23.135  1.00  0.00     0.154 C 
ATOM     12  C   UNL A   1      31.732  23.532  25.126  1.00  0.00     0.182 C 
ATOM     13  O   UNL A   1      33.143  23.322  25.265  1.00  0.00    -0.374 OA
BRANCH   9  14
ATOM     14  C   UNL A   1      31.559  25.747  22.329  1.00  0.00     0.317 C 
ATOM     15  N   UNL A   1      30.729  26.647  22.906  1.00  0.00    -0.338 N 
ATOM     16  H   UNL A   1      30.195  27.164  22.262  1.00  0.00     0.165 HD
ATOM     17  O   UNL A   1      31.835  25.935  21.143  1.00  0.00    -0.249 OA
BRANCH  15  18
ATOM     18  C   UNL A   1      30.476  26.998  24.294  1.00  0.00     0.121 C 
BRANCH  18  19
ATOM     19  C   UNL A   1      31.288  28.213  24.785  1.00  0.00     0.005 C 
ATOM     20  C   UNL A   1      30.737  29.472  24.100  1.00  0.00     0.009 C 
BRANCH  19  21
ATOM     21  C   UNL A   1      32.797  28.044  24.529  1.00  0.00     0.002 C 
ATOM     22  C   UNL A   1      33.330  28.956  23.429  1.00  0.00     0.004 C 
ENDBRANCH  19  21
ENDBRANCH  18  19
ENDBRANCH  15  18
ENDBRANCH   9  14
ENDBRANCH   7   8
ENDBRANCH   5   7
ENDBRANCH   4   5
ENDBRANCH   3   4
ENDBRANCH   2   3
ENDBRANCH   1   2
BRANCH   1  23
ATOM     23  C   UNL A   1      40.103  21.640  26.745  1.00  0.00     0.188 C 
BRANCH  23  24
ATOM     24  C   UNL A   1      40.526  20.258  26.248  1.00  0.00     0.188 C 
BRANCH  24  25
ATOM     25  O   UNL A   1      41.918  20.099  26.028  1.00  0.00    -0.376 OA
BRANCH  25  26
ATOM     26  C   UNL A   1      42.766  21.201  26.364  1.00  0.00     0.202 C 
BRANCH  26  27
ATOM     27  C   UNL A   1      43.415  21.982  25.197  1.00  0.00     0.261 C 
BRANCH  27  28
ATOM     28  O   UNL A   1      42.938  23.333  25.002  1.00  0.00    -0.460 OA
BRANCH  28  29
ATOM     29  C   UNL A   1      43.780  24.345  25.310  1.00  0.00     0.338 C 
ATOM     30  O   UNL A   1      44.813  24.631  24.727  1.00  0.00    -0.246 OA
BRANCH  29  31
ATOM     31  C   UNL A   1      43.129  25.234  26.312  1.00  0.00     0.060 A 
ATOM     32  C   UNL A   1      43.529  26.577  26.342  1.00  0.00     0.016 A 
ATOM     33  C   UNL A   1      42.113  24.796  27.170  1.00  0.00     0.016 A 
ATOM     34  C   UNL A   1      42.973  27.463  27.267  1.00  0.00     0.010 A 
ATOM     35  C   UNL A   1      41.561  25.685  28.106  1.00  0.00     0.010 A 
ATOM     36  C   UNL A   1      42.025  27.010  28.193  1.00  0.00    -0.014 A 
BRANCH  36  37
ATOM     37  C   UNL A   1      41.711  27.866  29.369  1.00  0.00     0.031 A 
ATOM     38  C   UNL A   1      40.502  28.764  29.298  1.00  0.00     0.074 A 
ATOM     39  C   UNL A   1      42.411  27.794  30.516  1.00  0.00     0.049 A 
ATOM     40  N   UNL A   1      39.967  29.523  30.222  1.00  0.00    -0.248 NA
ATOM     41  C   UNL A   1      39.799  28.805  28.006  1.00  0.00     0.031 C 
ATOM     42  C   UNL A   1      43.575  26.943  30.745  1.00  0.00     0.029 A 
ATOM     43  N   UNL A   1      42.227  28.445  31.713  1.00  0.00    -0.354 N 
ATOM     44  C   UNL A   1      38.867  30.125  29.625  1.00  0.00     0.074 A 
ATOM     45  C   UNL A   1      38.840  29.683  28.247  1.00  0.00     0.031 C 
ATOM     46  C   UNL A   1      43.991  27.109  32.014  1.00  0.00     0.029 A 
ATOM     47  C   UNL A   1      43.138  28.095  32.679  1.00  0.00     0.049 A 
ATOM     48  H   UNL A   1      41.508  29.101  31.863  1.00  0.00     0.167 HD
ATOM     49  C   UNL A   1      37.947  30.956  30.172  1.00  0.00     0.037 A 
ATOM     50  C   UNL A   1      43.267  28.517  33.953  1.00  0.00     0.037 A 
ATOM     51  C   UNL A   1      37.973  31.414  31.536  1.00  0.00     0.049 A 
ATOM     52  C   UNL A   1      42.288  29.515  34.518  1.00  0.00     0.074 A 
ATOM     53  C   UNL A   1      37.078  32.249  32.183  1.00  0.00     0.029 A 
ATOM     54  N   UNL A   1      38.957  31.092  32.459  1.00  0.00    -0.354 N 
ATOM     55  N   UNL A   1      41.229  30.048  33.957  1.00  0.00    -0.248 NA
ATOM     56  C   UNL A   1      42.520  29.962  35.900  1.00  0.00     0.031 C 
ATOM     57  C   UNL A   1      37.556  32.482  33.477  1.00  0.00     0.029 A 
ATOM     58  C   UNL A   1      38.710  31.738  33.660  1.00  0.00     0.049 A 
ATOM     59  H   UNL A   1      39.719  30.493  32.287  1.00  0.00     0.167 HD
ATOM     60  C   UNL A   1      40.648  30.859  34.927  1.00  0.00     0.074 A 
ATOM     61  C   UNL A   1      41.471  30.745  36.112  1.00  0.00     0.031 C 
ATOM     62  C   UNL A   1      39.528  31.620  34.842  1.00  0.00     0.037 A 
BRANCH  49  63
ATOM     63  C   UNL A   1      36.857  31.454  29.264  1.00  0.00     0.057 A 
ATOM     64  C   UNL A   1      36.859  32.755  28.740  1.00  0.00     0.134 A 
ATOM     65  C   UNL A   1      35.779  30.627  28.925  1.00  0.00     0.134 A 
ATOM     66  F   UNL A   1      37.853  33.607  29.036  1.00  0.00    -0.206 F 
ATOM     67  C   UNL A   1      35.808  33.228  27.952  1.00  0.00     0.040 A 
ATOM     68  C   UNL A   1      34.740  31.077  28.109  1.00  0.00     0.040 A 
ATOM     69  F   UNL A   1      35.715  29.368  29.385  1.00  0.00    -0.206 F 
ATOM     70  C   UNL A   1      34.746  32.385  27.632  1.00  0.00     0.006 A 
ENDBRANCH  49  63
BRANCH  50  71
ATOM     71  C   UNL A   1      44.359  27.977  34.803  1.00  0.00     0.057 A 
ATOM     72  C   UNL A   1      44.237  26.733  35.435  1.00  0.00     0.134 A 
ATOM     73  C   UNL A   1      45.546  28.690  35.010  1.00  0.00     0.134 A 
ATOM     74  F   UNL A   1      43.113  26.015  35.301  1.00  0.00    -0.206 F 
ATOM     75  C   UNL A   1      45.252  26.221  36.246  1.00  0.00     0.040 A 
ATOM     76  C   UNL A   1      46.580  28.179  35.797  1.00  0.00     0.040 A 
ATOM     77  F   UNL A   1      45.722  29.890  34.438  1.00  0.00    -0.206 F 
ATOM     78  C   UNL A   1      46.432  26.942  36.421  1.00  0.00     0.006 A 
ENDBRANCH  50  71
BRANCH  62  79
ATOM     79  C   UNL A   1      39.089  32.355  36.079  1.00  0.00     0.057 A 
ATOM     80  C   UNL A   1      39.477  33.675  36.343  1.00  0.00     0.134 A 
ATOM     81  C   UNL A   1      38.229  31.742  37.002  1.00  0.00     0.134 A 
ATOM     82  F   UNL A   1      40.305  34.321  35.508  1.00  0.00    -0.206 F 
ATOM     83  C   UNL A   1      39.050  34.347  37.492  1.00  0.00     0.040 A 
ATOM     84  C   UNL A   1      37.772  32.414  38.137  1.00  0.00     0.040 A 
ATOM     85  F   UNL A   1      37.807  30.484  36.808  1.00  0.00    -0.206 F 
ATOM     86  C   UNL A   1      38.190  33.718  38.389  1.00  0.00     0.006 A 
ENDBRANCH  62  79
ENDBRANCH  36  37
ENDBRANCH  29  31
ENDBRANCH  28  29
ENDBRANCH  27  28
ENDBRANCH  26  27
ENDBRANCH  25  26
ENDBRANCH  24  25
ENDBRANCH  23  24
ENDBRANCH   1  23
TORSDOF 22
ENDMDL
MODEL 3
REMARK VINA RESULT:      -9.4      1.733      2.927
REMARK SMILES CC[C@@H](C)CNC(=O)N1CCO[C@@H](CC(=O)OCCOCCOCCOC(=O)c2ccc(-c3c4nc(c(-c5c(F)cccc5F)c5ccc([nH]5)c(-c5c(F)cccc5F)c5nc(c(-c6c(F)cccc6F)c6ccc3[nH]6)C=C5)C=C4)cc2)C1
REMARK SMILES IDX 20 1 19 2 18 3 17 4 15 5 16 6 14 7 13 8 9 9 10 10 83 11
REMARK SMILES IDX 11 12 12 13 7 14 6 15 8 17 5 18 3 19 4 20 2 21 1 22 21 23
REMARK SMILES IDX 22 24 23 25 24 26 25 27 26 28 27 29 28 30 29 31 30 32 82 33
REMARK SMILES IDX 31 34 81 35 32 36 33 37 34 38 75 39 35 40 80 41 74 42 76 43
REMARK SMILES IDX 36 44 79 45 73 46 72 47 37 49 63 50 46 51 62 52 47 53 50 54
REMARK SMILES IDX 61 55 77 56 48 57 49 58 60 60 78 61 51 62 38 63 39 64 44 65
REMARK SMILES IDX 40 66 41 67 43 68 45 69 42 70 64 71 65 72 70 73 66 74 67 75
REMARK SMILES IDX 69 76 71 77 68 78 52 79 53 80 58 81 54 82 55 83 57 84 59 85
REMARK SMILES IDX 56 86
REMARK H PARENT 6 16 76 48 50 59
REMARK Flexibility Score: inf
ROOT
ATOM      1  O   UNL A   1      30.488  28.351  23.382  1.00  0.00    -0.376 OA
ENDROOT
BRANCH   1   2
ATOM      2  C   UNL A   1      30.373  26.927  23.425  1.00  0.00     0.202 C 
BRANCH   2   3
ATOM      3  C   UNL A   1      29.587  26.345  24.609  1.00  0.00     0.261 C 
BRANCH   3   4
ATOM      4  O   UNL A   1      30.206  25.189  25.217  1.00  0.00    -0.463 OA
BRANCH   4   5
ATOM      5  C   UNL A   1      31.111  25.449  26.192  1.00  0.00     0.308 C 
ATOM      6  O   UNL A   1      31.243  26.536  26.746  1.00  0.00    -0.252 OA
BRANCH   5   7
ATOM      7  C   UNL A   1      31.910  24.255  26.646  1.00  0.00     0.156 C 
BRANCH   7   8
ATOM      8  C   UNL A   1      33.167  23.788  25.915  1.00  0.00     0.149 C 
ATOM      9  N   UNL A   1      34.329  21.914  24.787  1.00  0.00    -0.320 N 
ATOM     10  C   UNL A   1      34.087  22.545  23.494  1.00  0.00     0.150 C 
ATOM     11  C   UNL A   1      33.293  22.254  25.775  1.00  0.00     0.154 C 
ATOM     12  C   UNL A   1      34.085  24.058  23.690  1.00  0.00     0.182 C 
ATOM     13  O   UNL A   1      33.054  24.434  24.611  1.00  0.00    -0.374 OA
BRANCH   9  14
ATOM     14  C   UNL A   1      35.300  21.011  25.105  1.00  0.00     0.317 C 
ATOM     15  N   UNL A   1      35.043  19.683  25.145  1.00  0.00    -0.338 N 
ATOM     16  H   UNL A   1      35.706  19.167  25.657  1.00  0.00     0.165 HD
ATOM     17  O   UNL A   1      36.458  21.355  25.348  1.00  0.00    -0.249 OA
BRANCH  15  18
ATOM     18  C   UNL A   1      33.979  18.872  24.577  1.00  0.00     0.121 C 
BRANCH  18  19
ATOM     19  C   UNL A   1      34.291  17.363  24.560  1.00  0.00     0.005 C 
ATOM     20  C   UNL A   1      33.990  16.822  23.155  1.00  0.00     0.009 C 
BRANCH  19  21
ATOM     21  C   UNL A   1      33.506  16.596  25.641  1.00  0.00     0.002 C 
ATOM     22  C   UNL A   1      32.817  15.343  25.113  1.00  0.00     0.004 C 
ENDBRANCH  19  21
ENDBRANCH  18  19
ENDBRANCH  15  18
ENDBRANCH   9  14
ENDBRANCH   7   8
ENDBRANCH   5   7
ENDBRANCH   4   5
ENDBRANCH   3   4
ENDBRANCH   2   3
ENDBRANCH   1   2
BRANCH   1  23
ATOM     23  C   UNL A   1      31.727  28.905  23.817  1.00  0.00     0.188 C 
BRANCH  23  24
ATOM     24  C   UNL A   1      31.668  29.743  25.094  1.00  0.00     0.188 C 
BRANCH  24  25
ATOM     25  O   UNL A   1      32.828  29.678  25.908  1.00  0.00    -0.376 OA
BRANCH  25  26
ATOM     26  C   UNL A   1      32.814  30.418  27.132  1.00  0.00     0.202 C 
BRANCH  26  27
ATOM     27  C   UNL A   1      32.199  31.837  27.100  1.00  0.00     0.261 C 
BRANCH  27  28
ATOM     28  O   UNL A   1      33.136  32.927  26.953  1.00  0.00    -0.460 OA
BRANCH  28  29
ATOM     29  C   UNL A   1      33.312  33.748  28.013  1.00  0.00     0.338 C 
ATOM     30  O   UNL A   1      32.530  34.597  28.408  1.00  0.00    -0.246 OA
BRANCH  29  31
ATOM     31  C   UNL A   1      34.491  33.289  28.797  1.00  0.00     0.060 A 
ATOM     32  C   UNL A   1      35.763  33.613  28.303  1.00  0.00     0.016 A 
ATOM     33  C   UNL A   1      34.376  32.607  30.014  1.00  0.00     0.016 A 
ATOM     34  C   UNL A   1      36.913  33.200  28.979  1.00  0.00     0.010 A 
ATOM     35  C   UNL A   1      35.532  32.184  30.688  1.00  0.00     0.010 A 
ATOM     36  C   UNL A   1      36.806  32.434  30.147  1.00  0.00    -0.014 A 
BRANCH  36  37
ATOM     37  C   UNL A   1      38.014  31.723  30.647  1.00  0.00     0.031 A 
ATOM     38  C   UNL A   1      38.465  31.986  32.061  1.00  0.00     0.074 A 
ATOM     39  C   UNL A   1      38.655  30.794  29.915  1.00  0.00     0.049 A 
ATOM     40  N   UNL A   1      39.420  31.419  32.755  1.00  0.00    -0.248 NA
ATOM     41  C   UNL A   1      37.729  33.029  32.793  1.00  0.00     0.031 C 
ATOM     42  C   UNL A   1      38.308  30.405  28.551  1.00  0.00     0.029 A 
ATOM     43  N   UNL A   1      39.728  29.995  30.232  1.00  0.00    -0.354 N 
ATOM     44  C   UNL A   1      39.396  32.033  34.001  1.00  0.00     0.074 A 
ATOM     45  C   UNL A   1      38.368  33.049  33.952  1.00  0.00     0.031 C 
ATOM     46  C   UNL A   1      39.142  29.427  28.153  1.00  0.00     0.029 A 
ATOM     47  C   UNL A   1      40.095  29.137  29.225  1.00  0.00     0.049 A 
ATOM     48  H   UNL A   1      40.189  30.036  31.100  1.00  0.00     0.167 HD
ATOM     49  C   UNL A   1      40.147  31.768  35.098  1.00  0.00     0.037 A 
ATOM     50  C   UNL A   1      41.083  28.220  29.175  1.00  0.00     0.037 A 
ATOM     51  C   UNL A   1      41.184  30.771  35.153  1.00  0.00     0.049 A 
ATOM     52  C   UNL A   1      41.970  28.003  30.374  1.00  0.00     0.074 A 
ATOM     53  C   UNL A   1      41.990  30.423  36.223  1.00  0.00     0.029 A 
ATOM     54  N   UNL A   1      41.571  29.975  34.086  1.00  0.00    -0.354 N 
ATOM     55  N   UNL A   1      41.914  28.562  31.560  1.00  0.00    -0.248 NA
ATOM     56  C   UNL A   1      43.054  27.019  30.229  1.00  0.00     0.031 C 
ATOM     57  C   UNL A   1      42.908  29.462  35.785  1.00  0.00     0.029 A 
ATOM     58  C   UNL A   1      42.628  29.160  34.462  1.00  0.00     0.049 A 
ATOM     59  H   UNL A   1      41.158  29.986  33.193  1.00  0.00     0.167 HD
ATOM     60  C   UNL A   1      42.926  27.970  32.310  1.00  0.00     0.074 A 
ATOM     61  C   UNL A   1      43.576  27.007  31.447  1.00  0.00     0.031 C 
ATOM     62  C   UNL A   1      43.273  28.198  33.602  1.00  0.00     0.037 A 
BRANCH  49  63
ATOM     63  C   UNL A   1      39.892  32.611  36.316  1.00  0.00     0.057 A 
ATOM     64  C   UNL A   1      38.866  32.316  37.226  1.00  0.00     0.134 A 
ATOM     65  C   UNL A   1      40.671  33.747  36.573  1.00  0.00     0.134 A 
ATOM     66  F   UNL A   1      38.071  31.252  37.033  1.00  0.00    -0.206 F 
ATOM     67  C   UNL A   1      38.596  33.143  38.318  1.00  0.00     0.040 A 
ATOM     68  C   UNL A   1      40.433  34.561  37.681  1.00  0.00     0.040 A 
ATOM     69  F   UNL A   1      41.674  34.086  35.749  1.00  0.00    -0.206 F 
ATOM     70  C   UNL A   1      39.384  34.268  38.549  1.00  0.00     0.006 A 
ENDBRANCH  49  63
BRANCH  50  71
ATOM     71  C   UNL A   1      41.276  27.409  27.944  1.00  0.00     0.057 A 
ATOM     72  C   UNL A   1      42.072  27.872  26.890  1.00  0.00     0.134 A 
ATOM     73  C   UNL A   1      40.665  26.159  27.789  1.00  0.00     0.134 A 
ATOM     74  F   UNL A   1      42.660  29.075  26.965  1.00  0.00    -0.206 F 
ATOM     75  C   UNL A   1      42.251  27.124  25.724  1.00  0.00     0.040 A 
ATOM     76  C   UNL A   1      40.855  25.389  26.640  1.00  0.00     0.040 A 
ATOM     77  F   UNL A   1      39.884  25.663  28.759  1.00  0.00    -0.206 F 
ATOM     78  C   UNL A   1      41.648  25.874  25.601  1.00  0.00     0.006 A 
ENDBRANCH  50  71
BRANCH  62  79
ATOM     79  C   UNL A   1      44.378  27.360  34.185  1.00  0.00     0.057 A 
ATOM     80  C   UNL A   1      45.710  27.792  34.212  1.00  0.00     0.134 A 
ATOM     81  C   UNL A   1      44.094  26.116  34.767  1.00  0.00     0.134 A 
ATOM     82  F   UNL A   1      46.057  28.967  33.668  1.00  0.00    -0.206 F 
ATOM     83  C   UNL A   1      46.723  27.005  34.770  1.00  0.00     0.040 A 
ATOM     84  C   UNL A   1      45.091  25.336  35.354  1.00  0.00     0.040 A 
ATOM     85  F   UNL A   1      42.838  25.645  34.788  1.00  0.00    -0.206 F 
ATOM     86  C   UNL A   1      46.412  25.776  35.348  1.00  0.00     0.006 A 
ENDBRANCH  62  79
ENDBRANCH  36  37
ENDBRANCH  29  31
ENDBRANCH  28  29
ENDBRANCH  27  28
ENDBRANCH  26  27
ENDBRANCH  25  26
ENDBRANCH  24  25
ENDBRANCH  23  24
ENDBRANCH   1  23
TORSDOF 22
ENDMDL
