MODEL 1
REMARK VINA RESULT:     -10.0      0.000      0.000
REMARK SMILES COc1ccc(NCc2ccc(C(=O)OCCOCCOCCOC(=O)c3ccc(-c4c5nc(c(-c6c(F)cccc6F)c6ccc([nH]6)c(-c6c(F)cccc6F)c6nc(c(-c7c(F)cccc7F)c7ccc4[nH]7)C=C6)C=C5)cc3)o2)cc1
REMARK SMILES IDX 19 1 18 2 17 3 16 4 15 5 13 6 14 7 12 8 9 9 10 10 81 11
REMARK SMILES IDX 11 12 8 13 7 14 6 16 3 17 4 18 83 19 5 20 82 21 2 22 1 23
REMARK SMILES IDX 20 24 21 25 22 26 23 27 24 28 25 29 26 30 27 31 28 32 80 33
REMARK SMILES IDX 29 34 79 35 30 36 31 37 32 38 73 39 33 40 78 41 72 42 74 43
REMARK SMILES IDX 34 44 77 45 71 46 70 47 35 49 61 50 44 51 60 52 45 53 48 54
REMARK SMILES IDX 59 55 75 56 46 57 47 58 58 60 76 61 49 62 36 63 37 64 42 65
REMARK SMILES IDX 38 66 39 67 41 68 43 69 40 70 62 71 63 72 68 73 64 74 65 75
REMARK SMILES IDX 67 76 69 77 66 78 50 79 51 80 56 81 52 82 53 83 55 84 57 85
REMARK SMILES IDX 54 86
REMARK H PARENT 7 15 74 48 48 59
REMARK Flexibility Score: inf
ROOT
ATOM      1  C   UNL A   1      34.999  21.216  25.187  1.00  0.00     0.188 C 
ENDROOT
BRANCH   1   2
ATOM      2  O   UNL A   1      34.934  22.265  26.148  1.00  0.00    -0.376 OA
BRANCH   2   3
ATOM      3  C   UNL A   1      34.525  21.968  27.479  1.00  0.00     0.202 C 
BRANCH   3   4
ATOM      4  C   UNL A   1      33.027  22.059  27.768  1.00  0.00     0.261 C 
BRANCH   4   5
ATOM      5  O   UNL A   1      32.467  23.308  27.328  1.00  0.00    -0.457 OA
BRANCH   5   6
ATOM      6  C   UNL A   1      31.199  23.245  26.824  1.00  0.00     0.374 C 
ATOM      7  O   UNL A   1      30.178  23.225  27.502  1.00  0.00    -0.242 OA
BRANCH   6   8
ATOM      8  C   UNL A   1      31.240  23.347  25.385  1.00  0.00     0.211 A 
ATOM      9  C   UNL A   1      31.775  22.598  23.376  1.00  0.00     0.124 A 
ATOM     10  C   UNL A   1      31.003  23.723  23.179  1.00  0.00     0.048 A 
ATOM     11  O   UNL A   1      31.948  22.387  24.710  1.00  0.00    -0.452 OA
ATOM     12  C   UNL A   1      30.641  24.194  24.468  1.00  0.00     0.058 A 
BRANCH   9  13
ATOM     13  C   UNL A   1      32.398  21.585  22.476  1.00  0.00     0.188 C 
BRANCH  13  14
ATOM     14  N   UNL A   1      31.786  20.267  22.510  1.00  0.00    -0.378 N 
ATOM     15  H   UNL A   1      30.885  20.182  22.121  1.00  0.00     0.161 HD
BRANCH  14  16
ATOM     16  C   UNL A   1      32.350  19.126  23.038  1.00  0.00     0.035 A 
ATOM     17  C   UNL A   1      33.522  16.847  24.254  1.00  0.00     0.119 A 
ATOM     18  C   UNL A   1      33.430  16.948  22.868  1.00  0.00     0.048 A 
ATOM     19  C   UNL A   1      33.046  17.892  25.038  1.00  0.00     0.048 A 
ATOM     20  C   UNL A   1      32.841  18.069  22.269  1.00  0.00     0.029 A 
ATOM     21  C   UNL A   1      32.472  19.018  24.431  1.00  0.00     0.029 A 
BRANCH  17  22
ATOM     22  O   UNL A   1      34.114  15.704  24.716  1.00  0.00    -0.497 OA
ATOM     23  C   UNL A   1      35.360  15.871  25.381  1.00  0.00     0.278 C 
ENDBRANCH  17  22
ENDBRANCH  14  16
ENDBRANCH  13  14
ENDBRANCH   9  13
ENDBRANCH   6   8
ENDBRANCH   5   6
ENDBRANCH   4   5
ENDBRANCH   3   4
ENDBRANCH   2   3
ENDBRANCH   1   2
BRANCH   1  24
ATOM     24  C   UNL A   1      36.320  20.444  25.014  1.00  0.00     0.188 C 
BRANCH  24  25
ATOM     25  O   UNL A   1      37.435  21.285  24.759  1.00  0.00    -0.376 OA
BRANCH  25  26
ATOM     26  C   UNL A   1      38.580  21.072  25.569  1.00  0.00     0.202 C 
BRANCH  26  27
ATOM     27  C   UNL A   1      39.321  19.770  25.253  1.00  0.00     0.261 C 
BRANCH  27  28
ATOM     28  O   UNL A   1      40.314  19.385  26.216  1.00  0.00    -0.460 OA
BRANCH  28  29
ATOM     29  C   UNL A   1      41.594  19.725  25.951  1.00  0.00     0.338 C 
ATOM     30  O   UNL A   1      42.400  19.111  25.278  1.00  0.00    -0.246 OA
BRANCH  29  31
ATOM     31  C   UNL A   1      41.819  21.070  26.517  1.00  0.00     0.060 A 
ATOM     32  C   UNL A   1      42.245  22.106  25.677  1.00  0.00     0.016 A 
ATOM     33  C   UNL A   1      41.601  21.302  27.878  1.00  0.00     0.016 A 
ATOM     34  C   UNL A   1      42.470  23.380  26.206  1.00  0.00     0.010 A 
ATOM     35  C   UNL A   1      41.843  22.571  28.407  1.00  0.00     0.010 A 
ATOM     36  C   UNL A   1      42.297  23.610  27.579  1.00  0.00    -0.014 A 
BRANCH  36  37
ATOM     37  C   UNL A   1      42.729  24.885  28.198  1.00  0.00     0.031 A 
ATOM     38  C   UNL A   1      41.698  25.951  28.441  1.00  0.00     0.074 A 
ATOM     39  C   UNL A   1      44.020  25.113  28.494  1.00  0.00     0.049 A 
ATOM     40  N   UNL A   1      41.857  27.182  28.854  1.00  0.00    -0.248 NA
ATOM     41  C   UNL A   1      40.299  25.577  28.178  1.00  0.00     0.031 C 
ATOM     42  C   UNL A   1      45.109  24.152  28.334  1.00  0.00     0.029 A 
ATOM     43  N   UNL A   1      44.634  26.244  28.973  1.00  0.00    -0.354 N 
ATOM     44  C   UNL A   1      40.583  27.731  28.895  1.00  0.00     0.074 A 
ATOM     45  C   UNL A   1      39.663  26.706  28.450  1.00  0.00     0.031 C 
ATOM     46  C   UNL A   1      46.265  24.743  28.687  1.00  0.00     0.029 A 
ATOM     47  C   UNL A   1      46.000  26.130  29.064  1.00  0.00     0.049 A 
ATOM     48  H   UNL A   1      44.143  27.058  29.227  1.00  0.00     0.167 HD
ATOM     49  C   UNL A   1      40.212  28.977  29.268  1.00  0.00     0.037 A 
ATOM     50  C   UNL A   1      46.930  27.052  29.382  1.00  0.00     0.037 A 
ATOM     51  C   UNL A   1      41.125  30.002  29.697  1.00  0.00     0.049 A 
ATOM     52  C   UNL A   1      46.500  28.456  29.720  1.00  0.00     0.074 A 
ATOM     53  C   UNL A   1      40.842  31.292  30.105  1.00  0.00     0.029 A 
ATOM     54  N   UNL A   1      42.501  29.850  29.763  1.00  0.00    -0.354 N 
ATOM     55  N   UNL A   1      45.291  28.961  29.776  1.00  0.00    -0.248 NA
ATOM     56  C   UNL A   1      47.565  29.422  30.030  1.00  0.00     0.031 C 
ATOM     57  C   UNL A   1      42.053  31.936  30.384  1.00  0.00     0.029 A 
ATOM     58  C   UNL A   1      43.085  31.033  30.185  1.00  0.00     0.049 A 
ATOM     59  H   UNL A   1      42.990  29.025  29.542  1.00  0.00     0.167 HD
ATOM     60  C   UNL A   1      45.448  30.288  30.156  1.00  0.00     0.074 A 
ATOM     61  C   UNL A   1      46.869  30.513  30.317  1.00  0.00     0.031 C 
ATOM     62  C   UNL A   1      44.499  31.234  30.357  1.00  0.00     0.037 A 
BRANCH  49  63
ATOM     63  C   UNL A   1      38.752  29.305  29.203  1.00  0.00     0.057 A 
ATOM     64  C   UNL A   1      38.140  29.699  28.007  1.00  0.00     0.134 A 
ATOM     65  C   UNL A   1      37.947  29.208  30.345  1.00  0.00     0.134 A 
ATOM     66  F   UNL A   1      38.862  29.828  26.884  1.00  0.00    -0.206 F 
ATOM     67  C   UNL A   1      36.778  30.000  27.951  1.00  0.00     0.040 A 
ATOM     68  C   UNL A   1      36.581  29.489  30.297  1.00  0.00     0.040 A 
ATOM     69  F   UNL A   1      38.475  28.837  31.520  1.00  0.00    -0.206 F 
ATOM     70  C   UNL A   1      35.994  29.891  29.098  1.00  0.00     0.006 A 
ENDBRANCH  49  63
BRANCH  50  71
ATOM     71  C   UNL A   1      48.368  26.691  29.375  1.00  0.00     0.057 A 
ATOM     72  C   UNL A   1      48.996  26.196  30.525  1.00  0.00     0.134 A 
ATOM     73  C   UNL A   1      49.155  26.852  28.228  1.00  0.00     0.134 A 
ATOM     74  F   UNL A   1      48.300  26.046  31.661  1.00  0.00    -0.206 F 
ATOM     75  C   UNL A   1      50.357  25.885  30.537  1.00  0.00     0.040 A 
ATOM     76  C   UNL A   1      50.512  26.527  28.221  1.00  0.00     0.040 A 
ATOM     77  F   UNL A   1      48.612  27.329  27.098  1.00  0.00    -0.206 F 
ATOM     78  C   UNL A   1      51.118  26.047  29.380  1.00  0.00     0.006 A 
ENDBRANCH  50  71
BRANCH  62  79
ATOM     79  C   UNL A   1      44.953  32.587  30.813  1.00  0.00     0.057 A 
ATOM     80  C   UNL A   1      45.192  32.869  32.163  1.00  0.00     0.134 A 
ATOM     81  C   UNL A   1      45.222  33.597  29.880  1.00  0.00     0.134 A 
ATOM     82  F   UNL A   1      44.943  31.946  33.104  1.00  0.00    -0.206 F 
ATOM     83  C   UNL A   1      45.676  34.113  32.570  1.00  0.00     0.040 A 
ATOM     84  C   UNL A   1      45.724  34.837  30.274  1.00  0.00     0.040 A 
ATOM     85  F   UNL A   1      45.022  33.385  28.570  1.00  0.00    -0.206 F 
ATOM     86  C   UNL A   1      45.951  35.099  31.623  1.00  0.00     0.006 A 
ENDBRANCH  62  79
ENDBRANCH  36  37
ENDBRANCH  29  31
ENDBRANCH  28  29
ENDBRANCH  27  28
ENDBRANCH  26  27
ENDBRANCH  25  26
ENDBRANCH  24  25
ENDBRANCH   1  24
TORSDOF 21
ENDMDL
MODEL 2
REMARK VINA RESULT:      -9.8      3.377      8.374
REMARK SMILES COc1ccc(NCc2ccc(C(=O)OCCOCCOCCOC(=O)c3ccc(-c4c5nc(c(-c6c(F)cccc6F)c6ccc([nH]6)c(-c6c(F)cccc6F)c6nc(c(-c7c(F)cccc7F)c7ccc4[nH]7)C=C6)C=C5)cc3)o2)cc1
REMARK SMILES IDX 19 1 18 2 17 3 16 4 15 5 13 6 14 7 12 8 9 9 10 10 81 11
REMARK SMILES IDX 11 12 8 13 7 14 6 16 3 17 4 18 83 19 5 20 82 21 2 22 1 23
REMARK SMILES IDX 20 24 21 25 22 26 23 27 24 28 25 29 26 30 27 31 28 32 80 33
REMARK SMILES IDX 29 34 79 35 30 36 31 37 32 38 73 39 33 40 78 41 72 42 74 43
REMARK SMILES IDX 34 44 77 45 71 46 70 47 35 49 61 50 44 51 60 52 45 53 48 54
REMARK SMILES IDX 59 55 75 56 46 57 47 58 58 60 76 61 49 62 36 63 37 64 42 65
REMARK SMILES IDX 38 66 39 67 41 68 43 69 40 70 62 71 63 72 68 73 64 74 65 75
REMARK SMILES IDX 67 76 69 77 66 78 50 79 51 80 56 81 52 82 53 83 55 84 57 85
REMARK SMILES IDX 54 86
REMARK H PARENT 7 15 74 48 48 59
REMARK Flexibility Score: inf
ROOT
ATOM      1  C   UNL A   1      35.064  31.532  27.633  1.00  0.00     0.188 C 
ENDROOT
BRANCH   1   2
ATOM      2  O   UNL A   1      34.899  30.187  28.075  1.00  0.00    -0.376 OA
BRANCH   2   3
ATOM      3  C   UNL A   1      34.517  29.186  27.138  1.00  0.00     0.202 C 
BRANCH   3   4
ATOM      4  C   UNL A   1      33.048  29.174  26.714  1.00  0.00     0.261 C 
BRANCH   4   5
ATOM      5  O   UNL A   1      32.714  28.000  25.954  1.00  0.00    -0.457 OA
BRANCH   5   6
ATOM      6  C   UNL A   1      31.647  27.281  26.412  1.00  0.00     0.374 C 
ATOM      7  O   UNL A   1      31.181  27.366  27.541  1.00  0.00    -0.242 OA
BRANCH   6   8
ATOM      8  C   UNL A   1      31.071  26.520  25.328  1.00  0.00     0.211 A 
ATOM      9  C   UNL A   1      30.913  24.720  24.057  1.00  0.00     0.124 A 
ATOM     10  C   UNL A   1      29.869  25.544  23.695  1.00  0.00     0.048 A 
ATOM     11  O   UNL A   1      31.662  25.323  25.022  1.00  0.00    -0.452 OA
ATOM     12  C   UNL A   1      29.957  26.692  24.525  1.00  0.00     0.058 A 
BRANCH   9  13
ATOM     13  C   UNL A   1      31.351  23.349  23.663  1.00  0.00     0.188 C 
BRANCH  13  14
ATOM     14  N   UNL A   1      32.091  22.620  24.678  1.00  0.00    -0.378 N 
ATOM     15  H   UNL A   1      31.594  22.344  25.482  1.00  0.00     0.161 HD
BRANCH  14  16
ATOM     16  C   UNL A   1      33.426  22.281  24.620  1.00  0.00     0.035 A 
ATOM     17  C   UNL A   1      36.189  21.682  24.393  1.00  0.00     0.119 A 
ATOM     18  C   UNL A   1      35.332  20.836  25.092  1.00  0.00     0.048 A 
ATOM     19  C   UNL A   1      35.667  22.820  23.788  1.00  0.00     0.048 A 
ATOM     20  C   UNL A   1      33.969  21.139  25.213  1.00  0.00     0.029 A 
ATOM     21  C   UNL A   1      34.300  23.108  23.900  1.00  0.00     0.029 A 
BRANCH  17  22
ATOM     22  O   UNL A   1      37.495  21.278  24.349  1.00  0.00    -0.497 OA
ATOM     23  C   UNL A   1      37.769  19.990  24.886  1.00  0.00     0.278 C 
ENDBRANCH  17  22
ENDBRANCH  14  16
ENDBRANCH  13  14
ENDBRANCH   9  13
ENDBRANCH   6   8
ENDBRANCH   5   6
ENDBRANCH   4   5
ENDBRANCH   3   4
ENDBRANCH   2   3
ENDBRANCH   1   2
BRANCH   1  24
ATOM     24  C   UNL A   1      34.086  32.608  28.138  1.00  0.00     0.188 C 
BRANCH  24  25
ATOM     25  O   UNL A   1      34.729  33.690  28.795  1.00  0.00    -0.376 OA
BRANCH  25  26
ATOM     26  C   UNL A   1      33.994  34.322  29.831  1.00  0.00     0.202 C 
BRANCH  26  27
ATOM     27  C   UNL A   1      34.490  33.971  31.236  1.00  0.00     0.261 C 
BRANCH  27  28
ATOM     28  O   UNL A   1      34.937  32.617  31.403  1.00  0.00    -0.460 OA
BRANCH  28  29
ATOM     29  C   UNL A   1      35.851  32.385  32.370  1.00  0.00     0.338 C 
ATOM     30  O   UNL A   1      35.748  32.617  33.560  1.00  0.00    -0.246 OA
BRANCH  29  31
ATOM     31  C   UNL A   1      36.976  31.657  31.747  1.00  0.00     0.060 A 
ATOM     32  C   UNL A   1      37.849  30.921  32.557  1.00  0.00     0.016 A 
ATOM     33  C   UNL A   1      37.158  31.703  30.363  1.00  0.00     0.016 A 
ATOM     34  C   UNL A   1      38.922  30.237  31.977  1.00  0.00     0.010 A 
ATOM     35  C   UNL A   1      38.240  31.035  29.788  1.00  0.00     0.010 A 
ATOM     36  C   UNL A   1      39.138  30.315  30.594  1.00  0.00    -0.014 A 
BRANCH  36  37
ATOM     37  C   UNL A   1      40.378  29.780  29.985  1.00  0.00     0.031 A 
ATOM     38  C   UNL A   1      41.534  30.716  29.769  1.00  0.00     0.074 A 
ATOM     39  C   UNL A   1      40.461  28.500  29.584  1.00  0.00     0.049 A 
ATOM     40  N   UNL A   1      42.666  30.509  29.148  1.00  0.00    -0.248 NA
ATOM     41  C   UNL A   1      41.388  32.071  30.327  1.00  0.00     0.031 C 
ATOM     42  C   UNL A   1      39.424  27.486  29.763  1.00  0.00     0.029 A 
ATOM     43  N   UNL A   1      41.467  27.842  28.920  1.00  0.00    -0.354 N 
ATOM     44  C   UNL A   1      43.365  31.705  29.235  1.00  0.00     0.074 A 
ATOM     45  C   UNL A   1      42.524  32.639  29.953  1.00  0.00     0.031 C 
ATOM     46  C   UNL A   1      39.838  26.337  29.199  1.00  0.00     0.029 A 
ATOM     47  C   UNL A   1      41.152  26.545  28.592  1.00  0.00     0.049 A 
ATOM     48  H   UNL A   1      42.331  28.259  28.699  1.00  0.00     0.167 HD
ATOM     49  C   UNL A   1      44.596  32.000  28.757  1.00  0.00     0.037 A 
ATOM     50  C   UNL A   1      41.833  25.644  27.858  1.00  0.00     0.037 A 
ATOM     51  C   UNL A   1      45.428  31.080  28.031  1.00  0.00     0.049 A 
ATOM     52  C   UNL A   1      43.168  26.020  27.271  1.00  0.00     0.074 A 
ATOM     53  C   UNL A   1      46.695  31.284  27.516  1.00  0.00     0.029 A 
ATOM     54  N   UNL A   1      45.066  29.781  27.709  1.00  0.00    -0.354 N 
ATOM     55  N   UNL A   1      43.831  27.147  27.375  1.00  0.00    -0.248 NA
ATOM     56  C   UNL A   1      43.847  25.001  26.455  1.00  0.00     0.031 C 
ATOM     57  C   UNL A   1      47.087  30.118  26.849  1.00  0.00     0.029 A 
ATOM     58  C   UNL A   1      46.078  29.177  26.983  1.00  0.00     0.049 A 
ATOM     59  H   UNL A   1      44.216  29.352  27.960  1.00  0.00     0.167 HD
ATOM     60  C   UNL A   1      45.012  26.962  26.668  1.00  0.00     0.074 A 
ATOM     61  C   UNL A   1      44.978  25.616  26.137  1.00  0.00     0.031 C 
ATOM     62  C   UNL A   1      46.035  27.830  26.478  1.00  0.00     0.037 A 
BRANCH  49  63
ATOM     63  C   UNL A   1      45.105  33.391  28.987  1.00  0.00     0.057 A 
ATOM     64  C   UNL A   1      44.790  34.442  28.117  1.00  0.00     0.134 A 
ATOM     65  C   UNL A   1      45.901  33.684  30.101  1.00  0.00     0.134 A 
ATOM     66  F   UNL A   1      44.046  34.219  27.024  1.00  0.00    -0.206 F 
ATOM     67  C   UNL A   1      45.263  35.736  28.338  1.00  0.00     0.040 A 
ATOM     68  C   UNL A   1      46.365  34.977  30.342  1.00  0.00     0.040 A 
ATOM     69  F   UNL A   1      46.237  32.720  30.970  1.00  0.00    -0.206 F 
ATOM     70  C   UNL A   1      46.050  36.006  29.457  1.00  0.00     0.006 A 
ENDBRANCH  49  63
BRANCH  50  71
ATOM     71  C   UNL A   1      41.258  24.300  27.611  1.00  0.00     0.057 A 
ATOM     72  C   UNL A   1      40.212  24.116  26.698  1.00  0.00     0.134 A 
ATOM     73  C   UNL A   1      41.722  23.170  28.296  1.00  0.00     0.134 A 
ATOM     74  F   UNL A   1      39.706  25.164  26.033  1.00  0.00    -0.206 F 
ATOM     75  C   UNL A   1      39.641  22.860  26.484  1.00  0.00     0.040 A 
ATOM     76  C   UNL A   1      41.175  21.906  28.077  1.00  0.00     0.040 A 
ATOM     77  F   UNL A   1      42.717  23.283  29.188  1.00  0.00    -0.206 F 
ATOM     78  C   UNL A   1      40.126  21.750  27.172  1.00  0.00     0.006 A 
ENDBRANCH  50  71
BRANCH  62  79
ATOM     79  C   UNL A   1      47.222  27.345  25.702  1.00  0.00     0.057 A 
ATOM     80  C   UNL A   1      47.352  27.582  24.329  1.00  0.00     0.134 A 
ATOM     81  C   UNL A   1      48.279  26.696  26.354  1.00  0.00     0.134 A 
ATOM     82  F   UNL A   1      46.370  28.188  23.647  1.00  0.00    -0.206 F 
ATOM     83  C   UNL A   1      48.491  27.182  23.628  1.00  0.00     0.040 A 
ATOM     84  C   UNL A   1      49.430  26.310  25.668  1.00  0.00     0.040 A 
ATOM     85  F   UNL A   1      48.217  26.449  27.671  1.00  0.00    -0.206 F 
ATOM     86  C   UNL A   1      49.538  26.551  24.300  1.00  0.00     0.006 A 
ENDBRANCH  62  79
ENDBRANCH  36  37
ENDBRANCH  29  31
ENDBRANCH  28  29
ENDBRANCH  27  28
ENDBRANCH  26  27
ENDBRANCH  25  26
ENDBRANCH  24  25
ENDBRANCH   1  24
TORSDOF 21
ENDMDL
MODEL 3
REMARK VINA RESULT:      -9.8      4.535      7.508
REMARK SMILES COc1ccc(NCc2ccc(C(=O)OCCOCCOCCOC(=O)c3ccc(-c4c5nc(c(-c6c(F)cccc6F)c6ccc([nH]6)c(-c6c(F)cccc6F)c6nc(c(-c7c(F)cccc7F)c7ccc4[nH]7)C=C6)C=C5)cc3)o2)cc1
REMARK SMILES IDX 19 1 18 2 17 3 16 4 15 5 13 6 14 7 12 8 9 9 10 10 81 11
REMARK SMILES IDX 11 12 8 13 7 14 6 16 3 17 4 18 83 19 5 20 82 21 2 22 1 23
REMARK SMILES IDX 20 24 21 25 22 26 23 27 24 28 25 29 26 30 27 31 28 32 80 33
REMARK SMILES IDX 29 34 79 35 30 36 31 37 32 38 73 39 33 40 78 41 72 42 74 43
REMARK SMILES IDX 34 44 77 45 71 46 70 47 35 49 61 50 44 51 60 52 45 53 48 54
REMARK SMILES IDX 59 55 75 56 46 57 47 58 58 60 76 61 49 62 36 63 37 64 42 65
REMARK SMILES IDX 38 66 39 67 41 68 43 69 40 70 62 71 63 72 68 73 64 74 65 75
REMARK SMILES IDX 67 76 69 77 66 78 50 79 51 80 56 81 52 82 53 83 55 84 57 85
REMARK SMILES IDX 54 86
REMARK H PARENT 7 15 74 48 48 59
REMARK Flexibility Score: inf
ROOT
ATOM      1  C   UNL A   1      45.909  20.579  25.385  1.00  0.00     0.188 C 
ENDROOT
BRANCH   1   2
ATOM      2  O   UNL A   1      45.370  19.398  24.799  1.00  0.00    -0.376 OA
BRANCH   2   3
ATOM      3  C   UNL A   1      43.969  19.159  24.872  1.00  0.00     0.202 C 
BRANCH   3   4
ATOM      4  C   UNL A   1      43.182  20.016  25.863  1.00  0.00     0.261 C 
BRANCH   4   5
ATOM      5  O   UNL A   1      42.137  19.271  26.512  1.00  0.00    -0.457 OA
BRANCH   5   6
ATOM      6  C   UNL A   1      40.861  19.617  26.171  1.00  0.00     0.374 C 
ATOM      7  O   UNL A   1      40.054  18.869  25.634  1.00  0.00    -0.242 OA
BRANCH   6   8
ATOM      8  C   UNL A   1      40.569  20.943  26.662  1.00  0.00     0.211 A 
ATOM      9  C   UNL A   1      39.442  22.844  26.639  1.00  0.00     0.124 A 
ATOM     10  C   UNL A   1      40.254  22.887  27.752  1.00  0.00     0.048 A 
ATOM     11  O   UNL A   1      39.655  21.683  25.959  1.00  0.00    -0.452 OA
ATOM     12  C   UNL A   1      40.963  21.658  27.780  1.00  0.00     0.058 A 
BRANCH   9  13
ATOM     13  C   UNL A   1      38.396  23.743  26.070  1.00  0.00     0.188 C 
BRANCH  13  14
ATOM     14  N   UNL A   1      37.722  23.236  24.886  1.00  0.00    -0.378 N 
ATOM     15  H   UNL A   1      38.254  22.679  24.273  1.00  0.00     0.161 HD
BRANCH  14  16
ATOM     16  C   UNL A   1      36.407  23.467  24.544  1.00  0.00     0.035 A 
ATOM     17  C   UNL A   1      33.676  23.984  23.975  1.00  0.00     0.119 A 
ATOM     18  C   UNL A   1      34.460  23.243  23.094  1.00  0.00     0.048 A 
ATOM     19  C   UNL A   1      34.248  24.453  25.153  1.00  0.00     0.048 A 
ATOM     20  C   UNL A   1      35.812  22.998  23.370  1.00  0.00     0.029 A 
ATOM     21  C   UNL A   1      35.597  24.190  25.430  1.00  0.00     0.029 A 
BRANCH  17  22
ATOM     22  O   UNL A   1      32.376  24.156  23.591  1.00  0.00    -0.497 OA
ATOM     23  C   UNL A   1      32.108  25.296  22.784  1.00  0.00     0.278 C 
ENDBRANCH  17  22
ENDBRANCH  14  16
ENDBRANCH  13  14
ENDBRANCH   9  13
ENDBRANCH   6   8
ENDBRANCH   5   6
ENDBRANCH   4   5
ENDBRANCH   3   4
ENDBRANCH   2   3
ENDBRANCH   1   2
BRANCH   1  24
ATOM     24  C   UNL A   1      46.015  21.854  24.529  1.00  0.00     0.188 C 
BRANCH  24  25
ATOM     25  O   UNL A   1      44.757  22.339  24.082  1.00  0.00    -0.376 OA
BRANCH  25  26
ATOM     26  C   UNL A   1      44.389  23.634  24.528  1.00  0.00     0.202 C 
BRANCH  26  27
ATOM     27  C   UNL A   1      43.619  23.629  25.851  1.00  0.00     0.261 C 
BRANCH  27  28
ATOM     28  O   UNL A   1      43.479  24.913  26.479  1.00  0.00    -0.460 OA
BRANCH  28  29
ATOM     29  C   UNL A   1      42.556  25.754  25.964  1.00  0.00     0.338 C 
ATOM     30  O   UNL A   1      42.094  25.748  24.839  1.00  0.00    -0.246 OA
BRANCH  29  31
ATOM     31  C   UNL A   1      42.087  26.620  27.064  1.00  0.00     0.060 A 
ATOM     32  C   UNL A   1      42.657  27.888  27.230  1.00  0.00     0.016 A 
ATOM     33  C   UNL A   1      41.079  26.176  27.924  1.00  0.00     0.016 A 
ATOM     34  C   UNL A   1      42.226  28.711  28.274  1.00  0.00     0.010 A 
ATOM     35  C   UNL A   1      40.663  26.993  28.976  1.00  0.00     0.010 A 
ATOM     36  C   UNL A   1      41.247  28.256  29.168  1.00  0.00    -0.014 A 
BRANCH  36  37
ATOM     37  C   UNL A   1      40.926  29.015  30.399  1.00  0.00     0.031 A 
ATOM     38  C   UNL A   1      39.801  30.010  30.356  1.00  0.00     0.074 A 
ATOM     39  C   UNL A   1      41.651  28.862  31.521  1.00  0.00     0.049 A 
ATOM     40  N   UNL A   1      39.418  30.872  31.263  1.00  0.00    -0.248 NA
ATOM     41  C   UNL A   1      39.003  30.039  29.120  1.00  0.00     0.031 C 
ATOM     42  C   UNL A   1      42.745  27.910  31.700  1.00  0.00     0.029 A 
ATOM     43  N   UNL A   1      41.583  29.529  32.719  1.00  0.00    -0.354 N 
ATOM     44  C   UNL A   1      38.342  31.548  30.707  1.00  0.00     0.074 A 
ATOM     45  C   UNL A   1      38.141  31.011  29.378  1.00  0.00     0.031 C 
ATOM     46  C   UNL A   1      43.264  28.071  32.931  1.00  0.00     0.029 A 
ATOM     47  C   UNL A   1      42.560  29.158  33.611  1.00  0.00     0.049 A 
ATOM     48  H   UNL A   1      40.899  30.208  32.921  1.00  0.00     0.167 HD
ATOM     49  C   UNL A   1      37.589  32.531  31.253  1.00  0.00     0.037 A 
ATOM     50  C   UNL A   1      42.869  29.662  34.821  1.00  0.00     0.037 A 
ATOM     51  C   UNL A   1      37.794  33.077  32.566  1.00  0.00     0.049 A 
ATOM     52  C   UNL A   1      42.064  30.808  35.377  1.00  0.00     0.074 A 
ATOM     53  C   UNL A   1      37.076  34.068  33.211  1.00  0.00     0.029 A 
ATOM     54  N   UNL A   1      38.803  32.683  33.432  1.00  0.00    -0.354 N 
ATOM     55  N   UNL A   1      41.035  31.428  34.853  1.00  0.00    -0.248 NA
ATOM     56  C   UNL A   1      42.471  31.331  36.691  1.00  0.00     0.031 C 
ATOM     57  C   UNL A   1      37.673  34.300  34.455  1.00  0.00     0.029 A 
ATOM     58  C   UNL A   1      38.739  33.426  34.598  1.00  0.00     0.049 A 
ATOM     59  H   UNL A   1      39.466  31.979  33.245  1.00  0.00     0.167 HD
ATOM     60  C   UNL A   1      40.653  32.389  35.781  1.00  0.00     0.074 A 
ATOM     61  C   UNL A   1      41.562  32.272  36.903  1.00  0.00     0.031 C 
ATOM     62  C   UNL A   1      39.640  33.284  35.712  1.00  0.00     0.037 A 
BRANCH  49  63
ATOM     63  C   UNL A   1      36.484  33.094  30.412  1.00  0.00     0.057 A 
ATOM     64  C   UNL A   1      36.734  34.032  29.403  1.00  0.00     0.134 A 
ATOM     65  C   UNL A   1      35.160  32.680  30.602  1.00  0.00     0.134 A 
ATOM     66  F   UNL A   1      37.979  34.481  29.185  1.00  0.00    -0.206 F 
ATOM     67  C   UNL A   1      35.702  34.551  28.620  1.00  0.00     0.040 A 
ATOM     68  C   UNL A   1      34.123  33.177  29.813  1.00  0.00     0.040 A 
ATOM     69  F   UNL A   1      34.857  31.785  31.553  1.00  0.00    -0.206 F 
ATOM     70  C   UNL A   1      34.392  34.119  28.822  1.00  0.00     0.006 A 
ENDBRANCH  49  63
BRANCH  50  71
ATOM     71  C   UNL A   1      44.010  29.106  35.588  1.00  0.00     0.057 A 
ATOM     72  C   UNL A   1      43.819  28.096  36.539  1.00  0.00     0.134 A 
ATOM     73  C   UNL A   1      45.313  29.586  35.408  1.00  0.00     0.134 A 
ATOM     74  F   UNL A   1      42.590  27.616  36.776  1.00  0.00    -0.206 F 
ATOM     75  C   UNL A   1      44.882  27.591  37.290  1.00  0.00     0.040 A 
ATOM     76  C   UNL A   1      46.387  29.076  36.138  1.00  0.00     0.040 A 
ATOM     77  F   UNL A   1      45.557  30.558  34.517  1.00  0.00    -0.206 F 
ATOM     78  C   UNL A   1      46.172  28.079  37.087  1.00  0.00     0.006 A 
ENDBRANCH  50  71
BRANCH  62  79
ATOM     79  C   UNL A   1      39.425  34.183  36.891  1.00  0.00     0.057 A 
ATOM     80  C   UNL A   1      38.751  33.747  38.038  1.00  0.00     0.134 A 
ATOM     81  C   UNL A   1      39.962  35.477  36.905  1.00  0.00     0.134 A 
ATOM     82  F   UNL A   1      38.206  32.523  38.082  1.00  0.00    -0.206 F 
ATOM     83  C   UNL A   1      38.613  34.571  39.156  1.00  0.00     0.040 A 
ATOM     84  C   UNL A   1      39.847  36.302  38.023  1.00  0.00     0.040 A 
ATOM     85  F   UNL A   1      40.627  35.950  35.839  1.00  0.00    -0.206 F 
ATOM     86  C   UNL A   1      39.169  35.850  39.153  1.00  0.00     0.006 A 
ENDBRANCH  62  79
ENDBRANCH  36  37
ENDBRANCH  29  31
ENDBRANCH  28  29
ENDBRANCH  27  28
ENDBRANCH  26  27
ENDBRANCH  25  26
ENDBRANCH  24  25
ENDBRANCH   1  24
TORSDOF 21
ENDMDL
