MODEL 1
REMARK VINA RESULT:     -10.7      0.000      0.000
REMARK SMILES CC(C)n1ncnc1C[C@H](C(=O)OCCOCCOCCOC(=O)c1ccc(-c2c3nc(c(-c4c(F)cccc4F)c4ccc([nH]4)c(-c4c(F)cccc4F)c4nc(c(-c5c(F)cccc5F)c5ccc2[nH]5)C=C4)C=C3)cc1)c1ccccc1F
REMARK SMILES IDX 17 1 16 2 15 3 14 4 13 5 11 6 12 7 10 8 9 9 8 10 4 11 5 12
REMARK SMILES IDX 6 13 7 14 2 15 1 16 3 17 79 18 80 19 84 20 81 21 83 22 85 23
REMARK SMILES IDX 82 24 18 25 19 26 20 27 21 28 22 29 23 30 24 31 25 32 26 33
REMARK SMILES IDX 78 34 27 35 77 36 28 37 29 38 30 39 71 40 31 41 76 42 70 43
REMARK SMILES IDX 72 44 32 45 75 46 69 47 68 48 33 50 59 51 42 52 58 53 43 54
REMARK SMILES IDX 46 55 57 56 73 57 44 58 45 59 56 61 74 62 47 63 34 64 35 65
REMARK SMILES IDX 40 66 36 67 37 68 39 69 41 70 38 71 60 72 61 73 66 74 62 75
REMARK SMILES IDX 63 76 65 77 67 78 64 79 48 80 49 81 54 82 50 83 51 84 53 85
REMARK SMILES IDX 55 86 52 87
REMARK H PARENT 72 49 46 60
REMARK Flexibility Score: inf
ROOT
ATOM      1  C   UNL A   1      33.583  31.044  27.355  1.00  0.00     0.188 C 
ENDROOT
BRANCH   1   2
ATOM      2  O   UNL A   1      34.380  29.895  27.095  1.00  0.00    -0.376 OA
BRANCH   2   3
ATOM      3  C   UNL A   1      33.851  28.888  26.250  1.00  0.00     0.202 C 
BRANCH   3   4
ATOM      4  C   UNL A   1      32.739  27.972  26.789  1.00  0.00     0.261 C 
BRANCH   4   5
ATOM      5  O   UNL A   1      32.525  26.727  26.091  1.00  0.00    -0.463 OA
BRANCH   5   6
ATOM      6  C   UNL A   1      31.275  26.458  25.626  1.00  0.00     0.314 C 
ATOM      7  O   UNL A   1      30.309  26.259  26.356  1.00  0.00    -0.252 OA
BRANCH   6   8
ATOM      8  C   UNL A   1      31.137  26.489  24.093  1.00  0.00     0.140 C 
BRANCH   8   9
ATOM      9  C   UNL A   1      31.099  25.017  23.570  1.00  0.00     0.097 C 
BRANCH   9  10
ATOM     10  C   UNL A   1      32.362  24.212  23.506  1.00  0.00     0.128 A 
ATOM     11  N   UNL A   1      32.610  23.057  24.223  1.00  0.00    -0.248 N 
ATOM     12  N   UNL A   1      33.879  22.640  24.029  1.00  0.00    -0.159 NA
ATOM     13  C   UNL A   1      34.330  23.529  23.147  1.00  0.00     0.246 A 
ATOM     14  N   UNL A   1      33.420  24.468  22.761  1.00  0.00    -0.220 NA
BRANCH  11  15
ATOM     15  C   UNL A   1      31.725  22.213  25.017  1.00  0.00     0.103 C 
ATOM     16  C   UNL A   1      32.196  20.764  25.116  1.00  0.00     0.033 C 
ATOM     17  C   UNL A   1      31.411  22.831  26.380  1.00  0.00     0.033 C 
ENDBRANCH  11  15
ENDBRANCH   9  10
ENDBRANCH   8   9
BRANCH   8  18
ATOM     18  C   UNL A   1      30.228  27.558  23.491  1.00  0.00     0.002 A 
ATOM     19  C   UNL A   1      30.715  28.682  22.802  1.00  0.00     0.007 A 
ATOM     20  C   UNL A   1      28.833  27.403  23.520  1.00  0.00     0.127 A 
ATOM     21  C   UNL A   1      29.851  29.667  22.310  1.00  0.00     0.001 A 
ATOM     22  C   UNL A   1      27.965  28.397  23.075  1.00  0.00     0.039 A 
ATOM     23  F   UNL A   1      28.294  26.255  23.959  1.00  0.00    -0.207 F 
ATOM     24  C   UNL A   1      28.477  29.545  22.484  1.00  0.00     0.003 A 
ENDBRANCH   8  18
ENDBRANCH   6   8
ENDBRANCH   5   6
ENDBRANCH   4   5
ENDBRANCH   3   4
ENDBRANCH   2   3
ENDBRANCH   1   2
BRANCH   1  25
ATOM     25  C   UNL A   1      34.139  32.202  28.221  1.00  0.00     0.188 C 
BRANCH  25  26
ATOM     26  O   UNL A   1      33.477  33.438  27.991  1.00  0.00    -0.376 OA
BRANCH  26  27
ATOM     27  C   UNL A   1      34.189  34.619  28.311  1.00  0.00     0.202 C 
BRANCH  27  28
ATOM     28  C   UNL A   1      33.480  35.555  29.278  1.00  0.00     0.261 C 
BRANCH  28  29
ATOM     29  O   UNL A   1      32.824  34.891  30.345  1.00  0.00    -0.460 OA
BRANCH  29  30
ATOM     30  C   UNL A   1      32.900  35.499  31.543  1.00  0.00     0.338 C 
ATOM     31  O   UNL A   1      32.341  36.520  31.896  1.00  0.00    -0.246 OA
BRANCH  30  32
ATOM     32  C   UNL A   1      33.923  34.798  32.325  1.00  0.00     0.060 A 
ATOM     33  C   UNL A   1      34.991  35.565  32.791  1.00  0.00     0.016 A 
ATOM     34  C   UNL A   1      33.995  33.405  32.178  1.00  0.00     0.016 A 
ATOM     35  C   UNL A   1      36.230  34.972  32.822  1.00  0.00     0.010 A 
ATOM     36  C   UNL A   1      35.234  32.831  32.154  1.00  0.00     0.010 A 
ATOM     37  C   UNL A   1      36.337  33.650  32.381  1.00  0.00    -0.014 A 
BRANCH  37  38
ATOM     38  C   UNL A   1      37.655  33.094  32.201  1.00  0.00     0.031 A 
ATOM     39  C   UNL A   1      38.452  33.136  33.439  1.00  0.00     0.074 A 
ATOM     40  C   UNL A   1      38.003  32.479  31.055  1.00  0.00     0.049 A 
ATOM     41  N   UNL A   1      39.533  33.804  33.662  1.00  0.00    -0.248 NA
ATOM     42  C   UNL A   1      37.874  32.505  34.639  1.00  0.00     0.031 C 
ATOM     43  C   UNL A   1      37.134  32.148  29.921  1.00  0.00     0.029 A 
ATOM     44  N   UNL A   1      39.184  31.898  30.713  1.00  0.00    -0.354 N 
ATOM     45  C   UNL A   1      39.898  33.466  34.960  1.00  0.00     0.074 A 
ATOM     46  C   UNL A   1      38.738  32.886  35.576  1.00  0.00     0.031 C 
ATOM     47  C   UNL A   1      37.753  31.233  29.141  1.00  0.00     0.029 A 
ATOM     48  C   UNL A   1      39.087  30.993  29.664  1.00  0.00     0.049 A 
ATOM     49  H   UNL A   1      40.032  32.100  31.170  1.00  0.00     0.167 HD
ATOM     50  C   UNL A   1      41.211  33.350  35.289  1.00  0.00     0.037 A 
ATOM     51  C   UNL A   1      40.008  30.054  29.328  1.00  0.00     0.037 A 
ATOM     52  C   UNL A   1      42.041  34.097  34.371  1.00  0.00     0.049 A 
ATOM     53  C   UNL A   1      41.285  30.422  29.994  1.00  0.00     0.074 A 
ATOM     54  C   UNL A   1      42.074  35.408  33.933  1.00  0.00     0.029 A 
ATOM     55  N   UNL A   1      42.800  33.387  33.472  1.00  0.00    -0.354 N 
ATOM     56  N   UNL A   1      42.025  31.440  29.656  1.00  0.00    -0.248 NA
ATOM     57  C   UNL A   1      41.529  29.895  31.329  1.00  0.00     0.031 C 
ATOM     58  C   UNL A   1      42.465  35.339  32.563  1.00  0.00     0.029 A 
ATOM     59  C   UNL A   1      42.698  33.999  32.253  1.00  0.00     0.049 A 
ATOM     60  H   UNL A   1      43.325  32.579  33.672  1.00  0.00     0.167 HD
ATOM     61  C   UNL A   1      42.489  31.953  30.858  1.00  0.00     0.074 A 
ATOM     62  C   UNL A   1      42.248  30.899  31.840  1.00  0.00     0.031 C 
ATOM     63  C   UNL A   1      42.743  33.287  30.998  1.00  0.00     0.037 A 
BRANCH  50  64
ATOM     64  C   UNL A   1      41.745  32.193  36.109  1.00  0.00     0.057 A 
ATOM     65  C   UNL A   1      42.669  32.478  37.130  1.00  0.00     0.134 A 
ATOM     66  C   UNL A   1      41.660  30.829  35.751  1.00  0.00     0.134 A 
ATOM     67  F   UNL A   1      42.841  33.733  37.569  1.00  0.00    -0.206 F 
ATOM     68  C   UNL A   1      43.529  31.508  37.655  1.00  0.00     0.040 A 
ATOM     69  C   UNL A   1      42.477  29.844  36.308  1.00  0.00     0.040 A 
ATOM     70  F   UNL A   1      40.862  30.372  34.781  1.00  0.00    -0.206 F 
ATOM     71  C   UNL A   1      43.445  30.187  37.232  1.00  0.00     0.006 A 
ENDBRANCH  50  64
BRANCH  51  72
ATOM     72  C   UNL A   1      39.801  28.715  28.724  1.00  0.00     0.057 A 
ATOM     73  C   UNL A   1      40.375  28.388  27.486  1.00  0.00     0.134 A 
ATOM     74  C   UNL A   1      39.262  27.639  29.451  1.00  0.00     0.134 A 
ATOM     75  F   UNL A   1      40.953  29.334  26.732  1.00  0.00    -0.206 F 
ATOM     76  C   UNL A   1      40.434  27.070  27.014  1.00  0.00     0.040 A 
ATOM     77  C   UNL A   1      39.302  26.321  28.985  1.00  0.00     0.040 A 
ATOM     78  F   UNL A   1      38.758  27.810  30.682  1.00  0.00    -0.206 F 
ATOM     79  C   UNL A   1      39.904  26.029  27.768  1.00  0.00     0.006 A 
ENDBRANCH  51  72
BRANCH  63  80
ATOM     80  C   UNL A   1      42.833  34.116  29.748  1.00  0.00     0.057 A 
ATOM     81  C   UNL A   1      41.763  34.838  29.197  1.00  0.00     0.134 A 
ATOM     82  C   UNL A   1      44.086  34.283  29.149  1.00  0.00     0.134 A 
ATOM     83  F   UNL A   1      40.549  34.823  29.764  1.00  0.00    -0.206 F 
ATOM     84  C   UNL A   1      41.927  35.644  28.067  1.00  0.00     0.040 A 
ATOM     85  C   UNL A   1      44.270  35.114  28.043  1.00  0.00     0.040 A 
ATOM     86  F   UNL A   1      45.166  33.667  29.657  1.00  0.00    -0.206 F 
ATOM     87  C   UNL A   1      43.185  35.788  27.489  1.00  0.00     0.006 A 
ENDBRANCH  63  80
ENDBRANCH  37  38
ENDBRANCH  30  32
ENDBRANCH  29  30
ENDBRANCH  28  29
ENDBRANCH  27  28
ENDBRANCH  26  27
ENDBRANCH  25  26
ENDBRANCH   1  25
TORSDOF 21
ENDMDL
MODEL 2
REMARK VINA RESULT:     -10.5      3.194      7.388
REMARK SMILES CC(C)n1ncnc1C[C@H](C(=O)OCCOCCOCCOC(=O)c1ccc(-c2c3nc(c(-c4c(F)cccc4F)c4ccc([nH]4)c(-c4c(F)cccc4F)c4nc(c(-c5c(F)cccc5F)c5ccc2[nH]5)C=C4)C=C3)cc1)c1ccccc1F
REMARK SMILES IDX 17 1 16 2 15 3 14 4 13 5 11 6 12 7 10 8 9 9 8 10 4 11 5 12
REMARK SMILES IDX 6 13 7 14 2 15 1 16 3 17 79 18 80 19 84 20 81 21 83 22 85 23
REMARK SMILES IDX 82 24 18 25 19 26 20 27 21 28 22 29 23 30 24 31 25 32 26 33
REMARK SMILES IDX 78 34 27 35 77 36 28 37 29 38 30 39 71 40 31 41 76 42 70 43
REMARK SMILES IDX 72 44 32 45 75 46 69 47 68 48 33 50 59 51 42 52 58 53 43 54
REMARK SMILES IDX 46 55 57 56 73 57 44 58 45 59 56 61 74 62 47 63 34 64 35 65
REMARK SMILES IDX 40 66 36 67 37 68 39 69 41 70 38 71 60 72 61 73 66 74 62 75
REMARK SMILES IDX 63 76 65 77 67 78 64 79 48 80 49 81 54 82 50 83 51 84 53 85
REMARK SMILES IDX 55 86 52 87
REMARK H PARENT 72 49 46 60
REMARK Flexibility Score: inf
ROOT
ATOM      1  C   UNL A   1      36.467  21.212  24.989  1.00  0.00     0.188 C 
ENDROOT
BRANCH   1   2
ATOM      2  O   UNL A   1      35.644  21.461  26.122  1.00  0.00    -0.376 OA
BRANCH   2   3
ATOM      3  C   UNL A   1      35.005  22.722  26.224  1.00  0.00     0.202 C 
BRANCH   3   4
ATOM      4  C   UNL A   1      33.512  22.830  25.872  1.00  0.00     0.261 C 
BRANCH   4   5
ATOM      5  O   UNL A   1      32.606  23.124  26.956  1.00  0.00    -0.463 OA
BRANCH   5   6
ATOM      6  C   UNL A   1      31.544  23.937  26.705  1.00  0.00     0.314 C 
ATOM      7  O   UNL A   1      30.452  23.811  27.251  1.00  0.00    -0.252 OA
BRANCH   6   8
ATOM      8  C   UNL A   1      31.830  25.089  25.726  1.00  0.00     0.140 C 
BRANCH   8   9
ATOM      9  C   UNL A   1      30.801  25.008  24.553  1.00  0.00     0.097 C 
BRANCH   9  10
ATOM     10  C   UNL A   1      31.121  25.637  23.230  1.00  0.00     0.128 A 
ATOM     11  N   UNL A   1      30.677  26.874  22.806  1.00  0.00    -0.248 N 
ATOM     12  N   UNL A   1      31.044  27.100  21.526  1.00  0.00    -0.159 NA
ATOM     13  C   UNL A   1      31.755  26.009  21.249  1.00  0.00     0.246 A 
ATOM     14  N   UNL A   1      31.873  25.121  22.276  1.00  0.00    -0.220 NA
BRANCH  11  15
ATOM     15  C   UNL A   1      30.010  27.952  23.527  1.00  0.00     0.103 C 
ATOM     16  C   UNL A   1      30.972  29.013  24.058  1.00  0.00     0.033 C 
ATOM     17  C   UNL A   1      28.851  28.547  22.728  1.00  0.00     0.033 C 
ENDBRANCH  11  15
ENDBRANCH   9  10
ENDBRANCH   8   9
BRANCH   8  18
ATOM     18  C   UNL A   1      32.234  26.436  26.323  1.00  0.00     0.002 A 
ATOM     19  C   UNL A   1      31.381  27.203  27.134  1.00  0.00     0.007 A 
ATOM     20  C   UNL A   1      33.540  26.922  26.158  1.00  0.00     0.127 A 
ATOM     21  C   UNL A   1      31.770  28.457  27.620  1.00  0.00     0.001 A 
ATOM     22  C   UNL A   1      33.923  28.187  26.597  1.00  0.00     0.039 A 
ATOM     23  F   UNL A   1      34.478  26.150  25.589  1.00  0.00    -0.207 F 
ATOM     24  C   UNL A   1      33.026  28.968  27.316  1.00  0.00     0.003 A 
ENDBRANCH   8  18
ENDBRANCH   6   8
ENDBRANCH   5   6
ENDBRANCH   4   5
ENDBRANCH   3   4
ENDBRANCH   2   3
ENDBRANCH   1   2
BRANCH   1  25
ATOM     25  C   UNL A   1      37.971  20.888  25.170  1.00  0.00     0.188 C 
BRANCH  25  26
ATOM     26  O   UNL A   1      38.645  21.820  26.004  1.00  0.00    -0.376 OA
BRANCH  26  27
ATOM     27  C   UNL A   1      39.972  21.502  26.382  1.00  0.00     0.202 C 
BRANCH  27  28
ATOM     28  C   UNL A   1      40.905  22.696  26.516  1.00  0.00     0.261 C 
BRANCH  28  29
ATOM     29  O   UNL A   1      40.239  23.948  26.528  1.00  0.00    -0.460 OA
BRANCH  29  30
ATOM     30  C   UNL A   1      41.033  25.030  26.420  1.00  0.00     0.338 C 
ATOM     31  O   UNL A   1      42.214  25.061  26.131  1.00  0.00    -0.246 OA
BRANCH  30  32
ATOM     32  C   UNL A   1      40.258  26.188  26.878  1.00  0.00     0.060 A 
ATOM     33  C   UNL A   1      40.727  27.446  26.499  1.00  0.00     0.016 A 
ATOM     34  C   UNL A   1      39.411  25.994  27.978  1.00  0.00     0.016 A 
ATOM     35  C   UNL A   1      40.590  28.471  27.403  1.00  0.00     0.010 A 
ATOM     36  C   UNL A   1      39.324  26.997  28.901  1.00  0.00     0.010 A 
ATOM     37  C   UNL A   1      40.000  28.185  28.637  1.00  0.00    -0.014 A 
BRANCH  37  38
ATOM     38  C   UNL A   1      40.051  29.191  29.669  1.00  0.00     0.031 A 
ATOM     39  C   UNL A   1      38.818  29.996  29.725  1.00  0.00     0.074 A 
ATOM     40  C   UNL A   1      41.067  29.237  30.551  1.00  0.00     0.049 A 
ATOM     41  N   UNL A   1      38.685  31.257  29.485  1.00  0.00    -0.248 NA
ATOM     42  C   UNL A   1      37.544  29.273  29.884  1.00  0.00     0.031 C 
ATOM     43  C   UNL A   1      42.151  28.261  30.713  1.00  0.00     0.029 A 
ATOM     44  N   UNL A   1      41.277  30.099  31.580  1.00  0.00    -0.354 N 
ATOM     45  C   UNL A   1      37.340  31.521  29.715  1.00  0.00     0.074 A 
ATOM     46  C   UNL A   1      36.663  30.255  29.706  1.00  0.00     0.031 C 
ATOM     47  C   UNL A   1      42.749  28.460  31.910  1.00  0.00     0.029 A 
ATOM     48  C   UNL A   1      42.161  29.628  32.544  1.00  0.00     0.049 A 
ATOM     49  H   UNL A   1      40.840  30.979  31.639  1.00  0.00     0.167 HD
ATOM     50  C   UNL A   1      36.964  32.707  30.260  1.00  0.00     0.037 A 
ATOM     51  C   UNL A   1      42.310  30.116  33.801  1.00  0.00     0.037 A 
ATOM     52  C   UNL A   1      37.974  33.718  30.042  1.00  0.00     0.049 A 
ATOM     53  C   UNL A   1      41.685  31.464  33.835  1.00  0.00     0.074 A 
ATOM     54  C   UNL A   1      38.626  34.221  28.931  1.00  0.00     0.029 A 
ATOM     55  N   UNL A   1      38.721  34.119  31.123  1.00  0.00    -0.354 N 
ATOM     56  N   UNL A   1      42.171  32.516  33.241  1.00  0.00    -0.248 NA
ATOM     57  C   UNL A   1      40.274  31.548  34.185  1.00  0.00     0.031 C 
ATOM     58  C   UNL A   1      39.955  34.502  29.368  1.00  0.00     0.029 A 
ATOM     59  C   UNL A   1      40.028  34.204  30.729  1.00  0.00     0.049 A 
ATOM     60  H   UNL A   1      38.374  34.311  32.025  1.00  0.00     0.167 HD
ATOM     61  C   UNL A   1      41.061  33.187  32.748  1.00  0.00     0.074 A 
ATOM     62  C   UNL A   1      39.923  32.611  33.455  1.00  0.00     0.031 C 
ATOM     63  C   UNL A   1      41.143  33.928  31.603  1.00  0.00     0.037 A 
BRANCH  50  64
ATOM     64  C   UNL A   1      35.947  32.803  31.379  1.00  0.00     0.057 A 
ATOM     65  C   UNL A   1      34.904  33.737  31.247  1.00  0.00     0.134 A 
ATOM     66  C   UNL A   1      36.115  32.283  32.682  1.00  0.00     0.134 A 
ATOM     67  F   UNL A   1      34.633  34.300  30.060  1.00  0.00    -0.206 F 
ATOM     68  C   UNL A   1      34.178  34.211  32.344  1.00  0.00     0.040 A 
ATOM     69  C   UNL A   1      35.358  32.710  33.775  1.00  0.00     0.040 A 
ATOM     70  F   UNL A   1      37.073  31.410  33.008  1.00  0.00    -0.206 F 
ATOM     71  C   UNL A   1      34.415  33.709  33.617  1.00  0.00     0.006 A 
ENDBRANCH  50  64
BRANCH  51  72
ATOM     72  C   UNL A   1      42.684  29.398  35.044  1.00  0.00     0.057 A 
ATOM     73  C   UNL A   1      42.069  28.184  35.385  1.00  0.00     0.134 A 
ATOM     74  C   UNL A   1      43.825  29.736  35.792  1.00  0.00     0.134 A 
ATOM     75  F   UNL A   1      40.997  27.748  34.706  1.00  0.00    -0.206 F 
ATOM     76  C   UNL A   1      42.573  27.346  36.388  1.00  0.00     0.040 A 
ATOM     77  C   UNL A   1      44.330  28.916  36.806  1.00  0.00     0.040 A 
ATOM     78  F   UNL A   1      44.547  30.830  35.509  1.00  0.00    -0.206 F 
ATOM     79  C   UNL A   1      43.713  27.706  37.098  1.00  0.00     0.006 A 
ENDBRANCH  51  72
BRANCH  63  80
ATOM     80  C   UNL A   1      42.512  34.270  31.089  1.00  0.00     0.057 A 
ATOM     81  C   UNL A   1      43.282  35.352  31.545  1.00  0.00     0.134 A 
ATOM     82  C   UNL A   1      43.121  33.397  30.181  1.00  0.00     0.134 A 
ATOM     83  F   UNL A   1      42.824  36.183  32.491  1.00  0.00    -0.206 F 
ATOM     84  C   UNL A   1      44.578  35.581  31.073  1.00  0.00     0.040 A 
ATOM     85  C   UNL A   1      44.427  33.593  29.731  1.00  0.00     0.040 A 
ATOM     86  F   UNL A   1      42.464  32.310  29.745  1.00  0.00    -0.206 F 
ATOM     87  C   UNL A   1      45.156  34.697  30.167  1.00  0.00     0.006 A 
ENDBRANCH  63  80
ENDBRANCH  37  38
ENDBRANCH  30  32
ENDBRANCH  29  30
ENDBRANCH  28  29
ENDBRANCH  27  28
ENDBRANCH  26  27
ENDBRANCH  25  26
ENDBRANCH   1  25
TORSDOF 21
ENDMDL
MODEL 3
REMARK VINA RESULT:     -10.4      5.331     10.091
REMARK SMILES CC(C)n1ncnc1C[C@H](C(=O)OCCOCCOCCOC(=O)c1ccc(-c2c3nc(c(-c4c(F)cccc4F)c4ccc([nH]4)c(-c4c(F)cccc4F)c4nc(c(-c5c(F)cccc5F)c5ccc2[nH]5)C=C4)C=C3)cc1)c1ccccc1F
REMARK SMILES IDX 17 1 16 2 15 3 14 4 13 5 11 6 12 7 10 8 9 9 8 10 4 11 5 12
REMARK SMILES IDX 6 13 7 14 2 15 1 16 3 17 79 18 80 19 84 20 81 21 83 22 85 23
REMARK SMILES IDX 82 24 18 25 19 26 20 27 21 28 22 29 23 30 24 31 25 32 26 33
REMARK SMILES IDX 78 34 27 35 77 36 28 37 29 38 30 39 71 40 31 41 76 42 70 43
REMARK SMILES IDX 72 44 32 45 75 46 69 47 68 48 33 50 59 51 42 52 58 53 43 54
REMARK SMILES IDX 46 55 57 56 73 57 44 58 45 59 56 61 74 62 47 63 34 64 35 65
REMARK SMILES IDX 40 66 36 67 37 68 39 69 41 70 38 71 60 72 61 73 66 74 62 75
REMARK SMILES IDX 63 76 65 77 67 78 64 79 48 80 49 81 54 82 50 83 51 84 53 85
REMARK SMILES IDX 55 86 52 87
REMARK H PARENT 72 49 46 60
REMARK Flexibility Score: inf
ROOT
ATOM      1  C   UNL A   1      38.580  21.858  25.791  1.00  0.00     0.188 C 
ENDROOT
BRANCH   1   2
ATOM      2  O   UNL A   1      37.694  21.653  24.697  1.00  0.00    -0.376 OA
BRANCH   2   3
ATOM      3  C   UNL A   1      36.381  22.180  24.788  1.00  0.00     0.202 C 
BRANCH   3   4
ATOM      4  C   UNL A   1      36.031  23.449  23.991  1.00  0.00     0.261 C 
BRANCH   4   5
ATOM      5  O   UNL A   1      35.409  23.259  22.703  1.00  0.00    -0.463 OA
BRANCH   5   6
ATOM      6  C   UNL A   1      34.071  23.477  22.597  1.00  0.00     0.314 C 
ATOM      7  O   UNL A   1      33.344  22.860  21.823  1.00  0.00    -0.252 OA
BRANCH   6   8
ATOM      8  C   UNL A   1      33.506  24.518  23.580  1.00  0.00     0.140 C 
BRANCH   8   9
ATOM      9  C   UNL A   1      33.115  25.798  22.773  1.00  0.00     0.097 C 
BRANCH   9  10
ATOM     10  C   UNL A   1      32.883  27.094  23.491  1.00  0.00     0.128 A 
ATOM     11  N   UNL A   1      31.680  27.771  23.545  1.00  0.00    -0.248 N 
ATOM     12  N   UNL A   1      31.831  28.960  24.169  1.00  0.00    -0.159 NA
ATOM     13  C   UNL A   1      33.113  28.922  24.526  1.00  0.00     0.246 A 
ATOM     14  N   UNL A   1      33.773  27.780  24.181  1.00  0.00    -0.220 NA
BRANCH  11  15
ATOM     15  C   UNL A   1      30.335  27.370  23.153  1.00  0.00     0.103 C 
ATOM     16  C   UNL A   1      29.649  26.466  24.176  1.00  0.00     0.033 C 
ATOM     17  C   UNL A   1      29.474  28.565  22.744  1.00  0.00     0.033 C 
ENDBRANCH  11  15
ENDBRANCH   9  10
ENDBRANCH   8   9
BRANCH   8  18
ATOM     18  C   UNL A   1      32.621  24.006  24.715  1.00  0.00     0.002 A 
ATOM     19  C   UNL A   1      31.466  23.235  24.501  1.00  0.00     0.007 A 
ATOM     20  C   UNL A   1      32.994  24.212  26.052  1.00  0.00     0.127 A 
ATOM     21  C   UNL A   1      30.654  22.829  25.566  1.00  0.00     0.001 A 
ATOM     22  C   UNL A   1      32.171  23.852  27.117  1.00  0.00     0.039 A 
ATOM     23  F   UNL A   1      34.192  24.742  26.342  1.00  0.00    -0.207 F 
ATOM     24  C   UNL A   1      30.984  23.174  26.872  1.00  0.00     0.003 A 
ENDBRANCH   8  18
ENDBRANCH   6   8
ENDBRANCH   5   6
ENDBRANCH   4   5
ENDBRANCH   3   4
ENDBRANCH   2   3
ENDBRANCH   1   2
BRANCH   1  25
ATOM     25  C   UNL A   1      39.820  20.948  25.974  1.00  0.00     0.188 C 
BRANCH  25  26
ATOM     26  O   UNL A   1      40.496  21.169  27.204  1.00  0.00    -0.376 OA
BRANCH  26  27
ATOM     27  C   UNL A   1      41.838  20.723  27.289  1.00  0.00     0.202 C 
BRANCH  27  28
ATOM     28  C   UNL A   1      42.315  19.894  26.105  1.00  0.00     0.261 C 
BRANCH  28  29
ATOM     29  O   UNL A   1      43.720  19.919  25.916  1.00  0.00    -0.460 OA
BRANCH  29  30
ATOM     30  C   UNL A   1      44.134  20.281  24.687  1.00  0.00     0.338 C 
ATOM     31  O   UNL A   1      44.207  19.587  23.691  1.00  0.00    -0.246 OA
BRANCH  30  32
ATOM     32  C   UNL A   1      44.652  21.650  24.786  1.00  0.00     0.060 A 
ATOM     33  C   UNL A   1      45.663  21.872  25.722  1.00  0.00     0.016 A 
ATOM     34  C   UNL A   1      43.836  22.678  24.292  1.00  0.00     0.016 A 
ATOM     35  C   UNL A   1      45.656  23.074  26.387  1.00  0.00     0.010 A 
ATOM     36  C   UNL A   1      43.794  23.850  24.991  1.00  0.00     0.010 A 
ATOM     37  C   UNL A   1      44.640  23.985  26.089  1.00  0.00    -0.014 A 
BRANCH  37  38
ATOM     38  C   UNL A   1      44.494  25.146  26.931  1.00  0.00     0.031 A 
ATOM     39  C   UNL A   1      45.586  26.116  26.737  1.00  0.00     0.074 A 
ATOM     40  C   UNL A   1      43.386  25.339  27.670  1.00  0.00     0.049 A 
ATOM     41  N   UNL A   1      46.481  26.482  27.592  1.00  0.00    -0.248 NA
ATOM     42  C   UNL A   1      45.827  26.600  25.366  1.00  0.00     0.031 C 
ATOM     43  C   UNL A   1      42.150  24.548  27.647  1.00  0.00     0.029 A 
ATOM     44  N   UNL A   1      43.075  26.364  28.507  1.00  0.00    -0.354 N 
ATOM     45  C   UNL A   1      47.240  27.435  26.925  1.00  0.00     0.074 A 
ATOM     46  C   UNL A   1      46.960  27.280  25.525  1.00  0.00     0.031 C 
ATOM     47  C   UNL A   1      41.163  25.253  28.244  1.00  0.00     0.029 A 
ATOM     48  C   UNL A   1      41.717  26.488  28.773  1.00  0.00     0.049 A 
ATOM     49  H   UNL A   1      43.753  26.966  28.890  1.00  0.00     0.167 HD
ATOM     50  C   UNL A   1      47.740  28.502  27.602  1.00  0.00     0.037 A 
ATOM     51  C   UNL A   1      41.099  27.576  29.298  1.00  0.00     0.037 A 
ATOM     52  C   UNL A   1      47.838  28.216  29.015  1.00  0.00     0.049 A 
ATOM     53  C   UNL A   1      42.147  28.433  29.910  1.00  0.00     0.074 A 
ATOM     54  C   UNL A   1      48.433  27.221  29.769  1.00  0.00     0.029 A 
ATOM     55  N   UNL A   1      46.945  28.835  29.856  1.00  0.00    -0.354 N 
ATOM     56  N   UNL A   1      42.802  28.134  30.996  1.00  0.00    -0.248 NA
ATOM     57  C   UNL A   1      42.773  29.444  29.069  1.00  0.00     0.031 C 
ATOM     58  C   UNL A   1      47.552  27.003  30.870  1.00  0.00     0.029 A 
ATOM     59  C   UNL A   1      46.495  27.907  30.755  1.00  0.00     0.049 A 
ATOM     60  H   UNL A   1      46.677  29.781  29.817  1.00  0.00     0.167 HD
ATOM     61  C   UNL A   1      44.099  28.565  30.755  1.00  0.00     0.074 A 
ATOM     62  C   UNL A   1      43.995  29.462  29.609  1.00  0.00     0.031 C 
ATOM     63  C   UNL A   1      45.165  27.920  31.315  1.00  0.00     0.037 A 
BRANCH  50  64
ATOM     64  C   UNL A   1      47.664  29.916  27.062  1.00  0.00     0.057 A 
ATOM     65  C   UNL A   1      48.800  30.734  27.190  1.00  0.00     0.134 A 
ATOM     66  C   UNL A   1      46.473  30.603  26.734  1.00  0.00     0.134 A 
ATOM     67  F   UNL A   1      49.996  30.206  27.490  1.00  0.00    -0.206 F 
ATOM     68  C   UNL A   1      48.731  32.129  27.128  1.00  0.00     0.040 A 
ATOM     69  C   UNL A   1      46.405  31.992  26.616  1.00  0.00     0.040 A 
ATOM     70  F   UNL A   1      45.288  29.999  26.603  1.00  0.00    -0.206 F 
ATOM     71  C   UNL A   1      47.525  32.764  26.856  1.00  0.00     0.006 A 
ENDBRANCH  50  64
BRANCH  51  72
ATOM     72  C   UNL A   1      39.724  28.077  29.057  1.00  0.00     0.057 A 
ATOM     73  C   UNL A   1      38.778  28.107  30.094  1.00  0.00     0.134 A 
ATOM     74  C   UNL A   1      39.374  28.779  27.891  1.00  0.00     0.134 A 
ATOM     75  F   UNL A   1      39.031  27.504  31.265  1.00  0.00    -0.206 F 
ATOM     76  C   UNL A   1      37.573  28.813  29.987  1.00  0.00     0.040 A 
ATOM     77  C   UNL A   1      38.168  29.476  27.765  1.00  0.00     0.040 A 
ATOM     78  F   UNL A   1      40.226  28.892  26.862  1.00  0.00    -0.206 F 
ATOM     79  C   UNL A   1      37.268  29.509  28.822  1.00  0.00     0.006 A 
ENDBRANCH  51  72
BRANCH  63  80
ATOM     80  C   UNL A   1      44.892  26.968  32.444  1.00  0.00     0.057 A 
ATOM     81  C   UNL A   1      44.770  27.348  33.790  1.00  0.00     0.134 A 
ATOM     82  C   UNL A   1      44.623  25.630  32.137  1.00  0.00     0.134 A 
ATOM     83  F   UNL A   1      44.906  28.627  34.167  1.00  0.00    -0.206 F 
ATOM     84  C   UNL A   1      44.450  26.423  34.788  1.00  0.00     0.040 A 
ATOM     85  C   UNL A   1      44.266  24.705  33.118  1.00  0.00     0.040 A 
ATOM     86  F   UNL A   1      44.665  25.208  30.863  1.00  0.00    -0.206 F 
ATOM     87  C   UNL A   1      44.192  25.097  34.452  1.00  0.00     0.006 A 
ENDBRANCH  63  80
ENDBRANCH  37  38
ENDBRANCH  30  32
ENDBRANCH  29  30
ENDBRANCH  28  29
ENDBRANCH  27  28
ENDBRANCH  26  27
ENDBRANCH  25  26
ENDBRANCH   1  25
TORSDOF 21
ENDMDL
