MODEL 1
REMARK VINA RESULT:      -8.1      0.000      0.000
REMARK SMILES O=C(CNC(=O)OCc1ccccc1)NCC(=O)OCCOCCOCCOC(=O)c1ccc(-c2c3nc(c(-c4c(F)cccc4F)c4ccc([nH]4)c(-c4c(F)cccc4F)c4nc(c(-c5c(F)cccc5F)c5ccc2[nH]5)C=C4)C=C3)cc1
REMARK SMILES IDX 21 1 20 2 19 3 17 4 18 5 16 6 15 7 1 8 2 9 3 11 4 12 5 13
REMARK SMILES IDX 6 15 7 16 8 17 9 18 10 19 14 20 11 21 13 22 12 23 22 24
REMARK SMILES IDX 23 25 24 26 25 27 26 28 27 29 28 30 29 31 30 32 31 33 32 34
REMARK SMILES IDX 84 35 33 36 83 37 34 38 35 39 36 40 77 41 37 42 82 43 76 44
REMARK SMILES IDX 78 45 38 46 81 47 75 48 74 49 39 51 65 52 48 53 64 54 49 55
REMARK SMILES IDX 52 56 63 57 79 58 50 59 51 60 62 62 80 63 53 64 40 65 41 66
REMARK SMILES IDX 46 67 42 68 43 69 45 70 47 71 44 72 66 73 67 74 72 75 68 76
REMARK SMILES IDX 69 77 71 78 73 79 70 80 54 81 55 82 60 83 56 84 57 85 59 86
REMARK SMILES IDX 61 87 58 88
REMARK H PARENT 15 10 4 14 78 50 52 61
REMARK Flexibility Score: inf
ROOT
ATOM      1  C   UNL A   1      37.196  34.253  34.247  1.00  0.00     0.202 C 
ENDROOT
BRANCH   1   2
ATOM      2  C   UNL A   1      36.537  33.010  34.878  1.00  0.00     0.261 C 
BRANCH   2   3
ATOM      3  O   UNL A   1      37.465  31.992  35.319  1.00  0.00    -0.462 OA
BRANCH   3   4
ATOM      4  C   UNL A   1      38.080  31.277  34.338  1.00  0.00     0.325 C 
ATOM      5  O   UNL A   1      37.537  30.950  33.286  1.00  0.00    -0.250 OA
BRANCH   4   6
ATOM      6  C   UNL A   1      39.585  31.040  34.558  1.00  0.00     0.238 C 
BRANCH   6   7
ATOM      7  N   UNL A   1      40.168  29.725  34.790  1.00  0.00    -0.344 N 
ATOM      8  O   UNL A   1      40.259  29.071  32.604  1.00  0.00    -0.273 OA
ATOM      9  C   UNL A   1      40.537  28.867  33.781  1.00  0.00     0.240 C 
ATOM     10  H   UNL A   1      40.306  29.435  35.721  1.00  0.00     0.164 HD
BRANCH   9  11
ATOM     11  C   UNL A   1      41.210  27.568  34.270  1.00  0.00     0.219 C 
BRANCH  11  12
ATOM     12  N   UNL A   1      41.134  27.460  35.724  1.00  0.00    -0.312 N 
ATOM     13  C   UNL A   1      41.778  26.570  36.527  1.00  0.00     0.407 C 
ATOM     14  H   UNL A   1      40.549  28.108  36.177  1.00  0.00     0.167 HD
ATOM     15  O   UNL A   1      41.523  26.535  37.727  1.00  0.00    -0.225 OA
BRANCH  13  16
ATOM     16  O   UNL A   1      42.658  25.776  35.877  1.00  0.00    -0.445 OA
BRANCH  16  17
ATOM     17  C   UNL A   1      43.484  24.948  36.715  1.00  0.00     0.270 C 
BRANCH  17  18
ATOM     18  C   UNL A   1      44.271  23.962  35.884  1.00  0.00    -0.011 A 
ATOM     19  C   UNL A   1      43.654  23.274  34.827  1.00  0.00     0.007 A 
ATOM     20  C   UNL A   1      45.616  23.690  36.169  1.00  0.00     0.007 A 
ATOM     21  C   UNL A   1      44.360  22.330  34.081  1.00  0.00     0.000 A 
ATOM     22  C   UNL A   1      46.325  22.749  35.415  1.00  0.00     0.000 A 
ATOM     23  C   UNL A   1      45.695  22.066  34.377  1.00  0.00     0.000 A 
ENDBRANCH  17  18
ENDBRANCH  16  17
ENDBRANCH  13  16
ENDBRANCH  11  12
ENDBRANCH   9  11
ENDBRANCH   6   7
ENDBRANCH   4   6
ENDBRANCH   3   4
ENDBRANCH   2   3
ENDBRANCH   1   2
BRANCH   1  24
ATOM     24  O   UNL A   1      36.361  35.256  33.670  1.00  0.00    -0.376 OA
BRANCH  24  25
ATOM     25  C   UNL A   1      34.968  34.996  33.553  1.00  0.00     0.188 C 
BRANCH  25  26
ATOM     26  C   UNL A   1      34.030  36.156  33.182  1.00  0.00     0.188 C 
BRANCH  26  27
ATOM     27  O   UNL A   1      33.936  36.429  31.808  1.00  0.00    -0.376 OA
BRANCH  27  28
ATOM     28  C   UNL A   1      32.685  36.339  31.156  1.00  0.00     0.202 C 
BRANCH  28  29
ATOM     29  C   UNL A   1      32.521  36.461  29.628  1.00  0.00     0.261 C 
BRANCH  29  30
ATOM     30  O   UNL A   1      33.498  35.830  28.790  1.00  0.00    -0.460 OA
BRANCH  30  31
ATOM     31  C   UNL A   1      33.382  34.495  28.592  1.00  0.00     0.338 C 
ATOM     32  O   UNL A   1      32.458  33.907  28.061  1.00  0.00    -0.246 OA
BRANCH  31  33
ATOM     33  C   UNL A   1      34.697  33.896  28.921  1.00  0.00     0.060 A 
ATOM     34  C   UNL A   1      34.858  33.222  30.141  1.00  0.00     0.016 A 
ATOM     35  C   UNL A   1      35.748  33.953  28.004  1.00  0.00     0.016 A 
ATOM     36  C   UNL A   1      36.067  32.585  30.437  1.00  0.00     0.010 A 
ATOM     37  C   UNL A   1      36.967  33.346  28.319  1.00  0.00     0.010 A 
ATOM     38  C   UNL A   1      37.136  32.665  29.537  1.00  0.00    -0.014 A 
BRANCH  38  39
ATOM     39  C   UNL A   1      38.482  32.168  29.914  1.00  0.00     0.031 A 
ATOM     40  C   UNL A   1      38.913  30.817  29.422  1.00  0.00     0.074 A 
ATOM     41  C   UNL A   1      39.298  32.888  30.704  1.00  0.00     0.049 A 
ATOM     42  N   UNL A   1      39.972  30.116  29.734  1.00  0.00    -0.248 NA
ATOM     43  C   UNL A   1      38.021  30.166  28.449  1.00  0.00     0.031 C 
ATOM     44  C   UNL A   1      39.025  34.233  31.203  1.00  0.00     0.029 A 
ATOM     45  N   UNL A   1      40.520  32.568  31.245  1.00  0.00    -0.354 N 
ATOM     46  C   UNL A   1      39.870  28.938  29.006  1.00  0.00     0.074 A 
ATOM     47  C   UNL A   1      38.635  29.008  28.255  1.00  0.00     0.031 C 
ATOM     48  C   UNL A   1      40.040  34.616  31.998  1.00  0.00     0.029 A 
ATOM     49  C   UNL A   1      41.009  33.525  32.101  1.00  0.00     0.049 A 
ATOM     50  H   UNL A   1      40.999  31.732  31.039  1.00  0.00     0.167 HD
ATOM     51  C   UNL A   1      40.729  27.892  28.967  1.00  0.00     0.037 A 
ATOM     52  C   UNL A   1      42.090  33.503  32.905  1.00  0.00     0.037 A 
ATOM     53  C   UNL A   1      41.951  27.819  29.723  1.00  0.00     0.049 A 
ATOM     54  C   UNL A   1      42.973  32.280  32.933  1.00  0.00     0.074 A 
ATOM     55  C   UNL A   1      42.898  26.809  29.737  1.00  0.00     0.029 A 
ATOM     56  N   UNL A   1      42.388  28.788  30.613  1.00  0.00    -0.354 N 
ATOM     57  N   UNL A   1      42.884  31.178  32.227  1.00  0.00    -0.248 NA
ATOM     58  C   UNL A   1      44.100  32.294  33.878  1.00  0.00     0.031 C 
ATOM     59  C   UNL A   1      43.874  27.138  30.681  1.00  0.00     0.029 A 
ATOM     60  C   UNL A   1      43.569  28.380  31.213  1.00  0.00     0.049 A 
ATOM     61  H   UNL A   1      41.927  29.639  30.793  1.00  0.00     0.167 HD
ATOM     62  C   UNL A   1      43.950  30.380  32.626  1.00  0.00     0.074 A 
ATOM     63  C   UNL A   1      44.684  31.131  33.623  1.00  0.00     0.031 C 
ATOM     64  C   UNL A   1      44.291  29.137  32.206  1.00  0.00     0.037 A 
BRANCH  51  65
ATOM     65  C   UNL A   1      40.352  26.723  28.104  1.00  0.00     0.057 A 
ATOM     66  C   UNL A   1      40.895  26.538  26.826  1.00  0.00     0.134 A 
ATOM     67  C   UNL A   1      39.448  25.759  28.568  1.00  0.00     0.134 A 
ATOM     68  F   UNL A   1      41.755  27.432  26.314  1.00  0.00    -0.206 F 
ATOM     69  C   UNL A   1      40.531  25.450  26.029  1.00  0.00     0.040 A 
ATOM     70  C   UNL A   1      39.099  24.653  27.793  1.00  0.00     0.040 A 
ATOM     71  F   UNL A   1      38.895  25.873  29.784  1.00  0.00    -0.206 F 
ATOM     72  C   UNL A   1      39.634  24.500  26.516  1.00  0.00     0.006 A 
ENDBRANCH  51  65
BRANCH  52  73
ATOM     73  C   UNL A   1      42.389  34.662  33.787  1.00  0.00     0.057 A 
ATOM     74  C   UNL A   1      43.237  35.693  33.365  1.00  0.00     0.134 A 
ATOM     75  C   UNL A   1      41.859  34.754  35.080  1.00  0.00     0.134 A 
ATOM     76  F   UNL A   1      43.800  35.646  32.148  1.00  0.00    -0.206 F 
ATOM     77  C   UNL A   1      43.559  36.765  34.198  1.00  0.00     0.040 A 
ATOM     78  C   UNL A   1      42.150  35.835  35.915  1.00  0.00     0.040 A 
ATOM     79  F   UNL A   1      41.045  33.797  35.548  1.00  0.00    -0.206 F 
ATOM     80  C   UNL A   1      43.009  36.840  35.477  1.00  0.00     0.006 A 
ENDBRANCH  52  73
BRANCH  64  81
ATOM     81  C   UNL A   1      45.520  28.512  32.803  1.00  0.00     0.057 A 
ATOM     82  C   UNL A   1      45.472  27.779  33.996  1.00  0.00     0.134 A 
ATOM     83  C   UNL A   1      46.755  28.590  32.145  1.00  0.00     0.134 A 
ATOM     84  F   UNL A   1      44.324  27.674  34.682  1.00  0.00    -0.206 F 
ATOM     85  C   UNL A   1      46.609  27.162  34.520  1.00  0.00     0.040 A 
ATOM     86  C   UNL A   1      47.892  27.955  32.644  1.00  0.00     0.040 A 
ATOM     87  F   UNL A   1      46.871  29.268  30.993  1.00  0.00    -0.206 F 
ATOM     88  C   UNL A   1      47.822  27.241  33.838  1.00  0.00     0.006 A 
ENDBRANCH  64  81
ENDBRANCH  38  39
ENDBRANCH  31  33
ENDBRANCH  30  31
ENDBRANCH  29  30
ENDBRANCH  28  29
ENDBRANCH  27  28
ENDBRANCH  26  27
ENDBRANCH  25  26
ENDBRANCH  24  25
ENDBRANCH   1  24
TORSDOF 23
ENDMDL
MODEL 2
REMARK VINA RESULT:      -7.8      4.984     11.173
REMARK SMILES O=C(CNC(=O)OCc1ccccc1)NCC(=O)OCCOCCOCCOC(=O)c1ccc(-c2c3nc(c(-c4c(F)cccc4F)c4ccc([nH]4)c(-c4c(F)cccc4F)c4nc(c(-c5c(F)cccc5F)c5ccc2[nH]5)C=C4)C=C3)cc1
REMARK SMILES IDX 21 1 20 2 19 3 17 4 18 5 16 6 15 7 1 8 2 9 3 11 4 12 5 13
REMARK SMILES IDX 6 15 7 16 8 17 9 18 10 19 14 20 11 21 13 22 12 23 22 24
REMARK SMILES IDX 23 25 24 26 25 27 26 28 27 29 28 30 29 31 30 32 31 33 32 34
REMARK SMILES IDX 84 35 33 36 83 37 34 38 35 39 36 40 77 41 37 42 82 43 76 44
REMARK SMILES IDX 78 45 38 46 81 47 75 48 74 49 39 51 65 52 48 53 64 54 49 55
REMARK SMILES IDX 52 56 63 57 79 58 50 59 51 60 62 62 80 63 53 64 40 65 41 66
REMARK SMILES IDX 46 67 42 68 43 69 45 70 47 71 44 72 66 73 67 74 72 75 68 76
REMARK SMILES IDX 69 77 71 78 73 79 70 80 54 81 55 82 60 83 56 84 57 85 59 86
REMARK SMILES IDX 61 87 58 88
REMARK H PARENT 15 10 4 14 78 50 52 61
REMARK Flexibility Score: inf
ROOT
ATOM      1  C   UNL A   1      42.183  19.498  26.164  1.00  0.00     0.202 C 
ENDROOT
BRANCH   1   2
ATOM      2  C   UNL A   1      40.794  20.162  26.227  1.00  0.00     0.261 C 
BRANCH   2   3
ATOM      3  O   UNL A   1      40.810  21.568  26.563  1.00  0.00    -0.462 OA
BRANCH   3   4
ATOM      4  C   UNL A   1      39.616  22.217  26.485  1.00  0.00     0.325 C 
ATOM      5  O   UNL A   1      39.438  23.372  26.861  1.00  0.00    -0.250 OA
BRANCH   4   6
ATOM      6  C   UNL A   1      38.516  21.454  25.723  1.00  0.00     0.238 C 
BRANCH   6   7
ATOM      7  N   UNL A   1      37.728  22.040  24.647  1.00  0.00    -0.344 N 
ATOM      8  O   UNL A   1      36.031  22.842  25.950  1.00  0.00    -0.273 OA
ATOM      9  C   UNL A   1      36.577  22.765  24.854  1.00  0.00     0.240 C 
ATOM     10  H   UNL A   1      38.037  21.912  23.721  1.00  0.00     0.164 HD
BRANCH   9  11
ATOM     11  C   UNL A   1      35.964  23.356  23.569  1.00  0.00     0.219 C 
BRANCH  11  12
ATOM     12  N   UNL A   1      34.511  23.209  23.570  1.00  0.00    -0.312 N 
ATOM     13  C   UNL A   1      33.586  24.082  24.052  1.00  0.00     0.407 C 
ATOM     14  H   UNL A   1      34.159  22.380  23.173  1.00  0.00     0.167 HD
ATOM     15  O   UNL A   1      32.401  23.762  24.080  1.00  0.00    -0.225 OA
BRANCH  13  16
ATOM     16  O   UNL A   1      34.104  25.254  24.480  1.00  0.00    -0.445 OA
BRANCH  16  17
ATOM     17  C   UNL A   1      33.686  25.676  25.791  1.00  0.00     0.270 C 
BRANCH  17  18
ATOM     18  C   UNL A   1      33.210  27.110  25.765  1.00  0.00    -0.011 A 
ATOM     19  C   UNL A   1      33.511  27.937  24.671  1.00  0.00     0.007 A 
ATOM     20  C   UNL A   1      32.494  27.652  26.841  1.00  0.00     0.007 A 
ATOM     21  C   UNL A   1      33.114  29.275  24.657  1.00  0.00     0.000 A 
ATOM     22  C   UNL A   1      32.089  28.991  26.821  1.00  0.00     0.000 A 
ATOM     23  C   UNL A   1      32.406  29.802  25.734  1.00  0.00     0.000 A 
ENDBRANCH  17  18
ENDBRANCH  16  17
ENDBRANCH  13  16
ENDBRANCH  11  12
ENDBRANCH   9  11
ENDBRANCH   6   7
ENDBRANCH   4   6
ENDBRANCH   3   4
ENDBRANCH   2   3
ENDBRANCH   1   2
BRANCH   1  24
ATOM     24  O   UNL A   1      43.091  19.898  25.138  1.00  0.00    -0.376 OA
BRANCH  24  25
ATOM     25  C   UNL A   1      43.998  20.958  25.408  1.00  0.00     0.188 C 
BRANCH  25  26
ATOM     26  C   UNL A   1      43.795  22.303  24.692  1.00  0.00     0.188 C 
BRANCH  26  27
ATOM     27  O   UNL A   1      44.808  22.654  23.786  1.00  0.00    -0.376 OA
BRANCH  27  28
ATOM     28  C   UNL A   1      46.065  23.085  24.267  1.00  0.00     0.202 C 
BRANCH  28  29
ATOM     29  C   UNL A   1      46.311  24.495  24.838  1.00  0.00     0.261 C 
BRANCH  29  30
ATOM     30  O   UNL A   1      45.213  25.418  24.859  1.00  0.00    -0.460 OA
BRANCH  30  31
ATOM     31  C   UNL A   1      45.502  26.731  25.022  1.00  0.00     0.338 C 
ATOM     32  O   UNL A   1      46.107  27.453  24.251  1.00  0.00    -0.246 OA
BRANCH  31  33
ATOM     33  C   UNL A   1      44.740  27.195  26.205  1.00  0.00     0.060 A 
ATOM     34  C   UNL A   1      44.845  28.535  26.606  1.00  0.00     0.016 A 
ATOM     35  C   UNL A   1      43.885  26.322  26.880  1.00  0.00     0.016 A 
ATOM     36  C   UNL A   1      44.076  29.010  27.673  1.00  0.00     0.010 A 
ATOM     37  C   UNL A   1      43.145  26.792  27.969  1.00  0.00     0.010 A 
ATOM     38  C   UNL A   1      43.239  28.135  28.375  1.00  0.00    -0.014 A 
BRANCH  38  39
ATOM     39  C   UNL A   1      42.568  28.567  29.625  1.00  0.00     0.031 A 
ATOM     40  C   UNL A   1      41.202  29.184  29.531  1.00  0.00     0.074 A 
ATOM     41  C   UNL A   1      43.169  28.444  30.822  1.00  0.00     0.049 A 
ATOM     42  N   UNL A   1      40.485  29.764  30.457  1.00  0.00    -0.248 NA
ATOM     43  C   UNL A   1      40.564  29.146  28.205  1.00  0.00     0.031 C 
ATOM     44  C   UNL A   1      44.465  27.815  31.058  1.00  0.00     0.029 A 
ATOM     45  N   UNL A   1      42.768  28.871  32.065  1.00  0.00    -0.354 N 
ATOM     46  C   UNL A   1      39.316  30.171  29.828  1.00  0.00     0.074 A 
ATOM     47  C   UNL A   1      39.430  29.792  28.435  1.00  0.00     0.031 C 
ATOM     48  C   UNL A   1      44.767  27.917  32.364  1.00  0.00     0.029 A 
ATOM     49  C   UNL A   1      43.706  28.661  33.046  1.00  0.00     0.049 A 
ATOM     50  H   UNL A   1      41.893  29.289  32.236  1.00  0.00     0.167 HD
ATOM     51  C   UNL A   1      38.244  30.802  30.362  1.00  0.00     0.037 A 
ATOM     52  C   UNL A   1      43.724  29.059  34.334  1.00  0.00     0.037 A 
ATOM     53  C   UNL A   1      38.137  31.188  31.744  1.00  0.00     0.049 A 
ATOM     54  C   UNL A   1      42.570  29.862  34.880  1.00  0.00     0.074 A 
ATOM     55  C   UNL A   1      37.083  31.815  32.385  1.00  0.00     0.029 A 
ATOM     56  N   UNL A   1      39.127  30.998  32.696  1.00  0.00    -0.354 N 
ATOM     57  N   UNL A   1      41.459  30.225  34.287  1.00  0.00    -0.248 NA
ATOM     58  C   UNL A   1      42.680  30.321  36.273  1.00  0.00     0.031 C 
ATOM     59  C   UNL A   1      37.460  32.061  33.709  1.00  0.00     0.029 A 
ATOM     60  C   UNL A   1      38.726  31.534  33.909  1.00  0.00     0.049 A 
ATOM     61  H   UNL A   1      39.989  30.549  32.534  1.00  0.00     0.167 HD
ATOM     62  C   UNL A   1      40.731  30.933  35.236  1.00  0.00     0.074 A 
ATOM     63  C   UNL A   1      41.518  30.934  36.451  1.00  0.00     0.031 C 
ATOM     64  C   UNL A   1      39.520  31.530  35.113  1.00  0.00     0.037 A 
BRANCH  51  65
ATOM     65  C   UNL A   1      37.116  31.149  29.434  1.00  0.00     0.057 A 
ATOM     66  C   UNL A   1      36.995  32.420  28.857  1.00  0.00     0.134 A 
ATOM     67  C   UNL A   1      36.150  30.192  29.098  1.00  0.00     0.134 A 
ATOM     68  F   UNL A   1      37.878  33.388  29.148  1.00  0.00    -0.206 F 
ATOM     69  C   UNL A   1      35.938  32.734  28.000  1.00  0.00     0.040 A 
ATOM     70  C   UNL A   1      35.106  30.486  28.221  1.00  0.00     0.040 A 
ATOM     71  F   UNL A   1      36.210  28.955  29.612  1.00  0.00    -0.206 F 
ATOM     72  C   UNL A   1      34.993  31.762  27.676  1.00  0.00     0.006 A 
ENDBRANCH  51  65
BRANCH  52  73
ATOM     73  C   UNL A   1      44.892  28.742  35.197  1.00  0.00     0.057 A 
ATOM     74  C   UNL A   1      46.009  29.584  35.241  1.00  0.00     0.134 A 
ATOM     75  C   UNL A   1      44.933  27.578  35.974  1.00  0.00     0.134 A 
ATOM     76  F   UNL A   1      46.043  30.699  34.496  1.00  0.00    -0.206 F 
ATOM     77  C   UNL A   1      47.129  29.275  36.015  1.00  0.00     0.040 A 
ATOM     78  C   UNL A   1      46.035  27.271  36.775  1.00  0.00     0.040 A 
ATOM     79  F   UNL A   1      43.898  26.725  35.972  1.00  0.00    -0.206 F 
ATOM     80  C   UNL A   1      47.141  28.117  36.790  1.00  0.00     0.006 A 
ENDBRANCH  52  73
BRANCH  64  81
ATOM     81  C   UNL A   1      38.955  32.218  36.323  1.00  0.00     0.057 A 
ATOM     82  C   UNL A   1      39.232  33.562  36.606  1.00  0.00     0.134 A 
ATOM     83  C   UNL A   1      38.074  31.547  37.183  1.00  0.00     0.134 A 
ATOM     84  F   UNL A   1      40.076  34.259  35.830  1.00  0.00    -0.206 F 
ATOM     85  C   UNL A   1      38.667  34.209  37.707  1.00  0.00     0.040 A 
ATOM     86  C   UNL A   1      37.482  32.191  38.271  1.00  0.00     0.040 A 
ATOM     87  F   UNL A   1      37.758  30.262  36.967  1.00  0.00    -0.206 F 
ATOM     88  C   UNL A   1      37.781  33.525  38.537  1.00  0.00     0.006 A 
ENDBRANCH  64  81
ENDBRANCH  38  39
ENDBRANCH  31  33
ENDBRANCH  30  31
ENDBRANCH  29  30
ENDBRANCH  28  29
ENDBRANCH  27  28
ENDBRANCH  26  27
ENDBRANCH  25  26
ENDBRANCH  24  25
ENDBRANCH   1  24
TORSDOF 23
ENDMDL
MODEL 3
REMARK VINA RESULT:      -7.5      4.726     10.899
REMARK SMILES O=C(CNC(=O)OCc1ccccc1)NCC(=O)OCCOCCOCCOC(=O)c1ccc(-c2c3nc(c(-c4c(F)cccc4F)c4ccc([nH]4)c(-c4c(F)cccc4F)c4nc(c(-c5c(F)cccc5F)c5ccc2[nH]5)C=C4)C=C3)cc1
REMARK SMILES IDX 21 1 20 2 19 3 17 4 18 5 16 6 15 7 1 8 2 9 3 11 4 12 5 13
REMARK SMILES IDX 6 15 7 16 8 17 9 18 10 19 14 20 11 21 13 22 12 23 22 24
REMARK SMILES IDX 23 25 24 26 25 27 26 28 27 29 28 30 29 31 30 32 31 33 32 34
REMARK SMILES IDX 84 35 33 36 83 37 34 38 35 39 36 40 77 41 37 42 82 43 76 44
REMARK SMILES IDX 78 45 38 46 81 47 75 48 74 49 39 51 65 52 48 53 64 54 49 55
REMARK SMILES IDX 52 56 63 57 79 58 50 59 51 60 62 62 80 63 53 64 40 65 41 66
REMARK SMILES IDX 46 67 42 68 43 69 45 70 47 71 44 72 66 73 67 74 72 75 68 76
REMARK SMILES IDX 69 77 71 78 73 79 70 80 54 81 55 82 60 83 56 84 57 85 59 86
REMARK SMILES IDX 61 87 58 88
REMARK H PARENT 15 10 4 14 78 50 52 61
REMARK Flexibility Score: inf
ROOT
ATOM      1  C   UNL A   1      33.980  30.642  27.497  1.00  0.00     0.202 C 
ENDROOT
BRANCH   1   2
ATOM      2  C   UNL A   1      32.740  30.333  26.635  1.00  0.00     0.261 C 
BRANCH   2   3
ATOM      3  O   UNL A   1      32.545  28.931  26.335  1.00  0.00    -0.462 OA
BRANCH   3   4
ATOM      4  C   UNL A   1      33.664  28.227  26.014  1.00  0.00     0.325 C 
ATOM      5  O   UNL A   1      34.395  27.687  26.841  1.00  0.00    -0.250 OA
BRANCH   4   6
ATOM      6  C   UNL A   1      33.873  27.999  24.506  1.00  0.00     0.238 C 
BRANCH   6   7
ATOM      7  N   UNL A   1      32.900  27.334  23.649  1.00  0.00    -0.344 N 
ATOM      8  O   UNL A   1      33.946  27.753  21.662  1.00  0.00    -0.273 OA
ATOM      9  C   UNL A   1      33.054  27.192  22.289  1.00  0.00     0.240 C 
ATOM     10  H   UNL A   1      32.089  26.965  24.067  1.00  0.00     0.164 HD
BRANCH   9  11
ATOM     11  C   UNL A   1      31.935  26.378  21.609  1.00  0.00     0.219 C 
BRANCH  11  12
ATOM     12  N   UNL A   1      30.956  25.919  22.590  1.00  0.00    -0.312 N 
ATOM     13  C   UNL A   1      29.975  26.646  23.191  1.00  0.00     0.407 C 
ATOM     14  H   UNL A   1      31.011  24.971  22.846  1.00  0.00     0.167 HD
ATOM     15  O   UNL A   1      29.299  26.141  24.082  1.00  0.00    -0.225 OA
BRANCH  13  16
ATOM     16  O   UNL A   1      29.861  27.909  22.725  1.00  0.00    -0.445 OA
BRANCH  16  17
ATOM     17  C   UNL A   1      29.218  28.843  23.612  1.00  0.00     0.270 C 
BRANCH  17  18
ATOM     18  C   UNL A   1      28.824  30.100  22.872  1.00  0.00    -0.011 A 
ATOM     19  C   UNL A   1      28.283  30.021  21.579  1.00  0.00     0.007 A 
ATOM     20  C   UNL A   1      29.020  31.364  23.443  1.00  0.00     0.007 A 
ATOM     21  C   UNL A   1      27.956  31.177  20.870  1.00  0.00     0.000 A 
ATOM     22  C   UNL A   1      28.684  32.522  22.734  1.00  0.00     0.000 A 
ATOM     23  C   UNL A   1      28.159  32.428  21.447  1.00  0.00     0.000 A 
ENDBRANCH  17  18
ENDBRANCH  16  17
ENDBRANCH  13  16
ENDBRANCH  11  12
ENDBRANCH   9  11
ENDBRANCH   6   7
ENDBRANCH   4   6
ENDBRANCH   3   4
ENDBRANCH   2   3
ENDBRANCH   1   2
BRANCH   1  24
ATOM     24  O   UNL A   1      34.035  31.879  28.205  1.00  0.00    -0.376 OA
BRANCH  24  25
ATOM     25  C   UNL A   1      35.207  32.675  28.092  1.00  0.00     0.188 C 
BRANCH  25  26
ATOM     26  C   UNL A   1      35.166  34.125  28.603  1.00  0.00     0.188 C 
BRANCH  26  27
ATOM     27  O   UNL A   1      33.965  34.809  28.356  1.00  0.00    -0.376 OA
BRANCH  27  28
ATOM     28  C   UNL A   1      33.780  36.114  28.867  1.00  0.00     0.202 C 
BRANCH  28  29
ATOM     29  C   UNL A   1      32.685  36.469  29.892  1.00  0.00     0.261 C 
BRANCH  29  30
ATOM     30  O   UNL A   1      33.081  36.716  31.248  1.00  0.00    -0.460 OA
BRANCH  30  31
ATOM     31  C   UNL A   1      32.659  35.842  32.192  1.00  0.00     0.338 C 
ATOM     32  O   UNL A   1      31.509  35.605  32.515  1.00  0.00    -0.246 OA
BRANCH  31  33
ATOM     33  C   UNL A   1      33.840  35.044  32.598  1.00  0.00     0.060 A 
ATOM     34  C   UNL A   1      35.122  35.596  32.459  1.00  0.00     0.016 A 
ATOM     35  C   UNL A   1      33.675  33.779  33.164  1.00  0.00     0.016 A 
ATOM     36  C   UNL A   1      36.242  34.889  32.907  1.00  0.00     0.010 A 
ATOM     37  C   UNL A   1      34.800  33.059  33.577  1.00  0.00     0.010 A 
ATOM     38  C   UNL A   1      36.089  33.607  33.446  1.00  0.00    -0.014 A 
BRANCH  38  39
ATOM     39  C   UNL A   1      37.272  32.764  33.744  1.00  0.00     0.031 A 
ATOM     40  C   UNL A   1      38.042  33.025  35.007  1.00  0.00     0.074 A 
ATOM     41  C   UNL A   1      37.679  31.802  32.896  1.00  0.00     0.049 A 
ATOM     42  N   UNL A   1      39.180  32.522  35.407  1.00  0.00    -0.248 NA
ATOM     43  C   UNL A   1      37.445  33.993  35.941  1.00  0.00     0.031 C 
ATOM     44  C   UNL A   1      36.993  31.410  31.668  1.00  0.00     0.029 A 
ATOM     45  N   UNL A   1      38.790  30.995  32.935  1.00  0.00    -0.354 N 
ATOM     46  C   UNL A   1      39.444  33.119  36.633  1.00  0.00     0.074 A 
ATOM     47  C   UNL A   1      38.358  34.038  36.899  1.00  0.00     0.031 C 
ATOM     48  C   UNL A   1      37.711  30.452  31.055  1.00  0.00     0.029 A 
ATOM     49  C   UNL A   1      38.929  30.199  31.824  1.00  0.00     0.049 A 
ATOM     50  H   UNL A   1      39.426  30.989  33.687  1.00  0.00     0.167 HD
ATOM     51  C   UNL A   1      40.495  32.918  37.462  1.00  0.00     0.037 A 
ATOM     52  C   UNL A   1      39.944  29.392  31.453  1.00  0.00     0.037 A 
ATOM     53  C   UNL A   1      41.580  32.012  37.190  1.00  0.00     0.049 A 
ATOM     54  C   UNL A   1      41.160  29.270  32.337  1.00  0.00     0.074 A 
ATOM     55  C   UNL A   1      42.681  31.725  37.977  1.00  0.00     0.029 A 
ATOM     56  N   UNL A   1      41.707  31.258  36.033  1.00  0.00    -0.354 N 
ATOM     57  N   UNL A   1      41.394  29.819  33.504  1.00  0.00    -0.248 NA
ATOM     58  C   UNL A   1      42.258  28.424  31.844  1.00  0.00     0.031 C 
ATOM     59  C   UNL A   1      43.506  30.846  37.270  1.00  0.00     0.029 A 
ATOM     60  C   UNL A   1      42.891  30.538  36.067  1.00  0.00     0.049 A 
ATOM     61  H   UNL A   1      41.054  31.237  35.297  1.00  0.00     0.167 HD
ATOM     62  C   UNL A   1      42.650  29.371  33.894  1.00  0.00     0.074 A 
ATOM     63  C   UNL A   1      43.123  28.489  32.847  1.00  0.00     0.031 C 
ATOM     64  C   UNL A   1      43.351  29.663  35.017  1.00  0.00     0.037 A 
BRANCH  51  65
ATOM     65  C   UNL A   1      40.540  33.726  38.726  1.00  0.00     0.057 A 
ATOM     66  C   UNL A   1      41.270  34.919  38.819  1.00  0.00     0.134 A 
ATOM     67  C   UNL A   1      39.825  33.316  39.859  1.00  0.00     0.134 A 
ATOM     68  F   UNL A   1      41.989  35.361  37.775  1.00  0.00    -0.206 F 
ATOM     69  C   UNL A   1      41.310  35.659  40.002  1.00  0.00     0.040 A 
ATOM     70  C   UNL A   1      39.834  34.063  41.037  1.00  0.00     0.040 A 
ATOM     71  F   UNL A   1      39.102  32.187  39.836  1.00  0.00    -0.206 F 
ATOM     72  C   UNL A   1      40.585  35.234  41.114  1.00  0.00     0.006 A 
ENDBRANCH  51  65
BRANCH  52  73
ATOM     73  C   UNL A   1      39.879  28.658  30.162  1.00  0.00     0.057 A 
ATOM     74  C   UNL A   1      39.253  27.408  30.071  1.00  0.00     0.134 A 
ATOM     75  C   UNL A   1      40.465  29.170  28.998  1.00  0.00     0.134 A 
ATOM     76  F   UNL A   1      38.700  26.851  31.158  1.00  0.00    -0.206 F 
ATOM     77  C   UNL A   1      39.223  26.690  28.875  1.00  0.00     0.040 A 
ATOM     78  C   UNL A   1      40.418  28.475  27.788  1.00  0.00     0.040 A 
ATOM     79  F   UNL A   1      41.086  30.358  29.019  1.00  0.00    -0.206 F 
ATOM     80  C   UNL A   1      39.802  27.227  27.726  1.00  0.00     0.006 A 
ENDBRANCH  52  73
BRANCH  64  81
ATOM     81  C   UNL A   1      44.695  29.013  35.190  1.00  0.00     0.057 A 
ATOM     82  C   UNL A   1      45.878  29.637  34.773  1.00  0.00     0.134 A 
ATOM     83  C   UNL A   1      44.814  27.775  35.837  1.00  0.00     0.134 A 
ATOM     84  F   UNL A   1      45.834  30.818  34.137  1.00  0.00    -0.206 F 
ATOM     85  C   UNL A   1      47.127  29.048  34.978  1.00  0.00     0.040 A 
ATOM     86  C   UNL A   1      46.058  27.189  36.072  1.00  0.00     0.040 A 
ATOM     87  F   UNL A   1      43.723  27.126  36.270  1.00  0.00    -0.206 F 
ATOM     88  C   UNL A   1      47.219  27.825  35.639  1.00  0.00     0.006 A 
ENDBRANCH  64  81
ENDBRANCH  38  39
ENDBRANCH  31  33
ENDBRANCH  30  31
ENDBRANCH  29  30
ENDBRANCH  28  29
ENDBRANCH  27  28
ENDBRANCH  26  27
ENDBRANCH  25  26
ENDBRANCH  24  25
ENDBRANCH   1  24
TORSDOF 23
ENDMDL
