MODEL 1
REMARK VINA RESULT:     -10.6      0.000      0.000
REMARK SMILES Cc1cccc(NC(=O)COc2ccc(N3C[C@@H](C(=O)OCCOCCOCCOC(=O)c4ccc(-c5c6nc(c(-c7c(F)cccc7F)c7ccc([nH]7)c(-c7c(F)cccc7F)c7nc(c(-c8c(F)cccc8F)c8ccc5[nH]8)C=C7)C=C6)cc4)CC3=O)cc2)c1
REMARK SMILES IDX 24 1 23 2 22 3 21 4 19 5 20 6 18 7 16 8 17 9 88 10 87 11
REMARK SMILES IDX 89 12 15 13 12 14 13 15 91 16 14 17 90 18 11 19 10 20 8 21
REMARK SMILES IDX 7 22 9 24 6 25 1 26 2 27 3 28 92 29 4 30 5 31 25 32 26 33
REMARK SMILES IDX 27 34 28 35 29 36 30 37 31 38 32 39 33 40 34 41 86 42 35 43
REMARK SMILES IDX 85 44 36 45 37 46 38 47 79 48 39 49 84 50 78 51 80 52 40 53
REMARK SMILES IDX 83 54 77 55 76 56 41 58 67 59 50 60 66 61 51 62 54 63 65 64
REMARK SMILES IDX 81 65 52 66 53 67 64 69 82 70 55 71 42 72 43 73 48 74 44 75
REMARK SMILES IDX 45 76 47 77 49 78 46 79 68 80 69 81 74 82 70 83 71 84 73 85
REMARK SMILES IDX 75 86 72 87 56 88 57 89 62 90 58 91 59 92 61 93 63 94 60 95
REMARK H PARENT 7 23 80 57 54 68
REMARK Flexibility Score: inf
ROOT
ATOM      1  O   UNL A   1      42.778  22.959  26.735  1.00  0.00    -0.376 OA
ENDROOT
BRANCH   1   2
ATOM      2  C   UNL A   1      41.436  23.185  27.152  1.00  0.00     0.202 C 
BRANCH   2   3
ATOM      3  C   UNL A   1      40.410  22.063  26.824  1.00  0.00     0.261 C 
BRANCH   3   4
ATOM      4  O   UNL A   1      38.990  22.180  26.329  1.00  0.00    -0.463 OA
BRANCH   4   5
ATOM      5  C   UNL A   1      38.406  21.244  25.536  1.00  0.00     0.311 C 
ATOM      6  O   UNL A   1      38.947  20.167  25.337  1.00  0.00    -0.252 OA
BRANCH   5   7
ATOM      7  C   UNL A   1      37.038  21.363  24.889  1.00  0.00     0.128 C 
ATOM      8  N   UNL A   1      34.972  22.364  25.634  1.00  0.00    -0.312 N 
ATOM      9  C   UNL A   1      36.329  22.703  25.251  1.00  0.00     0.141 C 
ATOM     10  C   UNL A   1      34.765  20.987  25.615  1.00  0.00     0.227 C 
ATOM     11  C   UNL A   1      35.989  20.297  25.050  1.00  0.00     0.117 C 
ATOM     12  O   UNL A   1      33.745  20.377  25.923  1.00  0.00    -0.274 OA
BRANCH   8  13
ATOM     13  C   UNL A   1      33.975  23.331  25.987  1.00  0.00     0.044 A 
ATOM     14  C   UNL A   1      31.897  25.226  26.485  1.00  0.00     0.120 A 
ATOM     15  C   UNL A   1      33.121  25.622  25.944  1.00  0.00     0.048 A 
ATOM     16  C   UNL A   1      31.712  23.886  26.803  1.00  0.00     0.048 A 
ATOM     17  C   UNL A   1      34.164  24.696  25.736  1.00  0.00     0.030 A 
ATOM     18  C   UNL A   1      32.735  22.948  26.529  1.00  0.00     0.030 A 
BRANCH  14  19
ATOM     19  O   UNL A   1      30.924  26.184  26.526  1.00  0.00    -0.484 OA
BRANCH  19  20
ATOM     20  C   UNL A   1      30.547  26.806  25.309  1.00  0.00     0.329 C 
BRANCH  20  21
ATOM     21  C   UNL A   1      29.531  26.144  24.377  1.00  0.00     0.262 C 
ATOM     22  N   UNL A   1      29.839  25.179  23.469  1.00  0.00    -0.323 N 
ATOM     23  H   UNL A   1      29.046  24.835  22.999  1.00  0.00     0.170 HD
ATOM     24  O   UNL A   1      28.345  26.500  24.422  1.00  0.00    -0.271 OA
BRANCH  22  25
ATOM     25  C   UNL A   1      31.026  24.559  23.043  1.00  0.00     0.041 A 
ATOM     26  C   UNL A   1      32.256  20.935  22.994  1.00  0.00     0.044 C 
ATOM     27  C   UNL A   1      32.210  22.424  22.817  1.00  0.00    -0.049 A 
ATOM     28  C   UNL A   1      33.317  23.102  22.308  1.00  0.00     0.003 A 
ATOM     29  C   UNL A   1      31.069  23.160  23.172  1.00  0.00     0.029 A 
ATOM     30  C   UNL A   1      33.272  24.486  22.140  1.00  0.00     0.002 A 
ATOM     31  C   UNL A   1      32.128  25.209  22.498  1.00  0.00     0.026 A 
ENDBRANCH  22  25
ENDBRANCH  20  21
ENDBRANCH  19  20
ENDBRANCH  14  19
ENDBRANCH   8  13
ENDBRANCH   5   7
ENDBRANCH   4   5
ENDBRANCH   3   4
ENDBRANCH   2   3
ENDBRANCH   1   2
BRANCH   1  32
ATOM     32  C   UNL A   1      42.892  23.140  25.339  1.00  0.00     0.188 C 
BRANCH  32  33
ATOM     33  C   UNL A   1      43.458  24.518  25.006  1.00  0.00     0.188 C 
BRANCH  33  34
ATOM     34  O   UNL A   1      42.490  25.545  24.890  1.00  0.00    -0.376 OA
BRANCH  34  35
ATOM     35  C   UNL A   1      42.659  26.697  25.718  1.00  0.00     0.202 C 
BRANCH  35  36
ATOM     36  C   UNL A   1      44.110  27.137  25.514  1.00  0.00     0.261 C 
BRANCH  36  37
ATOM     37  O   UNL A   1      44.765  27.257  26.801  1.00  0.00    -0.460 OA
BRANCH  37  38
ATOM     38  C   UNL A   1      45.854  26.466  27.007  1.00  0.00     0.338 C 
ATOM     39  O   UNL A   1      46.728  26.219  26.193  1.00  0.00    -0.246 OA
BRANCH  38  40
ATOM     40  C   UNL A   1      45.678  25.739  28.310  1.00  0.00     0.060 A 
ATOM     41  C   UNL A   1      44.434  25.196  28.628  1.00  0.00     0.016 A 
ATOM     42  C   UNL A   1      46.633  25.846  29.329  1.00  0.00     0.016 A 
ATOM     43  C   UNL A   1      44.082  25.010  29.977  1.00  0.00     0.010 A 
ATOM     44  C   UNL A   1      46.250  25.718  30.671  1.00  0.00     0.010 A 
ATOM     45  C   UNL A   1      44.919  25.448  31.012  1.00  0.00    -0.014 A 
BRANCH  45  46
ATOM     46  C   UNL A   1      44.511  25.544  32.456  1.00  0.00     0.031 A 
ATOM     47  C   UNL A   1      44.389  26.947  32.907  1.00  0.00     0.074 A 
ATOM     48  C   UNL A   1      44.277  24.567  33.410  1.00  0.00     0.049 A 
ATOM     49  N   UNL A   1      44.508  27.347  34.130  1.00  0.00    -0.248 NA
ATOM     50  C   UNL A   1      44.299  28.064  31.946  1.00  0.00     0.031 C 
ATOM     51  C   UNL A   1      43.298  24.632  34.487  1.00  0.00     0.029 A 
ATOM     52  N   UNL A   1      44.859  23.311  33.695  1.00  0.00    -0.354 N 
ATOM     53  C   UNL A   1      43.925  28.591  34.099  1.00  0.00     0.074 A 
ATOM     54  C   UNL A   1      44.237  29.089  32.794  1.00  0.00     0.031 C 
ATOM     55  C   UNL A   1      43.474  23.615  35.360  1.00  0.00     0.029 A 
ATOM     56  C   UNL A   1      44.673  22.870  35.003  1.00  0.00     0.049 A 
ATOM     57  H   UNL A   1      45.357  22.791  33.023  1.00  0.00     0.167 HD
ATOM     58  C   UNL A   1      42.853  28.802  34.919  1.00  0.00     0.037 A 
ATOM     59  C   UNL A   1      45.627  22.320  35.837  1.00  0.00     0.037 A 
ATOM     60  C   UNL A   1      42.814  27.817  36.016  1.00  0.00     0.049 A 
ATOM     61  C   UNL A   1      45.695  23.155  37.084  1.00  0.00     0.074 A 
ATOM     62  C   UNL A   1      41.868  26.901  36.452  1.00  0.00     0.029 A 
ATOM     63  N   UNL A   1      43.981  27.515  36.721  1.00  0.00    -0.354 N 
ATOM     64  N   UNL A   1      45.263  24.378  37.089  1.00  0.00    -0.248 NA
ATOM     65  C   UNL A   1      46.255  22.755  38.369  1.00  0.00     0.031 C 
ATOM     66  C   UNL A   1      42.461  26.081  37.447  1.00  0.00     0.029 A 
ATOM     67  C   UNL A   1      43.767  26.501  37.627  1.00  0.00     0.049 A 
ATOM     68  H   UNL A   1      44.845  27.967  36.587  1.00  0.00     0.167 HD
ATOM     69  C   UNL A   1      45.344  24.890  38.344  1.00  0.00     0.074 A 
ATOM     70  C   UNL A   1      46.030  23.863  39.103  1.00  0.00     0.031 C 
ATOM     71  C   UNL A   1      44.797  26.113  38.588  1.00  0.00     0.037 A 
BRANCH  58  72
ATOM     72  C   UNL A   1      41.655  29.685  34.544  1.00  0.00     0.057 A 
ATOM     73  C   UNL A   1      40.592  29.135  33.800  1.00  0.00     0.134 A 
ATOM     74  C   UNL A   1      41.505  31.074  34.773  1.00  0.00     0.134 A 
ATOM     75  F   UNL A   1      40.522  27.823  33.535  1.00  0.00    -0.206 F 
ATOM     76  C   UNL A   1      39.531  29.894  33.281  1.00  0.00     0.040 A 
ATOM     77  C   UNL A   1      40.429  31.836  34.295  1.00  0.00     0.040 A 
ATOM     78  F   UNL A   1      42.378  31.816  35.455  1.00  0.00    -0.206 F 
ATOM     79  C   UNL A   1      39.443  31.252  33.530  1.00  0.00     0.006 A 
ENDBRANCH  58  72
BRANCH  59  80
ATOM     80  C   UNL A   1      46.825  21.517  35.378  1.00  0.00     0.057 A 
ATOM     81  C   UNL A   1      46.655  20.259  34.778  1.00  0.00     0.134 A 
ATOM     82  C   UNL A   1      48.148  21.999  35.380  1.00  0.00     0.134 A 
ATOM     83  F   UNL A   1      45.463  19.649  34.824  1.00  0.00    -0.206 F 
ATOM     84  C   UNL A   1      47.685  19.608  34.071  1.00  0.00     0.040 A 
ATOM     85  C   UNL A   1      49.177  21.379  34.639  1.00  0.00     0.040 A 
ATOM     86  F   UNL A   1      48.455  23.151  35.992  1.00  0.00    -0.206 F 
ATOM     87  C   UNL A   1      48.936  20.200  33.945  1.00  0.00     0.006 A 
ENDBRANCH  59  80
BRANCH  71  88
ATOM     88  C   UNL A   1      45.033  27.013  39.768  1.00  0.00     0.057 A 
ATOM     89  C   UNL A   1      44.607  26.750  41.073  1.00  0.00     0.134 A 
ATOM     90  C   UNL A   1      45.866  28.153  39.630  1.00  0.00     0.134 A 
ATOM     91  F   UNL A   1      43.911  25.653  41.389  1.00  0.00    -0.206 F 
ATOM     92  C   UNL A   1      44.932  27.589  42.147  1.00  0.00     0.040 A 
ATOM     93  C   UNL A   1      46.243  28.958  40.701  1.00  0.00     0.040 A 
ATOM     94  F   UNL A   1      46.386  28.529  38.455  1.00  0.00    -0.206 F 
ATOM     95  C   UNL A   1      45.761  28.688  41.966  1.00  0.00     0.006 A 
ENDBRANCH  71  88
ENDBRANCH  45  46
ENDBRANCH  38  40
ENDBRANCH  37  38
ENDBRANCH  36  37
ENDBRANCH  35  36
ENDBRANCH  34  35
ENDBRANCH  33  34
ENDBRANCH  32  33
ENDBRANCH   1  32
TORSDOF 22
ENDMDL
MODEL 2
REMARK VINA RESULT:     -10.3      6.347     10.901
REMARK SMILES Cc1cccc(NC(=O)COc2ccc(N3C[C@@H](C(=O)OCCOCCOCCOC(=O)c4ccc(-c5c6nc(c(-c7c(F)cccc7F)c7ccc([nH]7)c(-c7c(F)cccc7F)c7nc(c(-c8c(F)cccc8F)c8ccc5[nH]8)C=C7)C=C6)cc4)CC3=O)cc2)c1
REMARK SMILES IDX 24 1 23 2 22 3 21 4 19 5 20 6 18 7 16 8 17 9 88 10 87 11
REMARK SMILES IDX 89 12 15 13 12 14 13 15 91 16 14 17 90 18 11 19 10 20 8 21
REMARK SMILES IDX 7 22 9 24 6 25 1 26 2 27 3 28 92 29 4 30 5 31 25 32 26 33
REMARK SMILES IDX 27 34 28 35 29 36 30 37 31 38 32 39 33 40 34 41 86 42 35 43
REMARK SMILES IDX 85 44 36 45 37 46 38 47 79 48 39 49 84 50 78 51 80 52 40 53
REMARK SMILES IDX 83 54 77 55 76 56 41 58 67 59 50 60 66 61 51 62 54 63 65 64
REMARK SMILES IDX 81 65 52 66 53 67 64 69 82 70 55 71 42 72 43 73 48 74 44 75
REMARK SMILES IDX 45 76 47 77 49 78 46 79 68 80 69 81 74 82 70 83 71 84 73 85
REMARK SMILES IDX 75 86 72 87 56 88 57 89 62 90 58 91 59 92 61 93 63 94 60 95
REMARK H PARENT 7 23 80 57 54 68
REMARK Flexibility Score: inf
ROOT
ATOM      1  O   UNL A   1      34.781  36.210  33.398  1.00  0.00    -0.376 OA
ENDROOT
BRANCH   1   2
ATOM      2  C   UNL A   1      33.362  36.222  33.298  1.00  0.00     0.202 C 
BRANCH   2   3
ATOM      3  C   UNL A   1      32.769  36.274  31.861  1.00  0.00     0.261 C 
BRANCH   3   4
ATOM      4  O   UNL A   1      32.686  35.186  30.820  1.00  0.00    -0.463 OA
BRANCH   4   5
ATOM      5  C   UNL A   1      32.943  35.404  29.504  1.00  0.00     0.311 C 
ATOM      6  O   UNL A   1      32.474  36.372  28.926  1.00  0.00    -0.252 OA
BRANCH   5   7
ATOM      7  C   UNL A   1      33.868  34.571  28.634  1.00  0.00     0.128 C 
ATOM      8  N   UNL A   1      33.886  32.224  28.068  1.00  0.00    -0.312 N 
ATOM      9  C   UNL A   1      33.106  33.434  27.886  1.00  0.00     0.141 C 
ATOM     10  C   UNL A   1      34.995  32.448  28.879  1.00  0.00     0.227 C 
ATOM     11  C   UNL A   1      35.110  33.927  29.185  1.00  0.00     0.117 C 
ATOM     12  O   UNL A   1      35.827  31.628  29.257  1.00  0.00    -0.274 OA
BRANCH   8  13
ATOM     13  C   UNL A   1      33.548  30.959  27.484  1.00  0.00     0.044 A 
ATOM     14  C   UNL A   1      32.983  28.509  26.130  1.00  0.00     0.120 A 
ATOM     15  C   UNL A   1      32.092  29.583  26.083  1.00  0.00     0.048 A 
ATOM     16  C   UNL A   1      34.149  28.645  26.873  1.00  0.00     0.048 A 
ATOM     17  C   UNL A   1      32.348  30.779  26.784  1.00  0.00     0.030 A 
ATOM     18  C   UNL A   1      34.436  29.870  27.519  1.00  0.00     0.030 A 
BRANCH  14  19
ATOM     19  O   UNL A   1      32.690  27.453  25.315  1.00  0.00    -0.484 OA
BRANCH  19  20
ATOM     20  C   UNL A   1      31.825  26.446  25.814  1.00  0.00     0.329 C 
BRANCH  20  21
ATOM     21  C   UNL A   1      31.345  25.310  24.907  1.00  0.00     0.262 C 
ATOM     22  N   UNL A   1      32.045  24.167  24.678  1.00  0.00    -0.323 N 
ATOM     23  H   UNL A   1      31.553  23.530  24.111  1.00  0.00     0.170 HD
ATOM     24  O   UNL A   1      30.258  25.420  24.322  1.00  0.00    -0.271 OA
BRANCH  22  25
ATOM     25  C   UNL A   1      33.308  23.682  25.058  1.00  0.00     0.041 A 
ATOM     26  C   UNL A   1      36.563  22.986  23.167  1.00  0.00     0.044 C 
ATOM     27  C   UNL A   1      35.557  23.101  24.276  1.00  0.00    -0.049 A 
ATOM     28  C   UNL A   1      35.891  22.691  25.566  1.00  0.00     0.003 A 
ATOM     29  C   UNL A   1      34.269  23.601  24.035  1.00  0.00     0.029 A 
ATOM     30  C   UNL A   1      34.958  22.802  26.596  1.00  0.00     0.002 A 
ATOM     31  C   UNL A   1      33.676  23.304  26.344  1.00  0.00     0.026 A 
ENDBRANCH  22  25
ENDBRANCH  20  21
ENDBRANCH  19  20
ENDBRANCH  14  19
ENDBRANCH   8  13
ENDBRANCH   5   7
ENDBRANCH   4   5
ENDBRANCH   3   4
ENDBRANCH   2   3
ENDBRANCH   1   2
BRANCH   1  32
ATOM     32  C   UNL A   1      35.283  34.930  33.076  1.00  0.00     0.188 C 
BRANCH  32  33
ATOM     33  C   UNL A   1      35.582  34.120  34.335  1.00  0.00     0.188 C 
BRANCH  33  34
ATOM     34  O   UNL A   1      35.921  32.765  34.103  1.00  0.00    -0.376 OA
BRANCH  34  35
ATOM     35  C   UNL A   1      36.043  32.347  32.742  1.00  0.00     0.202 C 
BRANCH  35  36
ATOM     36  C   UNL A   1      36.706  30.969  32.796  1.00  0.00     0.261 C 
BRANCH  36  37
ATOM     37  O   UNL A   1      37.921  30.986  32.007  1.00  0.00    -0.460 OA
BRANCH  37  38
ATOM     38  C   UNL A   1      38.169  29.885  31.244  1.00  0.00     0.338 C 
ATOM     39  O   UNL A   1      37.683  28.778  31.402  1.00  0.00    -0.246 OA
BRANCH  38  40
ATOM     40  C   UNL A   1      39.329  30.183  30.336  1.00  0.00     0.060 A 
ATOM     41  C   UNL A   1      39.370  29.606  29.068  1.00  0.00     0.016 A 
ATOM     42  C   UNL A   1      40.495  30.778  30.831  1.00  0.00     0.016 A 
ATOM     43  C   UNL A   1      40.610  29.410  28.435  1.00  0.00     0.010 A 
ATOM     44  C   UNL A   1      41.731  30.520  30.222  1.00  0.00     0.010 A 
ATOM     45  C   UNL A   1      41.814  29.695  29.094  1.00  0.00    -0.014 A 
BRANCH  45  46
ATOM     46  C   UNL A   1      43.172  29.266  28.613  1.00  0.00     0.031 A 
ATOM     47  C   UNL A   1      43.811  30.294  27.764  1.00  0.00     0.074 A 
ATOM     48  C   UNL A   1      43.881  28.089  28.796  1.00  0.00     0.049 A 
ATOM     49  N   UNL A   1      44.714  30.062  26.868  1.00  0.00    -0.248 NA
ATOM     50  C   UNL A   1      43.329  31.690  27.742  1.00  0.00     0.031 C 
ATOM     51  C   UNL A   1      45.327  27.965  28.915  1.00  0.00     0.029 A 
ATOM     52  N   UNL A   1      43.519  26.726  28.879  1.00  0.00    -0.354 N 
ATOM     53  C   UNL A   1      45.264  31.305  26.665  1.00  0.00     0.074 A 
ATOM     54  C   UNL A   1      44.167  32.206  26.844  1.00  0.00     0.031 C 
ATOM     55  C   UNL A   1      45.705  26.668  28.870  1.00  0.00     0.029 A 
ATOM     56  C   UNL A   1      44.547  25.834  28.581  1.00  0.00     0.049 A 
ATOM     57  H   UNL A   1      42.613  26.430  29.127  1.00  0.00     0.167 HD
ATOM     58  C   UNL A   1      46.602  31.445  26.903  1.00  0.00     0.037 A 
ATOM     59  C   UNL A   1      44.467  24.718  27.771  1.00  0.00     0.037 A 
ATOM     60  C   UNL A   1      47.291  30.140  26.882  1.00  0.00     0.049 A 
ATOM     61  C   UNL A   1      45.490  24.859  26.680  1.00  0.00     0.074 A 
ATOM     62  C   UNL A   1      48.080  29.455  27.794  1.00  0.00     0.029 A 
ATOM     63  N   UNL A   1      47.017  29.227  25.862  1.00  0.00    -0.354 N 
ATOM     64  N   UNL A   1      45.967  26.023  26.363  1.00  0.00    -0.248 NA
ATOM     65  C   UNL A   1      46.026  23.789  25.846  1.00  0.00     0.031 C 
ATOM     66  C   UNL A   1      48.312  28.147  27.295  1.00  0.00     0.029 A 
ATOM     67  C   UNL A   1      47.672  28.034  26.074  1.00  0.00     0.049 A 
ATOM     68  H   UNL A   1      46.433  29.411  25.092  1.00  0.00     0.167 HD
ATOM     69  C   UNL A   1      46.935  25.883  25.420  1.00  0.00     0.074 A 
ATOM     70  C   UNL A   1      46.897  24.475  25.078  1.00  0.00     0.031 C 
ATOM     71  C   UNL A   1      47.665  26.977  25.066  1.00  0.00     0.037 A 
BRANCH  58  72
ATOM     72  C   UNL A   1      47.235  32.715  27.488  1.00  0.00     0.057 A 
ATOM     73  C   UNL A   1      47.195  32.935  28.879  1.00  0.00     0.134 A 
ATOM     74  C   UNL A   1      47.800  33.801  26.775  1.00  0.00     0.134 A 
ATOM     75  F   UNL A   1      46.753  31.998  29.728  1.00  0.00    -0.206 F 
ATOM     76  C   UNL A   1      47.607  34.131  29.490  1.00  0.00     0.040 A 
ATOM     77  C   UNL A   1      48.252  34.983  27.377  1.00  0.00     0.040 A 
ATOM     78  F   UNL A   1      47.949  33.826  25.450  1.00  0.00    -0.206 F 
ATOM     79  C   UNL A   1      48.143  35.162  28.740  1.00  0.00     0.006 A 
ENDBRANCH  58  72
BRANCH  59  80
ATOM     80  C   UNL A   1      43.225  23.880  27.563  1.00  0.00     0.057 A 
ATOM     81  C   UNL A   1      42.443  24.033  26.407  1.00  0.00     0.134 A 
ATOM     82  C   UNL A   1      42.838  22.819  28.403  1.00  0.00     0.134 A 
ATOM     83  F   UNL A   1      42.645  25.080  25.595  1.00  0.00    -0.206 F 
ATOM     84  C   UNL A   1      41.467  23.096  26.018  1.00  0.00     0.040 A 
ATOM     85  C   UNL A   1      41.892  21.849  28.007  1.00  0.00     0.040 A 
ATOM     86  F   UNL A   1      43.453  22.616  29.577  1.00  0.00    -0.206 F 
ATOM     87  C   UNL A   1      41.233  21.962  26.788  1.00  0.00     0.006 A 
ENDBRANCH  59  80
BRANCH  71  88
ATOM     88  C   UNL A   1      48.538  27.152  23.856  1.00  0.00     0.057 A 
ATOM     89  C   UNL A   1      48.139  27.757  22.660  1.00  0.00     0.134 A 
ATOM     90  C   UNL A   1      49.916  26.825  23.927  1.00  0.00     0.134 A 
ATOM     91  F   UNL A   1      46.900  28.226  22.477  1.00  0.00    -0.206 F 
ATOM     92  C   UNL A   1      49.027  27.965  21.596  1.00  0.00     0.040 A 
ATOM     93  C   UNL A   1      50.818  27.082  22.899  1.00  0.00     0.040 A 
ATOM     94  F   UNL A   1      50.471  26.268  25.012  1.00  0.00    -0.206 F 
ATOM     95  C   UNL A   1      50.371  27.640  21.717  1.00  0.00     0.006 A 
ENDBRANCH  71  88
ENDBRANCH  45  46
ENDBRANCH  38  40
ENDBRANCH  37  38
ENDBRANCH  36  37
ENDBRANCH  35  36
ENDBRANCH  34  35
ENDBRANCH  33  34
ENDBRANCH  32  33
ENDBRANCH   1  32
TORSDOF 22
ENDMDL
MODEL 3
REMARK VINA RESULT:     -10.0      5.869     10.468
REMARK SMILES Cc1cccc(NC(=O)COc2ccc(N3C[C@@H](C(=O)OCCOCCOCCOC(=O)c4ccc(-c5c6nc(c(-c7c(F)cccc7F)c7ccc([nH]7)c(-c7c(F)cccc7F)c7nc(c(-c8c(F)cccc8F)c8ccc5[nH]8)C=C7)C=C6)cc4)CC3=O)cc2)c1
REMARK SMILES IDX 24 1 23 2 22 3 21 4 19 5 20 6 18 7 16 8 17 9 88 10 87 11
REMARK SMILES IDX 89 12 15 13 12 14 13 15 91 16 14 17 90 18 11 19 10 20 8 21
REMARK SMILES IDX 7 22 9 24 6 25 1 26 2 27 3 28 92 29 4 30 5 31 25 32 26 33
REMARK SMILES IDX 27 34 28 35 29 36 30 37 31 38 32 39 33 40 34 41 86 42 35 43
REMARK SMILES IDX 85 44 36 45 37 46 38 47 79 48 39 49 84 50 78 51 80 52 40 53
REMARK SMILES IDX 83 54 77 55 76 56 41 58 67 59 50 60 66 61 51 62 54 63 65 64
REMARK SMILES IDX 81 65 52 66 53 67 64 69 82 70 55 71 42 72 43 73 48 74 44 75
REMARK SMILES IDX 45 76 47 77 49 78 46 79 68 80 69 81 74 82 70 83 71 84 73 85
REMARK SMILES IDX 75 86 72 87 56 88 57 89 62 90 58 91 59 92 61 93 63 94 60 95
REMARK H PARENT 7 23 80 57 54 68
REMARK Flexibility Score: inf
ROOT
ATOM      1  O   UNL A   1      35.187  35.840  32.892  1.00  0.00    -0.376 OA
ENDROOT
BRANCH   1   2
ATOM      2  C   UNL A   1      33.785  36.051  33.014  1.00  0.00     0.202 C 
BRANCH   2   3
ATOM      3  C   UNL A   1      32.970  36.080  31.690  1.00  0.00     0.261 C 
BRANCH   3   4
ATOM      4  O   UNL A   1      32.761  34.987  30.670  1.00  0.00    -0.463 OA
BRANCH   4   5
ATOM      5  C   UNL A   1      32.985  35.165  29.342  1.00  0.00     0.311 C 
ATOM      6  O   UNL A   1      32.494  36.110  28.745  1.00  0.00    -0.252 OA
BRANCH   5   7
ATOM      7  C   UNL A   1      33.896  34.311  28.478  1.00  0.00     0.128 C 
ATOM      8  N   UNL A   1      33.843  31.974  27.880  1.00  0.00    -0.312 N 
ATOM      9  C   UNL A   1      33.110  33.212  27.700  1.00  0.00     0.141 C 
ATOM     10  C   UNL A   1      34.944  32.148  28.714  1.00  0.00     0.227 C 
ATOM     11  C   UNL A   1      35.105  33.617  29.043  1.00  0.00     0.117 C 
ATOM     12  O   UNL A   1      35.740  31.294  29.096  1.00  0.00    -0.274 OA
BRANCH   8  13
ATOM     13  C   UNL A   1      33.473  30.729  27.271  1.00  0.00     0.044 A 
ATOM     14  C   UNL A   1      32.701  28.367  25.865  1.00  0.00     0.120 A 
ATOM     15  C   UNL A   1      31.762  29.138  26.551  1.00  0.00     0.048 A 
ATOM     16  C   UNL A   1      34.034  28.757  25.897  1.00  0.00     0.048 A 
ATOM     17  C   UNL A   1      32.146  30.282  27.281  1.00  0.00     0.030 A 
ATOM     18  C   UNL A   1      34.406  29.943  26.573  1.00  0.00     0.030 A 
BRANCH  14  19
ATOM     19  O   UNL A   1      32.198  27.356  25.096  1.00  0.00    -0.484 OA
BRANCH  19  20
ATOM     20  C   UNL A   1      31.058  27.630  24.298  1.00  0.00     0.329 C 
BRANCH  20  21
ATOM     21  C   UNL A   1      30.917  27.017  22.903  1.00  0.00     0.262 C 
ATOM     22  N   UNL A   1      31.135  25.706  22.618  1.00  0.00    -0.323 N 
ATOM     23  H   UNL A   1      30.941  25.487  21.678  1.00  0.00     0.170 HD
ATOM     24  O   UNL A   1      30.597  27.744  21.952  1.00  0.00    -0.271 OA
BRANCH  22  25
ATOM     25  C   UNL A   1      31.574  24.590  23.350  1.00  0.00     0.041 A 
ATOM     26  C   UNL A   1      30.376  22.884  26.560  1.00  0.00     0.044 C 
ATOM     27  C   UNL A   1      31.171  23.196  25.326  1.00  0.00    -0.049 A 
ATOM     28  C   UNL A   1      32.290  22.430  25.004  1.00  0.00     0.003 A 
ATOM     29  C   UNL A   1      30.818  24.266  24.490  1.00  0.00     0.029 A 
ATOM     30  C   UNL A   1      33.025  22.718  23.855  1.00  0.00     0.002 A 
ATOM     31  C   UNL A   1      32.663  23.787  23.027  1.00  0.00     0.026 A 
ENDBRANCH  22  25
ENDBRANCH  20  21
ENDBRANCH  19  20
ENDBRANCH  14  19
ENDBRANCH   8  13
ENDBRANCH   5   7
ENDBRANCH   4   5
ENDBRANCH   3   4
ENDBRANCH   2   3
ENDBRANCH   1   2
BRANCH   1  32
ATOM     32  C   UNL A   1      35.454  34.480  32.617  1.00  0.00     0.188 C 
BRANCH  32  33
ATOM     33  C   UNL A   1      35.049  33.590  33.788  1.00  0.00     0.188 C 
BRANCH  33  34
ATOM     34  O   UNL A   1      35.980  32.574  34.113  1.00  0.00    -0.376 OA
BRANCH  34  35
ATOM     35  C   UNL A   1      37.143  32.965  34.845  1.00  0.00     0.202 C 
BRANCH  35  36
ATOM     36  C   UNL A   1      38.316  32.778  33.880  1.00  0.00     0.261 C 
BRANCH  36  37
ATOM     37  O   UNL A   1      38.024  31.688  32.971  1.00  0.00    -0.460 OA
BRANCH  37  38
ATOM     38  C   UNL A   1      38.416  31.853  31.677  1.00  0.00     0.338 C 
ATOM     39  O   UNL A   1      38.093  32.769  30.939  1.00  0.00    -0.246 OA
BRANCH  38  40
ATOM     40  C   UNL A   1      39.100  30.595  31.220  1.00  0.00     0.060 A 
ATOM     41  C   UNL A   1      39.832  29.843  32.136  1.00  0.00     0.016 A 
ATOM     42  C   UNL A   1      39.264  30.321  29.857  1.00  0.00     0.016 A 
ATOM     43  C   UNL A   1      40.882  29.025  31.681  1.00  0.00     0.010 A 
ATOM     44  C   UNL A   1      40.352  29.553  29.418  1.00  0.00     0.010 A 
ATOM     45  C   UNL A   1      41.268  29.023  30.334  1.00  0.00    -0.014 A 
BRANCH  45  46
ATOM     46  C   UNL A   1      42.534  28.404  29.811  1.00  0.00     0.031 A 
ATOM     47  C   UNL A   1      43.536  29.424  29.432  1.00  0.00     0.074 A 
ATOM     48  C   UNL A   1      42.890  27.082  29.598  1.00  0.00     0.049 A 
ATOM     49  N   UNL A   1      44.482  29.251  28.568  1.00  0.00    -0.248 NA
ATOM     50  C   UNL A   1      43.426  30.824  29.888  1.00  0.00     0.031 C 
ATOM     51  C   UNL A   1      44.222  26.513  29.749  1.00  0.00     0.029 A 
ATOM     52  N   UNL A   1      42.190  25.935  29.159  1.00  0.00    -0.354 N 
ATOM     53  C   UNL A   1      45.350  30.276  28.862  1.00  0.00     0.074 A 
ATOM     54  C   UNL A   1      44.497  31.343  29.289  1.00  0.00     0.031 C 
ATOM     55  C   UNL A   1      44.266  25.254  29.259  1.00  0.00     0.029 A 
ATOM     56  C   UNL A   1      42.998  24.935  28.620  1.00  0.00     0.049 A 
ATOM     57  H   UNL A   1      41.212  25.849  29.229  1.00  0.00     0.167 HD
ATOM     58  C   UNL A   1      46.625  29.935  29.213  1.00  0.00     0.037 A 
ATOM     59  C   UNL A   1      42.771  24.224  27.458  1.00  0.00     0.037 A 
ATOM     60  C   UNL A   1      46.961  28.572  28.761  1.00  0.00     0.049 A 
ATOM     61  C   UNL A   1      43.955  24.416  26.554  1.00  0.00     0.074 A 
ATOM     62  C   UNL A   1      47.401  27.426  29.408  1.00  0.00     0.029 A 
ATOM     63  N   UNL A   1      46.633  28.169  27.466  1.00  0.00    -0.354 N 
ATOM     64  N   UNL A   1      44.752  25.429  26.709  1.00  0.00    -0.248 NA
ATOM     65  C   UNL A   1      44.333  23.577  25.423  1.00  0.00     0.031 C 
ATOM     66  C   UNL A   1      47.375  26.350  28.484  1.00  0.00     0.029 A 
ATOM     67  C   UNL A   1      46.928  26.838  27.270  1.00  0.00     0.049 A 
ATOM     68  H   UNL A   1      46.242  28.758  26.781  1.00  0.00     0.167 HD
ATOM     69  C   UNL A   1      45.790  25.336  25.839  1.00  0.00     0.074 A 
ATOM     70  C   UNL A   1      45.457  24.195  25.008  1.00  0.00     0.031 C 
ATOM     71  C   UNL A   1      46.816  26.225  25.948  1.00  0.00     0.037 A 
BRANCH  58  72
ATOM     72  C   UNL A   1      47.454  30.700  30.255  1.00  0.00     0.057 A 
ATOM     73  C   UNL A   1      47.151  30.560  31.624  1.00  0.00     0.134 A 
ATOM     74  C   UNL A   1      48.475  31.651  30.011  1.00  0.00     0.134 A 
ATOM     75  F   UNL A   1      46.257  29.662  32.059  1.00  0.00    -0.206 F 
ATOM     76  C   UNL A   1      47.748  31.330  32.635  1.00  0.00     0.040 A 
ATOM     77  C   UNL A   1      49.107  32.397  31.016  1.00  0.00     0.040 A 
ATOM     78  F   UNL A   1      48.937  31.955  28.798  1.00  0.00    -0.206 F 
ATOM     79  C   UNL A   1      48.734  32.252  32.335  1.00  0.00     0.006 A 
ENDBRANCH  58  72
BRANCH  59  80
ATOM     80  C   UNL A   1      41.408  23.899  26.887  1.00  0.00     0.057 A 
ATOM     81  C   UNL A   1      40.935  22.578  26.870  1.00  0.00     0.134 A 
ATOM     82  C   UNL A   1      40.473  24.868  26.473  1.00  0.00     0.134 A 
ATOM     83  F   UNL A   1      41.771  21.563  27.131  1.00  0.00    -0.206 F 
ATOM     84  C   UNL A   1      39.584  22.255  26.636  1.00  0.00     0.040 A 
ATOM     85  C   UNL A   1      39.109  24.565  26.278  1.00  0.00     0.040 A 
ATOM     86  F   UNL A   1      40.825  26.157  26.368  1.00  0.00    -0.206 F 
ATOM     87  C   UNL A   1      38.651  23.259  26.402  1.00  0.00     0.006 A 
ENDBRANCH  59  80
BRANCH  71  88
ATOM     88  C   UNL A   1      47.885  26.530  24.938  1.00  0.00     0.057 A 
ATOM     89  C   UNL A   1      49.193  26.036  24.980  1.00  0.00     0.134 A 
ATOM     90  C   UNL A   1      47.559  27.252  23.761  1.00  0.00     0.134 A 
ATOM     91  F   UNL A   1      49.623  25.242  25.967  1.00  0.00    -0.206 F 
ATOM     92  C   UNL A   1      50.120  26.289  23.961  1.00  0.00     0.040 A 
ATOM     93  C   UNL A   1      48.456  27.458  22.717  1.00  0.00     0.040 A 
ATOM     94  F   UNL A   1      46.342  27.767  23.545  1.00  0.00    -0.206 F 
ATOM     95  C   UNL A   1      49.751  26.991  22.821  1.00  0.00     0.006 A 
ENDBRANCH  71  88
ENDBRANCH  45  46
ENDBRANCH  38  40
ENDBRANCH  37  38
ENDBRANCH  36  37
ENDBRANCH  35  36
ENDBRANCH  34  35
ENDBRANCH  33  34
ENDBRANCH  32  33
ENDBRANCH   1  32
TORSDOF 22
ENDMDL
