MODEL 1
REMARK VINA RESULT:     -10.0      0.000      0.000
REMARK SMILES Nc1ccc(O)c(C(=O)OCCOCCOCCOC(=O)c2ccc(-c3c4nc(c(-c5c(F)cccc5F)c5ccc([nH]5)c(-c5c(F)cccc5F)c5nc(c(-c6c(F)cccc6F)c6ccc3[nH]6)C=C5)C=C4)cc2)c1
REMARK SMILES IDX 15 1 14 2 13 3 12 4 11 5 10 6 8 7 9 8 7 9 2 10 3 11 76 12
REMARK SMILES IDX 4 13 5 14 1 15 6 18 16 20 17 21 18 22 19 23 20 24 21 25
REMARK SMILES IDX 22 26 23 27 75 28 24 29 74 30 25 31 26 32 27 33 68 34 28 35
REMARK SMILES IDX 73 36 67 37 69 38 29 39 72 40 66 41 65 42 30 44 56 45 39 46
REMARK SMILES IDX 55 47 40 48 43 49 54 50 70 51 41 52 42 53 53 55 71 56 44 57
REMARK SMILES IDX 31 58 32 59 37 60 33 61 34 62 36 63 38 64 35 65 57 66 58 67
REMARK SMILES IDX 63 68 59 69 60 70 62 71 64 72 61 73 45 74 46 75 51 76 47 77
REMARK SMILES IDX 48 78 50 79 52 80 49 81
REMARK H PARENT 1 16 1 17 6 19 69 43 43 54
REMARK Flexibility Score: inf
ROOT
ATOM      1  C   UNL A   1      41.125  19.586  26.150  1.00  0.00     0.188 C 
ENDROOT
BRANCH   1   2
ATOM      2  C   UNL A   1      40.943  20.604  27.294  1.00  0.00     0.188 C 
BRANCH   2   3
ATOM      3  O   UNL A   1      39.938  21.600  27.245  1.00  0.00    -0.376 OA
BRANCH   3   4
ATOM      4  C   UNL A   1      39.306  21.915  26.017  1.00  0.00     0.202 C 
BRANCH   4   5
ATOM      5  C   UNL A   1      38.104  22.862  25.994  1.00  0.00     0.261 C 
BRANCH   5   6
ATOM      6  O   UNL A   1      36.836  22.190  25.952  1.00  0.00    -0.460 OA
BRANCH   6   7
ATOM      7  C   UNL A   1      35.949  22.693  25.061  1.00  0.00     0.342 C 
ATOM      8  O   UNL A   1      36.073  23.713  24.398  1.00  0.00    -0.246 OA
BRANCH   7   9
ATOM      9  C   UNL A   1      34.873  21.724  24.777  1.00  0.00     0.103 A 
ATOM     10  C   UNL A   1      34.027  19.454  24.635  1.00  0.00     0.032 A 
ATOM     11  C   UNL A   1      32.805  19.961  24.176  1.00  0.00     0.029 A 
ATOM     12  C   UNL A   1      35.058  20.346  24.947  1.00  0.00     0.045 A 
ATOM     13  C   UNL A   1      32.621  21.333  23.989  1.00  0.00     0.049 A 
ATOM     14  C   UNL A   1      33.650  22.211  24.299  1.00  0.00     0.130 A 
BRANCH  10  15
ATOM     15  N   UNL A   1      34.166  18.099  24.880  1.00  0.00    -0.399 N 
ATOM     16  H   UNL A   1      34.890  17.776  25.465  1.00  0.00     0.156 HD
ATOM     17  H   UNL A   1      33.542  17.457  24.469  1.00  0.00     0.156 HD
ENDBRANCH  10  15
BRANCH  14  18
ATOM     18  O   UNL A   1      33.402  23.541  24.090  1.00  0.00    -0.507 OA
ATOM     19  H   UNL A   1      32.796  23.807  23.425  1.00  0.00     0.293 HD
ENDBRANCH  14  18
ENDBRANCH   7   9
ENDBRANCH   6   7
ENDBRANCH   5   6
ENDBRANCH   4   5
ENDBRANCH   3   4
ENDBRANCH   2   3
ENDBRANCH   1   2
BRANCH   1  20
ATOM     20  O   UNL A   1      42.201  19.684  25.242  1.00  0.00    -0.376 OA
BRANCH  20  21
ATOM     21  C   UNL A   1      43.506  20.035  25.666  1.00  0.00     0.202 C 
BRANCH  21  22
ATOM     22  C   UNL A   1      44.084  21.454  25.597  1.00  0.00     0.261 C 
BRANCH  22  23
ATOM     23  O   UNL A   1      43.172  22.501  25.266  1.00  0.00    -0.460 OA
BRANCH  23  24
ATOM     24  C   UNL A   1      43.745  23.715  25.072  1.00  0.00     0.338 C 
ATOM     25  O   UNL A   1      44.575  24.022  24.237  1.00  0.00    -0.246 OA
BRANCH  24  26
ATOM     26  C   UNL A   1      43.098  24.697  25.956  1.00  0.00     0.060 A 
ATOM     27  C   UNL A   1      43.630  25.991  26.019  1.00  0.00     0.016 A 
ATOM     28  C   UNL A   1      42.019  24.328  26.760  1.00  0.00     0.016 A 
ATOM     29  C   UNL A   1      43.096  26.918  26.910  1.00  0.00     0.010 A 
ATOM     30  C   UNL A   1      41.498  25.253  27.667  1.00  0.00     0.010 A 
ATOM     31  C   UNL A   1      42.053  26.542  27.766  1.00  0.00    -0.014 A 
BRANCH  31  32
ATOM     32  C   UNL A   1      41.649  27.436  28.876  1.00  0.00     0.031 A 
ATOM     33  C   UNL A   1      42.407  27.363  30.174  1.00  0.00     0.074 A 
ATOM     34  C   UNL A   1      40.633  28.304  28.736  1.00  0.00     0.049 A 
ATOM     35  N   UNL A   1      42.195  27.998  31.298  1.00  0.00    -0.248 NA
ATOM     36  C   UNL A   1      43.560  26.448  30.206  1.00  0.00     0.031 C 
ATOM     37  C   UNL A   1      39.849  28.501  27.519  1.00  0.00     0.029 A 
ATOM     38  N   UNL A   1      40.080  29.176  29.641  1.00  0.00    -0.354 N 
ATOM     39  C   UNL A   1      43.183  27.561  32.169  1.00  0.00     0.074 A 
ATOM     40  C   UNL A   1      43.978  26.585  31.455  1.00  0.00     0.031 C 
ATOM     41  C   UNL A   1      38.900  29.423  27.759  1.00  0.00     0.029 A 
ATOM     42  C   UNL A   1      38.992  29.858  29.152  1.00  0.00     0.049 A 
ATOM     43  H   UNL A   1      40.429  29.300  30.553  1.00  0.00     0.167 HD
ATOM     44  C   UNL A   1      43.414  27.944  33.447  1.00  0.00     0.037 A 
ATOM     45  C   UNL A   1      38.156  30.715  29.769  1.00  0.00     0.037 A 
ATOM     46  C   UNL A   1      42.621  28.910  34.160  1.00  0.00     0.049 A 
ATOM     47  C   UNL A   1      38.385  31.062  31.217  1.00  0.00     0.074 A 
ATOM     48  C   UNL A   1      42.783  29.370  35.455  1.00  0.00     0.029 A 
ATOM     49  N   UNL A   1      41.512  29.558  33.639  1.00  0.00    -0.354 N 
ATOM     50  N   UNL A   1      39.336  30.663  32.027  1.00  0.00    -0.248 NA
ATOM     51  C   UNL A   1      37.422  31.986  31.838  1.00  0.00     0.031 C 
ATOM     52  C   UNL A   1      41.744  30.264  35.734  1.00  0.00     0.029 A 
ATOM     53  C   UNL A   1      40.966  30.397  34.596  1.00  0.00     0.049 A 
ATOM     54  H   UNL A   1      41.164  29.439  32.726  1.00  0.00     0.167 HD
ATOM     55  C   UNL A   1      39.105  31.307  33.236  1.00  0.00     0.074 A 
ATOM     56  C   UNL A   1      37.930  32.133  33.052  1.00  0.00     0.031 C 
ATOM     57  C   UNL A   1      39.804  31.224  34.395  1.00  0.00     0.037 A 
BRANCH  44  58
ATOM     58  C   UNL A   1      44.562  27.299  34.164  1.00  0.00     0.057 A 
ATOM     59  C   UNL A   1      45.840  27.871  34.174  1.00  0.00     0.134 A 
ATOM     60  C   UNL A   1      44.377  26.113  34.885  1.00  0.00     0.134 A 
ATOM     61  F   UNL A   1      46.086  28.999  33.490  1.00  0.00    -0.206 F 
ATOM     62  C   UNL A   1      46.899  27.277  34.863  1.00  0.00     0.040 A 
ATOM     63  C   UNL A   1      45.422  25.522  35.597  1.00  0.00     0.040 A 
ATOM     64  F   UNL A   1      43.176  25.515  34.918  1.00  0.00    -0.206 F 
ATOM     65  C   UNL A   1      46.689  26.102  35.583  1.00  0.00     0.006 A 
ENDBRANCH  44  58
BRANCH  45  66
ATOM     66  C   UNL A   1      37.004  31.295  29.034  1.00  0.00     0.057 A 
ATOM     67  C   UNL A   1      37.006  32.631  28.618  1.00  0.00     0.134 A 
ATOM     68  C   UNL A   1      35.855  30.540  28.770  1.00  0.00     0.134 A 
ATOM     69  F   UNL A   1      38.066  33.414  28.867  1.00  0.00    -0.206 F 
ATOM     70  C   UNL A   1      35.900  33.203  27.987  1.00  0.00     0.040 A 
ATOM     71  C   UNL A   1      34.752  31.091  28.117  1.00  0.00     0.040 A 
ATOM     72  F   UNL A   1      35.788  29.254  29.147  1.00  0.00    -0.206 F 
ATOM     73  C   UNL A   1      34.769  32.430  27.733  1.00  0.00     0.006 A 
ENDBRANCH  45  66
BRANCH  57  74
ATOM     74  C   UNL A   1      39.345  32.078  35.542  1.00  0.00     0.057 A 
ATOM     75  C   UNL A   1      38.450  31.602  36.509  1.00  0.00     0.134 A 
ATOM     76  C   UNL A   1      39.844  33.377  35.705  1.00  0.00     0.134 A 
ATOM     77  F   UNL A   1      37.928  30.372  36.406  1.00  0.00    -0.206 F 
ATOM     78  C   UNL A   1      38.051  32.397  37.585  1.00  0.00     0.040 A 
ATOM     79  C   UNL A   1      39.471  34.172  36.790  1.00  0.00     0.040 A 
ATOM     80  F   UNL A   1      40.713  33.890  34.821  1.00  0.00    -0.206 F 
ATOM     81  C   UNL A   1      38.567  33.683  37.732  1.00  0.00     0.006 A 
ENDBRANCH  57  74
ENDBRANCH  31  32
ENDBRANCH  24  26
ENDBRANCH  23  24
ENDBRANCH  22  23
ENDBRANCH  21  22
ENDBRANCH  20  21
ENDBRANCH   1  20
TORSDOF 19
ENDMDL
MODEL 2
REMARK VINA RESULT:      -9.6      5.448     11.348
REMARK SMILES Nc1ccc(O)c(C(=O)OCCOCCOCCOC(=O)c2ccc(-c3c4nc(c(-c5c(F)cccc5F)c5ccc([nH]5)c(-c5c(F)cccc5F)c5nc(c(-c6c(F)cccc6F)c6ccc3[nH]6)C=C5)C=C4)cc2)c1
REMARK SMILES IDX 15 1 14 2 13 3 12 4 11 5 10 6 8 7 9 8 7 9 2 10 3 11 76 12
REMARK SMILES IDX 4 13 5 14 1 15 6 18 16 20 17 21 18 22 19 23 20 24 21 25
REMARK SMILES IDX 22 26 23 27 75 28 24 29 74 30 25 31 26 32 27 33 68 34 28 35
REMARK SMILES IDX 73 36 67 37 69 38 29 39 72 40 66 41 65 42 30 44 56 45 39 46
REMARK SMILES IDX 55 47 40 48 43 49 54 50 70 51 41 52 42 53 53 55 71 56 44 57
REMARK SMILES IDX 31 58 32 59 37 60 33 61 34 62 36 63 38 64 35 65 57 66 58 67
REMARK SMILES IDX 63 68 59 69 60 70 62 71 64 72 61 73 45 74 46 75 51 76 47 77
REMARK SMILES IDX 48 78 50 79 52 80 49 81
REMARK H PARENT 1 16 1 17 6 19 69 43 43 54
REMARK Flexibility Score: inf
ROOT
ATOM      1  C   UNL A   1      32.794  35.712  30.048  1.00  0.00     0.188 C 
ENDROOT
BRANCH   1   2
ATOM      2  C   UNL A   1      33.278  37.107  30.492  1.00  0.00     0.188 C 
BRANCH   2   3
ATOM      3  O   UNL A   1      33.428  37.438  31.860  1.00  0.00    -0.376 OA
BRANCH   3   4
ATOM      4  C   UNL A   1      33.200  36.460  32.859  1.00  0.00     0.202 C 
BRANCH   4   5
ATOM      5  C   UNL A   1      34.381  35.726  33.496  1.00  0.00     0.261 C 
BRANCH   5   6
ATOM      6  O   UNL A   1      35.255  35.096  32.547  1.00  0.00    -0.460 OA
BRANCH   6   7
ATOM      7  C   UNL A   1      35.042  33.771  32.361  1.00  0.00     0.342 C 
ATOM      8  O   UNL A   1      34.008  33.240  31.981  1.00  0.00    -0.246 OA
BRANCH   7   9
ATOM      9  C   UNL A   1      36.305  33.014  32.439  1.00  0.00     0.103 A 
ATOM     10  C   UNL A   1      37.663  31.211  33.332  1.00  0.00     0.032 A 
ATOM     11  C   UNL A   1      38.739  31.669  32.562  1.00  0.00     0.029 A 
ATOM     12  C   UNL A   1      36.439  31.884  33.256  1.00  0.00     0.045 A 
ATOM     13  C   UNL A   1      38.617  32.805  31.759  1.00  0.00     0.049 A 
ATOM     14  C   UNL A   1      37.400  33.468  31.690  1.00  0.00     0.130 A 
BRANCH  10  15
ATOM     15  N   UNL A   1      37.784  30.044  34.067  1.00  0.00    -0.399 N 
ATOM     16  H   UNL A   1      38.191  30.067  34.963  1.00  0.00     0.156 HD
ATOM     17  H   UNL A   1      37.464  29.191  33.693  1.00  0.00     0.156 HD
ENDBRANCH  10  15
BRANCH  14  18
ATOM     18  O   UNL A   1      37.351  34.574  30.885  1.00  0.00    -0.507 OA
ATOM     19  H   UNL A   1      37.290  34.475  29.955  1.00  0.00     0.293 HD
ENDBRANCH  14  18
ENDBRANCH   7   9
ENDBRANCH   6   7
ENDBRANCH   5   6
ENDBRANCH   4   5
ENDBRANCH   3   4
ENDBRANCH   2   3
ENDBRANCH   1   2
BRANCH   1  20
ATOM     20  O   UNL A   1      33.271  35.110  28.864  1.00  0.00    -0.376 OA
BRANCH  20  21
ATOM     21  C   UNL A   1      34.597  34.624  28.756  1.00  0.00     0.202 C 
BRANCH  21  22
ATOM     22  C   UNL A   1      34.973  33.271  28.137  1.00  0.00     0.261 C 
BRANCH  22  23
ATOM     23  O   UNL A   1      35.334  32.232  29.046  1.00  0.00    -0.460 OA
BRANCH  23  24
ATOM     24  C   UNL A   1      35.140  30.974  28.577  1.00  0.00     0.338 C 
ATOM     25  O   UNL A   1      34.124  30.507  28.095  1.00  0.00    -0.246 OA
BRANCH  24  26
ATOM     26  C   UNL A   1      36.420  30.249  28.601  1.00  0.00     0.060 A 
ATOM     27  C   UNL A   1      36.885  29.755  29.826  1.00  0.00     0.016 A 
ATOM     28  C   UNL A   1      37.182  30.114  27.439  1.00  0.00     0.016 A 
ATOM     29  C   UNL A   1      38.133  29.142  29.897  1.00  0.00     0.010 A 
ATOM     30  C   UNL A   1      38.442  29.517  27.518  1.00  0.00     0.010 A 
ATOM     31  C   UNL A   1      38.935  29.054  28.751  1.00  0.00    -0.014 A 
BRANCH  31  32
ATOM     32  C   UNL A   1      40.350  28.632  28.870  1.00  0.00     0.031 A 
ATOM     33  C   UNL A   1      41.362  29.629  29.364  1.00  0.00     0.074 A 
ATOM     34  C   UNL A   1      40.731  27.382  28.553  1.00  0.00     0.049 A 
ATOM     35  N   UNL A   1      42.658  29.506  29.488  1.00  0.00    -0.248 NA
ATOM     36  C   UNL A   1      40.839  30.943  29.772  1.00  0.00     0.031 C 
ATOM     37  C   UNL A   1      39.842  26.313  28.104  1.00  0.00     0.029 A 
ATOM     38  N   UNL A   1      41.979  26.810  28.550  1.00  0.00    -0.354 N 
ATOM     39  C   UNL A   1      43.106  30.722  29.985  1.00  0.00     0.074 A 
ATOM     40  C   UNL A   1      41.948  31.581  30.113  1.00  0.00     0.031 C 
ATOM     41  C   UNL A   1      40.577  25.216  27.850  1.00  0.00     0.029 A 
ATOM     42  C   UNL A   1      41.988  25.516  28.089  1.00  0.00     0.049 A 
ATOM     43  H   UNL A   1      42.790  27.282  28.849  1.00  0.00     0.167 HD
ATOM     44  C   UNL A   1      44.367  31.088  30.314  1.00  0.00     0.037 A 
ATOM     45  C   UNL A   1      43.022  24.682  27.865  1.00  0.00     0.037 A 
ATOM     46  C   UNL A   1      45.519  30.238  30.182  1.00  0.00     0.049 A 
ATOM     47  C   UNL A   1      44.426  25.144  28.161  1.00  0.00     0.074 A 
ATOM     48  C   UNL A   1      46.838  30.518  30.499  1.00  0.00     0.029 A 
ATOM     49  N   UNL A   1      45.492  28.944  29.686  1.00  0.00    -0.354 N 
ATOM     50  N   UNL A   1      44.838  26.287  28.654  1.00  0.00    -0.248 NA
ATOM     51  C   UNL A   1      45.511  24.193  27.872  1.00  0.00     0.031 C 
ATOM     52  C   UNL A   1      47.615  29.408  30.151  1.00  0.00     0.029 A 
ATOM     53  C   UNL A   1      46.774  28.420  29.666  1.00  0.00     0.049 A 
ATOM     54  H   UNL A   1      44.682  28.468  29.392  1.00  0.00     0.167 HD
ATOM     55  C   UNL A   1      46.219  26.182  28.762  1.00  0.00     0.074 A 
ATOM     56  C   UNL A   1      46.576  24.858  28.294  1.00  0.00     0.031 C 
ATOM     57  C   UNL A   1      47.112  27.097  29.211  1.00  0.00     0.037 A 
BRANCH  44  58
ATOM     58  C   UNL A   1      44.567  32.482  30.831  1.00  0.00     0.057 A 
ATOM     59  C   UNL A   1      44.527  32.773  32.200  1.00  0.00     0.134 A 
ATOM     60  C   UNL A   1      44.843  33.536  29.952  1.00  0.00     0.134 A 
ATOM     61  F   UNL A   1      44.252  31.809  33.093  1.00  0.00    -0.206 F 
ATOM     62  C   UNL A   1      44.737  34.069  32.677  1.00  0.00     0.040 A 
ATOM     63  C   UNL A   1      45.079  34.830  30.417  1.00  0.00     0.040 A 
ATOM     64  F   UNL A   1      44.899  33.323  28.628  1.00  0.00    -0.206 F 
ATOM     65  C   UNL A   1      45.021  35.100  31.784  1.00  0.00     0.006 A 
ENDBRANCH  44  58
BRANCH  45  66
ATOM     66  C   UNL A   1      42.782  23.327  27.308  1.00  0.00     0.057 A 
ATOM     67  C   UNL A   1      42.845  23.086  25.931  1.00  0.00     0.134 A 
ATOM     68  C   UNL A   1      42.440  22.251  28.136  1.00  0.00     0.134 A 
ATOM     69  F   UNL A   1      43.139  24.084  25.084  1.00  0.00    -0.206 F 
ATOM     70  C   UNL A   1      42.552  21.832  25.393  1.00  0.00     0.040 A 
ATOM     71  C   UNL A   1      42.170  20.985  27.614  1.00  0.00     0.040 A 
ATOM     72  F   UNL A   1      42.359  22.417  29.464  1.00  0.00    -0.206 F 
ATOM     73  C   UNL A   1      42.217  20.775  26.238  1.00  0.00     0.006 A 
ENDBRANCH  45  66
BRANCH  57  74
ATOM     74  C   UNL A   1      48.557  26.688  29.259  1.00  0.00     0.057 A 
ATOM     75  C   UNL A   1      49.090  25.978  30.342  1.00  0.00     0.134 A 
ATOM     76  C   UNL A   1      49.411  26.969  28.185  1.00  0.00     0.134 A 
ATOM     77  F   UNL A   1      48.328  25.686  31.406  1.00  0.00    -0.206 F 
ATOM     78  C   UNL A   1      50.429  25.581  30.364  1.00  0.00     0.040 A 
ATOM     79  C   UNL A   1      50.744  26.555  28.184  1.00  0.00     0.040 A 
ATOM     80  F   UNL A   1      48.961  27.636  27.112  1.00  0.00    -0.206 F 
ATOM     81  C   UNL A   1      51.258  25.863  29.279  1.00  0.00     0.006 A 
ENDBRANCH  57  74
ENDBRANCH  31  32
ENDBRANCH  24  26
ENDBRANCH  23  24
ENDBRANCH  22  23
ENDBRANCH  21  22
ENDBRANCH  20  21
ENDBRANCH   1  20
TORSDOF 19
ENDMDL
MODEL 3
REMARK VINA RESULT:      -9.5      4.009      8.909
REMARK SMILES Nc1ccc(O)c(C(=O)OCCOCCOCCOC(=O)c2ccc(-c3c4nc(c(-c5c(F)cccc5F)c5ccc([nH]5)c(-c5c(F)cccc5F)c5nc(c(-c6c(F)cccc6F)c6ccc3[nH]6)C=C5)C=C4)cc2)c1
REMARK SMILES IDX 15 1 14 2 13 3 12 4 11 5 10 6 8 7 9 8 7 9 2 10 3 11 76 12
REMARK SMILES IDX 4 13 5 14 1 15 6 18 16 20 17 21 18 22 19 23 20 24 21 25
REMARK SMILES IDX 22 26 23 27 75 28 24 29 74 30 25 31 26 32 27 33 68 34 28 35
REMARK SMILES IDX 73 36 67 37 69 38 29 39 72 40 66 41 65 42 30 44 56 45 39 46
REMARK SMILES IDX 55 47 40 48 43 49 54 50 70 51 41 52 42 53 53 55 71 56 44 57
REMARK SMILES IDX 31 58 32 59 37 60 33 61 34 62 36 63 38 64 35 65 57 66 58 67
REMARK SMILES IDX 63 68 59 69 60 70 62 71 64 72 61 73 45 74 46 75 51 76 47 77
REMARK SMILES IDX 48 78 50 79 52 80 49 81
REMARK H PARENT 1 16 1 17 6 19 69 43 43 54
REMARK Flexibility Score: inf
ROOT
ATOM      1  C   UNL A   1      33.563  29.054  26.274  1.00  0.00     0.188 C 
ENDROOT
BRANCH   1   2
ATOM      2  C   UNL A   1      32.521  27.924  26.396  1.00  0.00     0.188 C 
BRANCH   2   3
ATOM      3  O   UNL A   1      32.759  26.636  25.859  1.00  0.00    -0.376 OA
BRANCH   3   4
ATOM      4  C   UNL A   1      32.030  25.519  26.336  1.00  0.00     0.202 C 
BRANCH   4   5
ATOM      5  C   UNL A   1      30.789  25.035  25.583  1.00  0.00     0.261 C 
BRANCH   5   6
ATOM      6  O   UNL A   1      29.997  26.095  25.026  1.00  0.00    -0.460 OA
BRANCH   6   7
ATOM      7  C   UNL A   1      30.235  26.363  23.720  1.00  0.00     0.342 C 
ATOM      8  O   UNL A   1      30.847  25.663  22.926  1.00  0.00    -0.246 OA
BRANCH   7   9
ATOM      9  C   UNL A   1      29.447  27.525  23.265  1.00  0.00     0.103 A 
ATOM     10  C   UNL A   1      29.276  29.725  22.256  1.00  0.00     0.032 A 
ATOM     11  C   UNL A   1      27.894  29.695  22.477  1.00  0.00     0.029 A 
ATOM     12  C   UNL A   1      30.049  28.626  22.643  1.00  0.00     0.045 A 
ATOM     13  C   UNL A   1      27.290  28.608  23.112  1.00  0.00     0.049 A 
ATOM     14  C   UNL A   1      28.065  27.522  23.495  1.00  0.00     0.130 A 
BRANCH  10  15
ATOM     15  N   UNL A   1      29.844  30.781  21.563  1.00  0.00    -0.399 N 
ATOM     16  H   UNL A   1      30.482  31.380  22.015  1.00  0.00     0.156 HD
ATOM     17  H   UNL A   1      29.609  30.934  20.620  1.00  0.00     0.156 HD
ENDBRANCH  10  15
BRANCH  14  18
ATOM     18  O   UNL A   1      27.410  26.491  24.113  1.00  0.00    -0.507 OA
ATOM     19  H   UNL A   1      26.502  26.575  24.331  1.00  0.00     0.293 HD
ENDBRANCH  14  18
ENDBRANCH   7   9
ENDBRANCH   6   7
ENDBRANCH   5   6
ENDBRANCH   4   5
ENDBRANCH   3   4
ENDBRANCH   2   3
ENDBRANCH   1   2
BRANCH   1  20
ATOM     20  O   UNL A   1      33.173  30.398  26.094  1.00  0.00    -0.376 OA
BRANCH  20  21
ATOM     21  C   UNL A   1      32.034  30.937  26.739  1.00  0.00     0.202 C 
BRANCH  21  22
ATOM     22  C   UNL A   1      31.724  32.436  26.836  1.00  0.00     0.261 C 
BRANCH  22  23
ATOM     23  O   UNL A   1      32.840  33.324  26.769  1.00  0.00    -0.460 OA
BRANCH  23  24
ATOM     24  C   UNL A   1      33.222  33.848  27.960  1.00  0.00     0.338 C 
ATOM     25  O   UNL A   1      32.630  34.668  28.638  1.00  0.00    -0.246 OA
BRANCH  24  26
ATOM     26  C   UNL A   1      34.439  33.160  28.418  1.00  0.00     0.060 A 
ATOM     27  C   UNL A   1      34.302  31.945  29.101  1.00  0.00     0.016 A 
ATOM     28  C   UNL A   1      35.695  33.738  28.230  1.00  0.00     0.016 A 
ATOM     29  C   UNL A   1      35.428  31.313  29.624  1.00  0.00     0.010 A 
ATOM     30  C   UNL A   1      36.820  33.112  28.772  1.00  0.00     0.010 A 
ATOM     31  C   UNL A   1      36.688  31.913  29.495  1.00  0.00    -0.014 A 
BRANCH  31  32
ATOM     32  C   UNL A   1      37.841  31.376  30.254  1.00  0.00     0.031 A 
ATOM     33  C   UNL A   1      38.735  30.364  29.590  1.00  0.00     0.074 A 
ATOM     34  C   UNL A   1      38.097  31.784  31.509  1.00  0.00     0.049 A 
ATOM     35  N   UNL A   1      39.759  29.713  30.078  1.00  0.00    -0.248 NA
ATOM     36  C   UNL A   1      38.429  30.046  28.186  1.00  0.00     0.031 C 
ATOM     37  C   UNL A   1      37.335  32.787  32.247  1.00  0.00     0.029 A 
ATOM     38  N   UNL A   1      39.074  31.385  32.389  1.00  0.00    -0.354 N 
ATOM     39  C   UNL A   1      40.219  28.908  29.045  1.00  0.00     0.074 A 
ATOM     40  C   UNL A   1      39.346  29.129  27.912  1.00  0.00     0.031 C 
ATOM     41  C   UNL A   1      37.860  32.913  33.479  1.00  0.00     0.029 A 
ATOM     42  C   UNL A   1      38.975  31.979  33.624  1.00  0.00     0.049 A 
ATOM     43  H   UNL A   1      39.777  30.735  32.157  1.00  0.00     0.167 HD
ATOM     44  C   UNL A   1      41.279  28.066  29.037  1.00  0.00     0.037 A 
ATOM     45  C   UNL A   1      39.691  31.771  34.746  1.00  0.00     0.037 A 
ATOM     46  C   UNL A   1      42.144  27.840  30.163  1.00  0.00     0.049 A 
ATOM     47  C   UNL A   1      40.814  30.766  34.735  1.00  0.00     0.074 A 
ATOM     48  C   UNL A   1      43.250  27.012  30.248  1.00  0.00     0.029 A 
ATOM     49  N   UNL A   1      41.996  28.439  31.404  1.00  0.00    -0.354 N 
ATOM     50  N   UNL A   1      41.257  30.027  33.747  1.00  0.00    -0.248 NA
ATOM     51  C   UNL A   1      41.540  30.570  36.000  1.00  0.00     0.031 C 
ATOM     52  C   UNL A   1      43.744  27.076  31.555  1.00  0.00     0.029 A 
ATOM     53  C   UNL A   1      42.976  27.982  32.268  1.00  0.00     0.049 A 
ATOM     54  H   UNL A   1      41.297  29.093  31.637  1.00  0.00     0.167 HD
ATOM     55  C   UNL A   1      42.328  29.305  34.260  1.00  0.00     0.074 A 
ATOM     56  C   UNL A   1      42.476  29.702  35.644  1.00  0.00     0.031 C 
ATOM     57  C   UNL A   1      43.120  28.395  33.640  1.00  0.00     0.037 A 
BRANCH  44  58
ATOM     58  C   UNL A   1      41.548  27.308  27.770  1.00  0.00     0.057 A 
ATOM     59  C   UNL A   1      41.003  26.040  27.541  1.00  0.00     0.134 A 
ATOM     60  C   UNL A   1      42.330  27.872  26.754  1.00  0.00     0.134 A 
ATOM     61  F   UNL A   1      40.258  25.439  28.481  1.00  0.00    -0.206 F 
ATOM     62  C   UNL A   1      41.239  25.350  26.349  1.00  0.00     0.040 A 
ATOM     63  C   UNL A   1      42.553  27.203  25.550  1.00  0.00     0.040 A 
ATOM     64  F   UNL A   1      42.879  29.087  26.911  1.00  0.00    -0.206 F 
ATOM     65  C   UNL A   1      42.011  25.935  25.348  1.00  0.00     0.006 A 
ENDBRANCH  44  58
BRANCH  45  66
ATOM     66  C   UNL A   1      39.360  32.509  35.991  1.00  0.00     0.057 A 
ATOM     67  C   UNL A   1      39.986  33.721  36.305  1.00  0.00     0.134 A 
ATOM     68  C   UNL A   1      38.442  31.998  36.917  1.00  0.00     0.134 A 
ATOM     69  F   UNL A   1      40.895  34.246  35.472  1.00  0.00    -0.206 F 
ATOM     70  C   UNL A   1      39.731  34.386  37.506  1.00  0.00     0.040 A 
ATOM     71  C   UNL A   1      38.159  32.666  38.109  1.00  0.00     0.040 A 
ATOM     72  F   UNL A   1      37.811  30.839  36.677  1.00  0.00    -0.206 F 
ATOM     73  C   UNL A   1      38.812  33.859  38.411  1.00  0.00     0.006 A 
ENDBRANCH  45  66
BRANCH  57  74
ATOM     74  C   UNL A   1      44.243  27.799  34.438  1.00  0.00     0.057 A 
ATOM     75  C   UNL A   1      44.099  26.591  35.133  1.00  0.00     0.134 A 
ATOM     76  C   UNL A   1      45.499  28.419  34.471  1.00  0.00     0.134 A 
ATOM     77  F   UNL A   1      42.921  25.952  35.149  1.00  0.00    -0.206 F 
ATOM     78  C   UNL A   1      45.159  26.033  35.850  1.00  0.00     0.040 A 
ATOM     79  C   UNL A   1      46.573  27.857  35.164  1.00  0.00     0.040 A 
ATOM     80  F   UNL A   1      45.708  29.572  33.818  1.00  0.00    -0.206 F 
ATOM     81  C   UNL A   1      46.402  26.663  35.861  1.00  0.00     0.006 A 
ENDBRANCH  57  74
ENDBRANCH  31  32
ENDBRANCH  24  26
ENDBRANCH  23  24
ENDBRANCH  22  23
ENDBRANCH  21  22
ENDBRANCH  20  21
ENDBRANCH   1  20
TORSDOF 19
ENDMDL
