MODEL 1
REMARK VINA RESULT:     -12.4      0.000      0.000
REMARK SMILES O=C(OCCOCCOCCOC(=O)c1ccc(-c2c3nc(c(-c4c(F)cccc4F)c4ccc([nH]4)c(-c4c(F)cccc4F)c4nc(c(-c5c(F)cccc5F)c5ccc2[nH]5)C=C4)C=C3)cc1)C1=Cc2cc(C(F)(F)F)ccc2O[C@@H]1C(F)(F)F
REMARK SMILES IDX 8 1 7 2 6 3 5 4 4 5 3 6 2 7 1 8 69 9 70 10 82 11 71 12 81 13
REMARK SMILES IDX 72 14 80 15 73 16 79 17 78 18 83 19 84 20 85 21 86 22 74 23
REMARK SMILES IDX 75 24 76 25 77 26 9 27 10 28 11 29 12 30 13 31 14 32 15 33
REMARK SMILES IDX 16 34 68 35 17 36 67 37 18 38 19 39 20 40 61 41 21 42 66 43
REMARK SMILES IDX 60 44 62 45 22 46 65 47 59 48 58 49 23 51 49 52 32 53 48 54
REMARK SMILES IDX 33 55 36 56 47 57 63 58 34 59 35 60 46 62 64 63 37 64 24 65
REMARK SMILES IDX 25 66 30 67 26 68 27 69 29 70 31 71 28 72 50 73 51 74 56 75
REMARK SMILES IDX 52 76 53 77 55 78 57 79 54 80 38 81 39 82 44 83 40 84 41 85
REMARK SMILES IDX 43 86 45 87 42 88
REMARK H PARENT 62 50 36 61
REMARK Flexibility Score: inf
ROOT
ATOM      1  C   UNL A   1      42.850  20.637  25.749  1.00  0.00     0.188 C 
ENDROOT
BRANCH   1   2
ATOM      2  C   UNL A   1      42.113  21.570  26.722  1.00  0.00     0.188 C 
BRANCH   2   3
ATOM      3  O   UNL A   1      40.784  22.206  26.400  1.00  0.00    -0.376 OA
BRANCH   3   4
ATOM      4  C   UNL A   1      39.265  21.395  26.086  1.00  0.00     0.202 C 
BRANCH   4   5
ATOM      5  C   UNL A   1      37.569  22.386  25.153  1.00  0.00     0.261 C 
BRANCH   5   6
ATOM      6  O   UNL A   1      36.451  21.719  24.380  1.00  0.00    -0.460 OA
BRANCH   6   7
ATOM      7  C   UNL A   1      35.605  22.624  23.870  1.00  0.00     0.338 C 
ATOM      8  O   UNL A   1      35.842  23.476  23.048  1.00  0.00    -0.246 OA
BRANCH   7   9
ATOM      9  C   UNL A   1      34.621  22.601  24.945  1.00  0.00     0.087 C 
ATOM     10  C   UNL A   1      34.469  23.819  25.718  1.00  0.00     0.027 C 
ATOM     11  C   UNL A   1      33.281  21.887  23.787  1.00  0.00     0.316 C 
ATOM     12  C   UNL A   1      33.152  25.000  25.504  1.00  0.00     0.018 A 
ATOM     13  O   UNL A   1      31.926  23.244  23.364  1.00  0.00    -0.475 OA
ATOM     14  C   UNL A   1      33.136  26.108  26.297  1.00  0.00     0.025 A 
ATOM     15  C   UNL A   1      31.920  24.815  24.312  1.00  0.00     0.128 A 
ATOM     16  C   UNL A   1      32.052  26.991  26.095  1.00  0.00     0.056 A 
ATOM     17  C   UNL A   1      30.885  25.696  24.169  1.00  0.00     0.048 A 
ATOM     18  C   UNL A   1      30.987  26.779  25.091  1.00  0.00     0.017 A 
BRANCH  11  19
ATOM     19  C   UNL A   1      33.204  20.452  24.716  1.00  0.00     0.430 C 
ATOM     20  F   UNL A   1      33.110  20.478  26.049  1.00  0.00    -0.167 F 
ATOM     21  F   UNL A   1      32.165  19.700  24.269  1.00  0.00    -0.167 F 
ATOM     22  F   UNL A   1      34.309  19.661  24.512  1.00  0.00    -0.167 F 
ENDBRANCH  11  19
BRANCH  16  23
ATOM     23  C   UNL A   1      32.030  28.195  27.031  1.00  0.00     0.416 C 
ATOM     24  F   UNL A   1      33.188  28.305  27.741  1.00  0.00    -0.166 F 
ATOM     25  F   UNL A   1      31.910  29.370  26.348  1.00  0.00    -0.166 F 
ATOM     26  F   UNL A   1      31.023  28.181  27.940  1.00  0.00    -0.166 F 
ENDBRANCH  16  23
ENDBRANCH   7   9
ENDBRANCH   6   7
ENDBRANCH   5   6
ENDBRANCH   4   5
ENDBRANCH   3   4
ENDBRANCH   2   3
ENDBRANCH   1   2
BRANCH   1  27
ATOM     27  O   UNL A   1      44.251  20.724  25.681  1.00  0.00    -0.376 OA
BRANCH  27  28
ATOM     28  C   UNL A   1      44.752  22.039  25.490  1.00  0.00     0.202 C 
BRANCH  28  29
ATOM     29  C   UNL A   1      44.215  22.844  24.287  1.00  0.00     0.261 C 
BRANCH  29  30
ATOM     30  O   UNL A   1      43.640  24.135  24.620  1.00  0.00    -0.460 OA
BRANCH  30  31
ATOM     31  C   UNL A   1      44.464  25.093  25.123  1.00  0.00     0.338 C 
ATOM     32  O   UNL A   1      45.550  25.432  24.687  1.00  0.00    -0.246 OA
BRANCH  31  33
ATOM     33  C   UNL A   1      43.793  25.803  26.239  1.00  0.00     0.060 A 
ATOM     34  C   UNL A   1      44.182  27.105  26.589  1.00  0.00     0.016 A 
ATOM     35  C   UNL A   1      42.800  25.155  26.972  1.00  0.00     0.016 A 
ATOM     36  C   UNL A   1      43.523  27.789  27.621  1.00  0.00     0.010 A 
ATOM     37  C   UNL A   1      42.185  25.817  28.041  1.00  0.00     0.010 A 
ATOM     38  C   UNL A   1      42.532  27.140  28.370  1.00  0.00    -0.014 A 
BRANCH  38  39
ATOM     39  C   UNL A   1      41.977  27.764  29.601  1.00  0.00     0.031 A 
ATOM     40  C   UNL A   1      40.735  28.601  29.475  1.00  0.00     0.074 A 
ATOM     41  C   UNL A   1      42.573  27.629  30.801  1.00  0.00     0.049 A 
ATOM     42  N   UNL A   1      40.128  29.328  30.375  1.00  0.00    -0.248 NA
ATOM     43  C   UNL A   1      40.100  28.627  28.146  1.00  0.00     0.031 C 
ATOM     44  C   UNL A   1      43.764  26.826  31.062  1.00  0.00     0.029 A 
ATOM     45  N   UNL A   1      42.267  28.178  32.025  1.00  0.00    -0.354 N 
ATOM     46  C   UNL A   1      39.051  29.911  29.722  1.00  0.00     0.074 A 
ATOM     47  C   UNL A   1      39.093  29.465  28.346  1.00  0.00     0.031 C 
ATOM     48  C   UNL A   1      44.094  26.939  32.362  1.00  0.00     0.029 A 
ATOM     49  C   UNL A   1      43.169  27.864  33.016  1.00  0.00     0.049 A 
ATOM     50  H   UNL A   1      41.476  28.744  32.177  1.00  0.00     0.167 HD
ATOM     51  C   UNL A   1      38.114  30.750  30.223  1.00  0.00     0.037 A 
ATOM     52  C   UNL A   1      43.260  28.305  34.289  1.00  0.00     0.037 A 
ATOM     53  C   UNL A   1      38.083  31.205  31.587  1.00  0.00     0.049 A 
ATOM     54  C   UNL A   1      42.244  29.302  34.797  1.00  0.00     0.074 A 
ATOM     55  C   UNL A   1      37.157  32.036  32.193  1.00  0.00     0.029 A 
ATOM     56  N   UNL A   1      39.027  30.887  32.551  1.00  0.00    -0.354 N 
ATOM     57  N   UNL A   1      41.202  29.810  34.185  1.00  0.00    -0.248 NA
ATOM     58  C   UNL A   1      42.423  29.796  36.172  1.00  0.00     0.031 C 
ATOM     59  C   UNL A   1      37.583  32.286  33.500  1.00  0.00     0.029 A 
ATOM     60  C   UNL A   1      38.728  31.543  33.734  1.00  0.00     0.049 A 
ATOM     61  H   UNL A   1      39.795  30.286  32.415  1.00  0.00     0.167 HD
ATOM     62  C   UNL A   1      40.592  30.659  35.103  1.00  0.00     0.074 A 
ATOM     63  C   UNL A   1      41.361  30.573  36.325  1.00  0.00     0.031 C 
ATOM     64  C   UNL A   1      39.500  31.446  34.947  1.00  0.00     0.037 A 
BRANCH  51  65
ATOM     65  C   UNL A   1      37.065  31.271  29.285  1.00  0.00     0.057 A 
ATOM     66  C   UNL A   1      35.959  30.501  28.905  1.00  0.00     0.134 A 
ATOM     67  C   UNL A   1      37.129  32.588  28.814  1.00  0.00     0.134 A 
ATOM     68  F   UNL A   1      35.843  29.227  29.309  1.00  0.00    -0.206 F 
ATOM     69  C   UNL A   1      34.959  31.021  28.081  1.00  0.00     0.040 A 
ATOM     70  C   UNL A   1      36.120  33.129  28.016  1.00  0.00     0.040 A 
ATOM     71  F   UNL A   1      38.161  33.381  29.144  1.00  0.00    -0.206 F 
ATOM     72  C   UNL A   1      35.032  32.343  27.645  1.00  0.00     0.006 A 
ENDBRANCH  51  65
BRANCH  52  73
ATOM     73  C   UNL A   1      44.379  27.868  35.175  1.00  0.00     0.057 A 
ATOM     74  C   UNL A   1      45.599  28.557  35.210  1.00  0.00     0.134 A 
ATOM     75  C   UNL A   1      44.287  26.700  35.945  1.00  0.00     0.134 A 
ATOM     76  F   UNL A   1      45.771  29.665  34.473  1.00  0.00    -0.206 F 
ATOM     77  C   UNL A   1      46.691  28.084  35.942  1.00  0.00     0.040 A 
ATOM     78  C   UNL A   1      45.357  26.237  36.713  1.00  0.00     0.040 A 
ATOM     79  F   UNL A   1      43.154  25.982  35.955  1.00  0.00    -0.206 F 
ATOM     80  C   UNL A   1      46.570  26.921  36.700  1.00  0.00     0.006 A 
ENDBRANCH  52  73
BRANCH  64  81
ATOM     81  C   UNL A   1      39.046  32.251  36.134  1.00  0.00     0.057 A 
ATOM     82  C   UNL A   1      39.440  33.583  36.323  1.00  0.00     0.134 A 
ATOM     83  C   UNL A   1      38.166  31.701  37.076  1.00  0.00     0.134 A 
ATOM     84  F   UNL A   1      40.287  34.171  35.464  1.00  0.00    -0.206 F 
ATOM     85  C   UNL A   1      39.002  34.325  37.422  1.00  0.00     0.040 A 
ATOM     86  C   UNL A   1      37.691  32.445  38.157  1.00  0.00     0.040 A 
ATOM     87  F   UNL A   1      37.735  30.437  36.949  1.00  0.00    -0.206 F 
ATOM     88  C   UNL A   1      38.118  33.758  38.338  1.00  0.00     0.006 A 
ENDBRANCH  64  81
ENDBRANCH  38  39
ENDBRANCH  31  33
ENDBRANCH  30  31
ENDBRANCH  29  30
ENDBRANCH  28  29
ENDBRANCH  27  28
ENDBRANCH   1  27
TORSDOF 19
ENDMDL
MODEL 2
REMARK VINA RESULT:     -12.2      2.972      9.023
REMARK SMILES O=C(OCCOCCOCCOC(=O)c1ccc(-c2c3nc(c(-c4c(F)cccc4F)c4ccc([nH]4)c(-c4c(F)cccc4F)c4nc(c(-c5c(F)cccc5F)c5ccc2[nH]5)C=C4)C=C3)cc1)C1=Cc2cc(C(F)(F)F)ccc2O[C@@H]1C(F)(F)F
REMARK SMILES IDX 8 1 7 2 6 3 5 4 4 5 3 6 2 7 1 8 69 9 70 10 82 11 71 12 81 13
REMARK SMILES IDX 72 14 80 15 73 16 79 17 78 18 83 19 84 20 85 21 86 22 74 23
REMARK SMILES IDX 75 24 76 25 77 26 9 27 10 28 11 29 12 30 13 31 14 32 15 33
REMARK SMILES IDX 16 34 68 35 17 36 67 37 18 38 19 39 20 40 61 41 21 42 66 43
REMARK SMILES IDX 60 44 62 45 22 46 65 47 59 48 58 49 23 51 49 52 32 53 48 54
REMARK SMILES IDX 33 55 36 56 47 57 63 58 34 59 35 60 46 62 64 63 37 64 24 65
REMARK SMILES IDX 25 66 30 67 26 68 27 69 29 70 31 71 28 72 50 73 51 74 56 75
REMARK SMILES IDX 52 76 53 77 55 78 57 79 54 80 38 81 39 82 44 83 40 84 41 85
REMARK SMILES IDX 43 86 45 87 42 88
REMARK H PARENT 62 50 36 61
REMARK Flexibility Score: inf
ROOT
ATOM      1  C   UNL A   1      32.675  30.485  26.006  1.00  0.00     0.188 C 
ENDROOT
BRANCH   1   2
ATOM      2  C   UNL A   1      32.336  29.365  25.010  1.00  0.00     0.188 C 
BRANCH   2   3
ATOM      3  O   UNL A   1      30.941  29.122  24.494  1.00  0.00    -0.376 OA
BRANCH   3   4
ATOM      4  C   UNL A   1      30.480  28.279  23.031  1.00  0.00     0.202 C 
BRANCH   4   5
ATOM      5  C   UNL A   1      31.656  26.658  22.182  1.00  0.00     0.261 C 
BRANCH   5   6
ATOM      6  O   UNL A   1      31.443  25.177  22.410  1.00  0.00    -0.460 OA
BRANCH   6   7
ATOM      7  C   UNL A   1      32.610  24.532  22.539  1.00  0.00     0.338 C 
ATOM      8  O   UNL A   1      33.397  24.247  21.668  1.00  0.00    -0.246 OA
BRANCH   7   9
ATOM      9  C   UNL A   1      32.332  23.872  23.809  1.00  0.00     0.087 C 
ATOM     10  C   UNL A   1      32.024  22.457  23.756  1.00  0.00     0.027 C 
ATOM     11  C   UNL A   1      33.908  24.603  24.604  1.00  0.00     0.316 C 
ATOM     12  C   UNL A   1      33.174  21.152  24.148  1.00  0.00     0.018 A 
ATOM     13  O   UNL A   1      35.274  23.216  24.851  1.00  0.00    -0.475 OA
ATOM     14  C   UNL A   1      32.751  19.861  24.049  1.00  0.00     0.025 A 
ATOM     15  C   UNL A   1      34.806  21.458  24.615  1.00  0.00     0.128 A 
ATOM     16  C   UNL A   1      33.701  18.875  24.400  1.00  0.00     0.056 A 
ATOM     17  C   UNL A   1      35.680  20.465  24.956  1.00  0.00     0.048 A 
ATOM     18  C   UNL A   1      35.082  19.175  24.837  1.00  0.00     0.017 A 
BRANCH  11  19
ATOM     19  C   UNL A   1      32.964  25.485  25.727  1.00  0.00     0.430 C 
ATOM     20  F   UNL A   1      32.282  24.881  26.704  1.00  0.00    -0.167 F 
ATOM     21  F   UNL A   1      33.754  26.414  26.322  1.00  0.00    -0.167 F 
ATOM     22  F   UNL A   1      31.989  26.221  25.096  1.00  0.00    -0.167 F 
ENDBRANCH  11  19
BRANCH  16  23
ATOM     23  C   UNL A   1      33.186  17.442  24.330  1.00  0.00     0.416 C 
ATOM     24  F   UNL A   1      33.967  16.588  25.051  1.00  0.00    -0.166 F 
ATOM     25  F   UNL A   1      31.935  17.323  24.859  1.00  0.00    -0.166 F 
ATOM     26  F   UNL A   1      33.117  16.931  23.075  1.00  0.00    -0.166 F 
ENDBRANCH  16  23
ENDBRANCH   7   9
ENDBRANCH   6   7
ENDBRANCH   5   6
ENDBRANCH   4   5
ENDBRANCH   3   4
ENDBRANCH   2   3
ENDBRANCH   1   2
BRANCH   1  27
ATOM     27  O   UNL A   1      31.677  30.899  26.903  1.00  0.00    -0.376 OA
BRANCH  27  28
ATOM     28  C   UNL A   1      31.395  32.291  26.870  1.00  0.00     0.202 C 
BRANCH  28  29
ATOM     29  C   UNL A   1      32.569  33.266  27.097  1.00  0.00     0.261 C 
BRANCH  29  30
ATOM     30  O   UNL A   1      32.326  34.301  28.086  1.00  0.00    -0.460 OA
BRANCH  30  31
ATOM     31  C   UNL A   1      33.396  34.988  28.571  1.00  0.00     0.338 C 
ATOM     32  O   UNL A   1      33.483  36.192  28.738  1.00  0.00    -0.246 OA
BRANCH  31  33
ATOM     33  C   UNL A   1      34.445  34.040  29.018  1.00  0.00     0.060 A 
ATOM     34  C   UNL A   1      34.119  32.965  29.860  1.00  0.00     0.016 A 
ATOM     35  C   UNL A   1      35.769  34.244  28.635  1.00  0.00     0.016 A 
ATOM     36  C   UNL A   1      35.106  32.048  30.254  1.00  0.00     0.010 A 
ATOM     37  C   UNL A   1      36.763  33.363  29.078  1.00  0.00     0.010 A 
ATOM     38  C   UNL A   1      36.441  32.255  29.882  1.00  0.00    -0.014 A 
BRANCH  38  39
ATOM     39  C   UNL A   1      37.530  31.425  30.465  1.00  0.00     0.031 A 
ATOM     40  C   UNL A   1      37.916  31.665  31.897  1.00  0.00     0.074 A 
ATOM     41  C   UNL A   1      38.191  30.504  29.740  1.00  0.00     0.049 A 
ATOM     42  N   UNL A   1      38.896  31.149  32.592  1.00  0.00    -0.248 NA
ATOM     43  C   UNL A   1      37.088  32.628  32.643  1.00  0.00     0.031 C 
ATOM     44  C   UNL A   1      37.899  30.157  28.352  1.00  0.00     0.029 A 
ATOM     45  N   UNL A   1      39.260  29.699  30.065  1.00  0.00    -0.354 N 
ATOM     46  C   UNL A   1      38.814  31.734  33.848  1.00  0.00     0.074 A 
ATOM     47  C   UNL A   1      37.698  32.654  33.819  1.00  0.00     0.031 C 
ATOM     48  C   UNL A   1      38.769  29.218  27.941  1.00  0.00     0.029 A 
ATOM     49  C   UNL A   1      39.716  28.931  29.017  1.00  0.00     0.049 A 
ATOM     50  H   UNL A   1      39.661  29.677  30.963  1.00  0.00     0.167 HD
ATOM     51  C   UNL A   1      39.605  31.528  34.927  1.00  0.00     0.037 A 
ATOM     52  C   UNL A   1      40.795  28.125  28.928  1.00  0.00     0.037 A 
ATOM     53  C   UNL A   1      40.724  30.624  34.950  1.00  0.00     0.049 A 
ATOM     54  C   UNL A   1      41.703  27.975  30.126  1.00  0.00     0.074 A 
ATOM     55  C   UNL A   1      41.567  30.330  36.006  1.00  0.00     0.029 A 
ATOM     56  N   UNL A   1      41.169  29.887  33.864  1.00  0.00    -0.354 N 
ATOM     57  N   UNL A   1      41.589  28.496  31.324  1.00  0.00    -0.248 NA
ATOM     58  C   UNL A   1      42.899  27.132  29.958  1.00  0.00     0.031 C 
ATOM     59  C   UNL A   1      42.570  29.477  35.540  1.00  0.00     0.029 A 
ATOM     60  C   UNL A   1      42.303  29.173  34.216  1.00  0.00     0.049 A 
ATOM     61  H   UNL A   1      40.743  29.872  32.976  1.00  0.00     0.167 HD
ATOM     62  C   UNL A   1      42.677  28.027  32.053  1.00  0.00     0.074 A 
ATOM     63  C   UNL A   1      43.423  27.153  31.174  1.00  0.00     0.031 C 
ATOM     64  C   UNL A   1      43.034  28.301  33.332  1.00  0.00     0.037 A 
BRANCH  51  65
ATOM     65  C   UNL A   1      39.320  32.323  36.168  1.00  0.00     0.057 A 
ATOM     66  C   UNL A   1      39.914  33.569  36.406  1.00  0.00     0.134 A 
ATOM     67  C   UNL A   1      38.382  31.864  37.101  1.00  0.00     0.134 A 
ATOM     68  F   UNL A   1      40.831  34.059  35.560  1.00  0.00    -0.206 F 
ATOM     69  C   UNL A   1      39.591  34.324  37.535  1.00  0.00     0.040 A 
ATOM     70  C   UNL A   1      38.028  32.625  38.216  1.00  0.00     0.040 A 
ATOM     71  F   UNL A   1      37.773  30.681  36.931  1.00  0.00    -0.206 F 
ATOM     72  C   UNL A   1      38.636  33.858  38.436  1.00  0.00     0.006 A 
ENDBRANCH  51  65
BRANCH  52  73
ATOM     73  C   UNL A   1      41.132  27.431  27.649  1.00  0.00     0.057 A 
ATOM     74  C   UNL A   1      40.683  26.131  27.380  1.00  0.00     0.134 A 
ATOM     75  C   UNL A   1      41.982  28.019  26.703  1.00  0.00     0.134 A 
ATOM     76  F   UNL A   1      39.893  25.493  28.257  1.00  0.00    -0.206 F 
ATOM     77  C   UNL A   1      41.096  25.431  26.243  1.00  0.00     0.040 A 
ATOM     78  C   UNL A   1      42.370  27.346  25.543  1.00  0.00     0.040 A 
ATOM     79  F   UNL A   1      42.458  29.258  26.896  1.00  0.00    -0.206 F 
ATOM     80  C   UNL A   1      41.940  26.041  25.318  1.00  0.00     0.006 A 
ENDBRANCH  52  73
BRANCH  64  81
ATOM     81  C   UNL A   1      44.263  27.624  33.873  1.00  0.00     0.057 A 
ATOM     82  C   UNL A   1      45.522  28.241  33.854  1.00  0.00     0.134 A 
ATOM     83  C   UNL A   1      44.179  26.355  34.463  1.00  0.00     0.134 A 
ATOM     84  F   UNL A   1      45.677  29.453  33.298  1.00  0.00    -0.206 F 
ATOM     85  C   UNL A   1      46.654  27.608  34.371  1.00  0.00     0.040 A 
ATOM     86  C   UNL A   1      45.296  25.729  35.017  1.00  0.00     0.040 A 
ATOM     87  F   UNL A   1      43.004  25.712  34.531  1.00  0.00    -0.206 F 
ATOM     88  C   UNL A   1      46.541  26.352  34.963  1.00  0.00     0.006 A 
ENDBRANCH  64  81
ENDBRANCH  38  39
ENDBRANCH  31  33
ENDBRANCH  30  31
ENDBRANCH  29  30
ENDBRANCH  28  29
ENDBRANCH  27  28
ENDBRANCH   1  27
TORSDOF 19
ENDMDL
MODEL 3
REMARK VINA RESULT:     -12.0      3.340      8.489
REMARK SMILES O=C(OCCOCCOCCOC(=O)c1ccc(-c2c3nc(c(-c4c(F)cccc4F)c4ccc([nH]4)c(-c4c(F)cccc4F)c4nc(c(-c5c(F)cccc5F)c5ccc2[nH]5)C=C4)C=C3)cc1)C1=Cc2cc(C(F)(F)F)ccc2O[C@@H]1C(F)(F)F
REMARK SMILES IDX 8 1 7 2 6 3 5 4 4 5 3 6 2 7 1 8 69 9 70 10 82 11 71 12 81 13
REMARK SMILES IDX 72 14 80 15 73 16 79 17 78 18 83 19 84 20 85 21 86 22 74 23
REMARK SMILES IDX 75 24 76 25 77 26 9 27 10 28 11 29 12 30 13 31 14 32 15 33
REMARK SMILES IDX 16 34 68 35 17 36 67 37 18 38 19 39 20 40 61 41 21 42 66 43
REMARK SMILES IDX 60 44 62 45 22 46 65 47 59 48 58 49 23 51 49 52 32 53 48 54
REMARK SMILES IDX 33 55 36 56 47 57 63 58 34 59 35 60 46 62 64 63 37 64 24 65
REMARK SMILES IDX 25 66 30 67 26 68 27 69 29 70 31 71 28 72 50 73 51 74 56 75
REMARK SMILES IDX 52 76 53 77 55 78 57 79 54 80 38 81 39 82 44 83 40 84 41 85
REMARK SMILES IDX 43 86 45 87 42 88
REMARK H PARENT 62 50 36 61
REMARK Flexibility Score: inf
ROOT
ATOM      1  C   UNL A   1      33.013  29.951  26.018  1.00  0.00     0.188 C 
ENDROOT
BRANCH   1   2
ATOM      2  C   UNL A   1      32.747  28.733  25.119  1.00  0.00     0.188 C 
BRANCH   2   3
ATOM      3  O   UNL A   1      31.367  28.177  24.879  1.00  0.00    -0.376 OA
BRANCH   3   4
ATOM      4  C   UNL A   1      30.692  26.692  25.515  1.00  0.00     0.202 C 
BRANCH   4   5
ATOM      5  C   UNL A   1      31.912  25.130  26.409  1.00  0.00     0.261 C 
BRANCH   5   6
ATOM      6  O   UNL A   1      33.410  24.967  26.269  1.00  0.00    -0.460 OA
BRANCH   6   7
ATOM      7  C   UNL A   1      33.768  23.678  26.334  1.00  0.00     0.338 C 
ATOM      8  O   UNL A   1      33.672  22.930  27.278  1.00  0.00    -0.246 OA
BRANCH   7   9
ATOM      9  C   UNL A   1      34.721  23.682  25.230  1.00  0.00     0.087 C 
ATOM     10  C   UNL A   1      36.128  23.666  25.582  1.00  0.00     0.027 C 
ATOM     11  C   UNL A   1      33.812  22.246  24.359  1.00  0.00     0.316 C 
ATOM     12  C   UNL A   1      37.170  22.221  25.534  1.00  0.00     0.018 A 
ATOM     13  O   UNL A   1      34.851  20.584  24.480  1.00  0.00    -0.475 OA
ATOM     14  C   UNL A   1      38.476  22.348  25.899  1.00  0.00     0.025 A 
ATOM     15  C   UNL A   1      36.584  20.664  25.079  1.00  0.00     0.128 A 
ATOM     16  C   UNL A   1      39.255  21.172  25.813  1.00  0.00     0.056 A 
ATOM     17  C   UNL A   1      37.385  19.561  25.001  1.00  0.00     0.048 A 
ATOM     18  C   UNL A   1      38.728  19.860  25.377  1.00  0.00     0.017 A 
BRANCH  11  19
ATOM     19  C   UNL A   1      33.433  23.257  23.031  1.00  0.00     0.430 C 
ATOM     20  F   UNL A   1      32.879  24.461  23.196  1.00  0.00    -0.167 F 
ATOM     21  F   UNL A   1      34.557  23.445  22.294  1.00  0.00    -0.167 F 
ATOM     22  F   UNL A   1      32.558  22.644  22.166  1.00  0.00    -0.167 F 
ENDBRANCH  11  19
BRANCH  16  23
ATOM     23  C   UNL A   1      40.724  21.354  26.176  1.00  0.00     0.416 C 
ATOM     24  F   UNL A   1      40.906  21.437  27.525  1.00  0.00    -0.166 F 
ATOM     25  F   UNL A   1      41.485  20.296  25.773  1.00  0.00    -0.166 F 
ATOM     26  F   UNL A   1      41.301  22.461  25.643  1.00  0.00    -0.166 F 
ENDBRANCH  16  23
ENDBRANCH   7   9
ENDBRANCH   6   7
ENDBRANCH   5   6
ENDBRANCH   4   5
ENDBRANCH   3   4
ENDBRANCH   2   3
ENDBRANCH   1   2
BRANCH   1  27
ATOM     27  O   UNL A   1      32.001  30.352  26.906  1.00  0.00    -0.376 OA
BRANCH  27  28
ATOM     28  C   UNL A   1      31.701  31.740  26.870  1.00  0.00     0.202 C 
BRANCH  28  29
ATOM     29  C   UNL A   1      32.692  32.706  27.554  1.00  0.00     0.261 C 
BRANCH  29  30
ATOM     30  O   UNL A   1      32.254  34.088  27.623  1.00  0.00    -0.460 OA
BRANCH  30  31
ATOM     31  C   UNL A   1      32.897  34.922  28.484  1.00  0.00     0.338 C 
ATOM     32  O   UNL A   1      32.519  36.013  28.873  1.00  0.00    -0.246 OA
BRANCH  31  33
ATOM     33  C   UNL A   1      34.108  34.256  29.024  1.00  0.00     0.060 A 
ATOM     34  C   UNL A   1      34.033  33.486  30.195  1.00  0.00     0.016 A 
ATOM     35  C   UNL A   1      35.335  34.433  28.388  1.00  0.00     0.016 A 
ATOM     36  C   UNL A   1      35.171  32.827  30.685  1.00  0.00     0.010 A 
ATOM     37  C   UNL A   1      36.482  33.824  28.912  1.00  0.00     0.010 A 
ATOM     38  C   UNL A   1      36.410  33.011  30.057  1.00  0.00    -0.014 A 
BRANCH  38  39
ATOM     39  C   UNL A   1      37.662  32.503  30.681  1.00  0.00     0.031 A 
ATOM     40  C   UNL A   1      38.308  31.284  30.087  1.00  0.00     0.074 A 
ATOM     41  C   UNL A   1      38.200  33.081  31.772  1.00  0.00     0.049 A 
ATOM     42  N   UNL A   1      39.334  30.595  30.513  1.00  0.00    -0.248 NA
ATOM     43  C   UNL A   1      37.705  30.766  28.847  1.00  0.00     0.031 C 
ATOM     44  C   UNL A   1      37.687  34.279  32.428  1.00  0.00     0.029 A 
ATOM     45  N   UNL A   1      39.291  32.726  32.532  1.00  0.00    -0.354 N 
ATOM     46  C   UNL A   1      39.491  29.556  29.606  1.00  0.00     0.074 A 
ATOM     47  C   UNL A   1      38.447  29.694  28.613  1.00  0.00     0.031 C 
ATOM     48  C   UNL A   1      38.455  34.559  33.496  1.00  0.00     0.029 A 
ATOM     49  C   UNL A   1      39.485  33.530  33.633  1.00  0.00     0.049 A 
ATOM     50  H   UNL A   1      39.877  31.968  32.309  1.00  0.00     0.167 HD
ATOM     51  C   UNL A   1      40.418  28.569  29.607  1.00  0.00     0.037 A 
ATOM     52  C   UNL A   1      40.365  33.422  34.651  1.00  0.00     0.037 A 
ATOM     53  C   UNL A   1      41.445  28.425  30.604  1.00  0.00     0.049 A 
ATOM     54  C   UNL A   1      41.337  32.265  34.664  1.00  0.00     0.074 A 
ATOM     55  C   UNL A   1      42.445  27.471  30.673  1.00  0.00     0.029 A 
ATOM     56  N   UNL A   1      41.592  29.241  31.715  1.00  0.00    -0.354 N 
ATOM     57  N   UNL A   1      41.508  31.314  33.777  1.00  0.00    -0.248 NA
ATOM     58  C   UNL A   1      42.234  32.158  35.827  1.00  0.00     0.031 C 
ATOM     59  C   UNL A   1      43.147  27.660  31.865  1.00  0.00     0.029 A 
ATOM     60  C   UNL A   1      42.639  28.782  32.497  1.00  0.00     0.049 A 
ATOM     61  H   UNL A   1      41.035  30.027  31.918  1.00  0.00     0.167 HD
ATOM     62  C   UNL A   1      42.541  30.517  34.261  1.00  0.00     0.074 A 
ATOM     63  C   UNL A   1      42.981  31.114  35.504  1.00  0.00     0.031 C 
ATOM     64  C   UNL A   1      43.072  29.389  33.731  1.00  0.00     0.037 A 
BRANCH  51  65
ATOM     65  C   UNL A   1      40.344  27.537  28.520  1.00  0.00     0.057 A 
ATOM     66  C   UNL A   1      41.055  27.668  27.321  1.00  0.00     0.134 A 
ATOM     67  C   UNL A   1      39.606  26.362  28.710  1.00  0.00     0.134 A 
ATOM     68  F   UNL A   1      41.770  28.775  27.069  1.00  0.00    -0.206 F 
ATOM     69  C   UNL A   1      41.025  26.670  26.345  1.00  0.00     0.040 A 
ATOM     70  C   UNL A   1      39.595  25.345  27.756  1.00  0.00     0.040 A 
ATOM     71  F   UNL A   1      38.906  26.172  29.839  1.00  0.00    -0.206 F 
ATOM     72  C   UNL A   1      40.304  25.498  26.568  1.00  0.00     0.006 A 
ENDBRANCH  51  65
BRANCH  52  73
ATOM     73  C   UNL A   1      40.348  34.390  35.787  1.00  0.00     0.057 A 
ATOM     74  C   UNL A   1      41.161  35.533  35.789  1.00  0.00     0.134 A 
ATOM     75  C   UNL A   1      39.583  34.154  36.937  1.00  0.00     0.134 A 
ATOM     76  F   UNL A   1      41.946  35.806  34.735  1.00  0.00    -0.206 F 
ATOM     77  C   UNL A   1      41.242  36.376  36.900  1.00  0.00     0.040 A 
ATOM     78  C   UNL A   1      39.624  35.010  38.039  1.00  0.00     0.040 A 
ATOM     79  F   UNL A   1      38.788  33.076  37.013  1.00  0.00    -0.206 F 
ATOM     80  C   UNL A   1      40.469  36.117  38.029  1.00  0.00     0.006 A 
ENDBRANCH  52  73
BRANCH  64  81
ATOM     81  C   UNL A   1      44.212  28.741  34.469  1.00  0.00     0.057 A 
ATOM     82  C   UNL A   1      45.545  29.117  34.255  1.00  0.00     0.134 A 
ATOM     83  C   UNL A   1      43.968  27.760  35.439  1.00  0.00     0.134 A 
ATOM     84  F   UNL A   1      45.852  30.045  33.335  1.00  0.00    -0.206 F 
ATOM     85  C   UNL A   1      46.594  28.517  34.955  1.00  0.00     0.040 A 
ATOM     86  C   UNL A   1      45.005  27.181  36.173  1.00  0.00     0.040 A 
ATOM     87  F   UNL A   1      42.715  27.363  35.708  1.00  0.00    -0.206 F 
ATOM     88  C   UNL A   1      46.324  27.553  35.924  1.00  0.00     0.006 A 
ENDBRANCH  64  81
ENDBRANCH  38  39
ENDBRANCH  31  33
ENDBRANCH  30  31
ENDBRANCH  29  30
ENDBRANCH  28  29
ENDBRANCH  27  28
ENDBRANCH   1  27
TORSDOF 19
ENDMDL
