MODEL 1
REMARK VINA RESULT:     -11.1      0.000      0.000
REMARK SMILES Cc1ccc(NC(=O)CN2C(=O)S/C(=C\c3cc(Cl)c(OCC(=O)OCCOCCOCCOC(=O)c4ccc(-c5c6nc(c(-c7c(F)cccc7F)c7ccc([nH]7)c(-c7c(F)cccc7F)c7nc(c(-c8c(F)cccc8F)c8ccc5[nH]8)C=C7)C=C6)cc4)c(Cl)c3)C2=O)cc1
REMARK SMILES IDX 27 1 26 2 25 3 23 4 24 5 22 6 21 7 20 8 16 9 17 10 93 11
REMARK SMILES IDX 18 12 91 13 19 14 92 15 15 16 10 17 11 18 94 19 12 20 13 21
REMARK SMILES IDX 14 22 95 23 9 24 7 25 6 26 8 28 5 29 1 30 2 31 3 32 97 33
REMARK SMILES IDX 4 34 96 35 28 36 29 37 30 38 31 39 32 40 33 41 34 42 35 43
REMARK SMILES IDX 36 44 37 45 38 46 90 47 39 48 89 49 40 50 41 51 42 52 83 53
REMARK SMILES IDX 43 54 88 55 82 56 84 57 44 58 87 59 81 60 80 61 45 63 71 64
REMARK SMILES IDX 54 65 70 66 55 67 58 68 69 69 85 70 56 71 57 72 68 74 86 75
REMARK SMILES IDX 59 76 46 77 47 78 52 79 48 80 49 81 51 82 53 83 50 84 72 85
REMARK SMILES IDX 73 86 78 87 74 88 75 89 77 90 79 91 76 92 60 93 61 94 66 95
REMARK SMILES IDX 62 96 63 97 65 98 67 99 64 100
REMARK H PARENT 6 27 84 62 58 73
REMARK Flexibility Score: inf
ROOT
ATOM      1  C   UNL A   1      44.136  23.994  29.398  1.00  0.00     0.202 C 
ENDROOT
BRANCH   1   2
ATOM      2  C   UNL A   1      44.838  23.151  28.318  1.00  0.00     0.261 C 
BRANCH   2   3
ATOM      3  O   UNL A   1      44.625  23.313  26.679  1.00  0.00    -0.461 OA
BRANCH   3   4
ATOM      4  C   UNL A   1      43.757  23.030  25.576  1.00  0.00     0.344 C 
ATOM      5  O   UNL A   1      44.258  22.710  24.518  1.00  0.00    -0.248 OA
BRANCH   4   6
ATOM      6  C   UNL A   1      42.267  23.143  25.617  1.00  0.00     0.352 C 
BRANCH   6   7
ATOM      7  O   UNL A   1      41.943  22.030  26.381  1.00  0.00    -0.479 OA
BRANCH   7   8
ATOM      8  C   UNL A   1      40.561  22.393  27.340  1.00  0.00     0.157 A 
ATOM      9  C   UNL A   1      37.529  22.116  25.396  1.00  0.00    -0.021 A 
ATOM     10  C   UNL A   1      37.873  23.761  26.039  1.00  0.00     0.032 A 
ATOM     11  C   UNL A   1      38.659  20.850  25.619  1.00  0.00     0.032 A 
ATOM     12  C   UNL A   1      39.399  24.085  27.046  1.00  0.00     0.085 A 
ATOM     13  C   UNL A   1      40.020  20.860  26.534  1.00  0.00     0.085 A 
ATOM     14  Cl  UNL A   1      39.552  25.867  27.294  1.00  0.00    -0.080 Cl
ATOM     15  Cl  UNL A   1      41.052  19.587  25.860  1.00  0.00    -0.080 Cl
BRANCH   9  16
ATOM     16  C   UNL A   1      36.093  21.286  25.386  1.00  0.00     0.029 C 
ATOM     17  N   UNL A   1      32.551  22.599  25.788  1.00  0.00    -0.259 N 
ATOM     18  C   UNL A   1      33.262  23.558  26.433  1.00  0.00     0.294 C 
ATOM     19  C   UNL A   1      33.378  21.574  25.289  1.00  0.00     0.268 C 
ATOM     20  O   UNL A   1      33.059  24.761  26.440  1.00  0.00    -0.261 OA
ATOM     21  S   UNL A   1      34.622  22.790  27.228  1.00  0.00    -0.022 SA
ATOM     22  C   UNL A   1      34.860  21.715  25.865  1.00  0.00     0.083 C 
ATOM     23  O   UNL A   1      33.040  20.741  24.457  1.00  0.00    -0.268 OA
BRANCH  17  24
ATOM     24  C   UNL A   1      31.173  22.971  25.365  1.00  0.00     0.230 C 
BRANCH  24  25
ATOM     25  C   UNL A   1      30.302  23.622  26.505  1.00  0.00     0.244 C 
ATOM     26  N   UNL A   1      29.647  24.815  26.340  1.00  0.00    -0.325 N 
ATOM     27  H   UNL A   1      28.834  24.924  26.885  1.00  0.00     0.169 HD
ATOM     28  O   UNL A   1      30.156  23.048  27.591  1.00  0.00    -0.273 OA
BRANCH  26  29
ATOM     29  C   UNL A   1      29.958  25.899  25.515  1.00  0.00     0.041 A 
ATOM     30  C   UNL A   1      31.042  29.119  22.881  1.00  0.00     0.044 C 
ATOM     31  C   UNL A   1      30.601  28.023  23.801  1.00  0.00    -0.051 A 
ATOM     32  C   UNL A   1      31.246  27.883  25.030  1.00  0.00     0.005 A 
ATOM     33  C   UNL A   1      29.572  27.135  23.466  1.00  0.00     0.005 A 
ATOM     34  C   UNL A   1      30.906  26.844  25.888  1.00  0.00     0.026 A 
ATOM     35  C   UNL A   1      29.240  26.083  24.330  1.00  0.00     0.026 A 
ENDBRANCH  26  29
ENDBRANCH  24  25
ENDBRANCH  17  24
ENDBRANCH   9  16
ENDBRANCH   7   8
ENDBRANCH   6   7
ENDBRANCH   4   6
ENDBRANCH   3   4
ENDBRANCH   2   3
ENDBRANCH   1   2
BRANCH   1  36
ATOM     36  O   UNL A   1      44.163  25.398  29.339  1.00  0.00    -0.376 OA
BRANCH  36  37
ATOM     37  C   UNL A   1      45.134  25.961  28.503  1.00  0.00     0.188 C 
BRANCH  37  38
ATOM     38  C   UNL A   1      44.691  26.762  27.324  1.00  0.00     0.188 C 
BRANCH  38  39
ATOM     39  O   UNL A   1      45.755  27.197  26.521  1.00  0.00    -0.376 OA
BRANCH  39  40
ATOM     40  C   UNL A   1      46.412  28.411  26.753  1.00  0.00     0.202 C 
BRANCH  40  41
ATOM     41  C   UNL A   1      46.387  29.375  25.563  1.00  0.00     0.261 C 
BRANCH  41  42
ATOM     42  O   UNL A   1      45.901  30.702  25.963  1.00  0.00    -0.460 OA
BRANCH  42  43
ATOM     43  C   UNL A   1      44.929  30.801  26.934  1.00  0.00     0.338 C 
ATOM     44  O   UNL A   1      43.739  30.844  26.660  1.00  0.00    -0.246 OA
BRANCH  43  45
ATOM     45  C   UNL A   1      45.622  31.208  28.358  1.00  0.00     0.060 A 
ATOM     46  C   UNL A   1      46.791  30.599  29.941  1.00  0.00     0.016 A 
ATOM     47  C   UNL A   1      44.910  32.834  28.516  1.00  0.00     0.016 A 
ATOM     48  C   UNL A   1      46.715  31.850  31.386  1.00  0.00     0.010 A 
ATOM     49  C   UNL A   1      44.896  33.721  29.906  1.00  0.00     0.010 A 
ATOM     50  C   UNL A   1      45.459  33.209  31.358  1.00  0.00    -0.014 A 
BRANCH  50  51
ATOM     51  C   UNL A   1      43.944  33.748  32.306  1.00  0.00     0.031 A 
ATOM     52  C   UNL A   1      44.446  34.708  33.291  1.00  0.00     0.074 A 
ATOM     53  C   UNL A   1      42.410  33.589  32.438  1.00  0.00     0.049 A 
ATOM     54  N   UNL A   1      44.118  34.702  34.539  1.00  0.00    -0.248 NA
ATOM     55  C   UNL A   1      45.564  35.599  32.964  1.00  0.00     0.031 C 
ATOM     56  C   UNL A   1      41.320  34.595  32.813  1.00  0.00     0.029 A 
ATOM     57  N   UNL A   1      41.385  32.664  31.945  1.00  0.00    -0.354 N 
ATOM     58  C   UNL A   1      44.624  35.895  34.992  1.00  0.00     0.074 A 
ATOM     59  C   UNL A   1      45.787  36.111  34.175  1.00  0.00     0.031 C 
ATOM     60  C   UNL A   1      40.028  34.120  32.664  1.00  0.00     0.029 A 
ATOM     61  C   UNL A   1      40.026  32.760  32.137  1.00  0.00     0.049 A 
ATOM     62  H   UNL A   1      41.702  31.893  31.422  1.00  0.00     0.167 HD
ATOM     63  C   UNL A   1      43.775  36.803  35.561  1.00  0.00     0.037 A 
ATOM     64  C   UNL A   1      39.270  31.608  32.334  1.00  0.00     0.037 A 
ATOM     65  C   UNL A   1      42.387  36.282  35.626  1.00  0.00     0.049 A 
ATOM     66  C   UNL A   1      39.311  31.553  33.832  1.00  0.00     0.074 A 
ATOM     67  C   UNL A   1      41.172  36.740  35.135  1.00  0.00     0.029 A 
ATOM     68  N   UNL A   1      42.131  34.976  36.061  1.00  0.00    -0.354 N 
ATOM     69  N   UNL A   1      40.168  32.285  34.487  1.00  0.00    -0.248 NA
ATOM     70  C   UNL A   1      38.391  30.845  34.704  1.00  0.00     0.031 C 
ATOM     71  C   UNL A   1      40.181  35.739  35.376  1.00  0.00     0.029 A 
ATOM     72  C   UNL A   1      40.799  34.628  35.939  1.00  0.00     0.049 A 
ATOM     73  H   UNL A   1      42.824  34.372  36.415  1.00  0.00     0.167 HD
ATOM     74  C   UNL A   1      39.747  32.430  35.747  1.00  0.00     0.074 A 
ATOM     75  C   UNL A   1      38.701  31.425  35.880  1.00  0.00     0.031 C 
ATOM     76  C   UNL A   1      40.296  33.386  36.540  1.00  0.00     0.037 A 
BRANCH  63  77
ATOM     77  C   UNL A   1      44.127  38.268  35.840  1.00  0.00     0.057 A 
ATOM     78  C   UNL A   1      44.523  38.656  37.136  1.00  0.00     0.134 A 
ATOM     79  C   UNL A   1      44.165  39.334  34.913  1.00  0.00     0.134 A 
ATOM     80  F   UNL A   1      44.589  37.783  38.149  1.00  0.00    -0.206 F 
ATOM     81  C   UNL A   1      44.912  39.961  37.474  1.00  0.00     0.040 A 
ATOM     82  C   UNL A   1      44.559  40.643  35.234  1.00  0.00     0.040 A 
ATOM     83  F   UNL A   1      43.852  39.204  33.624  1.00  0.00    -0.206 F 
ATOM     84  C   UNL A   1      44.945  40.960  36.518  1.00  0.00     0.006 A 
ENDBRANCH  63  77
BRANCH  64  85
ATOM     85  C   UNL A   1      39.340  30.303  31.470  1.00  0.00     0.057 A 
ATOM     86  C   UNL A   1      40.033  29.153  31.912  1.00  0.00     0.134 A 
ATOM     87  C   UNL A   1      38.542  30.050  30.335  1.00  0.00     0.134 A 
ATOM     88  F   UNL A   1      40.969  29.255  32.867  1.00  0.00    -0.206 F 
ATOM     89  C   UNL A   1      39.725  27.832  31.472  1.00  0.00     0.040 A 
ATOM     90  C   UNL A   1      38.155  28.729  29.957  1.00  0.00     0.040 A 
ATOM     91  F   UNL A   1      37.907  31.054  29.715  1.00  0.00    -0.206 F 
ATOM     92  C   UNL A   1      38.658  27.614  30.615  1.00  0.00     0.006 A 
ENDBRANCH  64  85
BRANCH  76  93
ATOM     93  C   UNL A   1      40.316  33.245  38.013  1.00  0.00     0.057 A 
ATOM     94  C   UNL A   1      39.188  33.458  38.813  1.00  0.00     0.134 A 
ATOM     95  C   UNL A   1      41.446  32.715  38.662  1.00  0.00     0.134 A 
ATOM     96  F   UNL A   1      37.984  33.742  38.296  1.00  0.00    -0.206 F 
ATOM     97  C   UNL A   1      39.234  33.321  40.192  1.00  0.00     0.040 A 
ATOM     98  C   UNL A   1      41.465  32.469  40.024  1.00  0.00     0.040 A 
ATOM     99  F   UNL A   1      42.565  32.374  38.009  1.00  0.00    -0.206 F 
ATOM    100  C   UNL A   1      40.375  32.820  40.800  1.00  0.00     0.006 A 
ENDBRANCH  76  93
ENDBRANCH  50  51
ENDBRANCH  43  45
ENDBRANCH  42  43
ENDBRANCH  41  42
ENDBRANCH  40  41
ENDBRANCH  39  40
ENDBRANCH  38  39
ENDBRANCH  37  38
ENDBRANCH  36  37
ENDBRANCH   1  36
TORSDOF 23
ENDMDL
MODEL 2
REMARK VINA RESULT:     -10.9      3.816      6.499
REMARK SMILES Cc1ccc(NC(=O)CN2C(=O)S/C(=C\c3cc(Cl)c(OCC(=O)OCCOCCOCCOC(=O)c4ccc(-c5c6nc(c(-c7c(F)cccc7F)c7ccc([nH]7)c(-c7c(F)cccc7F)c7nc(c(-c8c(F)cccc8F)c8ccc5[nH]8)C=C7)C=C6)cc4)c(Cl)c3)C2=O)cc1
REMARK SMILES IDX 27 1 26 2 25 3 23 4 24 5 22 6 21 7 20 8 16 9 17 10 93 11
REMARK SMILES IDX 18 12 91 13 19 14 92 15 15 16 10 17 11 18 94 19 12 20 13 21
REMARK SMILES IDX 14 22 95 23 9 24 7 25 6 26 8 28 5 29 1 30 2 31 3 32 97 33
REMARK SMILES IDX 4 34 96 35 28 36 29 37 30 38 31 39 32 40 33 41 34 42 35 43
REMARK SMILES IDX 36 44 37 45 38 46 90 47 39 48 89 49 40 50 41 51 42 52 83 53
REMARK SMILES IDX 43 54 88 55 82 56 84 57 44 58 87 59 81 60 80 61 45 63 71 64
REMARK SMILES IDX 54 65 70 66 55 67 58 68 69 69 85 70 56 71 57 72 68 74 86 75
REMARK SMILES IDX 59 76 46 77 47 78 52 79 48 80 49 81 51 82 53 83 50 84 72 85
REMARK SMILES IDX 73 86 78 87 74 88 75 89 77 90 79 91 76 92 60 93 61 94 66 95
REMARK SMILES IDX 62 96 63 97 65 98 67 99 64 100
REMARK H PARENT 6 27 84 62 58 73
REMARK Flexibility Score: inf
ROOT
ATOM      1  C   UNL A   1      42.536  28.190  29.203  1.00  0.00     0.202 C 
ENDROOT
BRANCH   1   2
ATOM      2  C   UNL A   1      43.673  27.271  29.687  1.00  0.00     0.261 C 
BRANCH   2   3
ATOM      3  O   UNL A   1      43.615  25.613  29.739  1.00  0.00    -0.461 OA
BRANCH   3   4
ATOM      4  C   UNL A   1      43.656  24.413  28.960  1.00  0.00     0.344 C 
ATOM      5  O   UNL A   1      44.588  24.253  28.199  1.00  0.00    -0.248 OA
BRANCH   4   6
ATOM      6  C   UNL A   1      42.603  23.351  28.980  1.00  0.00     0.352 C 
BRANCH   6   7
ATOM      7  O   UNL A   1      41.530  24.040  28.431  1.00  0.00    -0.479 OA
BRANCH   7   8
ATOM      8  C   UNL A   1      41.355  23.579  26.782  1.00  0.00     0.157 A 
ATOM      9  C   UNL A   1      37.938  22.665  26.050  1.00  0.00    -0.021 A 
ATOM     10  C   UNL A   1      39.141  21.342  25.844  1.00  0.00     0.032 A 
ATOM     11  C   UNL A   1      38.425  24.183  26.670  1.00  0.00     0.032 A 
ATOM     12  C   UNL A   1      40.941  21.635  26.194  1.00  0.00     0.085 A 
ATOM     13  C   UNL A   1      39.950  24.712  26.968  1.00  0.00     0.085 A 
ATOM     14  Cl  UNL A   1      41.799  20.047  26.137  1.00  0.00    -0.080 Cl
ATOM     15  Cl  UNL A   1      39.775  26.010  28.161  1.00  0.00    -0.080 Cl
BRANCH   9  16
ATOM     16  C   UNL A   1      36.690  23.097  25.047  1.00  0.00     0.029 C 
ATOM     17  N   UNL A   1      33.000  23.525  25.843  1.00  0.00    -0.259 N 
ATOM     18  C   UNL A   1      33.380  22.658  26.815  1.00  0.00     0.294 C 
ATOM     19  C   UNL A   1      34.068  23.864  24.991  1.00  0.00     0.268 C 
ATOM     20  O   UNL A   1      33.002  22.621  27.975  1.00  0.00    -0.261 OA
ATOM     21  S   UNL A   1      34.606  21.594  26.152  1.00  0.00    -0.022 SA
ATOM     22  C   UNL A   1      35.327  22.921  25.262  1.00  0.00     0.083 C 
ATOM     23  O   UNL A   1      34.072  24.808  24.211  1.00  0.00    -0.268 OA
BRANCH  17  24
ATOM     24  C   UNL A   1      31.727  24.260  26.076  1.00  0.00     0.230 C 
BRANCH  24  25
ATOM     25  C   UNL A   1      31.016  24.751  24.759  1.00  0.00     0.244 C 
ATOM     26  N   UNL A   1      31.167  26.025  24.273  1.00  0.00    -0.325 N 
ATOM     27  H   UNL A   1      31.066  26.115  23.298  1.00  0.00     0.169 HD
ATOM     28  O   UNL A   1      30.314  23.978  24.095  1.00  0.00    -0.273 OA
BRANCH  26  29
ATOM     29  C   UNL A   1      31.442  27.214  24.954  1.00  0.00     0.041 A 
ATOM     30  C   UNL A   1      32.098  30.907  27.056  1.00  0.00     0.044 C 
ATOM     31  C   UNL A   1      31.924  29.594  26.356  1.00  0.00    -0.051 A 
ATOM     32  C   UNL A   1      31.970  29.570  24.962  1.00  0.00     0.005 A 
ATOM     33  C   UNL A   1      31.712  28.399  27.052  1.00  0.00     0.005 A 
ATOM     34  C   UNL A   1      31.756  28.383  24.271  1.00  0.00     0.026 A 
ATOM     35  C   UNL A   1      31.487  27.207  26.351  1.00  0.00     0.026 A 
ENDBRANCH  26  29
ENDBRANCH  24  25
ENDBRANCH  17  24
ENDBRANCH   9  16
ENDBRANCH   7   8
ENDBRANCH   6   7
ENDBRANCH   4   6
ENDBRANCH   3   4
ENDBRANCH   2   3
ENDBRANCH   1   2
BRANCH   1  36
ATOM     36  O   UNL A   1      42.385  28.482  27.836  1.00  0.00    -0.376 OA
BRANCH  36  37
ATOM     37  C   UNL A   1      42.693  27.446  26.947  1.00  0.00     0.188 C 
BRANCH  37  38
ATOM     38  C   UNL A   1      43.909  27.572  26.091  1.00  0.00     0.188 C 
BRANCH  38  39
ATOM     39  O   UNL A   1      44.417  28.878  26.042  1.00  0.00    -0.376 OA
BRANCH  39  40
ATOM     40  C   UNL A   1      45.783  29.149  26.185  1.00  0.00     0.202 C 
BRANCH  40  41
ATOM     41  C   UNL A   1      46.699  28.003  25.745  1.00  0.00     0.261 C 
BRANCH  41  42
ATOM     42  O   UNL A   1      47.968  28.513  25.209  1.00  0.00    -0.460 OA
BRANCH  42  43
ATOM     43  C   UNL A   1      49.138  28.265  25.893  1.00  0.00     0.338 C 
ATOM     44  O   UNL A   1      50.237  28.453  25.393  1.00  0.00    -0.246 OA
BRANCH  43  45
ATOM     45  C   UNL A   1      48.808  27.384  27.231  1.00  0.00     0.060 A 
ATOM     46  C   UNL A   1      48.121  25.596  27.989  1.00  0.00     0.016 A 
ATOM     47  C   UNL A   1      49.140  28.649  28.441  1.00  0.00     0.016 A 
ATOM     48  C   UNL A   1      47.778  25.721  29.867  1.00  0.00     0.010 A 
ATOM     49  C   UNL A   1      48.682  28.577  30.023  1.00  0.00     0.010 A 
ATOM     50  C   UNL A   1      47.790  27.376  30.694  1.00  0.00    -0.014 A 
BRANCH  50  51
ATOM     51  C   UNL A   1      46.601  28.533  31.550  1.00  0.00     0.031 A 
ATOM     52  C   UNL A   1      46.109  27.772  32.701  1.00  0.00     0.074 A 
ATOM     53  C   UNL A   1      45.966  29.944  31.523  1.00  0.00     0.049 A 
ATOM     54  N   UNL A   1      44.866  27.693  33.038  1.00  0.00    -0.248 NA
ATOM     55  C   UNL A   1      46.987  26.835  33.407  1.00  0.00     0.031 C 
ATOM     56  C   UNL A   1      45.554  30.887  32.656  1.00  0.00     0.029 A 
ATOM     57  N   UNL A   1      45.856  31.049  30.565  1.00  0.00    -0.354 N 
ATOM     58  C   UNL A   1      44.923  27.101  34.274  1.00  0.00     0.074 A 
ATOM     59  C   UNL A   1      46.085  26.258  34.201  1.00  0.00     0.031 C 
ATOM     60  C   UNL A   1      45.167  32.149  32.236  1.00  0.00     0.029 A 
ATOM     61  C   UNL A   1      45.288  32.281  30.789  1.00  0.00     0.049 A 
ATOM     62  H   UNL A   1      46.227  30.892  29.667  1.00  0.00     0.167 HD
ATOM     63  C   UNL A   1      44.383  27.752  35.348  1.00  0.00     0.037 A 
ATOM     64  C   UNL A   1      44.570  32.909  29.775  1.00  0.00     0.037 A 
ATOM     65  C   UNL A   1      43.758  29.037  34.947  1.00  0.00     0.049 A 
ATOM     66  C   UNL A   1      43.199  32.401  30.108  1.00  0.00     0.074 A 
ATOM     67  C   UNL A   1      43.954  30.356  35.334  1.00  0.00     0.029 A 
ATOM     68  N   UNL A   1      42.936  29.112  33.816  1.00  0.00    -0.354 N 
ATOM     69  N   UNL A   1      43.059  31.401  30.932  1.00  0.00    -0.248 NA
ATOM     70  C   UNL A   1      41.932  32.984  29.706  1.00  0.00     0.031 C 
ATOM     71  C   UNL A   1      43.164  31.196  34.491  1.00  0.00     0.029 A 
ATOM     72  C   UNL A   1      42.546  30.406  33.529  1.00  0.00     0.049 A 
ATOM     73  H   UNL A   1      42.666  28.328  33.283  1.00  0.00     0.167 HD
ATOM     74  C   UNL A   1      41.815  31.410  31.423  1.00  0.00     0.074 A 
ATOM     75  C   UNL A   1      41.106  32.337  30.551  1.00  0.00     0.031 C 
ATOM     76  C   UNL A   1      41.513  30.665  32.517  1.00  0.00     0.037 A 
BRANCH  63  77
ATOM     77  C   UNL A   1      44.623  27.367  36.812  1.00  0.00     0.057 A 
ATOM     78  C   UNL A   1      44.002  26.219  37.343  1.00  0.00     0.134 A 
ATOM     79  C   UNL A   1      45.474  28.010  37.740  1.00  0.00     0.134 A 
ATOM     80  F   UNL A   1      43.187  25.450  36.611  1.00  0.00    -0.206 F 
ATOM     81  C   UNL A   1      44.203  25.760  38.654  1.00  0.00     0.040 A 
ATOM     82  C   UNL A   1      45.691  27.558  39.052  1.00  0.00     0.040 A 
ATOM     83  F   UNL A   1      46.183  29.102  37.459  1.00  0.00    -0.206 F 
ATOM     84  C   UNL A   1      45.062  26.422  39.512  1.00  0.00     0.006 A 
ENDBRANCH  63  77
BRANCH  64  85
ATOM     85  C   UNL A   1      45.035  33.080  28.289  1.00  0.00     0.057 A 
ATOM     86  C   UNL A   1      44.393  32.407  27.224  1.00  0.00     0.134 A 
ATOM     87  C   UNL A   1      45.929  34.075  27.839  1.00  0.00     0.134 A 
ATOM     88  F   UNL A   1      43.649  31.318  27.467  1.00  0.00    -0.206 F 
ATOM     89  C   UNL A   1      44.398  32.879  25.879  1.00  0.00     0.040 A 
ATOM     90  C   UNL A   1      45.863  34.614  26.518  1.00  0.00     0.040 A 
ATOM     91  F   UNL A   1      46.707  34.732  28.710  1.00  0.00    -0.206 F 
ATOM     92  C   UNL A   1      44.998  34.088  25.567  1.00  0.00     0.006 A 
ENDBRANCH  64  85
BRANCH  76  93
ATOM     93  C   UNL A   1      40.135  30.182  32.762  1.00  0.00     0.057 A 
ATOM     94  C   UNL A   1      39.140  30.981  33.335  1.00  0.00     0.134 A 
ATOM     95  C   UNL A   1      39.719  28.935  32.262  1.00  0.00     0.134 A 
ATOM     96  F   UNL A   1      39.343  32.269  33.645  1.00  0.00    -0.206 F 
ATOM     97  C   UNL A   1      37.857  30.503  33.555  1.00  0.00     0.040 A 
ATOM     98  C   UNL A   1      38.412  28.494  32.377  1.00  0.00     0.040 A 
ATOM     99  F   UNL A   1      40.541  28.104  31.606  1.00  0.00    -0.206 F 
ATOM    100  C   UNL A   1      37.489  29.257  33.071  1.00  0.00     0.006 A 
ENDBRANCH  76  93
ENDBRANCH  50  51
ENDBRANCH  43  45
ENDBRANCH  42  43
ENDBRANCH  41  42
ENDBRANCH  40  41
ENDBRANCH  39  40
ENDBRANCH  38  39
ENDBRANCH  37  38
ENDBRANCH  36  37
ENDBRANCH   1  36
TORSDOF 23
ENDMDL
MODEL 3
REMARK VINA RESULT:     -10.5      6.396     13.906
REMARK SMILES Cc1ccc(NC(=O)CN2C(=O)S/C(=C\c3cc(Cl)c(OCC(=O)OCCOCCOCCOC(=O)c4ccc(-c5c6nc(c(-c7c(F)cccc7F)c7ccc([nH]7)c(-c7c(F)cccc7F)c7nc(c(-c8c(F)cccc8F)c8ccc5[nH]8)C=C7)C=C6)cc4)c(Cl)c3)C2=O)cc1
REMARK SMILES IDX 27 1 26 2 25 3 23 4 24 5 22 6 21 7 20 8 16 9 17 10 93 11
REMARK SMILES IDX 18 12 91 13 19 14 92 15 15 16 10 17 11 18 94 19 12 20 13 21
REMARK SMILES IDX 14 22 95 23 9 24 7 25 6 26 8 28 5 29 1 30 2 31 3 32 97 33
REMARK SMILES IDX 4 34 96 35 28 36 29 37 30 38 31 39 32 40 33 41 34 42 35 43
REMARK SMILES IDX 36 44 37 45 38 46 90 47 39 48 89 49 40 50 41 51 42 52 83 53
REMARK SMILES IDX 43 54 88 55 82 56 84 57 44 58 87 59 81 60 80 61 45 63 71 64
REMARK SMILES IDX 54 65 70 66 55 67 58 68 69 69 85 70 56 71 57 72 68 74 86 75
REMARK SMILES IDX 59 76 46 77 47 78 52 79 48 80 49 81 51 82 53 83 50 84 72 85
REMARK SMILES IDX 73 86 78 87 74 88 75 89 77 90 79 91 76 92 60 93 61 94 66 95
REMARK SMILES IDX 62 96 63 97 65 98 67 99 64 100
REMARK H PARENT 6 27 84 62 58 73
REMARK Flexibility Score: inf
ROOT
ATOM      1  C   UNL A   1      44.102  37.546  37.391  1.00  0.00     0.202 C 
ENDROOT
BRANCH   1   2
ATOM      2  C   UNL A   1      43.292  36.570  38.263  1.00  0.00     0.261 C 
BRANCH   2   3
ATOM      3  O   UNL A   1      42.189  37.005  39.425  1.00  0.00    -0.461 OA
BRANCH   3   4
ATOM      4  C   UNL A   1      41.118  37.899  39.750  1.00  0.00     0.344 C 
ATOM      5  O   UNL A   1      41.376  38.898  40.389  1.00  0.00    -0.248 OA
BRANCH   4   6
ATOM      6  C   UNL A   1      39.684  37.670  39.396  1.00  0.00     0.352 C 
BRANCH   6   7
ATOM      7  O   UNL A   1      39.820  36.918  38.236  1.00  0.00    -0.479 OA
BRANCH   7   8
ATOM      8  C   UNL A   1      39.934  35.254  38.658  1.00  0.00     0.157 A 
ATOM      9  C   UNL A   1      37.683  33.255  36.662  1.00  0.00    -0.021 A 
ATOM     10  C   UNL A   1      37.352  33.238  38.431  1.00  0.00     0.032 A 
ATOM     11  C   UNL A   1      38.909  34.264  36.026  1.00  0.00     0.032 A 
ATOM     12  C   UNL A   1      38.403  34.224  39.602  1.00  0.00     0.085 A 
ATOM     13  C   UNL A   1      40.018  35.151  36.849  1.00  0.00     0.085 A 
ATOM     14  Cl  UNL A   1      37.633  34.181  41.235  1.00  0.00    -0.080 Cl
ATOM     15  Cl  UNL A   1      40.530  36.425  35.728  1.00  0.00    -0.080 Cl
BRANCH   9  16
ATOM     16  C   UNL A   1      37.710  31.982  35.600  1.00  0.00     0.029 C 
ATOM     17  N   UNL A   1      37.417  32.002  31.812  1.00  0.00    -0.259 N 
ATOM     18  C   UNL A   1      36.775  33.154  32.132  1.00  0.00     0.294 C 
ATOM     19  C   UNL A   1      37.876  31.318  32.955  1.00  0.00     0.268 C 
ATOM     20  O   UNL A   1      36.796  34.214  31.528  1.00  0.00    -0.261 OA
ATOM     21  S   UNL A   1      35.933  32.909  33.649  1.00  0.00    -0.022 SA
ATOM     22  C   UNL A   1      37.268  31.966  34.281  1.00  0.00     0.083 C 
ATOM     23  O   UNL A   1      38.697  30.411  32.948  1.00  0.00    -0.268 OA
BRANCH  17  24
ATOM     24  C   UNL A   1      37.879  31.873  30.403  1.00  0.00     0.230 C 
BRANCH  24  25
ATOM     25  C   UNL A   1      39.434  32.044  30.217  1.00  0.00     0.244 C 
ATOM     26  N   UNL A   1      40.192  31.148  29.508  1.00  0.00    -0.325 N 
ATOM     27  H   UNL A   1      41.001  31.523  29.091  1.00  0.00     0.169 HD
ATOM     28  O   UNL A   1      40.020  33.027  30.685  1.00  0.00    -0.273 OA
BRANCH  26  29
ATOM     29  C   UNL A   1      39.989  29.783  29.288  1.00  0.00     0.041 A 
ATOM     30  C   UNL A   1      39.549  25.570  28.553  1.00  0.00     0.044 C 
ATOM     31  C   UNL A   1      39.658  27.031  28.862  1.00  0.00    -0.051 A 
ATOM     32  C   UNL A   1      39.295  27.951  27.877  1.00  0.00     0.005 A 
ATOM     33  C   UNL A   1      40.117  27.501  30.097  1.00  0.00     0.005 A 
ATOM     34  C   UNL A   1      39.436  29.315  28.102  1.00  0.00     0.026 A 
ATOM     35  C   UNL A   1      40.267  28.877  30.316  1.00  0.00     0.026 A 
ENDBRANCH  26  29
ENDBRANCH  24  25
ENDBRANCH  17  24
ENDBRANCH   9  16
ENDBRANCH   7   8
ENDBRANCH   6   7
ENDBRANCH   4   6
ENDBRANCH   3   4
ENDBRANCH   2   3
ENDBRANCH   1   2
BRANCH   1  36
ATOM     36  O   UNL A   1      45.486  37.369  37.216  1.00  0.00    -0.376 OA
BRANCH  36  37
ATOM     37  C   UNL A   1      45.873  36.535  36.161  1.00  0.00     0.188 C 
BRANCH  37  38
ATOM     38  C   UNL A   1      45.913  35.061  36.389  1.00  0.00     0.188 C 
BRANCH  38  39
ATOM     39  O   UNL A   1      44.842  34.380  35.793  1.00  0.00    -0.376 OA
BRANCH  39  40
ATOM     40  C   UNL A   1      44.990  33.105  35.237  1.00  0.00     0.202 C 
BRANCH  40  41
ATOM     41  C   UNL A   1      43.680  32.321  35.108  1.00  0.00     0.261 C 
BRANCH  41  42
ATOM     42  O   UNL A   1      43.933  30.911  34.783  1.00  0.00    -0.460 OA
BRANCH  42  43
ATOM     43  C   UNL A   1      43.739  29.950  35.751  1.00  0.00     0.338 C 
ATOM     44  O   UNL A   1      43.552  30.237  36.924  1.00  0.00    -0.246 OA
BRANCH  43  45
ATOM     45  C   UNL A   1      44.158  28.486  35.155  1.00  0.00     0.060 A 
ATOM     46  C   UNL A   1      45.545  26.963  35.147  1.00  0.00     0.016 A 
ATOM     47  C   UNL A   1      42.829  28.314  33.981  1.00  0.00     0.016 A 
ATOM     48  C   UNL A   1      45.228  25.739  33.711  1.00  0.00     0.010 A 
ATOM     49  C   UNL A   1      42.796  27.212  32.756  1.00  0.00     0.010 A 
ATOM     50  C   UNL A   1      44.009  26.172  32.388  1.00  0.00    -0.014 A 
BRANCH  50  51
ATOM     51  C   UNL A   1      43.988  26.557  30.562  1.00  0.00     0.031 A 
ATOM     52  C   UNL A   1      44.259  25.272  29.911  1.00  0.00     0.074 A 
ATOM     53  C   UNL A   1      43.787  27.668  29.504  1.00  0.00     0.049 A 
ATOM     54  N   UNL A   1      45.105  25.113  28.950  1.00  0.00    -0.248 NA
ATOM     55  C   UNL A   1      43.756  24.022  30.488  1.00  0.00     0.031 C 
ATOM     56  C   UNL A   1      43.163  27.630  28.107  1.00  0.00     0.029 A 
ATOM     57  N   UNL A   1      43.726  29.133  29.490  1.00  0.00    -0.354 N 
ATOM     58  C   UNL A   1      44.838  23.838  28.518  1.00  0.00     0.074 A 
ATOM     59  C   UNL A   1      44.398  23.155  29.704  1.00  0.00     0.031 C 
ATOM     60  C   UNL A   1      43.011  28.874  27.516  1.00  0.00     0.029 A 
ATOM     61  C   UNL A   1      43.457  29.937  28.408  1.00  0.00     0.049 A 
ATOM     62  H   UNL A   1      43.895  29.589  30.346  1.00  0.00     0.167 HD
ATOM     63  C   UNL A   1      44.481  23.641  27.213  1.00  0.00     0.037 A 
ATOM     64  C   UNL A   1      44.118  31.154  28.266  1.00  0.00     0.037 A 
ATOM     65  C   UNL A   1      44.490  24.913  26.448  1.00  0.00     0.049 A 
ATOM     66  C   UNL A   1      45.276  30.697  27.431  1.00  0.00     0.074 A 
ATOM     67  C   UNL A   1      43.528  25.593  25.714  1.00  0.00     0.029 A 
ATOM     68  N   UNL A   1      45.553  25.816  26.574  1.00  0.00    -0.354 N 
ATOM     69  N   UNL A   1      45.533  29.425  27.316  1.00  0.00    -0.248 NA
ATOM     70  C   UNL A   1      46.123  31.523  26.588  1.00  0.00     0.031 C 
ATOM     71  C   UNL A   1      44.068  26.857  25.322  1.00  0.00     0.029 A 
ATOM     72  C   UNL A   1      45.331  26.994  25.885  1.00  0.00     0.049 A 
ATOM     73  H   UNL A   1      46.367  25.633  27.096  1.00  0.00     0.167 HD
ATOM     74  C   UNL A   1      46.272  29.225  26.219  1.00  0.00     0.074 A 
ATOM     75  C   UNL A   1      46.719  30.563  25.855  1.00  0.00     0.031 C 
ATOM     76  C   UNL A   1      46.414  27.972  25.716  1.00  0.00     0.037 A 
BRANCH  63  77
ATOM     77  C   UNL A   1      43.876  22.345  26.662  1.00  0.00     0.057 A 
ATOM     78  C   UNL A   1      44.598  21.582  25.723  1.00  0.00     0.134 A 
ATOM     79  C   UNL A   1      42.648  21.748  27.027  1.00  0.00     0.134 A 
ATOM     80  F   UNL A   1      45.803  21.959  25.278  1.00  0.00    -0.206 F 
ATOM     81  C   UNL A   1      44.149  20.358  25.203  1.00  0.00     0.040 A 
ATOM     82  C   UNL A   1      42.189  20.521  26.520  1.00  0.00     0.040 A 
ATOM     83  F   UNL A   1      41.803  22.275  27.912  1.00  0.00    -0.206 F 
ATOM     84  C   UNL A   1      42.945  19.815  25.610  1.00  0.00     0.006 A 
ENDBRANCH  63  77
BRANCH  64  85
ATOM     85  C   UNL A   1      44.299  32.238  29.384  1.00  0.00     0.057 A 
ATOM     86  C   UNL A   1      43.688  33.510  29.296  1.00  0.00     0.134 A 
ATOM     87  C   UNL A   1      44.845  31.988  30.660  1.00  0.00     0.134 A 
ATOM     88  F   UNL A   1      43.277  33.979  28.108  1.00  0.00    -0.206 F 
ATOM     89  C   UNL A   1      43.377  34.312  30.432  1.00  0.00     0.040 A 
ATOM     90  C   UNL A   1      44.453  32.732  31.814  1.00  0.00     0.040 A 
ATOM     91  F   UNL A   1      45.561  30.878  30.886  1.00  0.00    -0.206 F 
ATOM     92  C   UNL A   1      43.610  33.832  31.710  1.00  0.00     0.006 A 
ENDBRANCH  64  85
BRANCH  76  93
ATOM     93  C   UNL A   1      47.601  27.595  24.917  1.00  0.00     0.057 A 
ATOM     94  C   UNL A   1      47.664  27.749  23.528  1.00  0.00     0.134 A 
ATOM     95  C   UNL A   1      48.797  27.217  25.555  1.00  0.00     0.134 A 
ATOM     96  F   UNL A   1      46.674  28.317  22.823  1.00  0.00    -0.206 F 
ATOM     97  C   UNL A   1      48.788  27.386  22.803  1.00  0.00     0.040 A 
ATOM     98  C   UNL A   1      49.959  26.959  24.847  1.00  0.00     0.040 A 
ATOM     99  F   UNL A   1      48.911  27.120  26.886  1.00  0.00    -0.206 F 
ATOM    100  C   UNL A   1      49.942  26.993  23.464  1.00  0.00     0.006 A 
ENDBRANCH  76  93
ENDBRANCH  50  51
ENDBRANCH  43  45
ENDBRANCH  42  43
ENDBRANCH  41  42
ENDBRANCH  40  41
ENDBRANCH  39  40
ENDBRANCH  38  39
ENDBRANCH  37  38
ENDBRANCH  36  37
ENDBRANCH   1  36
TORSDOF 23
ENDMDL
