MODEL 1
REMARK VINA RESULT:     -11.3      0.000      0.000
REMARK SMILES Cc1cc(C)cc(-c2ccc([C@@H](C)C(=O)OCCOCCOCCOC(=O)c3ccc(-c4c5nc(c(-c6c(F)cccc6F)c6ccc([nH]6)c(-c6c(F)cccc6F)c6nc(c(-c7c(F)cccc7F)c7ccc4[nH]7)C=C6)C=C5)cc3)cc2F)c1
REMARK SMILES IDX 20 1 19 2 18 3 17 4 16 5 14 6 15 7 12 8 13 9 11 10 8 11 9 12
REMARK SMILES IDX 83 13 10 14 82 15 84 16 7 17 1 18 2 19 3 20 85 21 4 22 5 23
REMARK SMILES IDX 6 24 21 25 22 26 23 27 24 28 25 29 26 30 27 31 28 32 29 33
REMARK SMILES IDX 81 34 30 35 80 36 31 37 32 38 33 39 74 40 34 41 79 42 73 43
REMARK SMILES IDX 75 44 35 45 78 46 72 47 71 48 36 50 62 51 45 52 61 53 46 54
REMARK SMILES IDX 49 55 60 56 76 57 47 58 48 59 59 61 77 62 50 63 37 64 38 65
REMARK SMILES IDX 43 66 39 67 40 68 42 69 44 70 41 71 63 72 64 73 69 74 65 75
REMARK SMILES IDX 66 76 68 77 70 78 67 79 51 80 52 81 57 82 53 83 54 84 56 85
REMARK SMILES IDX 58 86 55 87
REMARK H PARENT 75 49 49 60
REMARK Flexibility Score: inf
ROOT
ATOM      1  C   UNL A   1      40.364  21.388  26.756  1.00  0.00     0.188 C 
ENDROOT
BRANCH   1   2
ATOM      2  O   UNL A   1      39.504  21.884  25.737  1.00  0.00    -0.376 OA
BRANCH   2   3
ATOM      3  C   UNL A   1      38.126  22.089  26.023  1.00  0.00     0.202 C 
BRANCH   3   4
ATOM      4  C   UNL A   1      37.109  21.123  25.397  1.00  0.00     0.261 C 
BRANCH   4   5
ATOM      5  O   UNL A   1      36.020  21.746  24.676  1.00  0.00    -0.463 OA
BRANCH   5   6
ATOM      6  C   UNL A   1      34.792  21.661  25.250  1.00  0.00     0.313 C 
ATOM      7  O   UNL A   1      33.957  20.817  24.932  1.00  0.00    -0.252 OA
BRANCH   6   8
ATOM      8  C   UNL A   1      34.484  22.679  26.352  1.00  0.00     0.126 C 
ATOM      9  C   UNL A   1      33.713  21.972  27.465  1.00  0.00     0.025 C 
BRANCH   8  10
ATOM     10  C   UNL A   1      33.838  24.027  26.038  1.00  0.00    -0.031 A 
ATOM     11  C   UNL A   1      32.495  26.490  25.429  1.00  0.00     0.017 A 
ATOM     12  C   UNL A   1      33.850  26.287  25.108  1.00  0.00     0.012 A 
ATOM     13  C   UNL A   1      31.833  25.438  26.068  1.00  0.00     0.131 A 
ATOM     14  C   UNL A   1      34.510  25.076  25.399  1.00  0.00     0.005 A 
ATOM     15  C   UNL A   1      32.480  24.229  26.359  1.00  0.00     0.044 A 
ATOM     16  F   UNL A   1      30.539  25.553  26.404  1.00  0.00    -0.206 F 
BRANCH  11  17
ATOM     17  C   UNL A   1      31.803  27.740  25.049  1.00  0.00    -0.015 A 
ATOM     18  C   UNL A   1      29.389  29.101  22.400  1.00  0.00     0.044 C 
ATOM     19  C   UNL A   1      30.302  29.014  23.591  1.00  0.00    -0.050 A 
ATOM     20  C   UNL A   1      30.497  30.151  24.384  1.00  0.00     0.006 A 
ATOM     21  C   UNL A   1      30.960  27.817  23.926  1.00  0.00     0.012 A 
ATOM     22  C   UNL A   1      31.338  30.107  25.500  1.00  0.00    -0.050 A 
ATOM     23  C   UNL A   1      31.536  31.338  26.334  1.00  0.00     0.044 C 
ATOM     24  C   UNL A   1      31.980  28.903  25.822  1.00  0.00     0.012 A 
ENDBRANCH  11  17
ENDBRANCH   8  10
ENDBRANCH   6   8
ENDBRANCH   5   6
ENDBRANCH   4   5
ENDBRANCH   3   4
ENDBRANCH   2   3
ENDBRANCH   1   2
BRANCH   1  25
ATOM     25  C   UNL A   1      41.058  20.030  26.569  1.00  0.00     0.188 C 
BRANCH  25  26
ATOM     26  O   UNL A   1      42.164  20.054  25.691  1.00  0.00    -0.376 OA
BRANCH  26  27
ATOM     27  C   UNL A   1      43.256  20.864  26.078  1.00  0.00     0.202 C 
BRANCH  27  28
ATOM     28  C   UNL A   1      43.795  21.757  24.952  1.00  0.00     0.261 C 
BRANCH  28  29
ATOM     29  O   UNL A   1      43.172  23.052  24.842  1.00  0.00    -0.460 OA
BRANCH  29  30
ATOM     30  C   UNL A   1      43.966  24.131  25.047  1.00  0.00     0.338 C 
ATOM     31  O   UNL A   1      44.994  24.405  24.459  1.00  0.00    -0.246 OA
BRANCH  30  32
ATOM     32  C   UNL A   1      43.259  25.048  25.973  1.00  0.00     0.060 A 
ATOM     33  C   UNL A   1      43.685  26.380  26.063  1.00  0.00     0.016 A 
ATOM     34  C   UNL A   1      42.190  24.598  26.753  1.00  0.00     0.016 A 
ATOM     35  C   UNL A   1      43.068  27.255  26.962  1.00  0.00     0.010 A 
ATOM     36  C   UNL A   1      41.587  25.469  27.666  1.00  0.00     0.010 A 
ATOM     37  C   UNL A   1      42.045  26.793  27.801  1.00  0.00    -0.014 A 
BRANCH  37  38
ATOM     38  C   UNL A   1      41.585  27.628  28.940  1.00  0.00     0.031 A 
ATOM     39  C   UNL A   1      42.330  27.539  30.245  1.00  0.00     0.074 A 
ATOM     40  C   UNL A   1      40.544  28.473  28.823  1.00  0.00     0.049 A 
ATOM     41  N   UNL A   1      42.090  28.138  31.384  1.00  0.00    -0.248 NA
ATOM     42  C   UNL A   1      43.505  26.653  30.268  1.00  0.00     0.031 C 
ATOM     43  C   UNL A   1      39.763  28.690  27.608  1.00  0.00     0.029 A 
ATOM     44  N   UNL A   1      39.964  29.305  29.751  1.00  0.00    -0.354 N 
ATOM     45  C   UNL A   1      43.079  27.700  32.255  1.00  0.00     0.074 A 
ATOM     46  C   UNL A   1      43.902  26.760  31.527  1.00  0.00     0.031 C 
ATOM     47  C   UNL A   1      38.802  29.594  27.866  1.00  0.00     0.029 A 
ATOM     48  C   UNL A   1      38.879  29.995  29.271  1.00  0.00     0.049 A 
ATOM     49  H   UNL A   1      40.296  29.397  30.673  1.00  0.00     0.167 HD
ATOM     50  C   UNL A   1      43.291  28.058  33.544  1.00  0.00     0.037 A 
ATOM     51  C   UNL A   1      38.034  30.840  29.896  1.00  0.00     0.037 A 
ATOM     52  C   UNL A   1      42.477  28.996  34.272  1.00  0.00     0.049 A 
ATOM     53  C   UNL A   1      38.244  31.166  31.353  1.00  0.00     0.074 A 
ATOM     54  C   UNL A   1      42.628  29.430  35.577  1.00  0.00     0.029 A 
ATOM     55  N   UNL A   1      41.361  29.639  33.761  1.00  0.00    -0.354 N 
ATOM     56  N   UNL A   1      39.188  30.756  32.166  1.00  0.00    -0.248 NA
ATOM     57  C   UNL A   1      37.269  32.072  31.981  1.00  0.00     0.031 C 
ATOM     58  C   UNL A   1      41.571  30.294  35.874  1.00  0.00     0.029 A 
ATOM     59  C   UNL A   1      40.797  30.447  34.735  1.00  0.00     0.049 A 
ATOM     60  H   UNL A   1      41.020  29.537  32.843  1.00  0.00     0.167 HD
ATOM     61  C   UNL A   1      38.938  31.372  33.387  1.00  0.00     0.074 A 
ATOM     62  C   UNL A   1      37.761  32.194  33.207  1.00  0.00     0.031 C 
ATOM     63  C   UNL A   1      39.626  31.266  34.550  1.00  0.00     0.037 A 
BRANCH  50  64
ATOM     64  C   UNL A   1      44.444  27.423  34.263  1.00  0.00     0.057 A 
ATOM     65  C   UNL A   1      45.716  28.012  34.231  1.00  0.00     0.134 A 
ATOM     66  C   UNL A   1      44.317  26.196  34.926  1.00  0.00     0.134 A 
ATOM     67  F   UNL A   1      45.907  29.185  33.609  1.00  0.00    -0.206 F 
ATOM     68  C   UNL A   1      46.821  27.395  34.819  1.00  0.00     0.040 A 
ATOM     69  C   UNL A   1      45.410  25.582  35.541  1.00  0.00     0.040 A 
ATOM     70  F   UNL A   1      43.125  25.586  35.005  1.00  0.00    -0.206 F 
ATOM     71  C   UNL A   1      46.668  26.176  35.479  1.00  0.00     0.006 A 
ENDBRANCH  50  64
BRANCH  51  72
ATOM     72  C   UNL A   1      36.902  31.443  29.144  1.00  0.00     0.057 A 
ATOM     73  C   UNL A   1      35.756  30.701  28.830  1.00  0.00     0.134 A 
ATOM     74  C   UNL A   1      36.942  32.776  28.718  1.00  0.00     0.134 A 
ATOM     75  F   UNL A   1      35.653  29.420  29.214  1.00  0.00    -0.206 F 
ATOM     76  C   UNL A   1      34.703  31.255  28.102  1.00  0.00     0.040 A 
ATOM     77  C   UNL A   1      35.884  33.350  28.012  1.00  0.00     0.040 A 
ATOM     78  F   UNL A   1      38.000  33.547  29.013  1.00  0.00    -0.206 F 
ATOM     79  C   UNL A   1      34.764  32.586  27.693  1.00  0.00     0.006 A 
ENDBRANCH  51  72
BRANCH  63  80
ATOM     80  C   UNL A   1      39.149  32.073  35.725  1.00  0.00     0.057 A 
ATOM     81  C   UNL A   1      39.598  33.386  35.919  1.00  0.00     0.134 A 
ATOM     82  C   UNL A   1      38.309  31.529  36.705  1.00  0.00     0.134 A 
ATOM     83  F   UNL A   1      40.417  33.965  35.027  1.00  0.00    -0.206 F 
ATOM     84  C   UNL A   1      39.241  34.124  37.049  1.00  0.00     0.040 A 
ATOM     85  C   UNL A   1      37.920  32.266  37.825  1.00  0.00     0.040 A 
ATOM     86  F   UNL A   1      37.837  30.280  36.579  1.00  0.00    -0.206 F 
ATOM     87  C   UNL A   1      38.395  33.565  38.004  1.00  0.00     0.006 A 
ENDBRANCH  63  80
ENDBRANCH  37  38
ENDBRANCH  30  32
ENDBRANCH  29  30
ENDBRANCH  28  29
ENDBRANCH  27  28
ENDBRANCH  26  27
ENDBRANCH  25  26
ENDBRANCH   1  25
TORSDOF 19
ENDMDL
MODEL 2
REMARK VINA RESULT:     -10.5      5.104     10.296
REMARK SMILES Cc1cc(C)cc(-c2ccc([C@@H](C)C(=O)OCCOCCOCCOC(=O)c3ccc(-c4c5nc(c(-c6c(F)cccc6F)c6ccc([nH]6)c(-c6c(F)cccc6F)c6nc(c(-c7c(F)cccc7F)c7ccc4[nH]7)C=C6)C=C5)cc3)cc2F)c1
REMARK SMILES IDX 20 1 19 2 18 3 17 4 16 5 14 6 15 7 12 8 13 9 11 10 8 11 9 12
REMARK SMILES IDX 83 13 10 14 82 15 84 16 7 17 1 18 2 19 3 20 85 21 4 22 5 23
REMARK SMILES IDX 6 24 21 25 22 26 23 27 24 28 25 29 26 30 27 31 28 32 29 33
REMARK SMILES IDX 81 34 30 35 80 36 31 37 32 38 33 39 74 40 34 41 79 42 73 43
REMARK SMILES IDX 75 44 35 45 78 46 72 47 71 48 36 50 62 51 45 52 61 53 46 54
REMARK SMILES IDX 49 55 60 56 76 57 47 58 48 59 59 61 77 62 50 63 37 64 38 65
REMARK SMILES IDX 43 66 39 67 40 68 42 69 44 70 41 71 63 72 64 73 69 74 65 75
REMARK SMILES IDX 66 76 68 77 70 78 67 79 51 80 52 81 57 82 53 83 54 84 56 85
REMARK SMILES IDX 58 86 55 87
REMARK H PARENT 75 49 49 60
REMARK Flexibility Score: inf
ROOT
ATOM      1  C   UNL A   1      33.683  34.963  29.111  1.00  0.00     0.188 C 
ENDROOT
BRANCH   1   2
ATOM      2  O   UNL A   1      32.728  34.134  28.458  1.00  0.00    -0.376 OA
BRANCH   2   3
ATOM      3  C   UNL A   1      33.155  32.922  27.849  1.00  0.00     0.202 C 
BRANCH   3   4
ATOM      4  C   UNL A   1      32.173  32.200  26.914  1.00  0.00     0.261 C 
BRANCH   4   5
ATOM      5  O   UNL A   1      32.150  30.758  27.027  1.00  0.00    -0.463 OA
BRANCH   5   6
ATOM      6  C   UNL A   1      33.163  30.091  26.416  1.00  0.00     0.313 C 
ATOM      7  O   UNL A   1      34.334  30.160  26.784  1.00  0.00    -0.252 OA
BRANCH   6   8
ATOM      8  C   UNL A   1      32.777  29.211  25.223  1.00  0.00     0.126 C 
ATOM      9  C   UNL A   1      31.280  29.371  24.964  1.00  0.00     0.025 C 
BRANCH   8  10
ATOM     10  C   UNL A   1      33.169  27.736  25.157  1.00  0.00    -0.031 A 
ATOM     11  C   UNL A   1      33.849  24.959  24.895  1.00  0.00     0.017 A 
ATOM     12  C   UNL A   1      33.500  25.522  26.137  1.00  0.00     0.012 A 
ATOM     13  C   UNL A   1      33.858  25.819  23.793  1.00  0.00     0.131 A 
ATOM     14  C   UNL A   1      33.158  26.883  26.267  1.00  0.00     0.005 A 
ATOM     15  C   UNL A   1      33.517  27.173  23.912  1.00  0.00     0.044 A 
ATOM     16  F   UNL A   1      34.178  25.358  22.574  1.00  0.00    -0.206 F 
BRANCH  11  17
ATOM     17  C   UNL A   1      34.133  23.515  24.768  1.00  0.00    -0.015 A 
ATOM     18  C   UNL A   1      32.315  20.163  24.368  1.00  0.00     0.044 C 
ATOM     19  C   UNL A   1      33.403  21.189  24.512  1.00  0.00    -0.050 A 
ATOM     20  C   UNL A   1      34.739  20.770  24.512  1.00  0.00     0.006 A 
ATOM     21  C   UNL A   1      33.109  22.558  24.645  1.00  0.00     0.012 A 
ATOM     22  C   UNL A   1      35.777  21.696  24.644  1.00  0.00    -0.050 A 
ATOM     23  C   UNL A   1      37.202  21.227  24.645  1.00  0.00     0.044 C 
ATOM     24  C   UNL A   1      35.464  23.058  24.768  1.00  0.00     0.012 A 
ENDBRANCH  11  17
ENDBRANCH   8  10
ENDBRANCH   6   8
ENDBRANCH   5   6
ENDBRANCH   4   5
ENDBRANCH   3   4
ENDBRANCH   2   3
ENDBRANCH   1   2
BRANCH   1  25
ATOM     25  C   UNL A   1      33.218  35.954  30.188  1.00  0.00     0.188 C 
BRANCH  25  26
ATOM     26  O   UNL A   1      33.531  35.571  31.511  1.00  0.00    -0.376 OA
BRANCH  26  27
ATOM     27  C   UNL A   1      34.534  34.586  31.659  1.00  0.00     0.202 C 
BRANCH  27  28
ATOM     28  C   UNL A   1      34.102  33.387  32.514  1.00  0.00     0.261 C 
BRANCH  28  29
ATOM     29  O   UNL A   1      34.991  32.254  32.479  1.00  0.00    -0.460 OA
BRANCH  29  30
ATOM     30  C   UNL A   1      36.214  32.420  33.038  1.00  0.00     0.338 C 
ATOM     31  O   UNL A   1      36.464  32.929  34.113  1.00  0.00    -0.246 OA
BRANCH  30  32
ATOM     32  C   UNL A   1      37.198  31.678  32.213  1.00  0.00     0.060 A 
ATOM     33  C   UNL A   1      38.041  30.747  32.835  1.00  0.00     0.016 A 
ATOM     34  C   UNL A   1      37.296  31.905  30.837  1.00  0.00     0.016 A 
ATOM     35  C   UNL A   1      39.010  30.070  32.091  1.00  0.00     0.010 A 
ATOM     36  C   UNL A   1      38.280  31.240  30.096  1.00  0.00     0.010 A 
ATOM     37  C   UNL A   1      39.165  30.344  30.725  1.00  0.00    -0.014 A 
BRANCH  37  38
ATOM     38  C   UNL A   1      40.361  29.846  29.998  1.00  0.00     0.031 A 
ATOM     39  C   UNL A   1      41.510  30.790  29.771  1.00  0.00     0.074 A 
ATOM     40  C   UNL A   1      40.447  28.574  29.567  1.00  0.00     0.049 A 
ATOM     41  N   UNL A   1      42.636  30.594  29.132  1.00  0.00    -0.248 NA
ATOM     42  C   UNL A   1      41.373  32.139  30.344  1.00  0.00     0.031 C 
ATOM     43  C   UNL A   1      39.428  27.545  29.757  1.00  0.00     0.029 A 
ATOM     44  N   UNL A   1      41.446  27.936  28.872  1.00  0.00    -0.354 N 
ATOM     45  C   UNL A   1      43.334  31.791  29.222  1.00  0.00     0.074 A 
ATOM     46  C   UNL A   1      42.495  32.719  29.948  1.00  0.00     0.031 C 
ATOM     47  C   UNL A   1      39.853  26.403  29.188  1.00  0.00     0.029 A 
ATOM     48  C   UNL A   1      41.157  26.628  28.566  1.00  0.00     0.049 A 
ATOM     49  H   UNL A   1      42.290  28.374  28.618  1.00  0.00     0.167 HD
ATOM     50  C   UNL A   1      44.570  32.088  28.754  1.00  0.00     0.037 A 
ATOM     51  C   UNL A   1      41.856  25.723  27.852  1.00  0.00     0.037 A 
ATOM     52  C   UNL A   1      45.410  31.166  28.035  1.00  0.00     0.049 A 
ATOM     53  C   UNL A   1      43.198  26.099  27.274  1.00  0.00     0.074 A 
ATOM     54  C   UNL A   1      46.683  31.377  27.536  1.00  0.00     0.029 A 
ATOM     55  N   UNL A   1      45.060  29.866  27.708  1.00  0.00    -0.354 N 
ATOM     56  N   UNL A   1      43.855  27.229  27.375  1.00  0.00    -0.248 NA
ATOM     57  C   UNL A   1      43.894  25.073  26.482  1.00  0.00     0.031 C 
ATOM     58  C   UNL A   1      47.084  30.222  26.859  1.00  0.00     0.029 A 
ATOM     59  C   UNL A   1      46.085  29.270  26.990  1.00  0.00     0.049 A 
ATOM     60  H   UNL A   1      44.212  29.430  27.950  1.00  0.00     0.167 HD
ATOM     61  C   UNL A   1      45.047  27.043  26.686  1.00  0.00     0.074 A 
ATOM     62  C   UNL A   1      45.031  25.687  26.181  1.00  0.00     0.031 C 
ATOM     63  C   UNL A   1      46.064  27.918  26.492  1.00  0.00     0.037 A 
BRANCH  50  64
ATOM     64  C   UNL A   1      45.090  33.475  28.991  1.00  0.00     0.057 A 
ATOM     65  C   UNL A   1      44.857  34.492  28.056  1.00  0.00     0.134 A 
ATOM     66  C   UNL A   1      45.878  33.789  30.105  1.00  0.00     0.134 A 
ATOM     67  F   UNL A   1      44.113  34.258  26.965  1.00  0.00    -0.206 F 
ATOM     68  C   UNL A   1      45.402  35.767  28.213  1.00  0.00     0.040 A 
ATOM     69  C   UNL A   1      46.407  35.068  30.286  1.00  0.00     0.040 A 
ATOM     70  F   UNL A   1      46.128  32.864  31.044  1.00  0.00    -0.206 F 
ATOM     71  C   UNL A   1      46.180  36.058  29.333  1.00  0.00     0.006 A 
ENDBRANCH  50  64
BRANCH  51  72
ATOM     72  C   UNL A   1      41.299  24.361  27.641  1.00  0.00     0.057 A 
ATOM     73  C   UNL A   1      41.785  23.256  28.351  1.00  0.00     0.134 A 
ATOM     74  C   UNL A   1      40.270  24.132  26.720  1.00  0.00     0.134 A 
ATOM     75  F   UNL A   1      42.767  23.409  29.252  1.00  0.00    -0.206 F 
ATOM     76  C   UNL A   1      41.283  21.972  28.139  1.00  0.00     0.040 A 
ATOM     77  C   UNL A   1      39.741  22.857  26.516  1.00  0.00     0.040 A 
ATOM     78  F   UNL A   1      39.743  25.155  26.030  1.00  0.00    -0.206 F 
ATOM     79  C   UNL A   1      40.255  21.770  27.220  1.00  0.00     0.006 A 
ENDBRANCH  51  72
BRANCH  63  80
ATOM     80  C   UNL A   1      47.265  27.442  25.723  1.00  0.00     0.057 A 
ATOM     81  C   UNL A   1      47.331  27.604  24.332  1.00  0.00     0.134 A 
ATOM     82  C   UNL A   1      48.318  26.757  26.342  1.00  0.00     0.134 A 
ATOM     83  F   UNL A   1      46.349  28.237  23.672  1.00  0.00    -0.206 F 
ATOM     84  C   UNL A   1      48.393  27.091  23.585  1.00  0.00     0.040 A 
ATOM     85  C   UNL A   1      49.400  26.265  25.610  1.00  0.00     0.040 A 
ATOM     86  F   UNL A   1      48.321  26.574  27.671  1.00  0.00    -0.206 F 
ATOM     87  C   UNL A   1      49.434  26.422  24.225  1.00  0.00     0.006 A 
ENDBRANCH  63  80
ENDBRANCH  37  38
ENDBRANCH  30  32
ENDBRANCH  29  30
ENDBRANCH  28  29
ENDBRANCH  27  28
ENDBRANCH  26  27
ENDBRANCH  25  26
ENDBRANCH   1  25
TORSDOF 19
ENDMDL
MODEL 3
REMARK VINA RESULT:     -10.0      5.397     10.405
REMARK SMILES Cc1cc(C)cc(-c2ccc([C@@H](C)C(=O)OCCOCCOCCOC(=O)c3ccc(-c4c5nc(c(-c6c(F)cccc6F)c6ccc([nH]6)c(-c6c(F)cccc6F)c6nc(c(-c7c(F)cccc7F)c7ccc4[nH]7)C=C6)C=C5)cc3)cc2F)c1
REMARK SMILES IDX 20 1 19 2 18 3 17 4 16 5 14 6 15 7 12 8 13 9 11 10 8 11 9 12
REMARK SMILES IDX 83 13 10 14 82 15 84 16 7 17 1 18 2 19 3 20 85 21 4 22 5 23
REMARK SMILES IDX 6 24 21 25 22 26 23 27 24 28 25 29 26 30 27 31 28 32 29 33
REMARK SMILES IDX 81 34 30 35 80 36 31 37 32 38 33 39 74 40 34 41 79 42 73 43
REMARK SMILES IDX 75 44 35 45 78 46 72 47 71 48 36 50 62 51 45 52 61 53 46 54
REMARK SMILES IDX 49 55 60 56 76 57 47 58 48 59 59 61 77 62 50 63 37 64 38 65
REMARK SMILES IDX 43 66 39 67 40 68 42 69 44 70 41 71 63 72 64 73 69 74 65 75
REMARK SMILES IDX 66 76 68 77 70 78 67 79 51 80 52 81 57 82 53 83 54 84 56 85
REMARK SMILES IDX 58 86 55 87
REMARK H PARENT 75 49 49 60
REMARK Flexibility Score: inf
ROOT
ATOM      1  C   UNL A   1      33.177  36.998  30.145  1.00  0.00     0.188 C 
ENDROOT
BRANCH   1   2
ATOM      2  O   UNL A   1      32.553  36.052  29.284  1.00  0.00    -0.376 OA
BRANCH   2   3
ATOM      3  C   UNL A   1      33.357  35.248  28.430  1.00  0.00     0.202 C 
BRANCH   3   4
ATOM      4  C   UNL A   1      33.360  33.729  28.663  1.00  0.00     0.261 C 
BRANCH   4   5
ATOM      5  O   UNL A   1      33.728  32.925  27.519  1.00  0.00    -0.463 OA
BRANCH   5   6
ATOM      6  C   UNL A   1      32.965  31.826  27.285  1.00  0.00     0.313 C 
ATOM      7  O   UNL A   1      31.816  31.884  26.852  1.00  0.00    -0.252 OA
BRANCH   6   8
ATOM      8  C   UNL A   1      33.614  30.471  27.576  1.00  0.00     0.126 C 
ATOM      9  C   UNL A   1      35.056  30.707  28.023  1.00  0.00     0.025 C 
BRANCH   8  10
ATOM     10  C   UNL A   1      33.556  29.322  26.570  1.00  0.00    -0.031 A 
ATOM     11  C   UNL A   1      33.301  27.193  24.661  1.00  0.00     0.017 A 
ATOM     12  C   UNL A   1      34.219  27.127  25.727  1.00  0.00     0.012 A 
ATOM     13  C   UNL A   1      32.522  28.351  24.571  1.00  0.00     0.131 A 
ATOM     14  C   UNL A   1      34.341  28.168  26.669  1.00  0.00     0.005 A 
ATOM     15  C   UNL A   1      32.635  29.389  25.505  1.00  0.00     0.044 A 
ATOM     16  F   UNL A   1      31.622  28.489  23.585  1.00  0.00    -0.206 F 
BRANCH  11  17
ATOM     17  C   UNL A   1      33.137  26.061  23.727  1.00  0.00    -0.015 A 
ATOM     18  C   UNL A   1      33.037  22.228  23.707  1.00  0.00     0.044 C 
ATOM     19  C   UNL A   1      33.008  23.660  23.252  1.00  0.00    -0.050 A 
ATOM     20  C   UNL A   1      32.803  23.940  21.895  1.00  0.00     0.006 A 
ATOM     21  C   UNL A   1      33.178  24.723  24.158  1.00  0.00     0.012 A 
ATOM     22  C   UNL A   1      32.769  25.259  21.436  1.00  0.00    -0.050 A 
ATOM     23  C   UNL A   1      32.552  25.538  19.978  1.00  0.00     0.044 C 
ATOM     24  C   UNL A   1      32.934  26.305  22.356  1.00  0.00     0.012 A 
ENDBRANCH  11  17
ENDBRANCH   8  10
ENDBRANCH   6   8
ENDBRANCH   5   6
ENDBRANCH   4   5
ENDBRANCH   3   4
ENDBRANCH   2   3
ENDBRANCH   1   2
BRANCH   1  25
ATOM     25  C   UNL A   1      33.350  36.670  31.636  1.00  0.00     0.188 C 
BRANCH  25  26
ATOM     26  O   UNL A   1      34.223  35.591  31.901  1.00  0.00    -0.376 OA
BRANCH  26  27
ATOM     27  C   UNL A   1      33.881  34.761  32.992  1.00  0.00     0.202 C 
BRANCH  27  28
ATOM     28  C   UNL A   1      34.152  33.271  32.745  1.00  0.00     0.261 C 
BRANCH  28  29
ATOM     29  O   UNL A   1      35.438  32.966  32.171  1.00  0.00    -0.460 OA
BRANCH  29  30
ATOM     30  C   UNL A   1      36.392  32.510  33.018  1.00  0.00     0.338 C 
ATOM     31  O   UNL A   1      36.383  32.571  34.231  1.00  0.00    -0.246 OA
BRANCH  30  32
ATOM     32  C   UNL A   1      37.367  31.722  32.225  1.00  0.00     0.060 A 
ATOM     33  C   UNL A   1      38.353  30.989  32.899  1.00  0.00     0.016 A 
ATOM     34  C   UNL A   1      37.316  31.713  30.828  1.00  0.00     0.016 A 
ATOM     35  C   UNL A   1      39.315  30.277  32.177  1.00  0.00     0.010 A 
ATOM     36  C   UNL A   1      38.291  31.016  30.107  1.00  0.00     0.010 A 
ATOM     37  C   UNL A   1      39.316  30.322  30.775  1.00  0.00    -0.014 A 
BRANCH  37  38
ATOM     38  C   UNL A   1      40.485  29.807  30.017  1.00  0.00     0.031 A 
ATOM     39  C   UNL A   1      41.650  30.730  29.779  1.00  0.00     0.074 A 
ATOM     40  C   UNL A   1      40.535  28.540  29.567  1.00  0.00     0.049 A 
ATOM     41  N   UNL A   1      42.758  30.519  29.113  1.00  0.00    -0.248 NA
ATOM     42  C   UNL A   1      41.554  32.074  30.372  1.00  0.00     0.031 C 
ATOM     43  C   UNL A   1      39.498  27.531  29.765  1.00  0.00     0.029 A 
ATOM     44  N   UNL A   1      41.505  27.891  28.843  1.00  0.00    -0.354 N 
ATOM     45  C   UNL A   1      43.484  31.699  29.205  1.00  0.00     0.074 A 
ATOM     46  C   UNL A   1      42.681  32.634  29.961  1.00  0.00     0.031 C 
ATOM     47  C   UNL A   1      39.886  26.389  29.172  1.00  0.00     0.029 A 
ATOM     48  C   UNL A   1      41.182  26.594  28.525  1.00  0.00     0.049 A 
ATOM     49  H   UNL A   1      42.353  28.315  28.577  1.00  0.00     0.167 HD
ATOM     50  C   UNL A   1      44.716  31.976  28.715  1.00  0.00     0.037 A 
ATOM     51  C   UNL A   1      41.846  25.684  27.784  1.00  0.00     0.037 A 
ATOM     52  C   UNL A   1      45.520  31.047  27.966  1.00  0.00     0.049 A 
ATOM     53  C   UNL A   1      43.183  26.039  27.184  1.00  0.00     0.074 A 
ATOM     54  C   UNL A   1      46.787  31.237  27.443  1.00  0.00     0.029 A 
ATOM     55  N   UNL A   1      45.136  29.758  27.629  1.00  0.00    -0.354 N 
ATOM     56  N   UNL A   1      43.866  27.153  27.286  1.00  0.00    -0.248 NA
ATOM     57  C   UNL A   1      43.840  25.010  26.363  1.00  0.00     0.031 C 
ATOM     58  C   UNL A   1      47.148  30.083  26.743  1.00  0.00     0.029 A 
ATOM     59  C   UNL A   1      46.132  29.151  26.882  1.00  0.00     0.049 A 
ATOM     60  H   UNL A   1      44.283  29.338  27.883  1.00  0.00     0.167 HD
ATOM     61  C   UNL A   1      45.040  26.951  26.569  1.00  0.00     0.074 A 
ATOM     62  C   UNL A   1      44.983  25.603  26.047  1.00  0.00     0.031 C 
ATOM     63  C   UNL A   1      46.072  27.807  26.366  1.00  0.00     0.037 A 
BRANCH  50  64
ATOM     64  C   UNL A   1      45.271  33.348  28.960  1.00  0.00     0.057 A 
ATOM     65  C   UNL A   1      45.104  34.364  28.008  1.00  0.00     0.134 A 
ATOM     66  C   UNL A   1      46.028  33.647  30.099  1.00  0.00     0.134 A 
ATOM     67  F   UNL A   1      44.393  34.142  26.893  1.00  0.00    -0.206 F 
ATOM     68  C   UNL A   1      45.684  35.622  28.176  1.00  0.00     0.040 A 
ATOM     69  C   UNL A   1      46.590  34.911  30.290  1.00  0.00     0.040 A 
ATOM     70  F   UNL A   1      46.213  32.723  31.054  1.00  0.00    -0.206 F 
ATOM     71  C   UNL A   1      46.429  35.898  29.321  1.00  0.00     0.006 A 
ENDBRANCH  50  64
BRANCH  51  72
ATOM     72  C   UNL A   1      41.255  24.338  27.566  1.00  0.00     0.057 A 
ATOM     73  C   UNL A   1      40.198  24.141  26.669  1.00  0.00     0.134 A 
ATOM     74  C   UNL A   1      41.732  23.216  28.254  1.00  0.00     0.134 A 
ATOM     75  F   UNL A   1      39.698  25.175  25.975  1.00  0.00    -0.206 F 
ATOM     76  C   UNL A   1      39.623  22.884  26.480  1.00  0.00     0.040 A 
ATOM     77  C   UNL A   1      41.184  21.947  28.054  1.00  0.00     0.040 A 
ATOM     78  F   UNL A   1      42.763  23.334  29.105  1.00  0.00    -0.206 F 
ATOM     79  C   UNL A   1      40.119  21.781  27.172  1.00  0.00     0.006 A 
ENDBRANCH  51  72
BRANCH  63  80
ATOM     80  C   UNL A   1      47.246  27.316  25.565  1.00  0.00     0.057 A 
ATOM     81  C   UNL A   1      48.328  26.688  26.197  1.00  0.00     0.134 A 
ATOM     82  C   UNL A   1      47.342  27.531  24.185  1.00  0.00     0.134 A 
ATOM     83  F   UNL A   1      48.309  26.463  27.520  1.00  0.00    -0.206 F 
ATOM     84  C   UNL A   1      49.468  26.305  25.488  1.00  0.00     0.040 A 
ATOM     85  C   UNL A   1      48.464  27.126  23.459  1.00  0.00     0.040 A 
ATOM     86  F   UNL A   1      46.339  28.120  23.517  1.00  0.00    -0.206 F 
ATOM     87  C   UNL A   1      49.536  26.520  24.113  1.00  0.00     0.006 A 
ENDBRANCH  63  80
ENDBRANCH  37  38
ENDBRANCH  30  32
ENDBRANCH  29  30
ENDBRANCH  28  29
ENDBRANCH  27  28
ENDBRANCH  26  27
ENDBRANCH  25  26
ENDBRANCH   1  25
TORSDOF 19
ENDMDL
