MODEL 1
REMARK VINA RESULT:     -10.8      0.000      0.000
REMARK SMILES O=C(Cc1cn2ccsc2n1)N[C@@H]1C=C[C@H](C(=O)OCCOCCOCCOC(=O)c2ccc(-c3c4nc(c(-c5c(F)cccc5F)c5ccc([nH]5)c(-c5c(F)cccc5F)c5nc(c(-c6c(F)cccc6F)c6ccc3[nH]6)C=C5)C=C4)cc2)C1
REMARK SMILES IDX 23 1 22 2 21 3 20 4 19 5 17 6 18 7 16 8 13 9 14 10 85 11
REMARK SMILES IDX 15 12 12 13 1 14 2 15 3 17 4 18 5 19 11 20 6 21 10 22 7 23
REMARK SMILES IDX 9 24 8 25 24 26 25 27 26 28 27 29 28 30 29 31 30 32 31 33
REMARK SMILES IDX 32 34 84 35 33 36 83 37 34 38 35 39 36 40 77 41 37 42 82 43
REMARK SMILES IDX 76 44 78 45 38 46 81 47 75 48 74 49 39 51 65 52 48 53 64 54
REMARK SMILES IDX 49 55 52 56 63 57 79 58 50 59 51 60 62 62 80 63 53 64 40 65
REMARK SMILES IDX 41 66 46 67 42 68 43 69 45 70 47 71 44 72 66 73 67 74 72 75
REMARK SMILES IDX 68 76 69 77 71 78 73 79 70 80 54 81 55 82 60 83 56 84 57 85
REMARK SMILES IDX 59 86 61 87 58 88
REMARK H PARENT 12 16 78 50 52 61
REMARK Flexibility Score: inf
ROOT
ATOM      1  C   UNL A   1      34.471  33.690  27.975  1.00  0.00     0.188 C 
ENDROOT
BRANCH   1   2
ATOM      2  O   UNL A   1      34.434  32.464  27.299  1.00  0.00    -0.376 OA
BRANCH   2   3
ATOM      3  C   UNL A   1      34.049  31.321  28.035  1.00  0.00     0.202 C 
BRANCH   3   4
ATOM      4  C   UNL A   1      33.588  30.001  27.373  1.00  0.00     0.261 C 
BRANCH   4   5
ATOM      5  O   UNL A   1      32.190  29.857  27.048  1.00  0.00    -0.463 OA
BRANCH   5   6
ATOM      6  C   UNL A   1      31.733  28.657  26.588  1.00  0.00     0.312 C 
ATOM      7  O   UNL A   1      31.870  27.610  27.208  1.00  0.00    -0.252 OA
BRANCH   6   8
ATOM      8  C   UNL A   1      31.178  28.783  25.141  1.00  0.00     0.124 C 
ATOM      9  C   UNL A   1      31.946  27.292  23.288  1.00  0.00     0.106 C 
ATOM     10  C   UNL A   1      32.713  28.565  23.341  1.00  0.00    -0.006 C 
ATOM     11  C   UNL A   1      30.831  27.522  24.321  1.00  0.00     0.048 C 
ATOM     12  C   UNL A   1      32.234  29.404  24.271  1.00  0.00    -0.014 C 
BRANCH   9  13
ATOM     13  N   UNL A   1      32.708  26.055  23.471  1.00  0.00    -0.350 N 
ATOM     14  O   UNL A   1      31.073  24.559  23.165  1.00  0.00    -0.275 OA
ATOM     15  C   UNL A   1      32.285  24.798  23.142  1.00  0.00     0.226 C 
ATOM     16  H   UNL A   1      33.606  26.137  23.867  1.00  0.00     0.164 HD
BRANCH  15  17
ATOM     17  C   UNL A   1      33.229  23.630  22.780  1.00  0.00     0.157 C 
BRANCH  17  18
ATOM     18  C   UNL A   1      33.173  22.164  23.226  1.00  0.00     0.070 A 
ATOM     19  C   UNL A   1      32.092  20.938  22.386  1.00  0.00     0.118 A 
ATOM     20  N   UNL A   1      34.241  20.897  24.495  1.00  0.00    -0.223 NA
ATOM     21  N   UNL A   1      32.463  19.274  23.079  1.00  0.00    -0.297 N 
ATOM     22  C   UNL A   1      33.731  19.303  24.338  1.00  0.00     0.193 A 
ATOM     23  C   UNL A   1      32.304  17.943  22.708  1.00  0.00     0.104 A 
ATOM     24  S   UNL A   1      34.359  17.712  24.525  1.00  0.00    -0.105 S 
ATOM     25  C   UNL A   1      33.143  17.086  23.354  1.00  0.00     0.087 A 
ENDBRANCH  17  18
ENDBRANCH  15  17
ENDBRANCH   9  13
ENDBRANCH   6   8
ENDBRANCH   5   6
ENDBRANCH   4   5
ENDBRANCH   3   4
ENDBRANCH   2   3
ENDBRANCH   1   2
BRANCH   1  26
ATOM     26  C   UNL A   1      33.102  34.373  28.203  1.00  0.00     0.188 C 
BRANCH  26  27
ATOM     27  O   UNL A   1      32.668  34.725  29.505  1.00  0.00    -0.376 OA
BRANCH  27  28
ATOM     28  C   UNL A   1      33.419  35.651  30.265  1.00  0.00     0.202 C 
BRANCH  28  29
ATOM     29  C   UNL A   1      33.999  35.195  31.610  1.00  0.00     0.261 C 
BRANCH  29  30
ATOM     30  O   UNL A   1      35.274  34.543  31.554  1.00  0.00    -0.460 OA
BRANCH  30  31
ATOM     31  C   UNL A   1      35.277  33.192  31.410  1.00  0.00     0.338 C 
ATOM     32  O   UNL A   1      34.312  32.455  31.336  1.00  0.00    -0.246 OA
BRANCH  31  33
ATOM     33  C   UNL A   1      36.687  32.754  31.259  1.00  0.00     0.060 A 
ATOM     34  C   UNL A   1      37.206  32.127  29.759  1.00  0.00     0.016 A 
ATOM     35  C   UNL A   1      37.443  32.583  32.683  1.00  0.00     0.016 A 
ATOM     36  C   UNL A   1      38.555  31.141  29.519  1.00  0.00     0.010 A 
ATOM     37  C   UNL A   1      38.804  31.600  32.704  1.00  0.00     0.010 A 
ATOM     38  C   UNL A   1      39.495  30.723  30.920  1.00  0.00    -0.014 A 
BRANCH  38  39
ATOM     39  C   UNL A   1      40.823  29.933  30.355  1.00  0.00     0.031 A 
ATOM     40  C   UNL A   1      42.085  30.718  30.194  1.00  0.00     0.074 A 
ATOM     41  C   UNL A   1      40.863  28.633  29.961  1.00  0.00     0.049 A 
ATOM     42  N   UNL A   1      42.982  30.645  29.250  1.00  0.00    -0.248 NA
ATOM     43  C   UNL A   1      42.285  31.804  31.151  1.00  0.00     0.031 C 
ATOM     44  C   UNL A   1      39.835  27.625  30.176  1.00  0.00     0.029 A 
ATOM     45  N   UNL A   1      41.800  27.949  29.208  1.00  0.00    -0.354 N 
ATOM     46  C   UNL A   1      43.754  31.787  29.403  1.00  0.00     0.074 A 
ATOM     47  C   UNL A   1      43.185  32.531  30.506  1.00  0.00     0.031 C 
ATOM     48  C   UNL A   1      40.138  26.492  29.529  1.00  0.00     0.029 A 
ATOM     49  C   UNL A   1      41.384  26.690  28.814  1.00  0.00     0.049 A 
ATOM     50  H   UNL A   1      42.680  28.323  28.976  1.00  0.00     0.167 HD
ATOM     51  C   UNL A   1      44.839  32.161  28.685  1.00  0.00     0.037 A 
ATOM     52  C   UNL A   1      41.916  25.805  27.947  1.00  0.00     0.037 A 
ATOM     53  C   UNL A   1      45.529  31.264  27.794  1.00  0.00     0.049 A 
ATOM     54  C   UNL A   1      43.203  26.171  27.262  1.00  0.00     0.074 A 
ATOM     55  C   UNL A   1      46.733  31.458  27.141  1.00  0.00     0.029 A 
ATOM     56  N   UNL A   1      45.126  29.965  27.512  1.00  0.00    -0.354 N 
ATOM     57  N   UNL A   1      43.860  27.305  27.304  1.00  0.00    -0.248 NA
ATOM     58  C   UNL A   1      43.838  25.136  26.434  1.00  0.00     0.031 C 
ATOM     59  C   UNL A   1      47.057  30.280  26.461  1.00  0.00     0.029 A 
ATOM     60  C   UNL A   1      46.075  29.338  26.723  1.00  0.00     0.049 A 
ATOM     61  H   UNL A   1      44.290  29.552  27.826  1.00  0.00     0.167 HD
ATOM     62  C   UNL A   1      45.013  27.100  26.559  1.00  0.00     0.074 A 
ATOM     63  C   UNL A   1      44.967  25.733  26.083  1.00  0.00     0.031 C 
ATOM     64  C   UNL A   1      46.022  27.964  26.294  1.00  0.00     0.037 A 
BRANCH  51  65
ATOM     65  C   UNL A   1      45.360  33.562  28.850  1.00  0.00     0.057 A 
ATOM     66  C   UNL A   1      44.843  34.660  28.151  1.00  0.00     0.134 A 
ATOM     67  C   UNL A   1      46.398  33.819  29.759  1.00  0.00     0.134 A 
ATOM     68  F   UNL A   1      43.838  34.500  27.276  1.00  0.00    -0.206 F 
ATOM     69  C   UNL A   1      45.378  35.941  28.295  1.00  0.00     0.040 A 
ATOM     70  C   UNL A   1      46.901  35.106  29.958  1.00  0.00     0.040 A 
ATOM     71  F   UNL A   1      46.937  32.824  30.481  1.00  0.00    -0.206 F 
ATOM     72  C   UNL A   1      46.403  36.169  29.210  1.00  0.00     0.006 A 
ENDBRANCH  51  65
BRANCH  52  73
ATOM     73  C   UNL A   1      41.270  24.484  27.692  1.00  0.00     0.057 A 
ATOM     74  C   UNL A   1      41.729  23.325  28.336  1.00  0.00     0.134 A 
ATOM     75  C   UNL A   1      40.213  24.330  26.786  1.00  0.00     0.134 A 
ATOM     76  F   UNL A   1      42.746  23.399  29.206  1.00  0.00    -0.206 F 
ATOM     77  C   UNL A   1      41.193  22.065  28.059  1.00  0.00     0.040 A 
ATOM     78  C   UNL A   1      39.646  23.078  26.524  1.00  0.00     0.040 A 
ATOM     79  F   UNL A   1      39.711  25.394  26.143  1.00  0.00    -0.206 F 
ATOM     80  C   UNL A   1      40.146  21.939  27.151  1.00  0.00     0.006 A 
ENDBRANCH  52  73
BRANCH  64  81
ATOM     81  C   UNL A   1      47.192  27.435  25.521  1.00  0.00     0.057 A 
ATOM     82  C   UNL A   1      47.303  27.599  24.136  1.00  0.00     0.134 A 
ATOM     83  C   UNL A   1      48.244  26.791  26.186  1.00  0.00     0.134 A 
ATOM     84  F   UNL A   1      46.322  28.193  23.440  1.00  0.00    -0.206 F 
ATOM     85  C   UNL A   1      48.409  27.121  23.434  1.00  0.00     0.040 A 
ATOM     86  C   UNL A   1      49.371  26.341  25.502  1.00  0.00     0.040 A 
ATOM     87  F   UNL A   1      48.201  26.610  27.515  1.00  0.00    -0.206 F 
ATOM     88  C   UNL A   1      49.452  26.500  24.120  1.00  0.00     0.006 A 
ENDBRANCH  64  81
ENDBRANCH  38  39
ENDBRANCH  31  33
ENDBRANCH  30  31
ENDBRANCH  29  30
ENDBRANCH  28  29
ENDBRANCH  27  28
ENDBRANCH  26  27
ENDBRANCH   1  26
TORSDOF 20
ENDMDL
MODEL 2
REMARK VINA RESULT:     -10.6      1.256      1.839
REMARK SMILES O=C(Cc1cn2ccsc2n1)N[C@@H]1C=C[C@H](C(=O)OCCOCCOCCOC(=O)c2ccc(-c3c4nc(c(-c5c(F)cccc5F)c5ccc([nH]5)c(-c5c(F)cccc5F)c5nc(c(-c6c(F)cccc6F)c6ccc3[nH]6)C=C5)C=C4)cc2)C1
REMARK SMILES IDX 23 1 22 2 21 3 20 4 19 5 17 6 18 7 16 8 13 9 14 10 85 11
REMARK SMILES IDX 15 12 12 13 1 14 2 15 3 17 4 18 5 19 11 20 6 21 10 22 7 23
REMARK SMILES IDX 9 24 8 25 24 26 25 27 26 28 27 29 28 30 29 31 30 32 31 33
REMARK SMILES IDX 32 34 84 35 33 36 83 37 34 38 35 39 36 40 77 41 37 42 82 43
REMARK SMILES IDX 76 44 78 45 38 46 81 47 75 48 74 49 39 51 65 52 48 53 64 54
REMARK SMILES IDX 49 55 52 56 63 57 79 58 50 59 51 60 62 62 80 63 53 64 40 65
REMARK SMILES IDX 41 66 46 67 42 68 43 69 45 70 47 71 44 72 66 73 67 74 72 75
REMARK SMILES IDX 68 76 69 77 71 78 73 79 70 80 54 81 55 82 60 83 56 84 57 85
REMARK SMILES IDX 59 86 61 87 58 88
REMARK H PARENT 12 16 78 50 52 61
REMARK Flexibility Score: inf
ROOT
ATOM      1  C   UNL A   1      34.911  33.728  28.197  1.00  0.00     0.188 C 
ENDROOT
BRANCH   1   2
ATOM      2  O   UNL A   1      34.640  32.480  27.623  1.00  0.00    -0.376 OA
BRANCH   2   3
ATOM      3  C   UNL A   1      33.290  32.071  27.552  1.00  0.00     0.202 C 
BRANCH   3   4
ATOM      4  C   UNL A   1      32.855  30.648  27.129  1.00  0.00     0.261 C 
BRANCH   4   5
ATOM      5  O   UNL A   1      32.596  30.405  25.730  1.00  0.00    -0.463 OA
BRANCH   5   6
ATOM      6  C   UNL A   1      32.635  29.127  25.257  1.00  0.00     0.312 C 
ATOM      7  O   UNL A   1      33.417  28.762  24.387  1.00  0.00    -0.252 OA
BRANCH   6   8
ATOM      8  C   UNL A   1      31.475  28.274  25.843  1.00  0.00     0.124 C 
ATOM      9  C   UNL A   1      31.588  25.779  25.964  1.00  0.00     0.106 C 
ATOM     10  C   UNL A   1      30.911  26.253  24.728  1.00  0.00    -0.006 C 
ATOM     11  C   UNL A   1      31.772  27.076  26.770  1.00  0.00     0.048 C 
ATOM     12  C   UNL A   1      30.763  27.586  24.713  1.00  0.00    -0.014 C 
BRANCH   9  13
ATOM     13  N   UNL A   1      32.808  24.988  25.786  1.00  0.00    -0.350 N 
ATOM     14  O   UNL A   1      32.339  23.268  27.138  1.00  0.00    -0.275 OA
ATOM     15  C   UNL A   1      32.982  23.688  26.170  1.00  0.00     0.226 C 
ATOM     16  H   UNL A   1      33.570  25.433  25.350  1.00  0.00     0.164 HD
BRANCH  15  17
ATOM     17  C   UNL A   1      33.967  22.708  25.497  1.00  0.00     0.157 C 
BRANCH  17  18
ATOM     18  C   UNL A   1      33.776  21.226  25.149  1.00  0.00     0.070 A 
ATOM     19  C   UNL A   1      35.202  20.128  24.779  1.00  0.00     0.118 A 
ATOM     20  N   UNL A   1      32.236  19.819  25.193  1.00  0.00    -0.223 NA
ATOM     21  N   UNL A   1      34.575  18.406  24.614  1.00  0.00    -0.297 N 
ATOM     22  C   UNL A   1      32.808  18.276  24.850  1.00  0.00     0.193 A 
ATOM     23  C   UNL A   1      35.080  17.112  24.686  1.00  0.00     0.104 A 
ATOM     24  S   UNL A   1      32.418  16.637  25.200  1.00  0.00    -0.105 S 
ATOM     25  C   UNL A   1      34.135  16.164  24.938  1.00  0.00     0.087 A 
ENDBRANCH  17  18
ENDBRANCH  15  17
ENDBRANCH   9  13
ENDBRANCH   6   8
ENDBRANCH   5   6
ENDBRANCH   4   5
ENDBRANCH   3   4
ENDBRANCH   2   3
ENDBRANCH   1   2
BRANCH   1  26
ATOM     26  C   UNL A   1      33.742  34.380  28.972  1.00  0.00     0.188 C 
BRANCH  26  27
ATOM     27  O   UNL A   1      33.597  34.195  30.369  1.00  0.00    -0.376 OA
BRANCH  27  28
ATOM     28  C   UNL A   1      33.771  35.294  31.241  1.00  0.00     0.202 C 
BRANCH  28  29
ATOM     29  C   UNL A   1      34.520  35.070  32.561  1.00  0.00     0.261 C 
BRANCH  29  30
ATOM     30  O   UNL A   1      35.782  34.398  32.460  1.00  0.00    -0.460 OA
BRANCH  30  31
ATOM     31  C   UNL A   1      35.906  33.205  33.100  1.00  0.00     0.338 C 
ATOM     32  O   UNL A   1      35.339  32.851  34.117  1.00  0.00    -0.246 OA
BRANCH  31  33
ATOM     33  C   UNL A   1      36.800  32.344  32.289  1.00  0.00     0.060 A 
ATOM     34  C   UNL A   1      38.089  31.528  33.056  1.00  0.00     0.016 A 
ATOM     35  C   UNL A   1      36.645  32.607  30.697  1.00  0.00     0.016 A 
ATOM     36  C   UNL A   1      39.471  30.934  32.292  1.00  0.00     0.010 A 
ATOM     37  C   UNL A   1      37.928  32.134  29.722  1.00  0.00     0.010 A 
ATOM     38  C   UNL A   1      39.597  31.177  30.575  1.00  0.00    -0.014 A 
BRANCH  38  39
ATOM     39  C   UNL A   1      40.930  30.338  30.096  1.00  0.00     0.031 A 
ATOM     40  C   UNL A   1      42.205  31.097  29.920  1.00  0.00     0.074 A 
ATOM     41  C   UNL A   1      40.963  29.016  29.784  1.00  0.00     0.049 A 
ATOM     42  N   UNL A   1      43.125  30.955  29.007  1.00  0.00    -0.248 NA
ATOM     43  C   UNL A   1      42.394  32.239  30.812  1.00  0.00     0.031 C 
ATOM     44  C   UNL A   1      39.917  28.035  30.034  1.00  0.00     0.029 A 
ATOM     45  N   UNL A   1      41.911  28.275  29.101  1.00  0.00    -0.354 N 
ATOM     46  C   UNL A   1      43.908  32.096  29.108  1.00  0.00     0.074 A 
ATOM     47  C   UNL A   1      43.320  32.913  30.148  1.00  0.00     0.031 C 
ATOM     48  C   UNL A   1      40.222  26.860  29.467  1.00  0.00     0.029 A 
ATOM     49  C   UNL A   1      41.488  26.999  28.775  1.00  0.00     0.049 A 
ATOM     50  H   UNL A   1      42.801  28.624  28.869  1.00  0.00     0.167 HD
ATOM     51  C   UNL A   1      45.016  32.411  28.398  1.00  0.00     0.037 A 
ATOM     52  C   UNL A   1      42.032  26.055  27.979  1.00  0.00     0.037 A 
ATOM     53  C   UNL A   1      45.717  31.453  27.583  1.00  0.00     0.049 A 
ATOM     54  C   UNL A   1      43.340  26.363  27.308  1.00  0.00     0.074 A 
ATOM     55  C   UNL A   1      46.940  31.593  26.952  1.00  0.00     0.029 A 
ATOM     56  N   UNL A   1      45.305  30.144  27.372  1.00  0.00    -0.354 N 
ATOM     57  N   UNL A   1      44.011  27.490  27.296  1.00  0.00    -0.248 NA
ATOM     58  C   UNL A   1      43.983  25.272  26.563  1.00  0.00     0.031 C 
ATOM     59  C   UNL A   1      47.267  30.371  26.356  1.00  0.00     0.029 A 
ATOM     60  C   UNL A   1      46.266  29.458  26.650  1.00  0.00     0.049 A 
ATOM     61  H   UNL A   1      44.456  29.761  27.688  1.00  0.00     0.167 HD
ATOM     62  C   UNL A   1      45.180  27.226  26.596  1.00  0.00     0.074 A 
ATOM     63  C   UNL A   1      45.128  25.832  26.206  1.00  0.00     0.031 C 
ATOM     64  C   UNL A   1      46.206  28.060  26.306  1.00  0.00     0.037 A 
BRANCH  51  65
ATOM     65  C   UNL A   1      45.551  33.814  28.489  1.00  0.00     0.057 A 
ATOM     66  C   UNL A   1      46.590  34.185  29.352  1.00  0.00     0.134 A 
ATOM     67  C   UNL A   1      45.020  34.819  27.665  1.00  0.00     0.134 A 
ATOM     68  F   UNL A   1      47.161  33.279  30.160  1.00  0.00    -0.206 F 
ATOM     69  C   UNL A   1      47.034  35.505  29.443  1.00  0.00     0.040 A 
ATOM     70  C   UNL A   1      45.497  36.131  27.703  1.00  0.00     0.040 A 
ATOM     71  F   UNL A   1      44.034  34.542  26.798  1.00  0.00    -0.206 F 
ATOM     72  C   UNL A   1      46.495  36.481  28.608  1.00  0.00     0.006 A 
ENDBRANCH  51  65
BRANCH  52  73
ATOM     73  C   UNL A   1      41.376  24.729  27.790  1.00  0.00     0.057 A 
ATOM     74  C   UNL A   1      41.833  23.597  28.481  1.00  0.00     0.134 A 
ATOM     75  C   UNL A   1      40.309  24.540  26.902  1.00  0.00     0.134 A 
ATOM     76  F   UNL A   1      42.859  23.703  29.338  1.00  0.00    -0.206 F 
ATOM     77  C   UNL A   1      41.288  22.328  28.267  1.00  0.00     0.040 A 
ATOM     78  C   UNL A   1      39.732  23.282  26.701  1.00  0.00     0.040 A 
ATOM     79  F   UNL A   1      39.807  25.578  26.216  1.00  0.00    -0.206 F 
ATOM     80  C   UNL A   1      40.232  22.168  27.374  1.00  0.00     0.006 A 
ENDBRANCH  52  73
BRANCH  64  81
ATOM     81  C   UNL A   1      47.389  27.471  25.599  1.00  0.00     0.057 A 
ATOM     82  C   UNL A   1      47.517  27.509  24.206  1.00  0.00     0.134 A 
ATOM     83  C   UNL A   1      48.436  26.898  26.333  1.00  0.00     0.134 A 
ATOM     84  F   UNL A   1      46.541  28.030  23.447  1.00  0.00    -0.206 F 
ATOM     85  C   UNL A   1      48.635  26.976  23.564  1.00  0.00     0.040 A 
ATOM     86  C   UNL A   1      49.575  26.394  25.706  1.00  0.00     0.040 A 
ATOM     87  F   UNL A   1      48.378  26.838  27.672  1.00  0.00    -0.206 F 
ATOM     88  C   UNL A   1      49.673  26.427  24.317  1.00  0.00     0.006 A 
ENDBRANCH  64  81
ENDBRANCH  38  39
ENDBRANCH  31  33
ENDBRANCH  30  31
ENDBRANCH  29  30
ENDBRANCH  28  29
ENDBRANCH  27  28
ENDBRANCH  26  27
ENDBRANCH   1  26
TORSDOF 20
ENDMDL
MODEL 3
REMARK VINA RESULT:     -10.3      4.844     10.427
REMARK SMILES O=C(Cc1cn2ccsc2n1)N[C@@H]1C=C[C@H](C(=O)OCCOCCOCCOC(=O)c2ccc(-c3c4nc(c(-c5c(F)cccc5F)c5ccc([nH]5)c(-c5c(F)cccc5F)c5nc(c(-c6c(F)cccc6F)c6ccc3[nH]6)C=C5)C=C4)cc2)C1
REMARK SMILES IDX 23 1 22 2 21 3 20 4 19 5 17 6 18 7 16 8 13 9 14 10 85 11
REMARK SMILES IDX 15 12 12 13 1 14 2 15 3 17 4 18 5 19 11 20 6 21 10 22 7 23
REMARK SMILES IDX 9 24 8 25 24 26 25 27 26 28 27 29 28 30 29 31 30 32 31 33
REMARK SMILES IDX 32 34 84 35 33 36 83 37 34 38 35 39 36 40 77 41 37 42 82 43
REMARK SMILES IDX 76 44 78 45 38 46 81 47 75 48 74 49 39 51 65 52 48 53 64 54
REMARK SMILES IDX 49 55 52 56 63 57 79 58 50 59 51 60 62 62 80 63 53 64 40 65
REMARK SMILES IDX 41 66 46 67 42 68 43 69 45 70 47 71 44 72 66 73 67 74 72 75
REMARK SMILES IDX 68 76 69 77 71 78 73 79 70 80 54 81 55 82 60 83 56 84 57 85
REMARK SMILES IDX 59 86 61 87 58 88
REMARK H PARENT 12 16 78 50 52 61
REMARK Flexibility Score: inf
ROOT
ATOM      1  C   UNL A   1      37.231  23.613  26.169  1.00  0.00     0.188 C 
ENDROOT
BRANCH   1   2
ATOM      2  O   UNL A   1      36.016  22.924  26.074  1.00  0.00    -0.376 OA
BRANCH   2   3
ATOM      3  C   UNL A   1      35.839  22.056  24.975  1.00  0.00     0.202 C 
BRANCH   3   4
ATOM      4  C   UNL A   1      34.989  20.765  25.041  1.00  0.00     0.261 C 
BRANCH   4   5
ATOM      5  O   UNL A   1      33.699  20.768  24.395  1.00  0.00    -0.463 OA
BRANCH   5   6
ATOM      6  C   UNL A   1      32.952  21.908  24.402  1.00  0.00     0.312 C 
ATOM      7  O   UNL A   1      33.082  22.797  23.569  1.00  0.00    -0.252 OA
BRANCH   6   8
ATOM      8  C   UNL A   1      32.057  21.986  25.672  1.00  0.00     0.124 C 
ATOM      9  C   UNL A   1      30.812  24.063  26.296  1.00  0.00     0.106 C 
ATOM     10  C   UNL A   1      32.137  23.977  26.965  1.00  0.00    -0.006 C 
ATOM     11  C   UNL A   1      30.682  22.687  25.621  1.00  0.00     0.048 C 
ATOM     12  C   UNL A   1      32.759  22.818  26.707  1.00  0.00    -0.014 C 
BRANCH   9  13
ATOM     13  N   UNL A   1      30.594  25.206  25.407  1.00  0.00    -0.350 N 
ATOM     14  O   UNL A   1      30.913  26.878  26.860  1.00  0.00    -0.275 OA
ATOM     15  C   UNL A   1      30.913  26.506  25.682  1.00  0.00     0.226 C 
ATOM     16  H   UNL A   1      30.179  25.021  24.533  1.00  0.00     0.164 HD
BRANCH  15  17
ATOM     17  C   UNL A   1      31.237  27.567  24.606  1.00  0.00     0.157 C 
BRANCH  17  18
ATOM     18  C   UNL A   1      30.305  28.581  23.933  1.00  0.00     0.070 A 
ATOM     19  C   UNL A   1      30.210  30.328  24.494  1.00  0.00     0.118 A 
ATOM     20  N   UNL A   1      29.128  28.687  22.213  1.00  0.00    -0.223 NA
ATOM     21  N   UNL A   1      29.143  31.254  23.314  1.00  0.00    -0.297 N 
ATOM     22  C   UNL A   1      28.510  30.235  21.990  1.00  0.00     0.193 A 
ATOM     23  C   UNL A   1      28.929  32.575  22.935  1.00  0.00     0.104 A 
ATOM     24  S   UNL A   1      27.998  31.258  20.705  1.00  0.00    -0.105 S 
ATOM     25  C   UNL A   1      28.357  32.710  21.706  1.00  0.00     0.087 A 
ENDBRANCH  17  18
ENDBRANCH  15  17
ENDBRANCH   9  13
ENDBRANCH   6   8
ENDBRANCH   5   6
ENDBRANCH   4   5
ENDBRANCH   3   4
ENDBRANCH   2   3
ENDBRANCH   1   2
BRANCH   1  26
ATOM     26  C   UNL A   1      38.481  22.844  25.679  1.00  0.00     0.188 C 
BRANCH  26  27
ATOM     27  O   UNL A   1      38.485  21.429  25.599  1.00  0.00    -0.376 OA
BRANCH  27  28
ATOM     28  C   UNL A   1      39.595  20.705  26.091  1.00  0.00     0.202 C 
BRANCH  28  29
ATOM     29  C   UNL A   1      40.845  21.484  26.521  1.00  0.00     0.261 C 
BRANCH  29  30
ATOM     30  O   UNL A   1      41.764  21.823  25.475  1.00  0.00    -0.460 OA
BRANCH  30  31
ATOM     31  C   UNL A   1      43.043  22.105  25.837  1.00  0.00     0.338 C 
ATOM     32  O   UNL A   1      44.035  21.430  25.633  1.00  0.00    -0.246 OA
BRANCH  31  33
ATOM     33  C   UNL A   1      43.053  23.451  26.459  1.00  0.00     0.060 A 
ATOM     34  C   UNL A   1      42.662  23.605  28.114  1.00  0.00     0.016 A 
ATOM     35  C   UNL A   1      43.068  24.646  25.363  1.00  0.00     0.016 A 
ATOM     36  C   UNL A   1      42.134  25.016  28.873  1.00  0.00     0.010 A 
ATOM     37  C   UNL A   1      42.538  26.153  25.879  1.00  0.00     0.010 A 
ATOM     38  C   UNL A   1      41.969  26.438  27.885  1.00  0.00    -0.014 A 
BRANCH  38  39
ATOM     39  C   UNL A   1      41.633  27.672  28.920  1.00  0.00     0.031 A 
ATOM     40  C   UNL A   1      42.448  27.776  30.169  1.00  0.00     0.074 A 
ATOM     41  C   UNL A   1      40.632  28.580  28.771  1.00  0.00     0.049 A 
ATOM     42  N   UNL A   1      42.067  28.108  31.371  1.00  0.00    -0.248 NA
ATOM     43  C   UNL A   1      43.833  27.323  30.064  1.00  0.00     0.031 C 
ATOM     44  C   UNL A   1      39.824  28.798  27.580  1.00  0.00     0.029 A 
ATOM     45  N   UNL A   1      40.066  29.453  29.682  1.00  0.00    -0.354 N 
ATOM     46  C   UNL A   1      43.120  27.734  32.194  1.00  0.00     0.074 A 
ATOM     47  C   UNL A   1      44.121  27.128  31.342  1.00  0.00     0.031 C 
ATOM     48  C   UNL A   1      38.835  29.667  27.831  1.00  0.00     0.029 A 
ATOM     49  C   UNL A   1      38.910  30.059  29.224  1.00  0.00     0.049 A 
ATOM     50  H   UNL A   1      40.449  29.624  30.572  1.00  0.00     0.167 HD
ATOM     51  C   UNL A   1      43.228  27.898  33.533  1.00  0.00     0.037 A 
ATOM     52  C   UNL A   1      37.989  30.816  29.856  1.00  0.00     0.037 A 
ATOM     53  C   UNL A   1      42.345  28.750  34.287  1.00  0.00     0.049 A 
ATOM     54  C   UNL A   1      38.196  31.113  31.314  1.00  0.00     0.074 A 
ATOM     55  C   UNL A   1      42.447  29.137  35.611  1.00  0.00     0.029 A 
ATOM     56  N   UNL A   1      41.254  29.425  33.756  1.00  0.00    -0.354 N 
ATOM     57  N   UNL A   1      39.118  30.648  32.123  1.00  0.00    -0.248 NA
ATOM     58  C   UNL A   1      37.260  32.053  31.944  1.00  0.00     0.031 C 
ATOM     59  C   UNL A   1      41.417  30.043  35.882  1.00  0.00     0.029 A 
ATOM     60  C   UNL A   1      40.698  30.251  34.716  1.00  0.00     0.049 A 
ATOM     61  H   UNL A   1      40.926  29.330  32.833  1.00  0.00     0.167 HD
ATOM     62  C   UNL A   1      38.909  31.285  33.338  1.00  0.00     0.074 A 
ATOM     63  C   UNL A   1      37.778  32.171  33.158  1.00  0.00     0.031 C 
ATOM     64  C   UNL A   1      39.594  31.151  34.499  1.00  0.00     0.037 A 
BRANCH  51  65
ATOM     65  C   UNL A   1      44.337  27.183  34.255  1.00  0.00     0.057 A 
ATOM     66  C   UNL A   1      45.594  27.754  34.490  1.00  0.00     0.134 A 
ATOM     67  C   UNL A   1      44.125  25.888  34.753  1.00  0.00     0.134 A 
ATOM     68  F   UNL A   1      45.869  28.996  34.062  1.00  0.00    -0.206 F 
ATOM     69  C   UNL A   1      46.615  27.047  35.126  1.00  0.00     0.040 A 
ATOM     70  C   UNL A   1      45.119  25.192  35.444  1.00  0.00     0.040 A 
ATOM     71  F   UNL A   1      42.942  25.276  34.585  1.00  0.00    -0.206 F 
ATOM     72  C   UNL A   1      46.375  25.766  35.616  1.00  0.00     0.006 A 
ENDBRANCH  51  65
BRANCH  52  73
ATOM     73  C   UNL A   1      36.812  31.372  29.128  1.00  0.00     0.057 A 
ATOM     74  C   UNL A   1      35.710  30.560  28.819  1.00  0.00     0.134 A 
ATOM     75  C   UNL A   1      36.761  32.702  28.692  1.00  0.00     0.134 A 
ATOM     76  F   UNL A   1      35.698  29.273  29.195  1.00  0.00    -0.206 F 
ATOM     77  C   UNL A   1      34.628  31.034  28.072  1.00  0.00     0.040 A 
ATOM     78  C   UNL A   1      35.669  33.199  27.971  1.00  0.00     0.040 A 
ATOM     79  F   UNL A   1      37.770  33.543  28.963  1.00  0.00    -0.206 F 
ATOM     80  C   UNL A   1      34.605  32.360  27.647  1.00  0.00     0.006 A 
ENDBRANCH  52  73
BRANCH  64  81
ATOM     81  C   UNL A   1      39.189  32.038  35.638  1.00  0.00     0.057 A 
ATOM     82  C   UNL A   1      39.615  33.368  35.733  1.00  0.00     0.134 A 
ATOM     83  C   UNL A   1      38.322  31.561  36.629  1.00  0.00     0.134 A 
ATOM     84  F   UNL A   1      40.459  33.878  34.823  1.00  0.00    -0.206 F 
ATOM     85  C   UNL A   1      39.211  34.186  36.787  1.00  0.00     0.040 A 
ATOM     86  C   UNL A   1      37.882  32.379  37.668  1.00  0.00     0.040 A 
ATOM     87  F   UNL A   1      37.871  30.297  36.591  1.00  0.00    -0.206 F 
ATOM     88  C   UNL A   1      38.333  33.695  37.752  1.00  0.00     0.006 A 
ENDBRANCH  64  81
ENDBRANCH  38  39
ENDBRANCH  31  33
ENDBRANCH  30  31
ENDBRANCH  29  30
ENDBRANCH  28  29
ENDBRANCH  27  28
ENDBRANCH  26  27
ENDBRANCH   1  26
TORSDOF 20
ENDMDL
