MODEL 1
REMARK VINA RESULT:     -11.0      0.000      0.000
REMARK SMILES O=C(OCCOCCOCCOC(=O)c1cccc(Nc2ccc([N+](=O)[O-])cc2)c1)c1ccc(-c2c3nc(c(-c4c(F)cccc4F)c4ccc([nH]4)c(-c4c(F)cccc4F)c4nc(c(-c5c(F)cccc5F)c5ccc2[nH]5)C=C4)C=C3)cc1
REMARK SMILES IDX 8 1 7 2 6 3 5 4 4 5 3 6 2 7 1 8 31 9 32 10 84 11 33 12 83 13
REMARK SMILES IDX 34 14 35 15 36 16 77 17 37 18 82 19 76 20 78 21 38 22 81 23
REMARK SMILES IDX 75 24 74 25 39 27 65 28 48 29 64 30 49 31 52 32 63 33 79 34
REMARK SMILES IDX 50 35 51 36 62 38 80 39 53 40 40 41 41 42 46 43 42 44 43 45
REMARK SMILES IDX 45 46 47 47 44 48 66 49 67 50 72 51 68 52 69 53 71 54 73 55
REMARK SMILES IDX 70 56 54 57 55 58 60 59 56 60 57 61 59 62 61 63 58 64 9 65
REMARK SMILES IDX 10 66 11 67 12 68 13 69 14 70 15 71 16 72 30 73 17 74 19 75
REMARK SMILES IDX 18 76 20 77 21 79 22 80 29 81 23 82 28 83 24 84 25 85 26 86
REMARK SMILES IDX 27 87
REMARK H PARENT 78 26 52 37 20 78
REMARK Flexibility Score: inf
ROOT
ATOM      1  C   UNL A   1      42.284  18.879  26.701  1.00  0.00     0.188 C 
ENDROOT
BRANCH   1   2
ATOM      2  C   UNL A   1      43.465  18.788  25.724  1.00  0.00     0.188 C 
BRANCH   2   3
ATOM      3  O   UNL A   1      43.651  20.017  25.009  1.00  0.00    -0.376 OA
BRANCH   3   4
ATOM      4  C   UNL A   1      45.024  20.402  24.880  1.00  0.00     0.202 C 
BRANCH   4   5
ATOM      5  C   UNL A   1      45.398  21.676  25.649  1.00  0.00     0.261 C 
BRANCH   5   6
ATOM      6  O   UNL A   1      44.250  22.316  26.226  1.00  0.00    -0.460 OA
BRANCH   6   7
ATOM      7  C   UNL A   1      43.598  23.415  25.770  1.00  0.00     0.338 C 
ATOM      8  O   UNL A   1      43.350  23.498  24.569  1.00  0.00    -0.246 OA
BRANCH   7   9
ATOM      9  C   UNL A   1      43.121  24.524  26.654  1.00  0.00     0.060 A 
ATOM     10  C   UNL A   1      43.555  25.849  26.589  1.00  0.00     0.016 A 
ATOM     11  C   UNL A   1      42.100  24.215  27.570  1.00  0.00     0.016 A 
ATOM     12  C   UNL A   1      43.077  26.815  27.474  1.00  0.00     0.010 A 
ATOM     13  C   UNL A   1      41.572  25.194  28.421  1.00  0.00     0.010 A 
ATOM     14  C   UNL A   1      42.085  26.497  28.400  1.00  0.00    -0.014 A 
BRANCH  14  15
ATOM     15  C   UNL A   1      41.685  27.495  29.418  1.00  0.00     0.031 A 
ATOM     16  C   UNL A   1      42.530  27.633  30.654  1.00  0.00     0.074 A 
ATOM     17  C   UNL A   1      40.655  28.335  29.201  1.00  0.00     0.049 A 
ATOM     18  N   UNL A   1      42.316  28.341  31.732  1.00  0.00    -0.248 NA
ATOM     19  C   UNL A   1      43.802  26.887  30.670  1.00  0.00     0.031 C 
ATOM     20  C   UNL A   1      39.858  28.415  27.975  1.00  0.00     0.029 A 
ATOM     21  N   UNL A   1      40.117  29.309  30.001  1.00  0.00    -0.354 N 
ATOM     22  C   UNL A   1      43.413  28.118  32.553  1.00  0.00     0.074 A 
ATOM     23  C   UNL A   1      44.286  27.194  31.863  1.00  0.00     0.031 C 
ATOM     24  C   UNL A   1      38.957  29.406  28.093  1.00  0.00     0.029 A 
ATOM     25  C   UNL A   1      39.064  29.982  29.426  1.00  0.00     0.049 A 
ATOM     26  H   UNL A   1      40.452  29.509  30.905  1.00  0.00     0.167 HD
ATOM     27  C   UNL A   1      43.669  28.646  33.772  1.00  0.00     0.037 A 
ATOM     28  C   UNL A   1      38.250  30.916  29.949  1.00  0.00     0.037 A 
ATOM     29  C   UNL A   1      42.801  29.579  34.435  1.00  0.00     0.049 A 
ATOM     30  C   UNL A   1      38.392  31.242  31.405  1.00  0.00     0.074 A 
ATOM     31  C   UNL A   1      42.964  30.204  35.659  1.00  0.00     0.029 A 
ATOM     32  N   UNL A   1      41.591  30.015  33.918  1.00  0.00    -0.354 N 
ATOM     33  N   UNL A   1      39.358  30.928  32.230  1.00  0.00    -0.248 NA
ATOM     34  C   UNL A   1      37.287  31.993  32.018  1.00  0.00     0.031 C 
ATOM     35  C   UNL A   1      41.825  30.981  35.904  1.00  0.00     0.029 A 
ATOM     36  C   UNL A   1      40.974  30.865  34.817  1.00  0.00     0.049 A 
ATOM     37  H   UNL A   1      41.226  29.758  33.041  1.00  0.00     0.167 HD
ATOM     38  C   UNL A   1      38.994  31.463  33.453  1.00  0.00     0.074 A 
ATOM     39  C   UNL A   1      37.700  32.092  33.272  1.00  0.00     0.031 C 
ATOM     40  C   UNL A   1      39.682  31.460  34.619  1.00  0.00     0.037 A 
BRANCH  27  41
ATOM     41  C   UNL A   1      44.913  28.199  34.477  1.00  0.00     0.057 A 
ATOM     42  C   UNL A   1      44.929  27.082  35.320  1.00  0.00     0.134 A 
ATOM     43  C   UNL A   1      46.117  28.886  34.287  1.00  0.00     0.134 A 
ATOM     44  F   UNL A   1      43.801  26.394  35.560  1.00  0.00    -0.206 F 
ATOM     45  C   UNL A   1      46.099  26.669  35.960  1.00  0.00     0.040 A 
ATOM     46  C   UNL A   1      47.298  28.474  34.906  1.00  0.00     0.040 A 
ATOM     47  F   UNL A   1      46.166  29.967  33.495  1.00  0.00    -0.206 F 
ATOM     48  C   UNL A   1      47.290  27.363  35.748  1.00  0.00     0.006 A 
ENDBRANCH  27  41
BRANCH  28  49
ATOM     49  C   UNL A   1      37.138  31.507  29.172  1.00  0.00     0.057 A 
ATOM     50  C   UNL A   1      37.168  32.828  28.722  1.00  0.00     0.134 A 
ATOM     51  C   UNL A   1      35.961  30.783  28.971  1.00  0.00     0.134 A 
ATOM     52  F   UNL A   1      38.244  33.595  28.945  1.00  0.00    -0.206 F 
ATOM     53  C   UNL A   1      36.065  33.400  28.082  1.00  0.00     0.040 A 
ATOM     54  C   UNL A   1      34.859  31.331  28.315  1.00  0.00     0.040 A 
ATOM     55  F   UNL A   1      35.840  29.560  29.501  1.00  0.00    -0.206 F 
ATOM     56  C   UNL A   1      34.909  32.648  27.868  1.00  0.00     0.006 A 
ENDBRANCH  28  49
BRANCH  40  57
ATOM     57  C   UNL A   1      39.070  32.214  35.753  1.00  0.00     0.057 A 
ATOM     58  C   UNL A   1      39.299  33.581  35.940  1.00  0.00     0.134 A 
ATOM     59  C   UNL A   1      38.247  31.552  36.671  1.00  0.00     0.134 A 
ATOM     60  F   UNL A   1      40.106  34.256  35.107  1.00  0.00    -0.206 F 
ATOM     61  C   UNL A   1      38.733  34.265  37.015  1.00  0.00     0.040 A 
ATOM     62  C   UNL A   1      37.660  32.229  37.737  1.00  0.00     0.040 A 
ATOM     63  F   UNL A   1      38.002  30.239  36.541  1.00  0.00    -0.206 F 
ATOM     64  C   UNL A   1      37.907  33.590  37.913  1.00  0.00     0.006 A 
ENDBRANCH  40  57
ENDBRANCH  14  15
ENDBRANCH   7   9
ENDBRANCH   6   7
ENDBRANCH   5   6
ENDBRANCH   4   5
ENDBRANCH   3   4
ENDBRANCH   2   3
ENDBRANCH   1   2
BRANCH   1  65
ATOM     65  O   UNL A   1      42.211  20.089  27.459  1.00  0.00    -0.376 OA
BRANCH  65  66
ATOM     66  C   UNL A   1      40.966  20.783  27.448  1.00  0.00     0.202 C 
BRANCH  66  67
ATOM     67  C   UNL A   1      40.469  21.263  26.080  1.00  0.00     0.261 C 
BRANCH  67  68
ATOM     68  O   UNL A   1      39.125  21.777  26.099  1.00  0.00    -0.460 OA
BRANCH  68  69
ATOM     69  C   UNL A   1      38.234  21.027  25.413  1.00  0.00     0.338 C 
ATOM     70  O   UNL A   1      38.398  19.866  25.040  1.00  0.00    -0.246 OA
BRANCH  69  71
ATOM     71  C   UNL A   1      37.001  21.769  25.073  1.00  0.00     0.062 A 
ATOM     72  C   UNL A   1      36.896  23.161  25.107  1.00  0.00     0.016 A 
ATOM     73  C   UNL A   1      35.866  20.996  24.791  1.00  0.00     0.041 A 
ATOM     74  C   UNL A   1      35.650  23.758  24.899  1.00  0.00     0.003 A 
ATOM     75  C   UNL A   1      34.613  21.580  24.578  1.00  0.00     0.039 A 
ATOM     76  C   UNL A   1      34.520  22.971  24.642  1.00  0.00     0.026 A 
BRANCH  75  77
ATOM     77  N   UNL A   1      33.531  20.726  24.313  1.00  0.00    -0.355 N 
ATOM     78  H   UNL A   1      32.760  21.191  23.913  1.00  0.00     0.167 HD
BRANCH  77  79
ATOM     79  C   UNL A   1      33.312  19.354  24.494  1.00  0.00     0.039 A 
ATOM     80  C   UNL A   1      32.925  18.915  25.772  1.00  0.00     0.033 A 
ATOM     81  C   UNL A   1      33.429  18.404  23.471  1.00  0.00     0.033 A 
ATOM     82  C   UNL A   1      32.712  17.563  26.042  1.00  0.00     0.088 A 
ATOM     83  C   UNL A   1      33.214  17.043  23.724  1.00  0.00     0.088 A 
ATOM     84  C   UNL A   1      32.882  16.626  25.017  1.00  0.00     0.269 A 
BRANCH  84  85
ATOM     85  N   UNL A   1      32.774  15.196  25.323  1.00  0.00     0.062 N 
ATOM     86  O   UNL A   1      31.641  14.741  25.542  1.00  0.00    -0.258 OA
ATOM     87  O   UNL A   1      33.816  14.529  25.359  1.00  0.00    -0.258 OA
ENDBRANCH  84  85
ENDBRANCH  77  79
ENDBRANCH  75  77
ENDBRANCH  69  71
ENDBRANCH  68  69
ENDBRANCH  67  68
ENDBRANCH  66  67
ENDBRANCH  65  66
ENDBRANCH   1  65
TORSDOF 20
ENDMDL
MODEL 2
REMARK VINA RESULT:     -10.4      2.688      7.371
REMARK SMILES O=C(OCCOCCOCCOC(=O)c1cccc(Nc2ccc([N+](=O)[O-])cc2)c1)c1ccc(-c2c3nc(c(-c4c(F)cccc4F)c4ccc([nH]4)c(-c4c(F)cccc4F)c4nc(c(-c5c(F)cccc5F)c5ccc2[nH]5)C=C4)C=C3)cc1
REMARK SMILES IDX 8 1 7 2 6 3 5 4 4 5 3 6 2 7 1 8 31 9 32 10 84 11 33 12 83 13
REMARK SMILES IDX 34 14 35 15 36 16 77 17 37 18 82 19 76 20 78 21 38 22 81 23
REMARK SMILES IDX 75 24 74 25 39 27 65 28 48 29 64 30 49 31 52 32 63 33 79 34
REMARK SMILES IDX 50 35 51 36 62 38 80 39 53 40 40 41 41 42 46 43 42 44 43 45
REMARK SMILES IDX 45 46 47 47 44 48 66 49 67 50 72 51 68 52 69 53 71 54 73 55
REMARK SMILES IDX 70 56 54 57 55 58 60 59 56 60 57 61 59 62 61 63 58 64 9 65
REMARK SMILES IDX 10 66 11 67 12 68 13 69 14 70 15 71 16 72 30 73 17 74 19 75
REMARK SMILES IDX 18 76 20 77 21 79 22 80 29 81 23 82 28 83 24 84 25 85 26 86
REMARK SMILES IDX 27 87
REMARK H PARENT 78 26 52 37 20 78
REMARK Flexibility Score: inf
ROOT
ATOM      1  C   UNL A   1      42.778  19.556  25.929  1.00  0.00     0.188 C 
ENDROOT
BRANCH   1   2
ATOM      2  C   UNL A   1      44.088  19.427  25.139  1.00  0.00     0.188 C 
BRANCH   2   3
ATOM      3  O   UNL A   1      44.322  20.579  24.317  1.00  0.00    -0.376 OA
BRANCH   3   4
ATOM      4  C   UNL A   1      45.531  21.275  24.638  1.00  0.00     0.202 C 
BRANCH   4   5
ATOM      5  C   UNL A   1      45.385  22.308  25.763  1.00  0.00     0.261 C 
BRANCH   5   6
ATOM      6  O   UNL A   1      44.361  23.274  25.482  1.00  0.00    -0.460 OA
BRANCH   6   7
ATOM      7  C   UNL A   1      44.462  24.625  25.530  1.00  0.00     0.338 C 
ATOM      8  O   UNL A   1      45.065  25.204  24.627  1.00  0.00    -0.246 OA
BRANCH   7   9
ATOM      9  C   UNL A   1      43.844  25.468  26.600  1.00  0.00     0.060 A 
ATOM     10  C   UNL A   1      44.104  26.824  26.810  1.00  0.00     0.016 A 
ATOM     11  C   UNL A   1      42.869  24.857  27.409  1.00  0.00     0.016 A 
ATOM     12  C   UNL A   1      43.504  27.527  27.853  1.00  0.00     0.010 A 
ATOM     13  C   UNL A   1      42.217  25.573  28.421  1.00  0.00     0.010 A 
ATOM     14  C   UNL A   1      42.558  26.909  28.670  1.00  0.00    -0.014 A 
BRANCH  14  15
ATOM     15  C   UNL A   1      42.030  27.626  29.853  1.00  0.00     0.031 A 
ATOM     16  C   UNL A   1      40.790  28.460  29.689  1.00  0.00     0.074 A 
ATOM     17  C   UNL A   1      42.578  27.453  31.072  1.00  0.00     0.049 A 
ATOM     18  N   UNL A   1      40.215  29.269  30.538  1.00  0.00    -0.248 NA
ATOM     19  C   UNL A   1      40.089  28.351  28.396  1.00  0.00     0.031 C 
ATOM     20  C   UNL A   1      43.679  26.546  31.396  1.00  0.00     0.029 A 
ATOM     21  N   UNL A   1      42.259  28.020  32.279  1.00  0.00    -0.354 N 
ATOM     22  C   UNL A   1      39.098  29.772  29.883  1.00  0.00     0.074 A 
ATOM     23  C   UNL A   1      39.081  29.195  28.558  1.00  0.00     0.031 C 
ATOM     24  C   UNL A   1      43.922  26.592  32.718  1.00  0.00     0.029 A 
ATOM     25  C   UNL A   1      43.044  27.584  33.321  1.00  0.00     0.049 A 
ATOM     26  H   UNL A   1      41.535  28.678  32.390  1.00  0.00     0.167 HD
ATOM     27  C   UNL A   1      38.167  30.634  30.354  1.00  0.00     0.037 A 
ATOM     28  C   UNL A   1      43.076  27.990  34.603  1.00  0.00     0.037 A 
ATOM     29  C   UNL A   1      38.188  31.182  31.682  1.00  0.00     0.049 A 
ATOM     30  C   UNL A   1      42.229  29.163  34.994  1.00  0.00     0.074 A 
ATOM     31  C   UNL A   1      37.287  32.044  32.283  1.00  0.00     0.029 A 
ATOM     32  N   UNL A   1      39.177  30.919  32.615  1.00  0.00    -0.354 N 
ATOM     33  N   UNL A   1      41.256  29.734  34.332  1.00  0.00    -0.248 NA
ATOM     34  C   UNL A   1      42.539  29.791  36.286  1.00  0.00     0.031 C 
ATOM     35  C   UNL A   1      37.762  32.341  33.566  1.00  0.00     0.029 A 
ATOM     36  C   UNL A   1      38.937  31.636  33.772  1.00  0.00     0.049 A 
ATOM     37  H   UNL A   1      39.939  30.312  32.475  1.00  0.00     0.167 HD
ATOM     38  C   UNL A   1      40.818  30.774  35.134  1.00  0.00     0.074 A 
ATOM     39  C   UNL A   1      41.655  30.777  36.318  1.00  0.00     0.031 C 
ATOM     40  C   UNL A   1      39.794  31.634  34.925  1.00  0.00     0.037 A 
BRANCH  27  41
ATOM     41  C   UNL A   1      37.078  31.061  29.419  1.00  0.00     0.057 A 
ATOM     42  C   UNL A   1      37.086  32.312  28.790  1.00  0.00     0.134 A 
ATOM     43  C   UNL A   1      36.020  30.194  29.125  1.00  0.00     0.134 A 
ATOM     44  F   UNL A   1      38.062  33.197  29.047  1.00  0.00    -0.206 F 
ATOM     45  C   UNL A   1      36.071  32.691  27.910  1.00  0.00     0.040 A 
ATOM     46  C   UNL A   1      35.009  30.553  28.233  1.00  0.00     0.040 A 
ATOM     47  F   UNL A   1      35.953  28.983  29.698  1.00  0.00    -0.206 F 
ATOM     48  C   UNL A   1      35.031  31.806  27.625  1.00  0.00     0.006 A 
ENDBRANCH  27  41
BRANCH  28  49
ATOM     49  C   UNL A   1      44.026  27.415  35.581  1.00  0.00     0.057 A 
ATOM     50  C   UNL A   1      45.322  27.910  35.735  1.00  0.00     0.134 A 
ATOM     51  C   UNL A   1      43.683  26.268  36.300  1.00  0.00     0.134 A 
ATOM     52  F   UNL A   1      45.731  28.968  35.022  1.00  0.00    -0.206 F 
ATOM     53  C   UNL A   1      46.238  27.288  36.588  1.00  0.00     0.040 A 
ATOM     54  C   UNL A   1      44.578  25.647  37.171  1.00  0.00     0.040 A 
ATOM     55  F   UNL A   1      42.499  25.683  36.083  1.00  0.00    -0.206 F 
ATOM     56  C   UNL A   1      45.864  26.158  37.316  1.00  0.00     0.006 A 
ENDBRANCH  28  49
BRANCH  40  57
ATOM     57  C   UNL A   1      39.495  32.593  36.029  1.00  0.00     0.057 A 
ATOM     58  C   UNL A   1      38.580  32.291  37.042  1.00  0.00     0.134 A 
ATOM     59  C   UNL A   1      40.133  33.839  36.067  1.00  0.00     0.134 A 
ATOM     60  F   UNL A   1      37.918  31.124  37.036  1.00  0.00    -0.206 F 
ATOM     61  C   UNL A   1      38.300  33.206  38.056  1.00  0.00     0.040 A 
ATOM     62  C   UNL A   1      39.876  34.753  37.085  1.00  0.00     0.040 A 
ATOM     63  F   UNL A   1      41.014  34.181  35.114  1.00  0.00    -0.206 F 
ATOM     64  C   UNL A   1      38.954  34.438  38.082  1.00  0.00     0.006 A 
ENDBRANCH  40  57
ENDBRANCH  14  15
ENDBRANCH   7   9
ENDBRANCH   6   7
ENDBRANCH   5   6
ENDBRANCH   4   5
ENDBRANCH   3   4
ENDBRANCH   2   3
ENDBRANCH   1   2
BRANCH   1  65
ATOM     65  O   UNL A   1      42.078  20.790  25.751  1.00  0.00    -0.376 OA
BRANCH  65  66
ATOM     66  C   UNL A   1      40.712  20.821  26.159  1.00  0.00     0.202 C 
BRANCH  66  67
ATOM     67  C   UNL A   1      40.131  22.203  26.478  1.00  0.00     0.261 C 
BRANCH  67  68
ATOM     68  O   UNL A   1      38.693  22.251  26.431  1.00  0.00    -0.460 OA
BRANCH  68  69
ATOM     69  C   UNL A   1      38.189  23.468  26.128  1.00  0.00     0.338 C 
ATOM     70  O   UNL A   1      38.602  24.550  26.546  1.00  0.00    -0.246 OA
BRANCH  69  71
ATOM     71  C   UNL A   1      36.999  23.395  25.253  1.00  0.00     0.062 A 
ATOM     72  C   UNL A   1      37.010  22.849  23.968  1.00  0.00     0.016 A 
ATOM     73  C   UNL A   1      35.831  23.998  25.738  1.00  0.00     0.041 A 
ATOM     74  C   UNL A   1      35.867  22.949  23.172  1.00  0.00     0.003 A 
ATOM     75  C   UNL A   1      34.677  24.104  24.954  1.00  0.00     0.039 A 
ATOM     76  C   UNL A   1      34.714  23.576  23.662  1.00  0.00     0.026 A 
BRANCH  75  77
ATOM     77  N   UNL A   1      33.558  24.734  25.520  1.00  0.00    -0.355 N 
ATOM     78  H   UNL A   1      32.927  24.101  25.935  1.00  0.00     0.167 HD
BRANCH  77  79
ATOM     79  C   UNL A   1      33.144  26.069  25.622  1.00  0.00     0.039 A 
ATOM     80  C   UNL A   1      31.912  26.326  26.247  1.00  0.00     0.033 A 
ATOM     81  C   UNL A   1      33.897  27.155  25.163  1.00  0.00     0.033 A 
ATOM     82  C   UNL A   1      31.415  27.624  26.366  1.00  0.00     0.088 A 
ATOM     83  C   UNL A   1      33.415  28.466  25.279  1.00  0.00     0.088 A 
ATOM     84  C   UNL A   1      32.163  28.692  25.858  1.00  0.00     0.269 A 
BRANCH  84  85
ATOM     85  N   UNL A   1      31.593  30.043  25.875  1.00  0.00     0.062 N 
ATOM     86  O   UNL A   1      30.962  30.411  24.873  1.00  0.00    -0.258 OA
ATOM     87  O   UNL A   1      31.785  30.742  26.879  1.00  0.00    -0.258 OA
ENDBRANCH  84  85
ENDBRANCH  77  79
ENDBRANCH  75  77
ENDBRANCH  69  71
ENDBRANCH  68  69
ENDBRANCH  67  68
ENDBRANCH  66  67
ENDBRANCH  65  66
ENDBRANCH   1  65
TORSDOF 20
ENDMDL
MODEL 3
REMARK VINA RESULT:     -10.3      6.239     11.871
REMARK SMILES O=C(OCCOCCOCCOC(=O)c1cccc(Nc2ccc([N+](=O)[O-])cc2)c1)c1ccc(-c2c3nc(c(-c4c(F)cccc4F)c4ccc([nH]4)c(-c4c(F)cccc4F)c4nc(c(-c5c(F)cccc5F)c5ccc2[nH]5)C=C4)C=C3)cc1
REMARK SMILES IDX 8 1 7 2 6 3 5 4 4 5 3 6 2 7 1 8 31 9 32 10 84 11 33 12 83 13
REMARK SMILES IDX 34 14 35 15 36 16 77 17 37 18 82 19 76 20 78 21 38 22 81 23
REMARK SMILES IDX 75 24 74 25 39 27 65 28 48 29 64 30 49 31 52 32 63 33 79 34
REMARK SMILES IDX 50 35 51 36 62 38 80 39 53 40 40 41 41 42 46 43 42 44 43 45
REMARK SMILES IDX 45 46 47 47 44 48 66 49 67 50 72 51 68 52 69 53 71 54 73 55
REMARK SMILES IDX 70 56 54 57 55 58 60 59 56 60 57 61 59 62 61 63 58 64 9 65
REMARK SMILES IDX 10 66 11 67 12 68 13 69 14 70 15 71 16 72 30 73 17 74 19 75
REMARK SMILES IDX 18 76 20 77 21 79 22 80 29 81 23 82 28 83 24 84 25 85 26 86
REMARK SMILES IDX 27 87
REMARK H PARENT 78 26 52 37 20 78
REMARK Flexibility Score: inf
ROOT
ATOM      1  C   UNL A   1      33.809  37.334  32.049  1.00  0.00     0.188 C 
ENDROOT
BRANCH   1   2
ATOM      2  C   UNL A   1      33.711  36.853  33.504  1.00  0.00     0.188 C 
BRANCH   2   3
ATOM      3  O   UNL A   1      34.808  35.995  33.848  1.00  0.00    -0.376 OA
BRANCH   3   4
ATOM      4  C   UNL A   1      35.198  35.113  32.789  1.00  0.00     0.202 C 
BRANCH   4   5
ATOM      5  C   UNL A   1      36.543  34.411  33.016  1.00  0.00     0.261 C 
BRANCH   5   6
ATOM      6  O   UNL A   1      36.477  33.006  32.726  1.00  0.00    -0.460 OA
BRANCH   6   7
ATOM      7  C   UNL A   1      37.396  32.055  33.024  1.00  0.00     0.338 C 
ATOM      8  O   UNL A   1      37.254  31.402  34.056  1.00  0.00    -0.246 OA
BRANCH   7   9
ATOM      9  C   UNL A   1      38.560  31.719  32.146  1.00  0.00     0.060 A 
ATOM     10  C   UNL A   1      38.585  31.850  30.756  1.00  0.00     0.016 A 
ATOM     11  C   UNL A   1      39.743  31.308  32.785  1.00  0.00     0.016 A 
ATOM     12  C   UNL A   1      39.705  31.483  30.011  1.00  0.00     0.010 A 
ATOM     13  C   UNL A   1      40.892  30.996  32.048  1.00  0.00     0.010 A 
ATOM     14  C   UNL A   1      40.866  31.050  30.648  1.00  0.00    -0.014 A 
BRANCH  14  15
ATOM     15  C   UNL A   1      41.998  30.538  29.841  1.00  0.00     0.031 A 
ATOM     16  C   UNL A   1      41.929  29.127  29.327  1.00  0.00     0.074 A 
ATOM     17  C   UNL A   1      43.016  31.345  29.482  1.00  0.00     0.049 A 
ATOM     18  N   UNL A   1      42.841  28.422  28.711  1.00  0.00    -0.248 NA
ATOM     19  C   UNL A   1      40.649  28.420  29.514  1.00  0.00     0.031 C 
ATOM     20  C   UNL A   1      43.121  32.775  29.776  1.00  0.00     0.029 A 
ATOM     21  N   UNL A   1      44.150  31.077  28.761  1.00  0.00    -0.354 N 
ATOM     22  C   UNL A   1      42.252  27.192  28.449  1.00  0.00     0.074 A 
ATOM     23  C   UNL A   1      40.911  27.233  28.987  1.00  0.00     0.031 C 
ATOM     24  C   UNL A   1      44.240  33.265  29.213  1.00  0.00     0.029 A 
ATOM     25  C   UNL A   1      44.964  32.172  28.582  1.00  0.00     0.049 A 
ATOM     26  H   UNL A   1      44.364  30.185  28.405  1.00  0.00     0.167 HD
ATOM     27  C   UNL A   1      42.786  26.127  27.807  1.00  0.00     0.037 A 
ATOM     28  C   UNL A   1      46.183  32.255  28.018  1.00  0.00     0.037 A 
ATOM     29  C   UNL A   1      44.114  26.110  27.259  1.00  0.00     0.049 A 
ATOM     30  C   UNL A   1      46.855  30.984  27.596  1.00  0.00     0.074 A 
ATOM     31  C   UNL A   1      44.758  25.101  26.566  1.00  0.00     0.029 A 
ATOM     32  N   UNL A   1      45.007  27.165  27.356  1.00  0.00    -0.354 N 
ATOM     33  N   UNL A   1      46.346  29.785  27.468  1.00  0.00    -0.248 NA
ATOM     34  C   UNL A   1      48.294  31.069  27.310  1.00  0.00     0.031 C 
ATOM     35  C   UNL A   1      46.061  25.530  26.286  1.00  0.00     0.029 A 
ATOM     36  C   UNL A   1      46.213  26.817  26.776  1.00  0.00     0.049 A 
ATOM     37  H   UNL A   1      44.812  28.034  27.776  1.00  0.00     0.167 HD
ATOM     38  C   UNL A   1      47.394  28.975  27.063  1.00  0.00     0.074 A 
ATOM     39  C   UNL A   1      48.576  29.812  27.001  1.00  0.00     0.031 C 
ATOM     40  C   UNL A   1      47.375  27.661  26.744  1.00  0.00     0.037 A 
BRANCH  27  41
ATOM     41  C   UNL A   1      41.951  24.889  27.699  1.00  0.00     0.057 A 
ATOM     42  C   UNL A   1      42.138  23.788  28.544  1.00  0.00     0.134 A 
ATOM     43  C   UNL A   1      40.925  24.810  26.750  1.00  0.00     0.134 A 
ATOM     44  F   UNL A   1      43.119  23.794  29.460  1.00  0.00    -0.206 F 
ATOM     45  C   UNL A   1      41.341  22.647  28.440  1.00  0.00     0.040 A 
ATOM     46  C   UNL A   1      40.110  23.683  26.647  1.00  0.00     0.040 A 
ATOM     47  F   UNL A   1      40.698  25.830  25.908  1.00  0.00    -0.206 F 
ATOM     48  C   UNL A   1      40.320  22.595  27.492  1.00  0.00     0.006 A 
ENDBRANCH  27  41
BRANCH  28  49
ATOM     49  C   UNL A   1      46.924  33.534  27.946  1.00  0.00     0.057 A 
ATOM     50  C   UNL A   1      47.659  34.026  29.026  1.00  0.00     0.134 A 
ATOM     51  C   UNL A   1      46.807  34.350  26.818  1.00  0.00     0.134 A 
ATOM     52  F   UNL A   1      47.752  33.319  30.160  1.00  0.00    -0.206 F 
ATOM     53  C   UNL A   1      48.265  35.284  28.975  1.00  0.00     0.040 A 
ATOM     54  C   UNL A   1      47.423  35.598  26.743  1.00  0.00     0.040 A 
ATOM     55  F   UNL A   1      46.006  33.976  25.815  1.00  0.00    -0.206 F 
ATOM     56  C   UNL A   1      48.156  36.071  27.827  1.00  0.00     0.006 A 
ENDBRANCH  28  49
BRANCH  40  57
ATOM     57  C   UNL A   1      48.654  27.082  26.238  1.00  0.00     0.057 A 
ATOM     58  C   UNL A   1      49.560  26.438  27.087  1.00  0.00     0.134 A 
ATOM     59  C   UNL A   1      48.980  27.182  24.880  1.00  0.00     0.134 A 
ATOM     60  F   UNL A   1      49.310  26.342  28.402  1.00  0.00    -0.206 F 
ATOM     61  C   UNL A   1      50.758  25.917  26.600  1.00  0.00     0.040 A 
ATOM     62  C   UNL A   1      50.166  26.649  24.379  1.00  0.00     0.040 A 
ATOM     63  F   UNL A   1      48.150  27.798  24.025  1.00  0.00    -0.206 F 
ATOM     64  C   UNL A   1      51.060  26.018  25.242  1.00  0.00     0.006 A 
ENDBRANCH  40  57
ENDBRANCH  14  15
ENDBRANCH   7   9
ENDBRANCH   6   7
ENDBRANCH   5   6
ENDBRANCH   4   5
ENDBRANCH   3   4
ENDBRANCH   2   3
ENDBRANCH   1   2
BRANCH   1  65
ATOM     65  O   UNL A   1      32.646  37.103  31.250  1.00  0.00    -0.376 OA
BRANCH  65  66
ATOM     66  C   UNL A   1      32.599  35.880  30.518  1.00  0.00     0.202 C 
BRANCH  66  67
ATOM     67  C   UNL A   1      33.035  35.951  29.051  1.00  0.00     0.261 C 
BRANCH  67  68
ATOM     68  O   UNL A   1      33.971  34.925  28.675  1.00  0.00    -0.460 OA
BRANCH  68  69
ATOM     69  C   UNL A   1      33.407  33.851  28.077  1.00  0.00     0.338 C 
ATOM     70  O   UNL A   1      32.260  33.787  27.634  1.00  0.00    -0.246 OA
BRANCH  69  71
ATOM     71  C   UNL A   1      34.301  32.675  28.047  1.00  0.00     0.062 A 
ATOM     72  C   UNL A   1      35.690  32.750  28.171  1.00  0.00     0.016 A 
ATOM     73  C   UNL A   1      33.696  31.438  27.787  1.00  0.00     0.041 A 
ATOM     74  C   UNL A   1      36.456  31.595  27.995  1.00  0.00     0.003 A 
ATOM     75  C   UNL A   1      34.450  30.272  27.611  1.00  0.00     0.039 A 
ATOM     76  C   UNL A   1      35.838  30.370  27.713  1.00  0.00     0.026 A 
BRANCH  75  77
ATOM     77  N   UNL A   1      33.758  29.081  27.344  1.00  0.00    -0.355 N 
ATOM     78  H   UNL A   1      33.203  28.779  28.099  1.00  0.00     0.167 HD
BRANCH  77  79
ATOM     79  C   UNL A   1      33.685  28.229  26.234  1.00  0.00     0.039 A 
ATOM     80  C   UNL A   1      33.902  28.789  24.963  1.00  0.00     0.033 A 
ATOM     81  C   UNL A   1      33.435  26.854  26.322  1.00  0.00     0.033 A 
ATOM     82  C   UNL A   1      33.822  28.015  23.805  1.00  0.00     0.088 A 
ATOM     83  C   UNL A   1      33.355  26.061  25.169  1.00  0.00     0.088 A 
ATOM     84  C   UNL A   1      33.524  26.652  23.913  1.00  0.00     0.269 A 
BRANCH  84  85
ATOM     85  N   UNL A   1      33.322  25.860  22.695  1.00  0.00     0.062 N 
ATOM     86  O   UNL A   1      32.710  24.787  22.805  1.00  0.00    -0.258 OA
ATOM     87  O   UNL A   1      33.784  26.299  21.634  1.00  0.00    -0.258 OA
ENDBRANCH  84  85
ENDBRANCH  77  79
ENDBRANCH  75  77
ENDBRANCH  69  71
ENDBRANCH  68  69
ENDBRANCH  67  68
ENDBRANCH  66  67
ENDBRANCH  65  66
ENDBRANCH   1  65
TORSDOF 20
ENDMDL
