MODEL 1
REMARK VINA RESULT:     -10.5      0.000      0.000
REMARK SMILES C[NH+]1CCC(C[N@H+](C)[C@H]2CC[C@]([NH3+])(C(=O)OCCOCCOCCOC(=O)c3ccc(-c4c5nc(c(-c6c(F)cccc6F)c6ccc([nH]6)c(-c6c(F)cccc6F)c6nc(c(-c7c(F)cccc7F)c7ccc4[nH]7)C=C6)C=C5)cc3)C2)CC1
REMARK SMILES IDX 20 1 19 2 18 3 17 4 16 5 14 6 15 7 12 8 9 9 10 10 82 11
REMARK SMILES IDX 11 12 7 13 8 14 6 16 5 17 1 18 2 19 3 20 84 21 4 23 83 24
REMARK SMILES IDX 13 25 21 29 22 30 23 31 24 32 25 33 26 34 27 35 28 36 29 37
REMARK SMILES IDX 81 38 30 39 80 40 31 41 32 42 33 43 74 44 34 45 79 46 73 47
REMARK SMILES IDX 75 48 35 49 78 50 72 51 71 52 36 54 62 55 45 56 61 57 46 58
REMARK SMILES IDX 49 59 60 60 76 61 47 62 48 63 59 65 77 66 50 67 37 68 38 69
REMARK SMILES IDX 43 70 39 71 40 72 42 73 44 74 41 75 63 76 64 77 69 78 65 79
REMARK SMILES IDX 66 80 68 81 70 82 67 83 51 84 52 85 57 86 53 87 54 88 56 89
REMARK SMILES IDX 58 90 55 91
REMARK H PARENT 7 15 2 22 13 26 13 27 13 28 75 53 49 64
REMARK Flexibility Score: inf
ROOT
ATOM      1  C   UNL A   1      39.516  21.396  25.788  1.00  0.00     0.188 C 
ENDROOT
BRANCH   1   2
ATOM      2  O   UNL A   1      38.127  21.691  25.844  1.00  0.00    -0.376 OA
BRANCH   2   3
ATOM      3  C   UNL A   1      37.228  20.754  25.258  1.00  0.00     0.202 C 
BRANCH   3   4
ATOM      4  C   UNL A   1      35.782  21.235  25.114  1.00  0.00     0.261 C 
BRANCH   4   5
ATOM      5  O   UNL A   1      35.653  22.556  25.657  1.00  0.00    -0.459 OA
BRANCH   5   6
ATOM      6  C   UNL A   1      34.427  22.882  26.174  1.00  0.00     0.368 C 
ATOM      7  O   UNL A   1      34.023  22.539  27.276  1.00  0.00    -0.245 OA
BRANCH   6   8
ATOM      8  C   UNL A   1      33.688  23.833  25.186  1.00  0.00     0.198 C 
ATOM      9  C   UNL A   1      32.570  23.758  22.964  1.00  0.00     0.191 C 
ATOM     10  C   UNL A   1      33.997  24.270  22.753  1.00  0.00     0.072 C 
ATOM     11  C   UNL A   1      32.570  23.147  24.381  1.00  0.00     0.145 C 
ATOM     12  C   UNL A   1      34.690  24.305  24.110  1.00  0.00     0.087 C 
BRANCH   9  13
ATOM     13  N   UNL A   1      31.530  24.712  22.506  1.00  0.00    -0.334 N 
ATOM     14  C   UNL A   1      30.449  24.783  23.504  1.00  0.00     0.332 C 
ATOM     15  H   UNL A   1      31.261  24.297  21.614  1.00  0.00     0.348 HD
BRANCH  13  16
ATOM     16  C   UNL A   1      31.902  26.085  22.126  1.00  0.00     0.266 C 
BRANCH  16  17
ATOM     17  C   UNL A   1      31.878  27.149  23.231  1.00  0.00     0.055 C 
ATOM     18  C   UNL A   1      31.759  30.441  25.878  1.00  0.00     0.332 C 
ATOM     19  N   UNL A   1      32.057  29.719  24.632  1.00  0.00    -0.337 N 
ATOM     20  C   UNL A   1      30.801  29.259  24.039  1.00  0.00     0.262 C 
ATOM     21  C   UNL A   1      33.009  28.627  24.886  1.00  0.00     0.262 C 
ATOM     22  H   UNL A   1      32.509  30.338  23.959  1.00  0.00     0.347 HD
ATOM     23  C   UNL A   1      30.974  28.326  22.843  1.00  0.00     0.071 C 
ATOM     24  C   UNL A   1      33.228  27.735  23.650  1.00  0.00     0.071 C 
ENDBRANCH  16  17
ENDBRANCH  13  16
ENDBRANCH   9  13
BRANCH   8  25
ATOM     25  N   UNL A   1      33.123  24.930  26.003  1.00  0.00    -0.343 N 
ATOM     26  H   UNL A   1      33.127  24.659  26.987  1.00  0.00     0.345 HD
ATOM     27  H   UNL A   1      32.165  25.118  25.706  1.00  0.00     0.345 HD
ATOM     28  H   UNL A   1      33.688  25.771  25.881  1.00  0.00     0.345 HD
ENDBRANCH   8  25
ENDBRANCH   6   8
ENDBRANCH   5   6
ENDBRANCH   4   5
ENDBRANCH   3   4
ENDBRANCH   2   3
ENDBRANCH   1   2
BRANCH   1  29
ATOM     29  C   UNL A   1      39.988  19.958  26.093  1.00  0.00     0.188 C 
BRANCH  29  30
ATOM     30  O   UNL A   1      41.180  19.470  25.493  1.00  0.00    -0.376 OA
BRANCH  30  31
ATOM     31  C   UNL A   1      42.373  19.509  26.266  1.00  0.00     0.202 C 
BRANCH  31  32
ATOM     32  C   UNL A   1      43.313  20.667  25.947  1.00  0.00     0.261 C 
BRANCH  32  33
ATOM     33  O   UNL A   1      42.870  21.894  26.556  1.00  0.00    -0.460 OA
BRANCH  33  34
ATOM     34  C   UNL A   1      42.784  22.935  25.703  1.00  0.00     0.338 C 
ATOM     35  O   UNL A   1      43.087  22.945  24.515  1.00  0.00    -0.246 OA
BRANCH  34  36
ATOM     36  C   UNL A   1      42.279  24.140  26.377  1.00  0.00     0.060 A 
ATOM     37  C   UNL A   1      42.721  25.410  26.003  1.00  0.00     0.016 A 
ATOM     38  C   UNL A   1      41.522  23.976  27.535  1.00  0.00     0.016 A 
ATOM     39  C   UNL A   1      42.511  26.498  26.856  1.00  0.00     0.010 A 
ATOM     40  C   UNL A   1      41.241  25.080  28.340  1.00  0.00     0.010 A 
ATOM     41  C   UNL A   1      41.776  26.345  28.038  1.00  0.00    -0.014 A 
BRANCH  41  42
ATOM     42  C   UNL A   1      41.584  27.459  29.008  1.00  0.00     0.031 A 
ATOM     43  C   UNL A   1      42.435  27.514  30.248  1.00  0.00     0.074 A 
ATOM     44  C   UNL A   1      40.628  28.387  28.824  1.00  0.00     0.049 A 
ATOM     45  N   UNL A   1      42.213  28.123  31.384  1.00  0.00    -0.248 NA
ATOM     46  C   UNL A   1      43.705  26.771  30.199  1.00  0.00     0.031 C 
ATOM     47  C   UNL A   1      39.795  28.529  27.630  1.00  0.00     0.029 A 
ATOM     48  N   UNL A   1      40.171  29.372  29.668  1.00  0.00    -0.354 N 
ATOM     49  C   UNL A   1      43.278  27.782  32.210  1.00  0.00     0.074 A 
ATOM     50  C   UNL A   1      44.155  26.927  31.437  1.00  0.00     0.031 C 
ATOM     51  C   UNL A   1      38.921  29.528  27.821  1.00  0.00     0.029 A 
ATOM     52  C   UNL A   1      39.058  30.018  29.188  1.00  0.00     0.049 A 
ATOM     53  H   UNL A   1      40.599  29.591  30.528  1.00  0.00     0.167 HD
ATOM     54  C   UNL A   1      43.488  28.138  33.502  1.00  0.00     0.037 A 
ATOM     55  C   UNL A   1      38.187  30.840  29.802  1.00  0.00     0.037 A 
ATOM     56  C   UNL A   1      42.618  29.016  34.243  1.00  0.00     0.049 A 
ATOM     57  C   UNL A   1      38.381  31.163  31.255  1.00  0.00     0.074 A 
ATOM     58  C   UNL A   1      42.713  29.420  35.563  1.00  0.00     0.029 A 
ATOM     59  N   UNL A   1      41.495  29.637  33.715  1.00  0.00    -0.354 N 
ATOM     60  N   UNL A   1      39.320  30.752  32.073  1.00  0.00    -0.248 NA
ATOM     61  C   UNL A   1      37.383  32.043  31.878  1.00  0.00     0.031 C 
ATOM     62  C   UNL A   1      41.627  30.260  35.843  1.00  0.00     0.029 A 
ATOM     63  C   UNL A   1      40.885  30.416  34.683  1.00  0.00     0.049 A 
ATOM     64  H   UNL A   1      41.180  29.538  32.788  1.00  0.00     0.167 HD
ATOM     65  C   UNL A   1      39.037  31.334  33.301  1.00  0.00     0.074 A 
ATOM     66  C   UNL A   1      37.844  32.136  33.117  1.00  0.00     0.031 C 
ATOM     67  C   UNL A   1      39.704  31.215  34.475  1.00  0.00     0.037 A 
BRANCH  54  68
ATOM     68  C   UNL A   1      44.667  27.531  34.207  1.00  0.00     0.057 A 
ATOM     69  C   UNL A   1      45.913  28.167  34.273  1.00  0.00     0.134 A 
ATOM     70  C   UNL A   1      44.545  26.289  34.849  1.00  0.00     0.134 A 
ATOM     71  F   UNL A   1      46.104  29.350  33.671  1.00  0.00    -0.206 F 
ATOM     72  C   UNL A   1      47.002  27.577  34.921  1.00  0.00     0.040 A 
ATOM     73  C   UNL A   1      45.618  25.703  35.523  1.00  0.00     0.040 A 
ATOM     74  F   UNL A   1      43.378  25.627  34.834  1.00  0.00    -0.206 F 
ATOM     75  C   UNL A   1      46.854  26.343  35.552  1.00  0.00     0.006 A 
ENDBRANCH  54  68
BRANCH  55  76
ATOM     76  C   UNL A   1      37.005  31.340  29.053  1.00  0.00     0.057 A 
ATOM     77  C   UNL A   1      35.888  30.529  28.835  1.00  0.00     0.134 A 
ATOM     78  C   UNL A   1      36.954  32.655  28.570  1.00  0.00     0.134 A 
ATOM     79  F   UNL A   1      35.887  29.255  29.252  1.00  0.00    -0.206 F 
ATOM     80  C   UNL A   1      34.759  31.008  28.166  1.00  0.00     0.040 A 
ATOM     81  C   UNL A   1      35.821  33.155  27.926  1.00  0.00     0.040 A 
ATOM     82  F   UNL A   1      37.992  33.484  28.749  1.00  0.00    -0.206 F 
ATOM     83  C   UNL A   1      34.719  32.328  27.721  1.00  0.00     0.006 A 
ENDBRANCH  55  76
BRANCH  67  84
ATOM     84  C   UNL A   1      39.188  32.011  35.637  1.00  0.00     0.057 A 
ATOM     85  C   UNL A   1      38.312  31.463  36.581  1.00  0.00     0.134 A 
ATOM     86  C   UNL A   1      39.607  33.334  35.830  1.00  0.00     0.134 A 
ATOM     87  F   UNL A   1      37.863  30.206  36.441  1.00  0.00    -0.206 F 
ATOM     88  C   UNL A   1      37.859  32.208  37.670  1.00  0.00     0.040 A 
ATOM     89  C   UNL A   1      39.178  34.081  36.927  1.00  0.00     0.040 A 
ATOM     90  F   UNL A   1      40.450  33.915  34.963  1.00  0.00    -0.206 F 
ATOM     91  C   UNL A   1      38.297  33.519  37.848  1.00  0.00     0.006 A 
ENDBRANCH  67  84
ENDBRANCH  41  42
ENDBRANCH  34  36
ENDBRANCH  33  34
ENDBRANCH  32  33
ENDBRANCH  31  32
ENDBRANCH  30  31
ENDBRANCH  29  30
ENDBRANCH   1  29
TORSDOF 21
ENDMDL
MODEL 2
REMARK VINA RESULT:     -10.3      3.788      9.093
REMARK SMILES C[NH+]1CCC(C[N@H+](C)[C@H]2CC[C@]([NH3+])(C(=O)OCCOCCOCCOC(=O)c3ccc(-c4c5nc(c(-c6c(F)cccc6F)c6ccc([nH]6)c(-c6c(F)cccc6F)c6nc(c(-c7c(F)cccc7F)c7ccc4[nH]7)C=C6)C=C5)cc3)C2)CC1
REMARK SMILES IDX 20 1 19 2 18 3 17 4 16 5 14 6 15 7 12 8 9 9 10 10 82 11
REMARK SMILES IDX 11 12 7 13 8 14 6 16 5 17 1 18 2 19 3 20 84 21 4 23 83 24
REMARK SMILES IDX 13 25 21 29 22 30 23 31 24 32 25 33 26 34 27 35 28 36 29 37
REMARK SMILES IDX 81 38 30 39 80 40 31 41 32 42 33 43 74 44 34 45 79 46 73 47
REMARK SMILES IDX 75 48 35 49 78 50 72 51 71 52 36 54 62 55 45 56 61 57 46 58
REMARK SMILES IDX 49 59 60 60 76 61 47 62 48 63 59 65 77 66 50 67 37 68 38 69
REMARK SMILES IDX 43 70 39 71 40 72 42 73 44 74 41 75 63 76 64 77 69 78 65 79
REMARK SMILES IDX 66 80 68 81 70 82 67 83 51 84 52 85 57 86 53 87 54 88 56 89
REMARK SMILES IDX 58 90 55 91
REMARK H PARENT 7 15 2 22 13 26 13 27 13 28 75 53 49 64
REMARK Flexibility Score: inf
ROOT
ATOM      1  C   UNL A   1      35.494  32.044  28.246  1.00  0.00     0.188 C 
ENDROOT
BRANCH   1   2
ATOM      2  O   UNL A   1      34.854  31.118  27.378  1.00  0.00    -0.376 OA
BRANCH   2   3
ATOM      3  C   UNL A   1      33.440  30.977  27.490  1.00  0.00     0.202 C 
BRANCH   3   4
ATOM      4  C   UNL A   1      32.804  29.972  26.526  1.00  0.00     0.261 C 
BRANCH   4   5
ATOM      5  O   UNL A   1      33.016  28.637  27.005  1.00  0.00    -0.459 OA
BRANCH   5   6
ATOM      6  C   UNL A   1      31.897  27.861  27.156  1.00  0.00     0.368 C 
ATOM      7  O   UNL A   1      31.033  28.044  28.002  1.00  0.00    -0.245 OA
BRANCH   6   8
ATOM      8  C   UNL A   1      31.857  26.791  26.025  1.00  0.00     0.198 C 
ATOM      9  C   UNL A   1      33.073  26.195  23.938  1.00  0.00     0.191 C 
ATOM     10  C   UNL A   1      31.830  26.995  23.542  1.00  0.00     0.072 C 
ATOM     11  C   UNL A   1      33.242  26.440  25.452  1.00  0.00     0.145 C 
ATOM     12  C   UNL A   1      31.088  27.373  24.819  1.00  0.00     0.087 C 
BRANCH   9  13
ATOM     13  N   UNL A   1      33.116  24.838  23.339  1.00  0.00    -0.334 N 
ATOM     14  C   UNL A   1      32.905  24.933  21.884  1.00  0.00     0.332 C 
ATOM     15  H   UNL A   1      32.365  24.374  23.849  1.00  0.00     0.348 HD
BRANCH  13  16
ATOM     16  C   UNL A   1      34.270  23.958  23.584  1.00  0.00     0.266 C 
BRANCH  16  17
ATOM     17  C   UNL A   1      33.972  22.508  23.988  1.00  0.00     0.055 C 
ATOM     18  C   UNL A   1      32.899  18.721  25.528  1.00  0.00     0.332 C 
ATOM     19  N   UNL A   1      33.284  20.139  25.575  1.00  0.00    -0.337 N 
ATOM     20  C   UNL A   1      32.255  20.932  24.901  1.00  0.00     0.262 C 
ATOM     21  C   UNL A   1      34.625  20.328  25.002  1.00  0.00     0.262 C 
ATOM     22  H   UNL A   1      33.341  20.462  26.541  1.00  0.00     0.347 HD
ATOM     23  C   UNL A   1      32.620  22.402  24.705  1.00  0.00     0.071 C 
ATOM     24  C   UNL A   1      35.009  21.814  24.874  1.00  0.00     0.071 C 
ENDBRANCH  16  17
ENDBRANCH  13  16
ENDBRANCH   9  13
BRANCH   8  25
ATOM     25  N   UNL A   1      31.231  25.584  26.611  1.00  0.00    -0.343 N 
ATOM     26  H   UNL A   1      31.121  24.873  25.888  1.00  0.00     0.345 HD
ATOM     27  H   UNL A   1      30.317  25.827  26.993  1.00  0.00     0.345 HD
ATOM     28  H   UNL A   1      31.826  25.221  27.357  1.00  0.00     0.345 HD
ENDBRANCH   8  25
ENDBRANCH   6   8
ENDBRANCH   5   6
ENDBRANCH   4   5
ENDBRANCH   3   4
ENDBRANCH   2   3
ENDBRANCH   1   2
BRANCH   1  29
ATOM     29  C   UNL A   1      34.624  32.962  29.132  1.00  0.00     0.188 C 
BRANCH  29  30
ATOM     30  O   UNL A   1      34.908  34.353  29.188  1.00  0.00    -0.376 OA
BRANCH  30  31
ATOM     31  C   UNL A   1      34.077  35.229  28.435  1.00  0.00     0.202 C 
BRANCH  31  32
ATOM     32  C   UNL A   1      33.116  36.079  29.261  1.00  0.00     0.261 C 
BRANCH  32  33
ATOM     33  O   UNL A   1      32.523  35.322  30.332  1.00  0.00    -0.460 OA
BRANCH  33  34
ATOM     34  C   UNL A   1      32.646  35.892  31.547  1.00  0.00     0.338 C 
ATOM     35  O   UNL A   1      32.030  36.862  31.975  1.00  0.00    -0.246 OA
BRANCH  34  36
ATOM     36  C   UNL A   1      33.668  35.212  32.358  1.00  0.00     0.060 A 
ATOM     37  C   UNL A   1      34.962  35.724  32.459  1.00  0.00     0.016 A 
ATOM     38  C   UNL A   1      33.380  33.937  32.840  1.00  0.00     0.016 A 
ATOM     39  C   UNL A   1      35.996  34.911  32.931  1.00  0.00     0.010 A 
ATOM     40  C   UNL A   1      34.400  33.160  33.390  1.00  0.00     0.010 A 
ATOM     41  C   UNL A   1      35.730  33.617  33.395  1.00  0.00    -0.014 A 
BRANCH  41  42
ATOM     42  C   UNL A   1      36.808  32.693  33.843  1.00  0.00     0.031 A 
ATOM     43  C   UNL A   1      37.472  32.921  35.174  1.00  0.00     0.074 A 
ATOM     44  C   UNL A   1      37.238  31.689  33.057  1.00  0.00     0.049 A 
ATOM     45  N   UNL A   1      38.643  32.522  35.601  1.00  0.00    -0.248 NA
ATOM     46  C   UNL A   1      36.714  33.720  36.151  1.00  0.00     0.031 C 
ATOM     47  C   UNL A   1      36.632  31.277  31.791  1.00  0.00     0.029 A 
ATOM     48  N   UNL A   1      38.320  30.852  33.196  1.00  0.00    -0.354 N 
ATOM     49  C   UNL A   1      38.792  33.076  36.868  1.00  0.00     0.074 A 
ATOM     50  C   UNL A   1      37.584  33.825  37.146  1.00  0.00     0.031 C 
ATOM     51  C   UNL A   1      37.354  30.279  31.263  1.00  0.00     0.029 A 
ATOM     52  C   UNL A   1      38.533  30.061  32.094  1.00  0.00     0.049 A 
ATOM     53  H   UNL A   1      38.884  30.823  34.004  1.00  0.00     0.167 HD
ATOM     54  C   UNL A   1      39.852  32.980  37.707  1.00  0.00     0.037 A 
ATOM     55  C   UNL A   1      39.597  29.314  31.741  1.00  0.00     0.037 A 
ATOM     56  C   UNL A   1      41.033  32.203  37.423  1.00  0.00     0.049 A 
ATOM     57  C   UNL A   1      40.800  29.280  32.638  1.00  0.00     0.074 A 
ATOM     58  C   UNL A   1      42.181  32.057  38.183  1.00  0.00     0.029 A 
ATOM     59  N   UNL A   1      41.206  31.426  36.286  1.00  0.00    -0.354 N 
ATOM     60  N   UNL A   1      40.995  29.893  33.780  1.00  0.00    -0.248 NA
ATOM     61  C   UNL A   1      41.940  28.472  32.187  1.00  0.00     0.031 C 
ATOM     62  C   UNL A   1      43.061  31.219  37.489  1.00  0.00     0.029 A 
ATOM     63  C   UNL A   1      42.443  30.804  36.320  1.00  0.00     0.049 A 
ATOM     64  H   UNL A   1      40.546  31.331  35.562  1.00  0.00     0.167 HD
ATOM     65  C   UNL A   1      42.270  29.533  34.194  1.00  0.00     0.074 A 
ATOM     66  C   UNL A   1      42.799  28.639  33.183  1.00  0.00     0.031 C 
ATOM     67  C   UNL A   1      42.943  29.909  35.309  1.00  0.00     0.037 A 
BRANCH  54  68
ATOM     68  C   UNL A   1      39.808  33.779  38.978  1.00  0.00     0.057 A 
ATOM     69  C   UNL A   1      40.387  35.049  39.088  1.00  0.00     0.134 A 
ATOM     70  C   UNL A   1      39.157  33.270  40.111  1.00  0.00     0.134 A 
ATOM     71  F   UNL A   1      41.036  35.592  38.047  1.00  0.00    -0.206 F 
ATOM     72  C   UNL A   1      40.348  35.770  40.285  1.00  0.00     0.040 A 
ATOM     73  C   UNL A   1      39.088  33.992  41.305  1.00  0.00     0.040 A 
ATOM     74  F   UNL A   1      38.573  32.062  40.075  1.00  0.00    -0.206 F 
ATOM     75  C   UNL A   1      39.693  35.242  41.397  1.00  0.00     0.006 A 
ENDBRANCH  54  68
BRANCH  55  76
ATOM     76  C   UNL A   1      39.591  28.612  30.432  1.00  0.00     0.057 A 
ATOM     77  C   UNL A   1      40.142  29.201  29.290  1.00  0.00     0.134 A 
ATOM     78  C   UNL A   1      39.067  27.319  30.303  1.00  0.00     0.134 A 
ATOM     79  F   UNL A   1      40.637  30.446  29.344  1.00  0.00    -0.206 F 
ATOM     80  C   UNL A   1      40.174  28.529  28.066  1.00  0.00     0.040 A 
ATOM     81  C   UNL A   1      39.120  26.624  29.094  1.00  0.00     0.040 A 
ATOM     82  F   UNL A   1      38.527  26.698  31.362  1.00  0.00    -0.206 F 
ATOM     83  C   UNL A   1      39.673  27.231  27.970  1.00  0.00     0.006 A 
ENDBRANCH  55  76
BRANCH  67  84
ATOM     84  C   UNL A   1      44.303  29.312  35.518  1.00  0.00     0.057 A 
ATOM     85  C   UNL A   1      45.467  29.938  35.057  1.00  0.00     0.134 A 
ATOM     86  C   UNL A   1      44.448  28.112  36.226  1.00  0.00     0.134 A 
ATOM     87  F   UNL A   1      45.392  31.081  34.358  1.00  0.00    -0.206 F 
ATOM     88  C   UNL A   1      46.728  29.383  35.279  1.00  0.00     0.040 A 
ATOM     89  C   UNL A   1      45.704  27.560  36.474  1.00  0.00     0.040 A 
ATOM     90  F   UNL A   1      43.372  27.466  36.699  1.00  0.00    -0.206 F 
ATOM     91  C   UNL A   1      46.849  28.194  35.996  1.00  0.00     0.006 A 
ENDBRANCH  67  84
ENDBRANCH  41  42
ENDBRANCH  34  36
ENDBRANCH  33  34
ENDBRANCH  32  33
ENDBRANCH  31  32
ENDBRANCH  30  31
ENDBRANCH  29  30
ENDBRANCH   1  29
TORSDOF 21
ENDMDL
MODEL 3
REMARK VINA RESULT:     -10.1      0.936      1.997
REMARK SMILES C[NH+]1CCC(C[N@H+](C)[C@H]2CC[C@]([NH3+])(C(=O)OCCOCCOCCOC(=O)c3ccc(-c4c5nc(c(-c6c(F)cccc6F)c6ccc([nH]6)c(-c6c(F)cccc6F)c6nc(c(-c7c(F)cccc7F)c7ccc4[nH]7)C=C6)C=C5)cc3)C2)CC1
REMARK SMILES IDX 20 1 19 2 18 3 17 4 16 5 14 6 15 7 12 8 9 9 10 10 82 11
REMARK SMILES IDX 11 12 7 13 8 14 6 16 5 17 1 18 2 19 3 20 84 21 4 23 83 24
REMARK SMILES IDX 13 25 21 29 22 30 23 31 24 32 25 33 26 34 27 35 28 36 29 37
REMARK SMILES IDX 81 38 30 39 80 40 31 41 32 42 33 43 74 44 34 45 79 46 73 47
REMARK SMILES IDX 75 48 35 49 78 50 72 51 71 52 36 54 62 55 45 56 61 57 46 58
REMARK SMILES IDX 49 59 60 60 76 61 47 62 48 63 59 65 77 66 50 67 37 68 38 69
REMARK SMILES IDX 43 70 39 71 40 72 42 73 44 74 41 75 63 76 64 77 69 78 65 79
REMARK SMILES IDX 66 80 68 81 70 82 67 83 51 84 52 85 57 86 53 87 54 88 56 89
REMARK SMILES IDX 58 90 55 91
REMARK H PARENT 7 15 2 22 13 26 13 27 13 28 75 53 49 64
REMARK Flexibility Score: inf
ROOT
ATOM      1  C   UNL A   1      39.566  21.280  25.883  1.00  0.00     0.188 C 
ENDROOT
BRANCH   1   2
ATOM      2  O   UNL A   1      38.194  21.649  25.855  1.00  0.00    -0.376 OA
BRANCH   2   3
ATOM      3  C   UNL A   1      37.493  21.493  24.624  1.00  0.00     0.202 C 
BRANCH   3   4
ATOM      4  C   UNL A   1      36.680  22.710  24.174  1.00  0.00     0.261 C 
BRANCH   4   5
ATOM      5  O   UNL A   1      35.656  22.994  25.138  1.00  0.00    -0.459 OA
BRANCH   5   6
ATOM      6  C   UNL A   1      34.375  22.672  24.775  1.00  0.00     0.368 C 
ATOM      7  O   UNL A   1      33.992  21.542  24.505  1.00  0.00    -0.245 OA
BRANCH   6   8
ATOM      8  C   UNL A   1      33.480  23.943  24.864  1.00  0.00     0.198 C 
ATOM      9  C   UNL A   1      32.227  25.486  23.367  1.00  0.00     0.191 C 
ATOM     10  C   UNL A   1      33.578  26.133  23.679  1.00  0.00     0.072 C 
ATOM     11  C   UNL A   1      32.383  24.009  23.786  1.00  0.00     0.145 C 
ATOM     12  C   UNL A   1      34.355  25.186  24.586  1.00  0.00     0.087 C 
BRANCH   9  13
ATOM     13  N   UNL A   1      31.068  26.315  23.782  1.00  0.00    -0.334 N 
ATOM     14  C   UNL A   1      30.214  25.545  24.703  1.00  0.00     0.332 C 
ATOM     15  H   UNL A   1      30.642  26.524  22.879  1.00  0.00     0.348 HD
BRANCH  13  16
ATOM     16  C   UNL A   1      31.285  27.653  24.357  1.00  0.00     0.266 C 
BRANCH  16  17
ATOM     17  C   UNL A   1      30.431  28.801  23.803  1.00  0.00     0.055 C 
ATOM     18  C   UNL A   1      28.485  32.056  21.937  1.00  0.00     0.332 C 
ATOM     19  N   UNL A   1      29.621  31.270  22.443  1.00  0.00    -0.337 N 
ATOM     20  C   UNL A   1      29.660  29.988  21.739  1.00  0.00     0.262 C 
ATOM     21  C   UNL A   1      29.534  31.123  23.904  1.00  0.00     0.262 C 
ATOM     22  H   UNL A   1      30.500  31.752  22.258  1.00  0.00     0.347 HD
ATOM     23  C   UNL A   1      30.672  28.991  22.300  1.00  0.00     0.071 C 
ATOM     24  C   UNL A   1      30.605  30.169  24.465  1.00  0.00     0.071 C 
ENDBRANCH  16  17
ENDBRANCH  13  16
ENDBRANCH   9  13
BRANCH   8  25
ATOM     25  N   UNL A   1      32.866  23.930  26.211  1.00  0.00    -0.343 N 
ATOM     26  H   UNL A   1      32.043  23.327  26.204  1.00  0.00     0.345 HD
ATOM     27  H   UNL A   1      32.590  24.878  26.468  1.00  0.00     0.345 HD
ATOM     28  H   UNL A   1      33.540  23.576  26.889  1.00  0.00     0.345 HD
ENDBRANCH   8  25
ENDBRANCH   6   8
ENDBRANCH   5   6
ENDBRANCH   4   5
ENDBRANCH   3   4
ENDBRANCH   2   3
ENDBRANCH   1   2
BRANCH   1  29
ATOM     29  C   UNL A   1      39.937  19.802  26.137  1.00  0.00     0.188 C 
BRANCH  29  30
ATOM     30  O   UNL A   1      41.182  19.303  25.669  1.00  0.00    -0.376 OA
BRANCH  30  31
ATOM     31  C   UNL A   1      42.337  19.559  26.458  1.00  0.00     0.202 C 
BRANCH  31  32
ATOM     32  C   UNL A   1      43.235  20.680  25.945  1.00  0.00     0.261 C 
BRANCH  32  33
ATOM     33  O   UNL A   1      42.931  21.936  26.579  1.00  0.00    -0.460 OA
BRANCH  33  34
ATOM     34  C   UNL A   1      42.780  22.966  25.722  1.00  0.00     0.338 C 
ATOM     35  O   UNL A   1      43.035  22.973  24.523  1.00  0.00    -0.246 OA
BRANCH  34  36
ATOM     36  C   UNL A   1      42.269  24.163  26.406  1.00  0.00     0.060 A 
ATOM     37  C   UNL A   1      42.651  25.441  25.997  1.00  0.00     0.016 A 
ATOM     38  C   UNL A   1      41.575  23.989  27.601  1.00  0.00     0.016 A 
ATOM     39  C   UNL A   1      42.447  26.533  26.847  1.00  0.00     0.010 A 
ATOM     40  C   UNL A   1      41.298  25.094  28.407  1.00  0.00     0.010 A 
ATOM     41  C   UNL A   1      41.774  26.372  28.065  1.00  0.00    -0.014 A 
BRANCH  41  42
ATOM     42  C   UNL A   1      41.594  27.491  29.030  1.00  0.00     0.031 A 
ATOM     43  C   UNL A   1      42.468  27.561  30.253  1.00  0.00     0.074 A 
ATOM     44  C   UNL A   1      40.627  28.411  28.858  1.00  0.00     0.049 A 
ATOM     45  N   UNL A   1      42.263  28.176  31.389  1.00  0.00    -0.248 NA
ATOM     46  C   UNL A   1      43.741  26.827  30.186  1.00  0.00     0.031 C 
ATOM     47  C   UNL A   1      39.770  28.538  27.680  1.00  0.00     0.029 A 
ATOM     48  N   UNL A   1      40.180  29.398  29.704  1.00  0.00    -0.354 N 
ATOM     49  C   UNL A   1      43.347  27.849  32.197  1.00  0.00     0.074 A 
ATOM     50  C   UNL A   1      44.214  26.995  31.413  1.00  0.00     0.031 C 
ATOM     51  C   UNL A   1      38.893  29.532  27.880  1.00  0.00     0.029 A 
ATOM     52  C   UNL A   1      39.053  30.033  29.241  1.00  0.00     0.049 A 
ATOM     53  H   UNL A   1      40.622  29.627  30.554  1.00  0.00     0.167 HD
ATOM     54  C   UNL A   1      43.579  28.216  33.482  1.00  0.00     0.037 A 
ATOM     55  C   UNL A   1      38.188  30.854  29.866  1.00  0.00     0.037 A 
ATOM     56  C   UNL A   1      42.716  29.093  34.234  1.00  0.00     0.049 A 
ATOM     57  C   UNL A   1      38.407  31.188  31.313  1.00  0.00     0.074 A 
ATOM     58  C   UNL A   1      42.834  29.508  35.549  1.00  0.00     0.029 A 
ATOM     59  N   UNL A   1      41.579  29.703  33.722  1.00  0.00    -0.354 N 
ATOM     60  N   UNL A   1      39.364  30.790  32.115  1.00  0.00    -0.248 NA
ATOM     61  C   UNL A   1      37.415  32.065  31.949  1.00  0.00     0.031 C 
ATOM     62  C   UNL A   1      41.748  30.341  35.843  1.00  0.00     0.029 A 
ATOM     63  C   UNL A   1      40.982  30.484  34.697  1.00  0.00     0.049 A 
ATOM     64  H   UNL A   1      41.247  29.595  32.803  1.00  0.00     0.167 HD
ATOM     65  C   UNL A   1      39.101  31.379  33.344  1.00  0.00     0.074 A 
ATOM     66  C   UNL A   1      37.899  32.170  33.178  1.00  0.00     0.031 C 
ATOM     67  C   UNL A   1      39.792  31.273  34.506  1.00  0.00     0.037 A 
BRANCH  54  68
ATOM     68  C   UNL A   1      44.775  27.622  34.169  1.00  0.00     0.057 A 
ATOM     69  C   UNL A   1      44.729  26.384  34.822  1.00  0.00     0.134 A 
ATOM     70  C   UNL A   1      46.003  28.300  34.162  1.00  0.00     0.134 A 
ATOM     71  F   UNL A   1      43.585  25.687  34.877  1.00  0.00    -0.206 F 
ATOM     72  C   UNL A   1      45.850  25.857  35.469  1.00  0.00     0.040 A 
ATOM     73  C   UNL A   1      47.137  27.771  34.783  1.00  0.00     0.040 A 
ATOM     74  F   UNL A   1      46.121  29.487  33.549  1.00  0.00    -0.206 F 
ATOM     75  C   UNL A   1      47.060  26.550  35.447  1.00  0.00     0.006 A 
ENDBRANCH  54  68
BRANCH  55  76
ATOM     76  C   UNL A   1      36.988  31.339  29.136  1.00  0.00     0.057 A 
ATOM     77  C   UNL A   1      36.926  32.638  28.625  1.00  0.00     0.134 A 
ATOM     78  C   UNL A   1      35.890  30.500  28.904  1.00  0.00     0.134 A 
ATOM     79  F   UNL A   1      37.935  33.496  28.835  1.00  0.00    -0.206 F 
ATOM     80  C   UNL A   1      35.816  33.086  27.904  1.00  0.00     0.040 A 
ATOM     81  C   UNL A   1      34.787  30.924  28.161  1.00  0.00     0.040 A 
ATOM     82  F   UNL A   1      35.888  29.241  29.367  1.00  0.00    -0.206 F 
ATOM     83  C   UNL A   1      34.749  32.223  27.660  1.00  0.00     0.006 A 
ENDBRANCH  55  76
BRANCH  67  84
ATOM     84  C   UNL A   1      39.292  32.074  35.672  1.00  0.00     0.057 A 
ATOM     85  C   UNL A   1      39.709  33.391  35.900  1.00  0.00     0.134 A 
ATOM     86  C   UNL A   1      38.352  31.527  36.555  1.00  0.00     0.134 A 
ATOM     87  F   UNL A   1      40.620  33.964  35.098  1.00  0.00    -0.206 F 
ATOM     88  C   UNL A   1      39.218  34.132  36.975  1.00  0.00     0.040 A 
ATOM     89  C   UNL A   1      37.838  32.266  37.620  1.00  0.00     0.040 A 
ATOM     90  F   UNL A   1      37.910  30.273  36.387  1.00  0.00    -0.206 F 
ATOM     91  C   UNL A   1      38.275  33.572  37.835  1.00  0.00     0.006 A 
ENDBRANCH  67  84
ENDBRANCH  41  42
ENDBRANCH  34  36
ENDBRANCH  33  34
ENDBRANCH  32  33
ENDBRANCH  31  32
ENDBRANCH  30  31
ENDBRANCH  29  30
ENDBRANCH   1  29
TORSDOF 21
ENDMDL
