MODEL 1
REMARK VINA RESULT:     -11.4      0.000      0.000
REMARK SMILES Cc1ccc(S(=O)(=O)N(c2ccccc2)[C@H](C)C(=O)OCCOCCOCCOC(=O)c2ccc(-c3c4nc(c(-c5c(F)cccc5F)c5ccc([nH]5)c(-c5c(F)cccc5F)c5nc(c(-c6c(F)cccc6F)c6ccc3[nH]6)C=C5)C=C4)cc2)cc1
REMARK SMILES IDX 24 1 23 2 22 3 21 4 20 5 18 6 19 7 16 8 17 9 9 10 6 11 7 12
REMARK SMILES IDX 8 13 5 14 1 15 2 16 3 17 87 18 4 19 86 20 10 21 11 22 15 23
REMARK SMILES IDX 12 24 14 25 13 26 25 27 26 28 27 29 28 30 29 31 30 32 31 33
REMARK SMILES IDX 32 34 33 35 85 36 34 37 84 38 35 39 36 40 37 41 78 42 38 43
REMARK SMILES IDX 83 44 77 45 79 46 39 47 82 48 76 49 75 50 40 52 66 53 49 54
REMARK SMILES IDX 65 55 50 56 53 57 64 58 80 59 51 60 52 61 63 63 81 64 54 65
REMARK SMILES IDX 41 66 42 67 47 68 43 69 44 70 46 71 48 72 45 73 67 74 68 75
REMARK SMILES IDX 73 76 69 77 70 78 72 79 74 80 71 81 55 82 56 83 61 84 57 85
REMARK SMILES IDX 58 86 60 87 62 88 59 89
REMARK H PARENT 79 51 53 62
REMARK Flexibility Score: inf
ROOT
ATOM      1  C   UNL A   1      32.936  29.192  25.066  1.00  0.00     0.188 C 
ENDROOT
BRANCH   1   2
ATOM      2  O   UNL A   1      32.814  28.053  24.251  1.00  0.00    -0.376 OA
BRANCH   2   3
ATOM      3  C   UNL A   1      31.652  28.182  23.440  1.00  0.00     0.202 C 
BRANCH   3   4
ATOM      4  C   UNL A   1      30.476  27.130  23.661  1.00  0.00     0.261 C 
BRANCH   4   5
ATOM      5  O   UNL A   1      30.312  25.579  24.330  1.00  0.00    -0.462 OA
BRANCH   5   6
ATOM      6  C   UNL A   1      30.740  24.262  24.079  1.00  0.00     0.329 C 
ATOM      7  O   UNL A   1      30.368  23.733  23.038  1.00  0.00    -0.250 OA
BRANCH   6   8
ATOM      8  C   UNL A   1      31.651  23.259  24.908  1.00  0.00     0.206 C 
ATOM      9  C   UNL A   1      31.101  22.272  25.926  1.00  0.00     0.045 C 
BRANCH   8  10
ATOM     10  N   UNL A   1      32.859  22.636  24.095  1.00  0.00    -0.252 N 
BRANCH  10  11
ATOM     11  S   UNL A   1      34.294  23.547  23.735  1.00  0.00     0.265 S 
ATOM     12  O   UNL A   1      34.031  24.896  24.209  1.00  0.00    -0.201 OA
ATOM     13  O   UNL A   1      34.604  23.344  22.333  1.00  0.00    -0.201 OA
BRANCH  11  14
ATOM     14  C   UNL A   1      35.814  23.071  24.648  1.00  0.00     0.088 A 
ATOM     15  C   UNL A   1      39.698  22.120  26.433  1.00  0.00     0.044 C 
ATOM     16  C   UNL A   1      38.352  22.405  25.826  1.00  0.00    -0.051 A 
ATOM     17  C   UNL A   1      37.685  21.503  24.988  1.00  0.00     0.005 A 
ATOM     18  C   UNL A   1      37.695  23.587  26.135  1.00  0.00     0.005 A 
ATOM     19  C   UNL A   1      36.441  21.841  24.388  1.00  0.00     0.022 A 
ATOM     20  C   UNL A   1      36.435  23.877  25.581  1.00  0.00     0.022 A 
ENDBRANCH  11  14
ENDBRANCH  10  11
BRANCH  10  21
ATOM     21  C   UNL A   1      32.840  21.246  23.821  1.00  0.00     0.053 A 
ATOM     22  C   UNL A   1      33.547  20.170  24.966  1.00  0.00     0.027 A 
ATOM     23  C   UNL A   1      32.113  20.790  22.395  1.00  0.00     0.027 A 
ATOM     24  C   UNL A   1      33.729  18.436  24.744  1.00  0.00     0.002 A 
ATOM     25  C   UNL A   1      32.115  19.095  22.016  1.00  0.00     0.002 A 
ATOM     26  C   UNL A   1      33.101  17.751  23.255  1.00  0.00     0.000 A 
ENDBRANCH  10  21
ENDBRANCH   8  10
ENDBRANCH   6   8
ENDBRANCH   5   6
ENDBRANCH   4   5
ENDBRANCH   3   4
ENDBRANCH   2   3
ENDBRANCH   1   2
BRANCH   1  27
ATOM     27  C   UNL A   1      32.553  28.913  26.507  1.00  0.00     0.188 C 
BRANCH  27  28
ATOM     28  O   UNL A   1      33.468  29.429  27.440  1.00  0.00    -0.376 OA
BRANCH  28  29
ATOM     29  C   UNL A   1      34.811  29.719  27.193  1.00  0.00     0.202 C 
BRANCH  29  30
ATOM     30  C   UNL A   1      34.965  31.141  27.674  1.00  0.00     0.261 C 
BRANCH  30  31
ATOM     31  O   UNL A   1      33.637  31.711  27.954  1.00  0.00    -0.460 OA
BRANCH  31  32
ATOM     32  C   UNL A   1      33.558  33.016  28.376  1.00  0.00     0.338 C 
ATOM     33  O   UNL A   1      32.812  33.855  27.891  1.00  0.00    -0.246 OA
BRANCH  32  34
ATOM     34  C   UNL A   1      34.657  33.340  29.379  1.00  0.00     0.060 A 
ATOM     35  C   UNL A   1      35.779  34.071  28.999  1.00  0.00     0.016 A 
ATOM     36  C   UNL A   1      34.743  32.668  30.601  1.00  0.00     0.016 A 
ATOM     37  C   UNL A   1      36.991  33.922  29.725  1.00  0.00     0.010 A 
ATOM     38  C   UNL A   1      36.006  32.381  31.180  1.00  0.00     0.010 A 
ATOM     39  C   UNL A   1      37.194  32.866  30.620  1.00  0.00    -0.014 A 
BRANCH  39  40
ATOM     40  C   UNL A   1      38.615  32.288  31.002  1.00  0.00     0.031 A 
ATOM     41  C   UNL A   1      38.462  30.755  30.477  1.00  0.00     0.074 A 
ATOM     42  C   UNL A   1      39.783  32.880  31.683  1.00  0.00     0.049 A 
ATOM     43  N   UNL A   1      39.131  29.131  30.952  1.00  0.00    -0.248 NA
ATOM     44  C   UNL A   1      38.152  30.606  28.474  1.00  0.00     0.031 C 
ATOM     45  C   UNL A   1      41.251  32.948  31.377  1.00  0.00     0.029 A 
ATOM     46  N   UNL A   1      39.924  33.517  32.960  1.00  0.00    -0.354 N 
ATOM     47  C   UNL A   1      39.458  28.084  29.473  1.00  0.00     0.074 A 
ATOM     48  C   UNL A   1      38.705  29.112  27.998  1.00  0.00     0.031 C 
ATOM     49  C   UNL A   1      42.006  33.223  32.478  1.00  0.00     0.029 A 
ATOM     50  C   UNL A   1      41.154  33.527  33.601  1.00  0.00     0.049 A 
ATOM     51  H   UNL A   1      39.147  33.949  33.383  1.00  0.00     0.167 HD
ATOM     52  C   UNL A   1      40.779  27.585  29.372  1.00  0.00     0.037 A 
ATOM     53  C   UNL A   1      41.319  33.404  34.967  1.00  0.00     0.037 A 
ATOM     54  C   UNL A   1      41.820  28.074  30.405  1.00  0.00     0.049 A 
ATOM     55  C   UNL A   1      41.847  31.978  35.203  1.00  0.00     0.074 A 
ATOM     56  C   UNL A   1      42.946  28.908  30.279  1.00  0.00     0.029 A 
ATOM     57  N   UNL A   1      41.676  27.999  31.805  1.00  0.00    -0.354 N 
ATOM     58  N   UNL A   1      42.241  31.156  34.250  1.00  0.00    -0.248 NA
ATOM     59  C   UNL A   1      41.846  31.346  36.520  1.00  0.00     0.031 C 
ATOM     60  C   UNL A   1      43.421  29.338  31.570  1.00  0.00     0.029 A 
ATOM     61  C   UNL A   1      42.628  28.759  32.540  1.00  0.00     0.049 A 
ATOM     62  H   UNL A   1      40.973  27.462  32.239  1.00  0.00     0.167 HD
ATOM     63  C   UNL A   1      42.395  29.885  34.765  1.00  0.00     0.074 A 
ATOM     64  C   UNL A   1      42.131  30.074  36.197  1.00  0.00     0.031 C 
ATOM     65  C   UNL A   1      42.668  28.746  34.027  1.00  0.00     0.037 A 
BRANCH  52  66
ATOM     66  C   UNL A   1      41.174  27.080  27.992  1.00  0.00     0.057 A 
ATOM     67  C   UNL A   1      41.689  27.916  26.990  1.00  0.00     0.134 A 
ATOM     68  C   UNL A   1      41.055  25.725  27.613  1.00  0.00     0.134 A 
ATOM     69  F   UNL A   1      42.002  29.195  27.218  1.00  0.00    -0.206 F 
ATOM     70  C   UNL A   1      41.948  27.477  25.687  1.00  0.00     0.040 A 
ATOM     71  C   UNL A   1      41.280  25.275  26.305  1.00  0.00     0.040 A 
ATOM     72  F   UNL A   1      40.716  24.781  28.507  1.00  0.00    -0.206 F 
ATOM     73  C   UNL A   1      41.721  26.157  25.331  1.00  0.00     0.006 A 
ENDBRANCH  52  66
BRANCH  53  74
ATOM     74  C   UNL A   1      40.348  34.168  35.935  1.00  0.00     0.057 A 
ATOM     75  C   UNL A   1      39.183  33.512  36.383  1.00  0.00     0.134 A 
ATOM     76  C   UNL A   1      40.605  35.369  36.636  1.00  0.00     0.134 A 
ATOM     77  F   UNL A   1      38.723  32.439  35.722  1.00  0.00    -0.206 F 
ATOM     78  C   UNL A   1      38.491  33.873  37.562  1.00  0.00     0.040 A 
ATOM     79  C   UNL A   1      39.992  35.680  37.877  1.00  0.00     0.040 A 
ATOM     80  F   UNL A   1      41.565  36.218  36.240  1.00  0.00    -0.206 F 
ATOM     81  C   UNL A   1      38.958  34.902  38.369  1.00  0.00     0.006 A 
ENDBRANCH  53  74
BRANCH  65  82
ATOM     82  C   UNL A   1      43.072  27.446  34.707  1.00  0.00     0.057 A 
ATOM     83  C   UNL A   1      44.398  27.082  34.990  1.00  0.00     0.134 A 
ATOM     84  C   UNL A   1      42.132  26.431  34.984  1.00  0.00     0.134 A 
ATOM     85  F   UNL A   1      45.441  27.788  34.528  1.00  0.00    -0.206 F 
ATOM     86  C   UNL A   1      44.730  25.921  35.699  1.00  0.00     0.040 A 
ATOM     87  C   UNL A   1      42.453  25.243  35.632  1.00  0.00     0.040 A 
ATOM     88  F   UNL A   1      40.853  26.499  34.604  1.00  0.00    -0.206 F 
ATOM     89  C   UNL A   1      43.749  25.006  36.042  1.00  0.00     0.006 A 
ENDBRANCH  65  82
ENDBRANCH  39  40
ENDBRANCH  32  34
ENDBRANCH  31  32
ENDBRANCH  30  31
ENDBRANCH  29  30
ENDBRANCH  28  29
ENDBRANCH  27  28
ENDBRANCH   1  27
TORSDOF 21
ENDMDL
MODEL 2
REMARK VINA RESULT:     -11.3      2.499      4.096
REMARK SMILES Cc1ccc(S(=O)(=O)N(c2ccccc2)[C@H](C)C(=O)OCCOCCOCCOC(=O)c2ccc(-c3c4nc(c(-c5c(F)cccc5F)c5ccc([nH]5)c(-c5c(F)cccc5F)c5nc(c(-c6c(F)cccc6F)c6ccc3[nH]6)C=C5)C=C4)cc2)cc1
REMARK SMILES IDX 24 1 23 2 22 3 21 4 20 5 18 6 19 7 16 8 17 9 9 10 6 11 7 12
REMARK SMILES IDX 8 13 5 14 1 15 2 16 3 17 87 18 4 19 86 20 10 21 11 22 15 23
REMARK SMILES IDX 12 24 14 25 13 26 25 27 26 28 27 29 28 30 29 31 30 32 31 33
REMARK SMILES IDX 32 34 33 35 85 36 34 37 84 38 35 39 36 40 37 41 78 42 38 43
REMARK SMILES IDX 83 44 77 45 79 46 39 47 82 48 76 49 75 50 40 52 66 53 49 54
REMARK SMILES IDX 65 55 50 56 53 57 64 58 80 59 51 60 52 61 63 63 81 64 54 65
REMARK SMILES IDX 41 66 42 67 47 68 43 69 44 70 46 71 48 72 45 73 67 74 68 75
REMARK SMILES IDX 73 76 69 77 70 78 72 79 74 80 71 81 55 82 56 83 61 84 57 85
REMARK SMILES IDX 58 86 60 87 62 88 59 89
REMARK H PARENT 79 51 53 62
REMARK Flexibility Score: inf
ROOT
ATOM      1  C   UNL A   1      33.132  28.961  23.574  1.00  0.00     0.188 C 
ENDROOT
BRANCH   1   2
ATOM      2  O   UNL A   1      32.262  27.900  23.266  1.00  0.00    -0.376 OA
BRANCH   2   3
ATOM      3  C   UNL A   1      31.845  27.273  24.473  1.00  0.00     0.202 C 
BRANCH   3   4
ATOM      4  C   UNL A   1      30.994  25.931  24.354  1.00  0.00     0.261 C 
BRANCH   4   5
ATOM      5  O   UNL A   1      30.789  24.510  25.260  1.00  0.00    -0.462 OA
BRANCH   5   6
ATOM      6  C   UNL A   1      31.430  23.810  26.299  1.00  0.00     0.329 C 
ATOM      7  O   UNL A   1      30.773  23.556  27.303  1.00  0.00    -0.250 OA
BRANCH   6   8
ATOM      8  C   UNL A   1      32.909  23.252  26.457  1.00  0.00     0.206 C 
ATOM      9  C   UNL A   1      33.332  22.300  27.566  1.00  0.00     0.045 C 
BRANCH   8  10
ATOM     10  N   UNL A   1      33.636  22.908  25.093  1.00  0.00    -0.252 N 
BRANCH  10  11
ATOM     11  S   UNL A   1      35.035  23.783  24.549  1.00  0.00     0.265 S 
ATOM     12  O   UNL A   1      34.944  25.094  25.171  1.00  0.00    -0.201 OA
ATOM     13  O   UNL A   1      35.074  23.695  23.102  1.00  0.00    -0.201 OA
BRANCH  11  14
ATOM     14  C   UNL A   1      36.663  23.158  25.123  1.00  0.00     0.088 A 
ATOM     15  C   UNL A   1      40.298  21.468  26.885  1.00  0.00     0.044 C 
ATOM     16  C   UNL A   1      39.069  22.088  26.279  1.00  0.00    -0.051 A 
ATOM     17  C   UNL A   1      38.608  23.364  26.623  1.00  0.00     0.005 A 
ATOM     18  C   UNL A   1      38.370  21.406  25.294  1.00  0.00     0.005 A 
ATOM     19  C   UNL A   1      37.407  23.885  26.069  1.00  0.00     0.022 A 
ATOM     20  C   UNL A   1      37.219  21.964  24.710  1.00  0.00     0.022 A 
ENDBRANCH  11  14
ENDBRANCH  10  11
BRANCH  10  21
ATOM     21  C   UNL A   1      33.244  21.737  24.397  1.00  0.00     0.053 A 
ATOM     22  C   UNL A   1      33.824  20.214  24.953  1.00  0.00     0.027 A 
ATOM     23  C   UNL A   1      32.234  21.964  23.093  1.00  0.00     0.027 A 
ATOM     24  C   UNL A   1      33.549  18.675  24.152  1.00  0.00     0.002 A 
ATOM     25  C   UNL A   1      31.774  20.549  22.198  1.00  0.00     0.002 A 
ATOM     26  C   UNL A   1      32.570  18.696  22.695  1.00  0.00     0.000 A 
ENDBRANCH  10  21
ENDBRANCH   8  10
ENDBRANCH   6   8
ENDBRANCH   5   6
ENDBRANCH   4   5
ENDBRANCH   3   4
ENDBRANCH   2   3
ENDBRANCH   1   2
BRANCH   1  27
ATOM     27  C   UNL A   1      33.624  28.902  25.008  1.00  0.00     0.188 C 
BRANCH  27  28
ATOM     28  O   UNL A   1      33.204  29.991  25.790  1.00  0.00    -0.376 OA
BRANCH  28  29
ATOM     29  C   UNL A   1      33.120  30.012  27.183  1.00  0.00     0.202 C 
BRANCH  29  30
ATOM     30  C   UNL A   1      33.661  31.372  27.554  1.00  0.00     0.261 C 
BRANCH  30  31
ATOM     31  O   UNL A   1      35.104  31.421  27.268  1.00  0.00    -0.460 OA
BRANCH  31  32
ATOM     32  C   UNL A   1      35.983  31.392  28.323  1.00  0.00     0.338 C 
ATOM     33  O   UNL A   1      36.144  32.311  29.114  1.00  0.00    -0.246 OA
BRANCH  32  34
ATOM     34  C   UNL A   1      36.878  30.162  28.264  1.00  0.00     0.060 A 
ATOM     35  C   UNL A   1      36.964  29.286  29.343  1.00  0.00     0.016 A 
ATOM     36  C   UNL A   1      37.865  30.032  27.284  1.00  0.00     0.016 A 
ATOM     37  C   UNL A   1      38.129  28.491  29.509  1.00  0.00     0.010 A 
ATOM     38  C   UNL A   1      39.094  29.386  27.578  1.00  0.00     0.010 A 
ATOM     39  C   UNL A   1      39.311  28.751  28.807  1.00  0.00    -0.014 A 
BRANCH  39  40
ATOM     40  C   UNL A   1      40.752  28.347  29.316  1.00  0.00     0.031 A 
ATOM     41  C   UNL A   1      40.824  26.803  28.806  1.00  0.00     0.074 A 
ATOM     42  C   UNL A   1      41.780  29.078  30.081  1.00  0.00     0.049 A 
ATOM     43  N   UNL A   1      41.636  25.272  29.363  1.00  0.00    -0.248 NA
ATOM     44  C   UNL A   1      40.705  26.604  26.787  1.00  0.00     0.031 C 
ATOM     45  C   UNL A   1      43.251  29.316  29.898  1.00  0.00     0.029 A 
ATOM     46  N   UNL A   1      41.737  29.736  31.355  1.00  0.00    -0.354 N 
ATOM     47  C   UNL A   1      42.206  24.261  27.934  1.00  0.00     0.074 A 
ATOM     48  C   UNL A   1      41.467  25.183  26.385  1.00  0.00     0.031 C 
ATOM     49  C   UNL A   1      43.873  29.685  31.054  1.00  0.00     0.029 A 
ATOM     50  C   UNL A   1      42.898  29.895  32.097  1.00  0.00     0.049 A 
ATOM     51  H   UNL A   1      40.882  30.075  31.704  1.00  0.00     0.167 HD
ATOM     52  C   UNL A   1      43.581  23.920  27.952  1.00  0.00     0.037 A 
ATOM     53  C   UNL A   1      42.960  29.802  33.473  1.00  0.00     0.037 A 
ATOM     54  C   UNL A   1      44.466  24.536  29.060  1.00  0.00     0.049 A 
ATOM     55  C   UNL A   1      43.629  28.450  33.776  1.00  0.00     0.074 A 
ATOM     56  C   UNL A   1      45.494  25.496  29.015  1.00  0.00     0.029 A 
ATOM     57  N   UNL A   1      44.214  24.454  30.444  1.00  0.00    -0.354 N 
ATOM     58  N   UNL A   1      44.196  27.673  32.874  1.00  0.00    -0.248 NA
ATOM     59  C   UNL A   1      43.590  27.831  35.099  1.00  0.00     0.031 C 
ATOM     60  C   UNL A   1      45.804  25.988  30.334  1.00  0.00     0.029 A 
ATOM     61  C   UNL A   1      45.004  25.326  31.244  1.00  0.00     0.049 A 
ATOM     62  H   UNL A   1      43.544  23.842  30.827  1.00  0.00     0.167 HD
ATOM     63  C   UNL A   1      44.453  26.433  33.422  1.00  0.00     0.074 A 
ATOM     64  C   UNL A   1      44.049  26.600  34.824  1.00  0.00     0.031 C 
ATOM     65  C   UNL A   1      44.920  25.329  32.729  1.00  0.00     0.037 A 
BRANCH  52  66
ATOM     66  C   UNL A   1      44.148  23.455  26.620  1.00  0.00     0.057 A 
ATOM     67  C   UNL A   1      44.126  22.114  26.205  1.00  0.00     0.134 A 
ATOM     68  C   UNL A   1      44.739  24.340  25.692  1.00  0.00     0.134 A 
ATOM     69  F   UNL A   1      43.479  21.166  26.890  1.00  0.00    -0.206 F 
ATOM     70  C   UNL A   1      44.743  21.667  25.032  1.00  0.00     0.040 A 
ATOM     71  C   UNL A   1      45.389  23.905  24.528  1.00  0.00     0.040 A 
ATOM     72  F   UNL A   1      44.704  25.669  25.880  1.00  0.00    -0.206 F 
ATOM     73  C   UNL A   1      45.400  22.558  24.199  1.00  0.00     0.006 A 
ENDBRANCH  52  66
BRANCH  53  74
ATOM     74  C   UNL A   1      41.828  30.453  34.343  1.00  0.00     0.057 A 
ATOM     75  C   UNL A   1      41.722  31.859  34.374  1.00  0.00     0.134 A 
ATOM     76  C   UNL A   1      40.714  29.806  34.927  1.00  0.00     0.134 A 
ATOM     77  F   UNL A   1      42.760  32.617  33.994  1.00  0.00    -0.206 F 
ATOM     78  C   UNL A   1      40.531  32.543  34.714  1.00  0.00     0.040 A 
ATOM     79  C   UNL A   1      39.481  30.466  35.165  1.00  0.00     0.040 A 
ATOM     80  F   UNL A   1      40.710  28.484  35.147  1.00  0.00    -0.206 F 
ATOM     81  C   UNL A   1      39.373  31.838  35.014  1.00  0.00     0.006 A 
ENDBRANCH  53  74
BRANCH  65  82
ATOM     82  C   UNL A   1      45.413  24.091  33.462  1.00  0.00     0.057 A 
ATOM     83  C   UNL A   1      44.604  22.990  33.786  1.00  0.00     0.134 A 
ATOM     84  C   UNL A   1      46.715  24.017  34.000  1.00  0.00     0.134 A 
ATOM     85  F   UNL A   1      43.273  23.015  33.619  1.00  0.00    -0.206 F 
ATOM     86  C   UNL A   1      45.110  21.827  34.379  1.00  0.00     0.040 A 
ATOM     87  C   UNL A   1      47.217  22.893  34.648  1.00  0.00     0.040 A 
ATOM     88  F   UNL A   1      47.572  25.043  33.978  1.00  0.00    -0.206 F 
ATOM     89  C   UNL A   1      46.430  21.769  34.793  1.00  0.00     0.006 A 
ENDBRANCH  65  82
ENDBRANCH  39  40
ENDBRANCH  32  34
ENDBRANCH  31  32
ENDBRANCH  30  31
ENDBRANCH  29  30
ENDBRANCH  28  29
ENDBRANCH  27  28
ENDBRANCH   1  27
TORSDOF 21
ENDMDL
MODEL 3
REMARK VINA RESULT:     -11.2      1.386      2.532
REMARK SMILES Cc1ccc(S(=O)(=O)N(c2ccccc2)[C@H](C)C(=O)OCCOCCOCCOC(=O)c2ccc(-c3c4nc(c(-c5c(F)cccc5F)c5ccc([nH]5)c(-c5c(F)cccc5F)c5nc(c(-c6c(F)cccc6F)c6ccc3[nH]6)C=C5)C=C4)cc2)cc1
REMARK SMILES IDX 24 1 23 2 22 3 21 4 20 5 18 6 19 7 16 8 17 9 9 10 6 11 7 12
REMARK SMILES IDX 8 13 5 14 1 15 2 16 3 17 87 18 4 19 86 20 10 21 11 22 15 23
REMARK SMILES IDX 12 24 14 25 13 26 25 27 26 28 27 29 28 30 29 31 30 32 31 33
REMARK SMILES IDX 32 34 33 35 85 36 34 37 84 38 35 39 36 40 37 41 78 42 38 43
REMARK SMILES IDX 83 44 77 45 79 46 39 47 82 48 76 49 75 50 40 52 66 53 49 54
REMARK SMILES IDX 65 55 50 56 53 57 64 58 80 59 51 60 52 61 63 63 81 64 54 65
REMARK SMILES IDX 41 66 42 67 47 68 43 69 44 70 46 71 48 72 45 73 67 74 68 75
REMARK SMILES IDX 73 76 69 77 70 78 72 79 74 80 71 81 55 82 56 83 61 84 57 85
REMARK SMILES IDX 58 86 60 87 62 88 59 89
REMARK H PARENT 79 51 53 62
REMARK Flexibility Score: inf
ROOT
ATOM      1  C   UNL A   1      32.599  30.564  26.910  1.00  0.00     0.188 C 
ENDROOT
BRANCH   1   2
ATOM      2  O   UNL A   1      32.929  29.286  27.395  1.00  0.00    -0.376 OA
BRANCH   2   3
ATOM      3  C   UNL A   1      31.732  28.551  27.624  1.00  0.00     0.202 C 
BRANCH   3   4
ATOM      4  C   UNL A   1      31.415  27.330  26.650  1.00  0.00     0.261 C 
BRANCH   4   5
ATOM      5  O   UNL A   1      31.728  25.662  26.615  1.00  0.00    -0.462 OA
BRANCH   5   6
ATOM      6  C   UNL A   1      31.182  24.490  26.062  1.00  0.00     0.329 C 
ATOM      7  O   UNL A   1      30.724  23.656  26.836  1.00  0.00    -0.250 OA
BRANCH   6   8
ATOM      8  C   UNL A   1      31.028  23.988  24.562  1.00  0.00     0.206 C 
ATOM      9  C   UNL A   1      30.285  24.769  23.489  1.00  0.00     0.045 C 
BRANCH   8  10
ATOM     10  N   UNL A   1      32.308  23.269  23.970  1.00  0.00    -0.252 N 
BRANCH  10  11
ATOM     11  S   UNL A   1      33.723  24.156  23.488  1.00  0.00     0.265 S 
ATOM     12  O   UNL A   1      33.568  25.482  24.064  1.00  0.00    -0.201 OA
ATOM     13  O   UNL A   1      33.854  24.028  22.050  1.00  0.00    -0.201 OA
BRANCH  11  14
ATOM     14  C   UNL A   1      35.323  23.581  24.182  1.00  0.00     0.088 A 
ATOM     15  C   UNL A   1      38.867  21.898  26.126  1.00  0.00     0.044 C 
ATOM     16  C   UNL A   1      37.663  22.517  25.469  1.00  0.00    -0.051 A 
ATOM     17  C   UNL A   1      36.987  23.622  25.999  1.00  0.00     0.005 A 
ATOM     18  C   UNL A   1      37.212  22.020  24.255  1.00  0.00     0.005 A 
ATOM     19  C   UNL A   1      35.817  24.135  25.375  1.00  0.00     0.022 A 
ATOM     20  C   UNL A   1      36.090  22.581  23.620  1.00  0.00     0.022 A 
ENDBRANCH  11  14
ENDBRANCH  10  11
BRANCH  10  21
ATOM     21  C   UNL A   1      32.365  21.853  24.010  1.00  0.00     0.053 A 
ATOM     22  C   UNL A   1      32.741  21.086  25.506  1.00  0.00     0.027 A 
ATOM     23  C   UNL A   1      32.047  21.066  22.578  1.00  0.00     0.027 A 
ATOM     24  C   UNL A   1      32.977  19.358  25.723  1.00  0.00     0.002 A 
ATOM     25  C   UNL A   1      32.153  19.333  22.592  1.00  0.00     0.002 A 
ATOM     26  C   UNL A   1      32.772  18.340  24.309  1.00  0.00     0.000 A 
ENDBRANCH  10  21
ENDBRANCH   8  10
ENDBRANCH   6   8
ENDBRANCH   5   6
ENDBRANCH   4   5
ENDBRANCH   3   4
ENDBRANCH   2   3
ENDBRANCH   1   2
BRANCH   1  27
ATOM     27  C   UNL A   1      33.555  31.631  27.408  1.00  0.00     0.188 C 
BRANCH  27  28
ATOM     28  O   UNL A   1      32.912  32.809  27.825  1.00  0.00    -0.376 OA
BRANCH  28  29
ATOM     29  C   UNL A   1      33.435  34.100  27.735  1.00  0.00     0.202 C 
BRANCH  29  30
ATOM     30  C   UNL A   1      32.918  34.783  28.978  1.00  0.00     0.261 C 
BRANCH  30  31
ATOM     31  O   UNL A   1      34.038  35.044  29.896  1.00  0.00    -0.460 OA
BRANCH  31  32
ATOM     32  C   UNL A   1      34.402  34.061  30.785  1.00  0.00     0.338 C 
ATOM     33  O   UNL A   1      34.048  34.021  31.955  1.00  0.00    -0.246 OA
BRANCH  32  34
ATOM     34  C   UNL A   1      35.463  33.144  30.190  1.00  0.00     0.060 A 
ATOM     35  C   UNL A   1      35.523  31.798  30.540  1.00  0.00     0.016 A 
ATOM     36  C   UNL A   1      36.584  33.663  29.538  1.00  0.00     0.016 A 
ATOM     37  C   UNL A   1      36.755  31.100  30.432  1.00  0.00     0.010 A 
ATOM     38  C   UNL A   1      37.840  33.009  29.632  1.00  0.00     0.010 A 
ATOM     39  C   UNL A   1      37.974  31.767  30.266  1.00  0.00    -0.014 A 
BRANCH  39  40
ATOM     40  C   UNL A   1      39.374  31.183  30.710  1.00  0.00     0.031 A 
ATOM     41  C   UNL A   1      39.294  29.693  30.058  1.00  0.00     0.074 A 
ATOM     42  C   UNL A   1      40.473  31.738  31.523  1.00  0.00     0.049 A 
ATOM     43  N   UNL A   1      39.960  28.048  30.457  1.00  0.00    -0.248 NA
ATOM     44  C   UNL A   1      39.140  29.698  28.032  1.00  0.00     0.031 C 
ATOM     45  C   UNL A   1      41.958  31.852  31.338  1.00  0.00     0.029 A 
ATOM     46  N   UNL A   1      40.503  32.275  32.853  1.00  0.00    -0.354 N 
ATOM     47  C   UNL A   1      40.420  27.126  28.931  1.00  0.00     0.074 A 
ATOM     48  C   UNL A   1      39.759  28.255  27.486  1.00  0.00     0.031 C 
ATOM     49  C   UNL A   1      42.622  32.051  32.512  1.00  0.00     0.029 A 
ATOM     50  C   UNL A   1      41.680  32.253  33.587  1.00  0.00     0.049 A 
ATOM     51  H   UNL A   1      39.687  32.659  33.247  1.00  0.00     0.167 HD
ATOM     52  C   UNL A   1      41.756  26.657  28.894  1.00  0.00     0.037 A 
ATOM     53  C   UNL A   1      41.744  32.025  34.947  1.00  0.00     0.037 A 
ATOM     54  C   UNL A   1      42.704  27.080  30.039  1.00  0.00     0.049 A 
ATOM     55  C   UNL A   1      42.282  30.594  35.112  1.00  0.00     0.074 A 
ATOM     56  C   UNL A   1      43.819  27.937  30.066  1.00  0.00     0.029 A 
ATOM     57  N   UNL A   1      42.456  26.892  31.414  1.00  0.00    -0.354 N 
ATOM     58  N   UNL A   1      42.766  29.855  34.132  1.00  0.00    -0.248 NA
ATOM     59  C   UNL A   1      42.195  29.859  36.372  1.00  0.00     0.031 C 
ATOM     60  C   UNL A   1      44.184  28.272  31.420  1.00  0.00     0.029 A 
ATOM     61  C   UNL A   1      43.333  27.606  32.278  1.00  0.00     0.049 A 
ATOM     62  H   UNL A   1      41.734  26.312  31.750  1.00  0.00     0.167 HD
ATOM     63  C   UNL A   1      42.907  28.551  34.558  1.00  0.00     0.074 A 
ATOM     64  C   UNL A   1      42.532  28.622  35.976  1.00  0.00     0.031 C 
ATOM     65  C   UNL A   1      43.260  27.477  33.758  1.00  0.00     0.037 A 
BRANCH  52  66
ATOM     66  C   UNL A   1      42.265  26.268  27.515  1.00  0.00     0.057 A 
ATOM     67  C   UNL A   1      42.092  24.985  26.969  1.00  0.00     0.134 A 
ATOM     68  C   UNL A   1      42.949  27.169  26.672  1.00  0.00     0.134 A 
ATOM     69  F   UNL A   1      41.346  24.051  27.565  1.00  0.00    -0.206 F 
ATOM     70  C   UNL A   1      42.655  24.593  25.750  1.00  0.00     0.040 A 
ATOM     71  C   UNL A   1      43.545  26.784  25.463  1.00  0.00     0.040 A 
ATOM     72  F   UNL A   1      43.063  28.470  26.992  1.00  0.00    -0.206 F 
ATOM     73  C   UNL A   1      43.405  25.484  25.001  1.00  0.00     0.006 A 
ENDBRANCH  52  66
BRANCH  53  74
ATOM     74  C   UNL A   1      40.686  32.696  35.893  1.00  0.00     0.057 A 
ATOM     75  C   UNL A   1      40.883  34.035  36.287  1.00  0.00     0.134 A 
ATOM     76  C   UNL A   1      39.398  32.212  36.221  1.00  0.00     0.134 A 
ATOM     77  F   UNL A   1      42.098  34.593  36.180  1.00  0.00    -0.206 F 
ATOM     78  C   UNL A   1      39.837  34.879  36.727  1.00  0.00     0.040 A 
ATOM     79  C   UNL A   1      38.318  33.068  36.555  1.00  0.00     0.040 A 
ATOM     80  F   UNL A   1      39.083  30.915  36.084  1.00  0.00    -0.206 F 
ATOM     81  C   UNL A   1      38.527  34.420  36.766  1.00  0.00     0.006 A 
ENDBRANCH  53  74
BRANCH  65  82
ATOM     82  C   UNL A   1      43.639  26.135  34.364  1.00  0.00     0.057 A 
ATOM     83  C   UNL A   1      42.719  25.234  34.926  1.00  0.00     0.134 A 
ATOM     84  C   UNL A   1      44.986  25.750  34.532  1.00  0.00     0.134 A 
ATOM     85  F   UNL A   1      41.435  25.564  35.124  1.00  0.00    -0.206 F 
ATOM     86  C   UNL A   1      43.089  23.966  35.392  1.00  0.00     0.040 A 
ATOM     87  C   UNL A   1      45.375  24.519  35.051  1.00  0.00     0.040 A 
ATOM     88  F   UNL A   1      46.014  26.556  34.250  1.00  0.00    -0.206 F 
ATOM     89  C   UNL A   1      44.423  23.597  35.435  1.00  0.00     0.006 A 
ENDBRANCH  65  82
ENDBRANCH  39  40
ENDBRANCH  32  34
ENDBRANCH  31  32
ENDBRANCH  30  31
ENDBRANCH  29  30
ENDBRANCH  28  29
ENDBRANCH  27  28
ENDBRANCH   1  27
TORSDOF 21
ENDMDL
