MODEL 1
REMARK VINA RESULT:     -11.2      0.000      0.000
REMARK SMILES C[C@H]1[C@H](C)CC[C@@]2(C(=O)OCCOCCOCCOC(=O)c3ccc(-c4c5nc(c(-c6c(F)cccc6F)c6ccc([nH]6)c(-c6c(F)cccc6F)c6nc(c(-c7c(F)cccc7F)c7ccc4[nH]7)C=C6)C=C5)cc3)CC[C@@]3(C)C(=CC[C@@H]4[C@@]5(C)CC[C@H](O)C(C)(C)[C@@H]5CC[C@]43C)[C@H]12
REMARK SMILES IDX 15 1 14 2 13 3 12 4 11 5 10 6 8 7 9 8 7 9 1 10 2 11 3 12
REMARK SMILES IDX 98 13 4 14 5 15 80 16 6 17 76 18 78 19 81 20 77 21 79 22
REMARK SMILES IDX 96 23 82 24 83 25 95 26 97 27 84 28 94 29 85 30 86 31 93 32
REMARK SMILES IDX 87 33 90 34 88 35 91 36 92 37 89 38 16 40 17 41 18 42 19 43
REMARK SMILES IDX 20 44 21 45 22 46 23 47 75 48 24 49 74 50 25 51 26 52 27 53
REMARK SMILES IDX 68 54 28 55 73 56 67 57 69 58 29 59 72 60 66 61 65 62 30 64
REMARK SMILES IDX 56 65 39 66 55 67 40 68 43 69 54 70 70 71 41 72 42 73 53 75
REMARK SMILES IDX 71 76 44 77 31 78 32 79 37 80 33 81 34 82 36 83 38 84 35 85
REMARK SMILES IDX 57 86 58 87 63 88 59 89 60 90 62 91 64 92 61 93 45 94 46 95
REMARK SMILES IDX 51 96 47 97 48 98 50 99 52 100 49 101
REMARK H PARENT 89 39 69 63 43 74
REMARK Flexibility Score: inf
ROOT
ATOM      1  C   UNL A   1      34.638  32.142  28.019  1.00  0.00     0.188 C 
ENDROOT
BRANCH   1   2
ATOM      2  C   UNL A   1      35.316  30.756  27.834  1.00  0.00     0.188 C 
BRANCH   2   3
ATOM      3  O   UNL A   1      34.431  29.735  27.423  1.00  0.00    -0.376 OA
BRANCH   3   4
ATOM      4  C   UNL A   1      34.159  29.717  26.045  1.00  0.00     0.202 C 
BRANCH   4   5
ATOM      5  C   UNL A   1      34.403  28.419  25.283  1.00  0.00     0.261 C 
BRANCH   5   6
ATOM      6  O   UNL A   1      33.334  27.794  24.457  1.00  0.00    -0.463 OA
BRANCH   6   7
ATOM      7  C   UNL A   1      32.126  27.938  23.851  1.00  0.00     0.312 C 
ATOM      8  O   UNL A   1      31.845  27.728  22.675  1.00  0.00    -0.252 OA
BRANCH   7   9
ATOM      9  C   UNL A   1      31.021  28.292  24.892  1.00  0.00     0.075 C 
ATOM     10  C   UNL A   1      27.643  27.877  22.848  1.00  0.00     0.008 C 
ATOM     11  C   UNL A   1      29.056  28.335  23.204  1.00  0.00    -0.003 C 
ATOM     12  C   UNL A   1      29.167  29.909  23.193  1.00  0.00    -0.011 C 
ATOM     13  C   UNL A   1      29.676  27.601  24.505  1.00  0.00     0.036 C 
ATOM     14  C   UNL A   1      28.944  30.534  21.801  1.00  0.00     0.008 C 
ATOM     15  C   UNL A   1      30.524  30.446  23.652  1.00  0.00     0.005 C 
ATOM     16  C   UNL A   1      30.067  26.049  24.534  1.00  0.00    -0.063 C 
ATOM     17  C   UNL A   1      30.948  29.828  24.956  1.00  0.00     0.020 C 
ATOM     18  C   UNL A   1      31.406  27.876  26.331  1.00  0.00     0.020 C 
ATOM     19  C   UNL A   1      30.649  25.437  25.879  1.00  0.00    -0.006 C 
ATOM     20  C   UNL A   1      30.195  25.346  23.388  1.00  0.00    -0.027 C 
ATOM     21  C   UNL A   1      31.701  26.401  26.496  1.00  0.00     0.013 C 
ATOM     22  C   UNL A   1      29.472  25.328  26.876  1.00  0.00     0.017 C 
ATOM     23  C   UNL A   1      31.364  23.956  25.666  1.00  0.00    -0.020 C 
ATOM     24  C   UNL A   1      31.179  24.210  23.211  1.00  0.00     0.032 C 
ATOM     25  C   UNL A   1      32.216  24.099  24.358  1.00  0.00     0.006 C 
ATOM     26  C   UNL A   1      32.267  23.493  26.840  1.00  0.00     0.008 C 
ATOM     27  C   UNL A   1      30.278  22.845  25.532  1.00  0.00     0.012 C 
ATOM     28  C   UNL A   1      33.470  23.127  24.087  1.00  0.00    -0.025 C 
ATOM     29  C   UNL A   1      33.160  22.279  26.493  1.00  0.00     0.005 C 
ATOM     30  C   UNL A   1      33.025  21.969  23.174  1.00  0.00     0.012 C 
ATOM     31  C   UNL A   1      34.582  23.926  23.324  1.00  0.00     0.010 C 
ATOM     32  C   UNL A   1      34.177  22.681  25.421  1.00  0.00     0.003 C 
ATOM     33  C   UNL A   1      35.907  23.177  23.123  1.00  0.00     0.033 C 
ATOM     34  C   UNL A   1      35.456  21.754  25.249  1.00  0.00    -0.006 C 
ATOM     35  C   UNL A   1      36.480  22.574  24.408  1.00  0.00     0.120 C 
ATOM     36  C   UNL A   1      35.201  20.366  24.626  1.00  0.00     0.014 C 
ATOM     37  C   UNL A   1      36.119  21.453  26.621  1.00  0.00     0.014 C 
BRANCH  35  38
ATOM     38  O   UNL A   1      37.654  21.825  24.089  1.00  0.00    -0.393 OA
ATOM     39  H   UNL A   1      37.721  21.724  23.126  1.00  0.00     0.210 HD
ENDBRANCH  35  38
ENDBRANCH   7   9
ENDBRANCH   6   7
ENDBRANCH   5   6
ENDBRANCH   4   5
ENDBRANCH   3   4
ENDBRANCH   2   3
ENDBRANCH   1   2
BRANCH   1  40
ATOM     40  O   UNL A   1      35.169  33.058  28.966  1.00  0.00    -0.376 OA
BRANCH  40  41
ATOM     41  C   UNL A   1      34.403  33.332  30.121  1.00  0.00     0.202 C 
BRANCH  41  42
ATOM     42  C   UNL A   1      35.167  33.443  31.450  1.00  0.00     0.261 C 
BRANCH  42  43
ATOM     43  O   UNL A   1      35.212  32.251  32.272  1.00  0.00    -0.460 OA
BRANCH  43  44
ATOM     44  C   UNL A   1      36.354  32.025  32.980  1.00  0.00     0.338 C 
ATOM     45  O   UNL A   1      36.543  32.328  34.146  1.00  0.00    -0.246 OA
BRANCH  44  46
ATOM     46  C   UNL A   1      37.333  31.202  32.200  1.00  0.00     0.060 A 
ATOM     47  C   UNL A   1      38.473  30.684  32.841  1.00  0.00     0.016 A 
ATOM     48  C   UNL A   1      37.190  31.005  30.829  1.00  0.00     0.016 A 
ATOM     49  C   UNL A   1      39.502  30.057  32.112  1.00  0.00     0.010 A 
ATOM     50  C   UNL A   1      38.225  30.390  30.100  1.00  0.00     0.010 A 
ATOM     51  C   UNL A   1      39.421  29.960  30.719  1.00  0.00    -0.014 A 
BRANCH  51  52
ATOM     52  C   UNL A   1      40.639  29.683  29.880  1.00  0.00     0.031 A 
ATOM     53  C   UNL A   1      40.788  28.296  29.291  1.00  0.00     0.074 A 
ATOM     54  C   UNL A   1      41.605  30.583  29.600  1.00  0.00     0.049 A 
ATOM     55  N   UNL A   1      41.780  27.770  28.613  1.00  0.00    -0.248 NA
ATOM     56  C   UNL A   1      39.658  27.379  29.504  1.00  0.00     0.031 C 
ATOM     57  C   UNL A   1      41.616  31.982  30.008  1.00  0.00     0.029 A 
ATOM     58  N   UNL A   1      42.796  30.432  28.917  1.00  0.00    -0.354 N 
ATOM     59  C   UNL A   1      41.396  26.463  28.337  1.00  0.00     0.074 A 
ATOM     60  C   UNL A   1      40.118  26.256  28.980  1.00  0.00     0.031 C 
ATOM     61  C   UNL A   1      42.778  32.545  29.624  1.00  0.00     0.029 A 
ATOM     62  C   UNL A   1      43.600  31.549  28.935  1.00  0.00     0.049 A 
ATOM     63  H   UNL A   1      43.049  29.598  28.459  1.00  0.00     0.167 HD
ATOM     64  C   UNL A   1      42.015  25.522  27.586  1.00  0.00     0.037 A 
ATOM     65  C   UNL A   1      44.850  31.752  28.466  1.00  0.00     0.037 A 
ATOM     66  C   UNL A   1      43.269  25.699  26.906  1.00  0.00     0.049 A 
ATOM     67  C   UNL A   1      45.573  30.662  27.710  1.00  0.00     0.074 A 
ATOM     68  C   UNL A   1      43.934  24.806  26.082  1.00  0.00     0.029 A 
ATOM     69  N   UNL A   1      44.049  26.841  26.969  1.00  0.00    -0.354 N 
ATOM     70  N   UNL A   1      45.170  29.452  27.409  1.00  0.00    -0.248 NA
ATOM     71  C   UNL A   1      46.918  30.981  27.198  1.00  0.00     0.031 C 
ATOM     72  C   UNL A   1      45.142  25.389  25.686  1.00  0.00     0.029 A 
ATOM     73  C   UNL A   1      45.203  26.665  26.219  1.00  0.00     0.049 A 
ATOM     74  H   UNL A   1      43.820  27.655  27.471  1.00  0.00     0.167 HD
ATOM     75  C   UNL A   1      46.182  28.890  26.634  1.00  0.00     0.074 A 
ATOM     76  C   UNL A   1      47.219  29.890  26.508  1.00  0.00     0.031 C 
ATOM     77  C   UNL A   1      46.234  27.658  26.070  1.00  0.00     0.037 A 
BRANCH  64  78
ATOM     78  C   UNL A   1      41.324  24.195  27.465  1.00  0.00     0.057 A 
ATOM     79  C   UNL A   1      41.770  23.065  28.166  1.00  0.00     0.134 A 
ATOM     80  C   UNL A   1      40.207  24.044  26.636  1.00  0.00     0.134 A 
ATOM     81  F   UNL A   1      42.845  23.140  28.965  1.00  0.00    -0.206 F 
ATOM     82  C   UNL A   1      41.153  21.823  28.012  1.00  0.00     0.040 A 
ATOM     83  C   UNL A   1      39.562  22.815  26.501  1.00  0.00     0.040 A 
ATOM     84  F   UNL A   1      39.724  25.088  25.945  1.00  0.00    -0.206 F 
ATOM     85  C   UNL A   1      40.042  21.697  27.180  1.00  0.00     0.006 A 
ENDBRANCH  64  78
BRANCH  65  86
ATOM     86  C   UNL A   1      45.532  33.060  28.675  1.00  0.00     0.057 A 
ATOM     87  C   UNL A   1      46.247  33.329  29.849  1.00  0.00     0.134 A 
ATOM     88  C   UNL A   1      45.413  34.100  27.744  1.00  0.00     0.134 A 
ATOM     89  F   UNL A   1      46.362  32.387  30.798  1.00  0.00    -0.206 F 
ATOM     90  C   UNL A   1      46.794  34.588  30.103  1.00  0.00     0.040 A 
ATOM     91  C   UNL A   1      45.977  35.357  27.975  1.00  0.00     0.040 A 
ATOM     92  F   UNL A   1      44.733  33.914  26.604  1.00  0.00    -0.206 F 
ATOM     93  C   UNL A   1      46.662  35.607  29.163  1.00  0.00     0.006 A 
ENDBRANCH  65  86
BRANCH  77  94
ATOM     94  C   UNL A   1      47.423  27.328  25.208  1.00  0.00     0.057 A 
ATOM     95  C   UNL A   1      47.466  27.634  23.841  1.00  0.00     0.134 A 
ATOM     96  C   UNL A   1      48.560  26.726  25.766  1.00  0.00     0.134 A 
ATOM     97  F   UNL A   1      46.412  28.203  23.239  1.00  0.00    -0.206 F 
ATOM     98  C   UNL A   1      48.583  27.328  23.058  1.00  0.00     0.040 A 
ATOM     99  C   UNL A   1      49.692  26.441  24.999  1.00  0.00     0.040 A 
ATOM    100  F   UNL A   1      48.596  26.415  27.071  1.00  0.00    -0.206 F 
ATOM    101  C   UNL A   1      49.702  26.736  23.638  1.00  0.00     0.006 A 
ENDBRANCH  77  94
ENDBRANCH  51  52
ENDBRANCH  44  46
ENDBRANCH  43  44
ENDBRANCH  42  43
ENDBRANCH  41  42
ENDBRANCH  40  41
ENDBRANCH   1  40
TORSDOF 18
ENDMDL
MODEL 2
REMARK VINA RESULT:     -11.2      1.013      5.733
REMARK SMILES C[C@H]1[C@H](C)CC[C@@]2(C(=O)OCCOCCOCCOC(=O)c3ccc(-c4c5nc(c(-c6c(F)cccc6F)c6ccc([nH]6)c(-c6c(F)cccc6F)c6nc(c(-c7c(F)cccc7F)c7ccc4[nH]7)C=C6)C=C5)cc3)CC[C@@]3(C)C(=CC[C@@H]4[C@@]5(C)CC[C@H](O)C(C)(C)[C@@H]5CC[C@]43C)[C@H]12
REMARK SMILES IDX 15 1 14 2 13 3 12 4 11 5 10 6 8 7 9 8 7 9 1 10 2 11 3 12
REMARK SMILES IDX 98 13 4 14 5 15 80 16 6 17 76 18 78 19 81 20 77 21 79 22
REMARK SMILES IDX 96 23 82 24 83 25 95 26 97 27 84 28 94 29 85 30 86 31 93 32
REMARK SMILES IDX 87 33 90 34 88 35 91 36 92 37 89 38 16 40 17 41 18 42 19 43
REMARK SMILES IDX 20 44 21 45 22 46 23 47 75 48 24 49 74 50 25 51 26 52 27 53
REMARK SMILES IDX 68 54 28 55 73 56 67 57 69 58 29 59 72 60 66 61 65 62 30 64
REMARK SMILES IDX 56 65 39 66 55 67 40 68 43 69 54 70 70 71 41 72 42 73 53 75
REMARK SMILES IDX 71 76 44 77 31 78 32 79 37 80 33 81 34 82 36 83 38 84 35 85
REMARK SMILES IDX 57 86 58 87 63 88 59 89 60 90 62 91 64 92 61 93 45 94 46 95
REMARK SMILES IDX 51 96 47 97 48 98 50 99 52 100 49 101
REMARK H PARENT 89 39 69 63 43 74
REMARK Flexibility Score: inf
ROOT
ATOM      1  C   UNL A   1      33.680  32.477  27.663  1.00  0.00     0.188 C 
ENDROOT
BRANCH   1   2
ATOM      2  C   UNL A   1      34.022  30.965  27.763  1.00  0.00     0.188 C 
BRANCH   2   3
ATOM      3  O   UNL A   1      33.886  30.264  26.545  1.00  0.00    -0.376 OA
BRANCH   3   4
ATOM      4  C   UNL A   1      34.533  29.017  26.512  1.00  0.00     0.202 C 
BRANCH   4   5
ATOM      5  C   UNL A   1      34.436  28.193  25.233  1.00  0.00     0.261 C 
BRANCH   5   6
ATOM      6  O   UNL A   1      33.308  28.374  24.278  1.00  0.00    -0.463 OA
BRANCH   6   7
ATOM      7  C   UNL A   1      32.082  27.959  23.867  1.00  0.00     0.312 C 
ATOM      8  O   UNL A   1      31.809  27.296  22.870  1.00  0.00    -0.252 OA
BRANCH   7   9
ATOM      9  C   UNL A   1      30.991  28.311  24.922  1.00  0.00     0.075 C 
ATOM     10  C   UNL A   1      27.585  27.883  22.928  1.00  0.00     0.008 C 
ATOM     11  C   UNL A   1      29.002  28.346  23.263  1.00  0.00    -0.003 C 
ATOM     12  C   UNL A   1      29.108  29.920  23.247  1.00  0.00    -0.011 C 
ATOM     13  C   UNL A   1      29.642  27.616  24.556  1.00  0.00     0.036 C 
ATOM     14  C   UNL A   1      28.864  30.542  21.857  1.00  0.00     0.008 C 
ATOM     15  C   UNL A   1      30.470  30.461  23.686  1.00  0.00     0.005 C 
ATOM     16  C   UNL A   1      30.037  26.065  24.582  1.00  0.00    -0.063 C 
ATOM     17  C   UNL A   1      30.915  29.847  24.984  1.00  0.00     0.020 C 
ATOM     18  C   UNL A   1      31.398  27.899  26.356  1.00  0.00     0.020 C 
ATOM     19  C   UNL A   1      30.641  25.457  25.920  1.00  0.00    -0.006 C 
ATOM     20  C   UNL A   1      30.152  25.360  23.436  1.00  0.00    -0.027 C 
ATOM     21  C   UNL A   1      31.699  26.425  26.519  1.00  0.00     0.013 C 
ATOM     22  C   UNL A   1      29.478  25.347  26.934  1.00  0.00     0.017 C 
ATOM     23  C   UNL A   1      31.356  23.977  25.698  1.00  0.00    -0.020 C 
ATOM     24  C   UNL A   1      31.136  24.226  23.247  1.00  0.00     0.032 C 
ATOM     25  C   UNL A   1      32.189  24.120  24.378  1.00  0.00     0.006 C 
ATOM     26  C   UNL A   1      32.277  23.519  26.860  1.00  0.00     0.008 C 
ATOM     27  C   UNL A   1      30.272  22.864  25.582  1.00  0.00     0.012 C 
ATOM     28  C   UNL A   1      33.442  23.151  24.092  1.00  0.00    -0.025 C 
ATOM     29  C   UNL A   1      33.168  22.307  26.503  1.00  0.00     0.005 C 
ATOM     30  C   UNL A   1      32.987  21.991  23.187  1.00  0.00     0.012 C 
ATOM     31  C   UNL A   1      34.541  23.952  23.311  1.00  0.00     0.010 C 
ATOM     32  C   UNL A   1      34.169  22.710  25.416  1.00  0.00     0.003 C 
ATOM     33  C   UNL A   1      35.864  23.206  23.092  1.00  0.00     0.033 C 
ATOM     34  C   UNL A   1      35.448  21.785  25.228  1.00  0.00    -0.006 C 
ATOM     35  C   UNL A   1      36.458  22.607  24.370  1.00  0.00     0.120 C 
ATOM     36  C   UNL A   1      35.187  20.396  24.610  1.00  0.00     0.014 C 
ATOM     37  C   UNL A   1      36.132  21.489  26.590  1.00  0.00     0.014 C 
BRANCH  35  38
ATOM     38  O   UNL A   1      37.629  21.860  24.036  1.00  0.00    -0.393 OA
ATOM     39  H   UNL A   1      37.729  21.831  23.071  1.00  0.00     0.210 HD
ENDBRANCH  35  38
ENDBRANCH   7   9
ENDBRANCH   6   7
ENDBRANCH   5   6
ENDBRANCH   4   5
ENDBRANCH   3   4
ENDBRANCH   2   3
ENDBRANCH   1   2
BRANCH   1  40
ATOM     40  O   UNL A   1      34.734  33.428  27.592  1.00  0.00    -0.376 OA
BRANCH  40  41
ATOM     41  C   UNL A   1      34.758  34.459  28.557  1.00  0.00     0.202 C 
BRANCH  41  42
ATOM     42  C   UNL A   1      34.081  34.164  29.905  1.00  0.00     0.261 C 
BRANCH  42  43
ATOM     43  O   UNL A   1      34.655  33.098  30.699  1.00  0.00    -0.460 OA
BRANCH  43  44
ATOM     44  C   UNL A   1      35.907  33.296  31.198  1.00  0.00     0.338 C 
ATOM     45  O   UNL A   1      36.242  34.200  31.946  1.00  0.00    -0.246 OA
BRANCH  44  46
ATOM     46  C   UNL A   1      36.826  32.167  30.847  1.00  0.00     0.060 A 
ATOM     47  C   UNL A   1      37.610  31.571  31.851  1.00  0.00     0.016 A 
ATOM     48  C   UNL A   1      36.992  31.745  29.531  1.00  0.00     0.016 A 
ATOM     49  C   UNL A   1      38.611  30.631  31.538  1.00  0.00     0.010 A 
ATOM     50  C   UNL A   1      38.000  30.815  29.218  1.00  0.00     0.010 A 
ATOM     51  C   UNL A   1      38.864  30.288  30.206  1.00  0.00    -0.014 A 
BRANCH  51  52
ATOM     52  C   UNL A   1      40.152  29.627  29.797  1.00  0.00     0.031 A 
ATOM     53  C   UNL A   1      41.400  30.483  29.753  1.00  0.00     0.074 A 
ATOM     54  C   UNL A   1      40.283  28.322  29.481  1.00  0.00     0.049 A 
ATOM     55  N   UNL A   1      42.612  30.187  29.349  1.00  0.00    -0.248 NA
ATOM     56  C   UNL A   1      41.251  31.867  30.228  1.00  0.00     0.031 C 
ATOM     57  C   UNL A   1      39.228  27.318  29.529  1.00  0.00     0.029 A 
ATOM     58  N   UNL A   1      41.381  27.620  29.021  1.00  0.00    -0.354 N 
ATOM     59  C   UNL A   1      43.357  31.349  29.507  1.00  0.00     0.074 A 
ATOM     60  C   UNL A   1      42.447  32.371  29.975  1.00  0.00     0.031 C 
ATOM     61  C   UNL A   1      39.707  26.149  29.060  1.00  0.00     0.029 A 
ATOM     62  C   UNL A   1      41.111  26.315  28.680  1.00  0.00     0.049 A 
ATOM     63  H   UNL A   1      42.278  28.019  28.942  1.00  0.00     0.167 HD
ATOM     64  C   UNL A   1      44.684  31.556  29.327  1.00  0.00     0.037 A 
ATOM     65  C   UNL A   1      41.888  25.363  28.119  1.00  0.00     0.037 A 
ATOM     66  C   UNL A   1      45.625  30.560  28.895  1.00  0.00     0.049 A 
ATOM     67  C   UNL A   1      43.347  25.634  27.833  1.00  0.00     0.074 A 
ATOM     68  C   UNL A   1      46.995  30.683  28.739  1.00  0.00     0.029 A 
ATOM     69  N   UNL A   1      45.299  29.260  28.547  1.00  0.00    -0.354 N 
ATOM     70  N   UNL A   1      44.047  26.721  28.043  1.00  0.00    -0.248 NA
ATOM     71  C   UNL A   1      44.132  24.528  27.257  1.00  0.00     0.031 C 
ATOM     72  C   UNL A   1      47.493  29.470  28.249  1.00  0.00     0.029 A 
ATOM     73  C   UNL A   1      46.439  28.578  28.151  1.00  0.00     0.049 A 
ATOM     74  H   UNL A   1      44.392  28.878  28.575  1.00  0.00     0.167 HD
ATOM     75  C   UNL A   1      45.356  26.413  27.679  1.00  0.00     0.074 A 
ATOM     76  C   UNL A   1      45.356  25.037  27.234  1.00  0.00     0.031 C 
ATOM     77  C   UNL A   1      46.457  27.203  27.724  1.00  0.00     0.037 A 
BRANCH  64  78
ATOM     78  C   UNL A   1      45.193  32.940  29.605  1.00  0.00     0.057 A 
ATOM     79  C   UNL A   1      45.184  33.940  28.622  1.00  0.00     0.134 A 
ATOM     80  C   UNL A   1      45.702  33.275  30.865  1.00  0.00     0.134 A 
ATOM     81  F   UNL A   1      44.722  33.679  27.389  1.00  0.00    -0.206 F 
ATOM     82  C   UNL A   1      45.704  35.211  28.871  1.00  0.00     0.040 A 
ATOM     83  C   UNL A   1      46.194  34.552  31.135  1.00  0.00     0.040 A 
ATOM     84  F   UNL A   1      45.731  32.367  31.852  1.00  0.00    -0.206 F 
ATOM     85  C   UNL A   1      46.207  35.520  30.134  1.00  0.00     0.006 A 
ENDBRANCH  64  78
BRANCH  65  86
ATOM     86  C   UNL A   1      41.323  24.025  27.786  1.00  0.00     0.057 A 
ATOM     87  C   UNL A   1      41.663  22.887  28.529  1.00  0.00     0.134 A 
ATOM     88  C   UNL A   1      40.502  23.840  26.667  1.00  0.00     0.134 A 
ATOM     89  F   UNL A   1      42.479  22.992  29.588  1.00  0.00    -0.206 F 
ATOM     90  C   UNL A   1      41.229  21.612  28.158  1.00  0.00     0.040 A 
ATOM     91  C   UNL A   1      40.041  22.573  26.299  1.00  0.00     0.040 A 
ATOM     92  F   UNL A   1      40.148  24.884  25.905  1.00  0.00    -0.206 F 
ATOM     93  C   UNL A   1      40.414  21.453  27.040  1.00  0.00     0.006 A 
ENDBRANCH  65  86
BRANCH  77  94
ATOM     94  C   UNL A   1      47.778  26.592  27.341  1.00  0.00     0.057 A 
ATOM     95  C   UNL A   1      48.567  25.878  28.252  1.00  0.00     0.134 A 
ATOM     96  C   UNL A   1      48.250  26.690  26.023  1.00  0.00     0.134 A 
ATOM     97  F   UNL A   1      48.181  25.750  29.530  1.00  0.00    -0.206 F 
ATOM     98  C   UNL A   1      49.787  25.309  27.876  1.00  0.00     0.040 A 
ATOM     99  C   UNL A   1      49.454  26.103  25.629  1.00  0.00     0.040 A 
ATOM    100  F   UNL A   1      47.543  27.350  25.093  1.00  0.00    -0.206 F 
ATOM    101  C   UNL A   1      50.231  25.416  26.559  1.00  0.00     0.006 A 
ENDBRANCH  77  94
ENDBRANCH  51  52
ENDBRANCH  44  46
ENDBRANCH  43  44
ENDBRANCH  42  43
ENDBRANCH  41  42
ENDBRANCH  40  41
ENDBRANCH   1  40
TORSDOF 18
ENDMDL
MODEL 3
REMARK VINA RESULT:     -10.9      5.682     13.104
REMARK SMILES C[C@H]1[C@H](C)CC[C@@]2(C(=O)OCCOCCOCCOC(=O)c3ccc(-c4c5nc(c(-c6c(F)cccc6F)c6ccc([nH]6)c(-c6c(F)cccc6F)c6nc(c(-c7c(F)cccc7F)c7ccc4[nH]7)C=C6)C=C5)cc3)CC[C@@]3(C)C(=CC[C@@H]4[C@@]5(C)CC[C@H](O)C(C)(C)[C@@H]5CC[C@]43C)[C@H]12
REMARK SMILES IDX 15 1 14 2 13 3 12 4 11 5 10 6 8 7 9 8 7 9 1 10 2 11 3 12
REMARK SMILES IDX 98 13 4 14 5 15 80 16 6 17 76 18 78 19 81 20 77 21 79 22
REMARK SMILES IDX 96 23 82 24 83 25 95 26 97 27 84 28 94 29 85 30 86 31 93 32
REMARK SMILES IDX 87 33 90 34 88 35 91 36 92 37 89 38 16 40 17 41 18 42 19 43
REMARK SMILES IDX 20 44 21 45 22 46 23 47 75 48 24 49 74 50 25 51 26 52 27 53
REMARK SMILES IDX 68 54 28 55 73 56 67 57 69 58 29 59 72 60 66 61 65 62 30 64
REMARK SMILES IDX 56 65 39 66 55 67 40 68 43 69 54 70 70 71 41 72 42 73 53 75
REMARK SMILES IDX 71 76 44 77 31 78 32 79 37 80 33 81 34 82 36 83 38 84 35 85
REMARK SMILES IDX 57 86 58 87 63 88 59 89 60 90 62 91 64 92 61 93 45 94 46 95
REMARK SMILES IDX 51 96 47 97 48 98 50 99 52 100 49 101
REMARK H PARENT 89 39 69 63 43 74
REMARK Flexibility Score: inf
ROOT
ATOM      1  C   UNL A   1      46.453  26.422  24.970  1.00  0.00     0.188 C 
ENDROOT
BRANCH   1   2
ATOM      2  C   UNL A   1      47.324  27.708  24.907  1.00  0.00     0.188 C 
BRANCH   2   3
ATOM      3  O   UNL A   1      47.000  28.669  25.889  1.00  0.00    -0.376 OA
BRANCH   3   4
ATOM      4  C   UNL A   1      45.625  28.931  26.020  1.00  0.00     0.202 C 
BRANCH   4   5
ATOM      5  C   UNL A   1      45.082  29.232  27.411  1.00  0.00     0.261 C 
BRANCH   5   6
ATOM      6  O   UNL A   1      44.834  30.630  27.860  1.00  0.00    -0.463 OA
BRANCH   6   7
ATOM      7  C   UNL A   1      44.870  31.526  28.882  1.00  0.00     0.312 C 
ATOM      8  O   UNL A   1      44.739  31.301  30.082  1.00  0.00    -0.252 OA
BRANCH   7   9
ATOM      9  C   UNL A   1      45.253  32.945  28.366  1.00  0.00     0.075 C 
ATOM     10  C   UNL A   1      45.764  35.047  31.695  1.00  0.00     0.008 C 
ATOM     11  C   UNL A   1      45.109  34.125  30.667  1.00  0.00    -0.003 C 
ATOM     12  C   UNL A   1      43.683  34.656  30.249  1.00  0.00    -0.011 C 
ATOM     13  C   UNL A   1      46.083  33.705  29.447  1.00  0.00     0.036 C 
ATOM     14  C   UNL A   1      42.663  34.661  31.405  1.00  0.00     0.008 C 
ATOM     15  C   UNL A   1      43.014  33.846  29.137  1.00  0.00     0.005 C 
ATOM     16  C   UNL A   1      47.360  32.757  29.630  1.00  0.00    -0.063 C 
ATOM     17  C   UNL A   1      43.940  33.643  27.970  1.00  0.00     0.020 C 
ATOM     18  C   UNL A   1      46.063  32.898  27.049  1.00  0.00     0.020 C 
ATOM     19  C   UNL A   1      48.253  32.433  28.356  1.00  0.00    -0.006 C 
ATOM     20  C   UNL A   1      47.512  32.005  30.741  1.00  0.00    -0.027 C 
ATOM     21  C   UNL A   1      47.349  32.106  27.135  1.00  0.00     0.013 C 
ATOM     22  C   UNL A   1      49.050  33.715  28.021  1.00  0.00     0.017 C 
ATOM     23  C   UNL A   1      49.287  31.157  28.594  1.00  0.00    -0.020 C 
ATOM     24  C   UNL A   1      48.180  30.648  30.747  1.00  0.00     0.032 C 
ATOM     25  C   UNL A   1      48.431  30.070  29.331  1.00  0.00     0.006 C 
ATOM     26  C   UNL A   1      49.896  30.562  27.296  1.00  0.00     0.008 C 
ATOM     27  C   UNL A   1      50.514  31.606  29.445  1.00  0.00     0.012 C 
ATOM     28  C   UNL A   1      48.846  28.517  29.263  1.00  0.00    -0.025 C 
ATOM     29  C   UNL A   1      50.595  29.199  27.508  1.00  0.00     0.005 C 
ATOM     30  C   UNL A   1      49.644  28.150  30.529  1.00  0.00     0.012 C 
ATOM     31  C   UNL A   1      47.547  27.639  29.256  1.00  0.00     0.010 C 
ATOM     32  C   UNL A   1      49.555  28.148  27.907  1.00  0.00     0.003 C 
ATOM     33  C   UNL A   1      47.771  26.136  29.044  1.00  0.00     0.033 C 
ATOM     34  C   UNL A   1      49.961  26.622  27.731  1.00  0.00    -0.006 C 
ATOM     35  C   UNL A   1      48.637  25.804  27.825  1.00  0.00     0.120 C 
ATOM     36  C   UNL A   1      51.020  26.091  28.719  1.00  0.00     0.014 C 
ATOM     37  C   UNL A   1      50.567  26.360  26.325  1.00  0.00     0.014 C 
BRANCH  35  38
ATOM     38  O   UNL A   1      48.858  24.394  27.780  1.00  0.00    -0.393 OA
ATOM     39  H   UNL A   1      48.192  23.980  27.209  1.00  0.00     0.210 HD
ENDBRANCH  35  38
ENDBRANCH   7   9
ENDBRANCH   6   7
ENDBRANCH   5   6
ENDBRANCH   4   5
ENDBRANCH   3   4
ENDBRANCH   2   3
ENDBRANCH   1   2
BRANCH   1  40
ATOM     40  O   UNL A   1      46.869  25.262  24.264  1.00  0.00    -0.376 OA
BRANCH  40  41
ATOM     41  C   UNL A   1      46.791  24.019  24.930  1.00  0.00     0.202 C 
BRANCH  41  42
ATOM     42  C   UNL A   1      45.773  23.003  24.387  1.00  0.00     0.261 C 
BRANCH  42  43
ATOM     43  O   UNL A   1      44.474  23.523  24.014  1.00  0.00    -0.460 OA
BRANCH  43  44
ATOM     44  C   UNL A   1      43.396  23.065  24.709  1.00  0.00     0.338 C 
ATOM     45  O   UNL A   1      43.056  21.898  24.812  1.00  0.00    -0.246 OA
BRANCH  44  46
ATOM     46  C   UNL A   1      42.735  24.162  25.486  1.00  0.00     0.060 A 
ATOM     47  C   UNL A   1      43.164  25.491  25.317  1.00  0.00     0.016 A 
ATOM     48  C   UNL A   1      41.759  23.892  26.442  1.00  0.00     0.016 A 
ATOM     49  C   UNL A   1      42.694  26.524  26.150  1.00  0.00     0.010 A 
ATOM     50  C   UNL A   1      41.300  24.923  27.282  1.00  0.00     0.010 A 
ATOM     51  C   UNL A   1      41.802  26.241  27.190  1.00  0.00    -0.014 A 
BRANCH  51  52
ATOM     52  C   UNL A   1      41.597  27.201  28.330  1.00  0.00     0.031 A 
ATOM     53  C   UNL A   1      42.498  27.062  29.539  1.00  0.00     0.074 A 
ATOM     54  C   UNL A   1      40.679  28.190  28.351  1.00  0.00     0.049 A 
ATOM     55  N   UNL A   1      42.472  27.695  30.687  1.00  0.00    -0.248 NA
ATOM     56  C   UNL A   1      43.573  26.063  29.432  1.00  0.00     0.031 C 
ATOM     57  C   UNL A   1      39.769  28.537  27.267  1.00  0.00     0.029 A 
ATOM     58  N   UNL A   1      40.343  29.076  29.356  1.00  0.00    -0.354 N 
ATOM     59  C   UNL A   1      43.513  27.159  31.436  1.00  0.00     0.074 A 
ATOM     60  C   UNL A   1      44.102  26.104  30.643  1.00  0.00     0.031 C 
ATOM     61  C   UNL A   1      38.939  29.514  27.682  1.00  0.00     0.029 A 
ATOM     62  C   UNL A   1      39.260  29.873  29.064  1.00  0.00     0.049 A 
ATOM     63  H   UNL A   1      40.834  29.131  30.208  1.00  0.00     0.167 HD
ATOM     64  C   UNL A   1      43.977  27.526  32.655  1.00  0.00     0.037 A 
ATOM     65  C   UNL A   1      38.593  30.776  29.814  1.00  0.00     0.037 A 
ATOM     66  C   UNL A   1      43.441  28.588  33.460  1.00  0.00     0.049 A 
ATOM     67  C   UNL A   1      39.063  31.110  31.211  1.00  0.00     0.074 A 
ATOM     68  C   UNL A   1      43.892  29.052  34.684  1.00  0.00     0.029 A 
ATOM     69  N   UNL A   1      42.335  29.353  33.127  1.00  0.00    -0.354 N 
ATOM     70  N   UNL A   1      40.083  30.634  31.881  1.00  0.00    -0.248 NA
ATOM     71  C   UNL A   1      38.301  32.136  31.946  1.00  0.00     0.031 C 
ATOM     72  C   UNL A   1      43.030  30.065  35.116  1.00  0.00     0.029 A 
ATOM     73  C   UNL A   1      42.074  30.268  34.136  1.00  0.00     0.049 A 
ATOM     74  H   UNL A   1      41.812  29.260  32.299  1.00  0.00     0.167 HD
ATOM     75  C   UNL A   1      40.116  31.336  33.084  1.00  0.00     0.074 A 
ATOM     76  C   UNL A   1      39.014  32.272  33.054  1.00  0.00     0.031 C 
ATOM     77  C   UNL A   1      40.993  31.218  34.111  1.00  0.00     0.037 A 
BRANCH  64  78
ATOM     78  C   UNL A   1      45.144  26.749  33.191  1.00  0.00     0.057 A 
ATOM     79  C   UNL A   1      44.970  25.565  33.920  1.00  0.00     0.134 A 
ATOM     80  C   UNL A   1      46.455  27.194  32.982  1.00  0.00     0.134 A 
ATOM     81  F   UNL A   1      43.738  25.094  34.169  1.00  0.00    -0.206 F 
ATOM     82  C   UNL A   1      46.056  24.874  34.459  1.00  0.00     0.040 A 
ATOM     83  C   UNL A   1      47.550  26.493  33.487  1.00  0.00     0.040 A 
ATOM     84  F   UNL A   1      46.692  28.315  32.284  1.00  0.00    -0.206 F 
ATOM     85  C   UNL A   1      47.352  25.337  34.238  1.00  0.00     0.006 A 
ENDBRANCH  64  78
BRANCH  65  86
ATOM     86  C   UNL A   1      37.390  31.469  29.272  1.00  0.00     0.057 A 
ATOM     87  C   UNL A   1      37.452  32.798  28.835  1.00  0.00     0.134 A 
ATOM     88  C   UNL A   1      36.136  30.846  29.260  1.00  0.00     0.134 A 
ATOM     89  F   UNL A   1      38.617  33.463  28.860  1.00  0.00    -0.206 F 
ATOM     90  C   UNL A   1      36.309  33.491  28.431  1.00  0.00     0.040 A 
ATOM     91  C   UNL A   1      34.988  31.521  28.835  1.00  0.00     0.040 A 
ATOM     92  F   UNL A   1      36.003  29.579  29.677  1.00  0.00    -0.206 F 
ATOM     93  C   UNL A   1      35.071  32.852  28.429  1.00  0.00     0.006 A 
ENDBRANCH  65  86
BRANCH  77  94
ATOM     94  C   UNL A   1      40.846  32.162  35.274  1.00  0.00     0.057 A 
ATOM     95  C   UNL A   1      41.605  33.334  35.389  1.00  0.00     0.134 A 
ATOM     96  C   UNL A   1      39.901  31.909  36.279  1.00  0.00     0.134 A 
ATOM     97  F   UNL A   1      42.533  33.635  34.469  1.00  0.00    -0.206 F 
ATOM     98  C   UNL A   1      41.449  34.204  36.472  1.00  0.00     0.040 A 
ATOM     99  C   UNL A   1      39.717  32.786  37.352  1.00  0.00     0.040 A 
ATOM    100  F   UNL A   1      39.131  30.812  36.231  1.00  0.00    -0.206 F 
ATOM    101  C   UNL A   1      40.498  33.934  37.454  1.00  0.00     0.006 A 
ENDBRANCH  77  94
ENDBRANCH  51  52
ENDBRANCH  44  46
ENDBRANCH  43  44
ENDBRANCH  42  43
ENDBRANCH  41  42
ENDBRANCH  40  41
ENDBRANCH   1  40
TORSDOF 18
ENDMDL
