MODEL 1
REMARK VINA RESULT:     -10.1      0.000      0.000
REMARK SMILES CCn1c(CC2CC[NH+](Cc3cn[nH]c3C(=O)OCCOCCOCCOC(=O)c3ccc(-c4c5nc(c(-c6c(F)cccc6F)c6ccc([nH]6)c(-c6c(F)cccc6F)c6nc(c(-c7c(F)cccc7F)c7ccc4[nH]7)C=C6)C=C5)cc3)CC2)nn(C)c1=O
REMARK SMILES IDX 21 1 20 2 19 3 18 4 16 5 17 6 15 7 11 8 12 9 13 10 14 11
REMARK SMILES IDX 10 13 9 14 6 15 7 16 85 17 8 18 84 19 5 21 4 22 3 23 89 24
REMARK SMILES IDX 86 25 87 26 90 27 88 28 2 29 1 30 22 31 23 32 24 33 25 34
REMARK SMILES IDX 26 35 27 36 28 37 29 38 30 39 31 40 83 41 32 42 82 43 33 44
REMARK SMILES IDX 34 45 35 46 76 47 36 48 81 49 75 50 77 51 37 52 80 53 74 54
REMARK SMILES IDX 73 55 38 57 64 58 47 59 63 60 48 61 51 62 62 63 78 64 49 65
REMARK SMILES IDX 50 66 61 68 79 69 52 70 39 71 40 72 45 73 41 74 42 75 44 76
REMARK SMILES IDX 46 77 43 78 65 79 66 80 71 81 67 82 68 83 70 84 72 85 69 86
REMARK SMILES IDX 53 87 54 88 59 89 55 90 56 91 58 92 60 93 57 94
REMARK H PARENT 14 12 9 20 77 56 51 67
REMARK Flexibility Score: inf
ROOT
ATOM      1  O   UNL A   1      33.872  27.884  22.727  1.00  0.00    -0.376 OA
ENDROOT
BRANCH   1   2
ATOM      2  C   UNL A   1      33.085  27.013  21.924  1.00  0.00     0.202 C 
BRANCH   2   3
ATOM      3  C   UNL A   1      32.231  25.884  22.547  1.00  0.00     0.261 C 
BRANCH   3   4
ATOM      4  O   UNL A   1      32.336  25.687  23.975  1.00  0.00    -0.459 OA
BRANCH   4   5
ATOM      5  C   UNL A   1      31.164  25.865  24.647  1.00  0.00     0.356 C 
ATOM      6  O   UNL A   1      30.495  26.867  24.590  1.00  0.00    -0.244 OA
BRANCH   5   7
ATOM      7  C   UNL A   1      30.708  24.670  25.334  1.00  0.00     0.152 A 
ATOM      8  C   UNL A   1      30.812  23.276  25.263  1.00  0.00     0.059 A 
ATOM      9  C   UNL A   1      30.267  22.869  26.513  1.00  0.00     0.145 A 
ATOM     10  N   UNL A   1      29.706  23.853  27.206  1.00  0.00    -0.183 NA
ATOM     11  N   UNL A   1      29.917  24.914  26.435  1.00  0.00    -0.271 N 
ATOM     12  H   UNL A   1      29.539  25.802  26.634  1.00  0.00     0.190 HD
BRANCH   8  13
ATOM     13  C   UNL A   1      31.501  22.346  24.292  1.00  0.00     0.303 C 
BRANCH  13  14
ATOM     14  N   UNL A   1      32.541  21.436  24.854  1.00  0.00    -0.331 N 
ATOM     15  C   UNL A   1      35.199  20.157  25.362  1.00  0.00     0.008 C 
ATOM     16  C   UNL A   1      34.055  19.433  24.637  1.00  0.00     0.065 C 
ATOM     17  C   UNL A   1      34.610  21.253  26.249  1.00  0.00     0.065 C 
ATOM     18  C   UNL A   1      33.017  20.362  23.986  1.00  0.00     0.262 C 
ATOM     19  C   UNL A   1      33.625  22.150  25.507  1.00  0.00     0.262 C 
ATOM     20  H   UNL A   1      32.023  20.930  25.573  1.00  0.00     0.348 HD
BRANCH  15  21
ATOM     21  C   UNL A   1      36.416  20.601  24.512  1.00  0.00     0.081 C 
BRANCH  21  22
ATOM     22  C   UNL A   1      37.782  20.731  25.149  1.00  0.00     0.133 A 
ATOM     23  N   UNL A   1      38.234  21.856  25.748  1.00  0.00    -0.279 N 
ATOM     24  C   UNL A   1      39.528  21.576  26.138  1.00  0.00     0.345 A 
ATOM     25  N   UNL A   1      38.604  19.721  25.212  1.00  0.00    -0.155 NA
ATOM     26  N   UNL A   1      39.712  20.229  25.839  1.00  0.00    -0.216 N 
ATOM     27  O   UNL A   1      40.328  22.335  26.662  1.00  0.00    -0.246 OA
ATOM     28  C   UNL A   1      40.858  19.432  26.181  1.00  0.00     0.179 C 
BRANCH  23  29
ATOM     29  C   UNL A   1      37.547  23.110  26.028  1.00  0.00     0.125 C 
ATOM     30  C   UNL A   1      36.939  23.787  24.802  1.00  0.00     0.028 C 
ENDBRANCH  23  29
ENDBRANCH  21  22
ENDBRANCH  15  21
ENDBRANCH  13  14
ENDBRANCH   8  13
ENDBRANCH   5   7
ENDBRANCH   4   5
ENDBRANCH   3   4
ENDBRANCH   2   3
ENDBRANCH   1   2
BRANCH   1  31
ATOM     31  C   UNL A   1      33.245  28.841  23.569  1.00  0.00     0.188 C 
BRANCH  31  32
ATOM     32  C   UNL A   1      33.450  28.791  25.094  1.00  0.00     0.188 C 
BRANCH  32  33
ATOM     33  O   UNL A   1      32.826  29.847  25.794  1.00  0.00    -0.376 OA
BRANCH  33  34
ATOM     34  C   UNL A   1      33.402  30.484  26.920  1.00  0.00     0.202 C 
BRANCH  34  35
ATOM     35  C   UNL A   1      34.539  29.821  27.679  1.00  0.00     0.261 C 
BRANCH  35  36
ATOM     36  O   UNL A   1      35.690  30.622  27.824  1.00  0.00    -0.460 OA
BRANCH  36  37
ATOM     37  C   UNL A   1      36.379  30.384  28.955  1.00  0.00     0.338 C 
ATOM     38  O   UNL A   1      36.215  30.882  30.055  1.00  0.00    -0.246 OA
BRANCH  37  39
ATOM     39  C   UNL A   1      37.444  29.448  28.623  1.00  0.00     0.060 A 
ATOM     40  C   UNL A   1      37.853  28.574  29.627  1.00  0.00     0.016 A 
ATOM     41  C   UNL A   1      38.191  29.685  27.460  1.00  0.00     0.016 A 
ATOM     42  C   UNL A   1      39.139  28.101  29.570  1.00  0.00     0.010 A 
ATOM     43  C   UNL A   1      39.475  29.216  27.408  1.00  0.00     0.010 A 
ATOM     44  C   UNL A   1      39.955  28.520  28.514  1.00  0.00    -0.014 A 
BRANCH  44  45
ATOM     45  C   UNL A   1      41.353  28.161  28.572  1.00  0.00     0.031 A 
ATOM     46  C   UNL A   1      41.618  26.874  27.906  1.00  0.00     0.074 A 
ATOM     47  C   UNL A   1      42.267  28.999  29.101  1.00  0.00     0.049 A 
ATOM     48  N   UNL A   1      42.056  25.786  28.440  1.00  0.00    -0.248 NA
ATOM     49  C   UNL A   1      41.167  26.719  26.510  1.00  0.00     0.031 C 
ATOM     50  C   UNL A   1      42.042  30.394  29.506  1.00  0.00     0.029 A 
ATOM     51  N   UNL A   1      43.610  28.844  29.270  1.00  0.00    -0.354 N 
ATOM     52  C   UNL A   1      42.206  24.904  27.376  1.00  0.00     0.074 A 
ATOM     53  C   UNL A   1      41.444  25.436  26.282  1.00  0.00     0.031 C 
ATOM     54  C   UNL A   1      43.231  31.021  29.622  1.00  0.00     0.029 A 
ATOM     55  C   UNL A   1      44.290  30.044  29.449  1.00  0.00     0.049 A 
ATOM     56  H   UNL A   1      44.057  27.967  29.266  1.00  0.00     0.167 HD
ATOM     57  C   UNL A   1      43.253  24.039  27.372  1.00  0.00     0.037 A 
ATOM     58  C   UNL A   1      45.630  30.228  29.388  1.00  0.00     0.037 A 
ATOM     59  C   UNL A   1      43.791  23.867  28.696  1.00  0.00     0.049 A 
ATOM     60  C   UNL A   1      46.282  28.912  29.580  1.00  0.00     0.074 A 
ATOM     61  C   UNL A   1      43.463  23.162  29.831  1.00  0.00     0.029 A 
ATOM     62  N   UNL A   1      44.679  24.841  29.062  1.00  0.00    -0.354 N 
ATOM     63  N   UNL A   1      46.257  28.254  30.705  1.00  0.00    -0.248 NA
ATOM     64  C   UNL A   1      46.694  28.140  28.411  1.00  0.00     0.031 C 
ATOM     65  C   UNL A   1      44.135  23.803  30.915  1.00  0.00     0.029 A 
ATOM     66  C   UNL A   1      44.874  24.870  30.415  1.00  0.00     0.049 A 
ATOM     67  H   UNL A   1      45.122  25.449  28.428  1.00  0.00     0.167 HD
ATOM     68  C   UNL A   1      46.231  26.929  30.320  1.00  0.00     0.074 A 
ATOM     69  C   UNL A   1      46.683  26.911  28.936  1.00  0.00     0.031 C 
ATOM     70  C   UNL A   1      45.514  26.011  31.026  1.00  0.00     0.037 A 
BRANCH  57  71
ATOM     71  C   UNL A   1      44.119  23.803  26.155  1.00  0.00     0.057 A 
ATOM     72  C   UNL A   1      44.313  22.484  25.711  1.00  0.00     0.134 A 
ATOM     73  C   UNL A   1      45.011  24.754  25.609  1.00  0.00     0.134 A 
ATOM     74  F   UNL A   1      43.550  21.484  26.177  1.00  0.00    -0.206 F 
ATOM     75  C   UNL A   1      45.348  22.132  24.835  1.00  0.00     0.040 A 
ATOM     76  C   UNL A   1      46.013  24.422  24.696  1.00  0.00     0.040 A 
ATOM     77  F   UNL A   1      45.038  26.031  26.007  1.00  0.00    -0.206 F 
ATOM     78  C   UNL A   1      46.204  23.101  24.327  1.00  0.00     0.006 A 
ENDBRANCH  57  71
BRANCH  58  79
ATOM     79  C   UNL A   1      46.380  31.414  28.928  1.00  0.00     0.057 A 
ATOM     80  C   UNL A   1      46.156  31.961  27.657  1.00  0.00     0.134 A 
ATOM     81  C   UNL A   1      47.130  32.201  29.820  1.00  0.00     0.134 A 
ATOM     82  F   UNL A   1      45.426  31.297  26.750  1.00  0.00    -0.206 F 
ATOM     83  C   UNL A   1      46.621  33.234  27.304  1.00  0.00     0.040 A 
ATOM     84  C   UNL A   1      47.606  33.470  29.477  1.00  0.00     0.040 A 
ATOM     85  F   UNL A   1      47.348  31.802  31.081  1.00  0.00    -0.206 F 
ATOM     86  C   UNL A   1      47.337  33.998  28.221  1.00  0.00     0.006 A 
ENDBRANCH  58  79
BRANCH  70  87
ATOM     87  C   UNL A   1      45.245  26.303  32.466  1.00  0.00     0.057 A 
ATOM     88  C   UNL A   1      46.121  25.999  33.516  1.00  0.00     0.134 A 
ATOM     89  C   UNL A   1      44.064  26.978  32.792  1.00  0.00     0.134 A 
ATOM     90  F   UNL A   1      47.305  25.416  33.284  1.00  0.00    -0.206 F 
ATOM     91  C   UNL A   1      45.812  26.323  34.841  1.00  0.00     0.040 A 
ATOM     92  C   UNL A   1      43.759  27.336  34.105  1.00  0.00     0.040 A 
ATOM     93  F   UNL A   1      43.199  27.330  31.827  1.00  0.00    -0.206 F 
ATOM     94  C   UNL A   1      44.629  26.998  35.137  1.00  0.00     0.006 A 
ENDBRANCH  70  87
ENDBRANCH  44  45
ENDBRANCH  37  39
ENDBRANCH  36  37
ENDBRANCH  35  36
ENDBRANCH  34  35
ENDBRANCH  33  34
ENDBRANCH  32  33
ENDBRANCH  31  32
ENDBRANCH   1  31
TORSDOF 22
ENDMDL
MODEL 2
REMARK VINA RESULT:      -9.6      1.795      5.685
REMARK SMILES CCn1c(CC2CC[NH+](Cc3cn[nH]c3C(=O)OCCOCCOCCOC(=O)c3ccc(-c4c5nc(c(-c6c(F)cccc6F)c6ccc([nH]6)c(-c6c(F)cccc6F)c6nc(c(-c7c(F)cccc7F)c7ccc4[nH]7)C=C6)C=C5)cc3)CC2)nn(C)c1=O
REMARK SMILES IDX 21 1 20 2 19 3 18 4 16 5 17 6 15 7 11 8 12 9 13 10 14 11
REMARK SMILES IDX 10 13 9 14 6 15 7 16 85 17 8 18 84 19 5 21 4 22 3 23 89 24
REMARK SMILES IDX 86 25 87 26 90 27 88 28 2 29 1 30 22 31 23 32 24 33 25 34
REMARK SMILES IDX 26 35 27 36 28 37 29 38 30 39 31 40 83 41 32 42 82 43 33 44
REMARK SMILES IDX 34 45 35 46 76 47 36 48 81 49 75 50 77 51 37 52 80 53 74 54
REMARK SMILES IDX 73 55 38 57 64 58 47 59 63 60 48 61 51 62 62 63 78 64 49 65
REMARK SMILES IDX 50 66 61 68 79 69 52 70 39 71 40 72 45 73 41 74 42 75 44 76
REMARK SMILES IDX 46 77 43 78 65 79 66 80 71 81 67 82 68 83 70 84 72 85 69 86
REMARK SMILES IDX 53 87 54 88 59 89 55 90 56 91 58 92 60 93 57 94
REMARK H PARENT 14 12 9 20 77 56 51 67
REMARK Flexibility Score: inf
ROOT
ATOM      1  O   UNL A   1      33.574  27.752  22.270  1.00  0.00    -0.376 OA
ENDROOT
BRANCH   1   2
ATOM      2  C   UNL A   1      32.645  26.706  22.012  1.00  0.00     0.202 C 
BRANCH   2   3
ATOM      3  C   UNL A   1      32.484  25.506  22.976  1.00  0.00     0.261 C 
BRANCH   3   4
ATOM      4  O   UNL A   1      32.367  25.802  24.386  1.00  0.00    -0.459 OA
BRANCH   4   5
ATOM      5  C   UNL A   1      31.086  25.800  24.848  1.00  0.00     0.356 C 
ATOM      6  O   UNL A   1      30.296  26.692  24.659  1.00  0.00    -0.244 OA
BRANCH   5   7
ATOM      7  C   UNL A   1      30.703  24.548  25.474  1.00  0.00     0.152 A 
ATOM      8  C   UNL A   1      30.966  23.176  25.398  1.00  0.00     0.059 A 
ATOM      9  C   UNL A   1      30.355  22.685  26.586  1.00  0.00     0.145 A 
ATOM     10  N   UNL A   1      29.626  23.587  27.234  1.00  0.00    -0.183 NA
ATOM     11  N   UNL A   1      29.790  24.681  26.498  1.00  0.00    -0.271 N 
ATOM     12  H   UNL A   1      29.300  25.517  26.670  1.00  0.00     0.190 HD
BRANCH   8  13
ATOM     13  C   UNL A   1      31.843  22.348  24.488  1.00  0.00     0.303 C 
BRANCH  13  14
ATOM     14  N   UNL A   1      33.046  21.717  25.102  1.00  0.00    -0.331 N 
ATOM     15  C   UNL A   1      35.903  21.194  25.825  1.00  0.00     0.008 C 
ATOM     16  C   UNL A   1      35.090  20.252  24.924  1.00  0.00     0.065 C 
ATOM     17  C   UNL A   1      34.943  21.986  26.711  1.00  0.00     0.065 C 
ATOM     18  C   UNL A   1      33.891  20.911  24.223  1.00  0.00     0.262 C 
ATOM     19  C   UNL A   1      33.812  22.638  25.924  1.00  0.00     0.262 C 
ATOM     20  H   UNL A   1      32.634  21.016  25.719  1.00  0.00     0.348 HD
BRANCH  15  21
ATOM     21  C   UNL A   1      37.011  22.044  25.154  1.00  0.00     0.081 C 
BRANCH  21  22
ATOM     22  C   UNL A   1      38.032  22.770  26.003  1.00  0.00     0.133 A 
ATOM     23  N   UNL A   1      39.191  22.219  26.429  1.00  0.00    -0.279 N 
ATOM     24  C   UNL A   1      39.795  23.183  27.211  1.00  0.00     0.345 A 
ATOM     25  N   UNL A   1      37.878  24.022  26.333  1.00  0.00    -0.155 NA
ATOM     26  N   UNL A   1      38.983  24.307  27.091  1.00  0.00    -0.216 N 
ATOM     27  O   UNL A   1      40.833  23.083  27.846  1.00  0.00    -0.246 OA
ATOM     28  C   UNL A   1      39.261  25.616  27.616  1.00  0.00     0.179 C 
BRANCH  23  29
ATOM     29  C   UNL A   1      39.784  20.926  26.118  1.00  0.00     0.125 C 
ATOM     30  C   UNL A   1      41.310  20.919  26.086  1.00  0.00     0.028 C 
ENDBRANCH  23  29
ENDBRANCH  21  22
ENDBRANCH  15  21
ENDBRANCH  13  14
ENDBRANCH   8  13
ENDBRANCH   5   7
ENDBRANCH   4   5
ENDBRANCH   3   4
ENDBRANCH   2   3
ENDBRANCH   1   2
BRANCH   1  31
ATOM     31  C   UNL A   1      33.158  28.921  22.962  1.00  0.00     0.188 C 
BRANCH  31  32
ATOM     32  C   UNL A   1      33.191  28.970  24.500  1.00  0.00     0.188 C 
BRANCH  32  33
ATOM     33  O   UNL A   1      32.442  30.029  25.059  1.00  0.00    -0.376 OA
BRANCH  33  34
ATOM     34  C   UNL A   1      32.598  30.475  26.394  1.00  0.00     0.202 C 
BRANCH  34  35
ATOM     35  C   UNL A   1      33.634  29.833  27.302  1.00  0.00     0.261 C 
BRANCH  35  36
ATOM     36  O   UNL A   1      34.968  30.171  26.995  1.00  0.00    -0.460 OA
BRANCH  36  37
ATOM     37  C   UNL A   1      35.448  31.201  27.716  1.00  0.00     0.338 C 
ATOM     38  O   UNL A   1      35.125  32.375  27.658  1.00  0.00    -0.246 OA
BRANCH  37  39
ATOM     39  C   UNL A   1      36.509  30.678  28.564  1.00  0.00     0.060 A 
ATOM     40  C   UNL A   1      37.367  31.605  29.149  1.00  0.00     0.016 A 
ATOM     41  C   UNL A   1      36.799  29.307  28.489  1.00  0.00     0.016 A 
ATOM     42  C   UNL A   1      38.635  31.188  29.463  1.00  0.00     0.010 A 
ATOM     43  C   UNL A   1      38.065  28.894  28.797  1.00  0.00     0.010 A 
ATOM     44  C   UNL A   1      38.987  29.864  29.180  1.00  0.00    -0.014 A 
BRANCH  44  45
ATOM     45  C   UNL A   1      40.374  29.497  29.345  1.00  0.00     0.031 A 
ATOM     46  C   UNL A   1      40.751  29.397  30.766  1.00  0.00     0.074 A 
ATOM     47  C   UNL A   1      41.147  29.197  28.282  1.00  0.00     0.049 A 
ATOM     48  N   UNL A   1      41.611  30.114  31.404  1.00  0.00    -0.248 NA
ATOM     49  C   UNL A   1      39.941  28.516  31.629  1.00  0.00     0.031 C 
ATOM     50  C   UNL A   1      40.696  29.023  26.894  1.00  0.00     0.029 A 
ATOM     51  N   UNL A   1      42.464  28.854  28.221  1.00  0.00    -0.354 N 
ATOM     52  C   UNL A   1      41.648  29.567  32.682  1.00  0.00     0.074 A 
ATOM     53  C   UNL A   1      40.466  28.765  32.828  1.00  0.00     0.031 C 
ATOM     54  C   UNL A   1      41.647  28.367  26.195  1.00  0.00     0.029 A 
ATOM     55  C   UNL A   1      42.818  28.213  27.038  1.00  0.00     0.049 A 
ATOM     56  H   UNL A   1      43.106  29.043  28.944  1.00  0.00     0.167 HD
ATOM     57  C   UNL A   1      42.832  29.506  33.345  1.00  0.00     0.037 A 
ATOM     58  C   UNL A   1      43.969  27.542  26.798  1.00  0.00     0.037 A 
ATOM     59  C   UNL A   1      43.785  30.433  32.793  1.00  0.00     0.049 A 
ATOM     60  C   UNL A   1      44.977  27.992  27.785  1.00  0.00     0.074 A 
ATOM     61  C   UNL A   1      44.034  31.784  32.866  1.00  0.00     0.029 A 
ATOM     62  N   UNL A   1      44.447  29.954  31.695  1.00  0.00    -0.354 N 
ATOM     63  N   UNL A   1      45.485  29.192  27.799  1.00  0.00    -0.248 NA
ATOM     64  C   UNL A   1      45.190  27.207  28.999  1.00  0.00     0.031 C 
ATOM     65  C   UNL A   1      44.815  32.115  31.718  1.00  0.00     0.029 A 
ATOM     66  C   UNL A   1      45.044  30.957  30.983  1.00  0.00     0.049 A 
ATOM     67  H   UNL A   1      44.487  29.003  31.448  1.00  0.00     0.167 HD
ATOM     68  C   UNL A   1      45.696  29.455  29.137  1.00  0.00     0.074 A 
ATOM     69  C   UNL A   1      45.676  28.158  29.801  1.00  0.00     0.031 C 
ATOM     70  C   UNL A   1      45.513  30.707  29.640  1.00  0.00     0.037 A 
BRANCH  57  71
ATOM     71  C   UNL A   1      43.300  28.270  34.081  1.00  0.00     0.057 A 
ATOM     72  C   UNL A   1      43.402  27.062  33.372  1.00  0.00     0.134 A 
ATOM     73  C   UNL A   1      43.340  28.143  35.488  1.00  0.00     0.134 A 
ATOM     74  F   UNL A   1      43.347  27.046  32.032  1.00  0.00    -0.206 F 
ATOM     75  C   UNL A   1      43.483  25.820  34.015  1.00  0.00     0.040 A 
ATOM     76  C   UNL A   1      43.473  26.915  36.138  1.00  0.00     0.040 A 
ATOM     77  F   UNL A   1      43.144  29.178  36.313  1.00  0.00    -0.206 F 
ATOM     78  C   UNL A   1      43.515  25.743  35.402  1.00  0.00     0.006 A 
ENDBRANCH  57  71
BRANCH  58  79
ATOM     79  C   UNL A   1      44.188  26.360  25.938  1.00  0.00     0.057 A 
ATOM     80  C   UNL A   1      45.431  26.126  25.337  1.00  0.00     0.134 A 
ATOM     81  C   UNL A   1      43.272  25.294  25.909  1.00  0.00     0.134 A 
ATOM     82  F   UNL A   1      46.379  27.073  25.343  1.00  0.00    -0.206 F 
ATOM     83  C   UNL A   1      45.760  24.888  24.769  1.00  0.00     0.040 A 
ATOM     84  C   UNL A   1      43.584  24.056  25.339  1.00  0.00     0.040 A 
ATOM     85  F   UNL A   1      42.077  25.389  26.511  1.00  0.00    -0.206 F 
ATOM     86  C   UNL A   1      44.839  23.844  24.782  1.00  0.00     0.006 A 
ENDBRANCH  58  79
BRANCH  70  87
ATOM     87  C   UNL A   1      45.644  31.857  28.696  1.00  0.00     0.057 A 
ATOM     88  C   UNL A   1      44.567  32.518  28.094  1.00  0.00     0.134 A 
ATOM     89  C   UNL A   1      46.926  32.352  28.436  1.00  0.00     0.134 A 
ATOM     90  F   UNL A   1      43.301  32.153  28.345  1.00  0.00    -0.206 F 
ATOM     91  C   UNL A   1      44.764  33.605  27.236  1.00  0.00     0.040 A 
ATOM     92  C   UNL A   1      47.135  33.455  27.608  1.00  0.00     0.040 A 
ATOM     93  F   UNL A   1      47.999  31.786  29.010  1.00  0.00    -0.206 F 
ATOM     94  C   UNL A   1      46.053  34.079  26.996  1.00  0.00     0.006 A 
ENDBRANCH  70  87
ENDBRANCH  44  45
ENDBRANCH  37  39
ENDBRANCH  36  37
ENDBRANCH  35  36
ENDBRANCH  34  35
ENDBRANCH  33  34
ENDBRANCH  32  33
ENDBRANCH  31  32
ENDBRANCH   1  31
TORSDOF 22
ENDMDL
MODEL 3
REMARK VINA RESULT:      -9.2      2.076      2.945
REMARK SMILES CCn1c(CC2CC[NH+](Cc3cn[nH]c3C(=O)OCCOCCOCCOC(=O)c3ccc(-c4c5nc(c(-c6c(F)cccc6F)c6ccc([nH]6)c(-c6c(F)cccc6F)c6nc(c(-c7c(F)cccc7F)c7ccc4[nH]7)C=C6)C=C5)cc3)CC2)nn(C)c1=O
REMARK SMILES IDX 21 1 20 2 19 3 18 4 16 5 17 6 15 7 11 8 12 9 13 10 14 11
REMARK SMILES IDX 10 13 9 14 6 15 7 16 85 17 8 18 84 19 5 21 4 22 3 23 89 24
REMARK SMILES IDX 86 25 87 26 90 27 88 28 2 29 1 30 22 31 23 32 24 33 25 34
REMARK SMILES IDX 26 35 27 36 28 37 29 38 30 39 31 40 83 41 32 42 82 43 33 44
REMARK SMILES IDX 34 45 35 46 76 47 36 48 81 49 75 50 77 51 37 52 80 53 74 54
REMARK SMILES IDX 73 55 38 57 64 58 47 59 63 60 48 61 51 62 62 63 78 64 49 65
REMARK SMILES IDX 50 66 61 68 79 69 52 70 39 71 40 72 45 73 41 74 42 75 44 76
REMARK SMILES IDX 46 77 43 78 65 79 66 80 71 81 67 82 68 83 70 84 72 85 69 86
REMARK SMILES IDX 53 87 54 88 59 89 55 90 56 91 58 92 60 93 57 94
REMARK H PARENT 14 12 9 20 77 56 51 67
REMARK Flexibility Score: inf
ROOT
ATOM      1  O   UNL A   1      33.527  27.213  23.292  1.00  0.00    -0.376 OA
ENDROOT
BRANCH   1   2
ATOM      2  C   UNL A   1      33.071  25.891  23.028  1.00  0.00     0.202 C 
BRANCH   2   3
ATOM      3  C   UNL A   1      31.682  25.620  22.404  1.00  0.00     0.261 C 
BRANCH   3   4
ATOM      4  O   UNL A   1      30.735  24.872  23.199  1.00  0.00    -0.459 OA
BRANCH   4   5
ATOM      5  C   UNL A   1      31.136  23.603  23.490  1.00  0.00     0.356 C 
ATOM      6  O   UNL A   1      31.562  22.823  22.674  1.00  0.00    -0.244 OA
BRANCH   5   7
ATOM      7  C   UNL A   1      31.142  23.314  24.912  1.00  0.00     0.152 A 
ATOM      8  C   UNL A   1      31.786  22.496  25.847  1.00  0.00     0.059 A 
ATOM      9  C   UNL A   1      31.367  23.063  27.083  1.00  0.00     0.145 A 
ATOM     10  N   UNL A   1      30.425  23.991  26.963  1.00  0.00    -0.183 NA
ATOM     11  N   UNL A   1      30.252  24.066  25.648  1.00  0.00    -0.271 N 
ATOM     12  H   UNL A   1      29.546  24.613  25.233  1.00  0.00     0.190 HD
BRANCH   8  13
ATOM     13  C   UNL A   1      32.842  21.424  25.717  1.00  0.00     0.303 C 
BRANCH  13  14
ATOM     14  N   UNL A   1      34.146  21.832  25.119  1.00  0.00    -0.331 N 
ATOM     15  C   UNL A   1      37.027  22.611  24.887  1.00  0.00     0.008 C 
ATOM     16  C   UNL A   1      35.878  23.594  24.619  1.00  0.00     0.065 C 
ATOM     17  C   UNL A   1      36.522  21.186  24.671  1.00  0.00     0.065 C 
ATOM     18  C   UNL A   1      34.547  23.226  25.295  1.00  0.00     0.262 C 
ATOM     19  C   UNL A   1      35.221  20.899  25.413  1.00  0.00     0.262 C 
ATOM     20  H   UNL A   1      33.953  21.780  24.118  1.00  0.00     0.348 HD
BRANCH  15  21
ATOM     21  C   UNL A   1      37.853  22.812  26.182  1.00  0.00     0.081 C 
BRANCH  21  22
ATOM     22  C   UNL A   1      39.298  22.367  26.240  1.00  0.00     0.133 A 
ATOM     23  N   UNL A   1      40.341  23.206  26.429  1.00  0.00    -0.279 N 
ATOM     24  C   UNL A   1      41.471  22.416  26.359  1.00  0.00     0.345 A 
ATOM     25  N   UNL A   1      39.626  21.107  26.169  1.00  0.00    -0.155 NA
ATOM     26  N   UNL A   1      40.994  21.113  26.249  1.00  0.00    -0.216 N 
ATOM     27  O   UNL A   1      42.636  22.777  26.414  1.00  0.00    -0.246 OA
ATOM     28  C   UNL A   1      41.786  19.913  26.277  1.00  0.00     0.179 C 
BRANCH  23  29
ATOM     29  C   UNL A   1      40.356  24.633  26.722  1.00  0.00     0.125 C 
ATOM     30  C   UNL A   1      39.774  25.007  28.083  1.00  0.00     0.028 C 
ENDBRANCH  23  29
ENDBRANCH  21  22
ENDBRANCH  15  21
ENDBRANCH  13  14
ENDBRANCH   8  13
ENDBRANCH   5   7
ENDBRANCH   4   5
ENDBRANCH   3   4
ENDBRANCH   2   3
ENDBRANCH   1   2
BRANCH   1  31
ATOM     31  C   UNL A   1      33.061  27.913  24.436  1.00  0.00     0.188 C 
BRANCH  31  32
ATOM     32  C   UNL A   1      33.998  28.865  25.202  1.00  0.00     0.188 C 
BRANCH  32  33
ATOM     33  O   UNL A   1      33.364  29.586  26.238  1.00  0.00    -0.376 OA
BRANCH  33  34
ATOM     34  C   UNL A   1      34.070  30.236  27.280  1.00  0.00     0.202 C 
BRANCH  34  35
ATOM     35  C   UNL A   1      35.411  29.698  27.752  1.00  0.00     0.261 C 
BRANCH  35  36
ATOM     36  O   UNL A   1      36.149  30.591  28.555  1.00  0.00    -0.460 OA
BRANCH  36  37
ATOM     37  C   UNL A   1      36.624  30.039  29.686  1.00  0.00     0.338 C 
ATOM     38  O   UNL A   1      36.122  30.048  30.797  1.00  0.00    -0.246 OA
BRANCH  37  39
ATOM     39  C   UNL A   1      37.925  29.465  29.373  1.00  0.00     0.060 A 
ATOM     40  C   UNL A   1      38.181  28.181  29.847  1.00  0.00     0.016 A 
ATOM     41  C   UNL A   1      38.931  30.325  28.909  1.00  0.00     0.016 A 
ATOM     42  C   UNL A   1      39.488  27.835  30.070  1.00  0.00     0.010 A 
ATOM     43  C   UNL A   1      40.234  29.981  29.137  1.00  0.00     0.010 A 
ATOM     44  C   UNL A   1      40.481  28.786  29.807  1.00  0.00    -0.014 A 
BRANCH  44  45
ATOM     45  C   UNL A   1      41.828  28.471  30.221  1.00  0.00     0.031 A 
ATOM     46  C   UNL A   1      42.466  27.498  29.317  1.00  0.00     0.074 A 
ATOM     47  C   UNL A   1      42.405  29.104  31.261  1.00  0.00     0.049 A 
ATOM     48  N   UNL A   1      42.868  26.306  29.601  1.00  0.00    -0.248 NA
ATOM     49  C   UNL A   1      42.495  27.816  27.877  1.00  0.00     0.031 C 
ATOM     50  C   UNL A   1      41.870  30.270  31.980  1.00  0.00     0.029 A 
ATOM     51  N   UNL A   1      43.638  28.942  31.818  1.00  0.00    -0.354 N 
ATOM     52  C   UNL A   1      43.463  25.846  28.431  1.00  0.00     0.074 A 
ATOM     53  C   UNL A   1      43.009  26.697  27.368  1.00  0.00     0.031 C 
ATOM     54  C   UNL A   1      42.863  30.855  32.682  1.00  0.00     0.029 A 
ATOM     55  C   UNL A   1      44.051  30.028  32.582  1.00  0.00     0.049 A 
ATOM     56  H   UNL A   1      44.184  28.132  31.692  1.00  0.00     0.167 HD
ATOM     57  C   UNL A   1      44.572  25.067  28.512  1.00  0.00     0.037 A 
ATOM     58  C   UNL A   1      45.304  30.261  33.040  1.00  0.00     0.037 A 
ATOM     59  C   UNL A   1      44.693  24.468  29.816  1.00  0.00     0.049 A 
ATOM     60  C   UNL A   1      46.045  28.979  33.021  1.00  0.00     0.074 A 
ATOM     61  C   UNL A   1      44.134  23.408  30.492  1.00  0.00     0.029 A 
ATOM     62  N   UNL A   1      45.276  25.285  30.746  1.00  0.00    -0.354 N 
ATOM     63  N   UNL A   1      45.768  27.976  33.805  1.00  0.00    -0.248 NA
ATOM     64  C   UNL A   1      46.903  28.666  31.881  1.00  0.00     0.031 C 
ATOM     65  C   UNL A   1      44.340  23.660  31.882  1.00  0.00     0.029 A 
ATOM     66  C   UNL A   1      45.038  24.855  32.022  1.00  0.00     0.049 A 
ATOM     67  H   UNL A   1      45.803  26.085  30.523  1.00  0.00     0.167 HD
ATOM     68  C   UNL A   1      46.050  26.862  33.040  1.00  0.00     0.074 A 
ATOM     69  C   UNL A   1      46.906  27.332  31.960  1.00  0.00     0.031 C 
ATOM     70  C   UNL A   1      45.289  25.737  33.138  1.00  0.00     0.037 A 
BRANCH  57  71
ATOM     71  C   UNL A   1      45.796  25.286  27.652  1.00  0.00     0.057 A 
ATOM     72  C   UNL A   1      46.386  26.561  27.631  1.00  0.00     0.134 A 
ATOM     73  C   UNL A   1      46.217  24.416  26.620  1.00  0.00     0.134 A 
ATOM     74  F   UNL A   1      46.048  27.488  28.540  1.00  0.00    -0.206 F 
ATOM     75  C   UNL A   1      47.282  26.956  26.629  1.00  0.00     0.040 A 
ATOM     76  C   UNL A   1      47.149  24.783  25.647  1.00  0.00     0.040 A 
ATOM     77  F   UNL A   1      45.675  23.208  26.427  1.00  0.00    -0.206 F 
ATOM     78  C   UNL A   1      47.664  26.068  25.631  1.00  0.00     0.006 A 
ENDBRANCH  57  71
BRANCH  58  79
ATOM     79  C   UNL A   1      45.983  31.556  33.255  1.00  0.00     0.057 A 
ATOM     80  C   UNL A   1      46.116  32.482  32.213  1.00  0.00     0.134 A 
ATOM     81  C   UNL A   1      46.270  32.027  34.548  1.00  0.00     0.134 A 
ATOM     82  F   UNL A   1      45.834  32.132  30.951  1.00  0.00    -0.206 F 
ATOM     83  C   UNL A   1      46.481  33.815  32.447  1.00  0.00     0.040 A 
ATOM     84  C   UNL A   1      46.643  33.352  34.794  1.00  0.00     0.040 A 
ATOM     85  F   UNL A   1      46.113  31.242  35.624  1.00  0.00    -0.206 F 
ATOM     86  C   UNL A   1      46.732  34.256  33.742  1.00  0.00     0.006 A 
ENDBRANCH  58  79
BRANCH  70  87
ATOM     87  C   UNL A   1      44.550  25.511  34.415  1.00  0.00     0.057 A 
ATOM     88  C   UNL A   1      43.266  25.998  34.689  1.00  0.00     0.134 A 
ATOM     89  C   UNL A   1      45.150  24.707  35.391  1.00  0.00     0.134 A 
ATOM     90  F   UNL A   1      42.590  26.717  33.781  1.00  0.00    -0.206 F 
ATOM     91  C   UNL A   1      42.624  25.727  35.901  1.00  0.00     0.040 A 
ATOM     92  C   UNL A   1      44.509  24.402  36.591  1.00  0.00     0.040 A 
ATOM     93  F   UNL A   1      46.366  24.178  35.176  1.00  0.00    -0.206 F 
ATOM     94  C   UNL A   1      43.245  24.922  36.855  1.00  0.00     0.006 A 
ENDBRANCH  70  87
ENDBRANCH  44  45
ENDBRANCH  37  39
ENDBRANCH  36  37
ENDBRANCH  35  36
ENDBRANCH  34  35
ENDBRANCH  33  34
ENDBRANCH  32  33
ENDBRANCH  31  32
ENDBRANCH   1  31
TORSDOF 22
ENDMDL
