MODEL 1
REMARK VINA RESULT:     -10.7      0.000      0.000
REMARK SMILES C[C@@H](C(=O)OCCOCCOCCOC(=O)c1ccc(-c2c3nc(c(-c4c(F)cccc4F)c4ccc([nH]4)c(-c4c(F)cccc4F)c4nc(c(-c5c(F)cccc5F)c5ccc2[nH]5)C=C4)C=C3)cc1)c1ccc(C[C@H]2CCC[C@H]2O)cc1
REMARK SMILES IDX 9 1 8 2 7 3 6 4 5 5 3 6 4 7 2 8 1 9 71 10 72 11 83 12 73 13
REMARK SMILES IDX 82 14 74 15 75 16 76 17 77 18 80 19 78 20 79 21 81 22 10 24
REMARK SMILES IDX 11 25 12 26 13 27 14 28 15 29 16 30 17 31 18 32 70 33 19 34
REMARK SMILES IDX 69 35 20 36 21 37 22 38 63 39 23 40 68 41 62 42 64 43 24 44
REMARK SMILES IDX 67 45 61 46 60 47 25 49 51 50 34 51 50 52 35 53 38 54 49 55
REMARK SMILES IDX 65 56 36 57 37 58 48 60 66 61 39 62 26 63 27 64 32 65 28 66
REMARK SMILES IDX 29 67 31 68 33 69 30 70 52 71 53 72 58 73 54 74 55 75 57 76
REMARK SMILES IDX 59 77 56 78 40 79 41 80 46 81 42 82 43 83 45 84 47 85 44 86
REMARK H PARENT 81 23 64 48 38 59
REMARK Flexibility Score: inf
ROOT
ATOM      1  C   UNL A   1      28.619  28.981  22.392  1.00  0.00     0.188 C 
ENDROOT
BRANCH   1   2
ATOM      2  O   UNL A   1      28.556  27.960  23.360  1.00  0.00    -0.376 OA
BRANCH   2   3
ATOM      3  C   UNL A   1      29.682  27.101  23.501  1.00  0.00     0.202 C 
BRANCH   3   4
ATOM      4  C   UNL A   1      29.923  26.213  24.743  1.00  0.00     0.261 C 
BRANCH   4   5
ATOM      5  O   UNL A   1      31.006  26.598  25.618  1.00  0.00    -0.463 OA
BRANCH   5   6
ATOM      6  C   UNL A   1      31.700  25.579  26.206  1.00  0.00     0.313 C 
ATOM      7  O   UNL A   1      31.245  24.894  27.119  1.00  0.00    -0.252 OA
BRANCH   6   8
ATOM      8  C   UNL A   1      33.087  25.292  25.592  1.00  0.00     0.126 C 
ATOM      9  C   UNL A   1      33.446  26.033  24.299  1.00  0.00     0.025 C 
BRANCH   8  10
ATOM     10  C   UNL A   1      33.424  23.801  25.496  1.00  0.00    -0.034 A 
ATOM     11  C   UNL A   1      34.205  23.156  26.457  1.00  0.00     0.005 A 
ATOM     12  C   UNL A   1      32.978  23.028  24.416  1.00  0.00     0.005 A 
ATOM     13  C   UNL A   1      34.567  21.820  26.342  1.00  0.00     0.004 A 
ATOM     14  C   UNL A   1      33.429  21.709  24.244  1.00  0.00     0.004 A 
ATOM     15  C   UNL A   1      34.295  21.122  25.175  1.00  0.00    -0.048 A 
BRANCH  15  16
ATOM     16  C   UNL A   1      35.034  19.836  24.899  1.00  0.00     0.041 C 
BRANCH  16  17
ATOM     17  C   UNL A   1      34.160  18.617  24.499  1.00  0.00     0.022 C 
ATOM     18  C   UNL A   1      34.880  17.257  24.472  1.00  0.00     0.007 C 
ATOM     19  C   UNL A   1      32.840  18.335  25.239  1.00  0.00     0.117 C 
ATOM     20  C   UNL A   1      33.839  16.201  24.856  1.00  0.00     0.003 C 
ATOM     21  C   UNL A   1      32.495  16.911  24.832  1.00  0.00     0.032 C 
BRANCH  19  22
ATOM     22  O   UNL A   1      32.884  18.388  26.651  1.00  0.00    -0.393 OA
ATOM     23  H   UNL A   1      32.242  19.041  26.970  1.00  0.00     0.210 HD
ENDBRANCH  19  22
ENDBRANCH  16  17
ENDBRANCH  15  16
ENDBRANCH   8  10
ENDBRANCH   6   8
ENDBRANCH   5   6
ENDBRANCH   4   5
ENDBRANCH   3   4
ENDBRANCH   2   3
ENDBRANCH   1   2
BRANCH   1  24
ATOM     24  C   UNL A   1      29.523  30.192  22.658  1.00  0.00     0.188 C 
BRANCH  24  25
ATOM     25  O   UNL A   1      29.533  30.814  23.921  1.00  0.00    -0.376 OA
BRANCH  25  26
ATOM     26  C   UNL A   1      30.645  30.629  24.777  1.00  0.00     0.202 C 
BRANCH  26  27
ATOM     27  C   UNL A   1      30.992  31.575  25.944  1.00  0.00     0.261 C 
BRANCH  27  28
ATOM     28  O   UNL A   1      32.162  31.286  26.719  1.00  0.00    -0.460 OA
BRANCH  28  29
ATOM     29  C   UNL A   1      32.782  32.359  27.266  1.00  0.00     0.338 C 
ATOM     30  O   UNL A   1      32.309  33.476  27.447  1.00  0.00    -0.246 OA
BRANCH  29  31
ATOM     31  C   UNL A   1      34.097  31.944  27.792  1.00  0.00     0.060 A 
ATOM     32  C   UNL A   1      34.350  30.580  28.010  1.00  0.00     0.016 A 
ATOM     33  C   UNL A   1      35.062  32.899  28.113  1.00  0.00     0.016 A 
ATOM     34  C   UNL A   1      35.563  30.172  28.570  1.00  0.00     0.010 A 
ATOM     35  C   UNL A   1      36.263  32.491  28.702  1.00  0.00     0.010 A 
ATOM     36  C   UNL A   1      36.507  31.131  28.960  1.00  0.00    -0.014 A 
BRANCH  36  37
ATOM     37  C   UNL A   1      37.682  30.732  29.774  1.00  0.00     0.031 A 
ATOM     38  C   UNL A   1      38.756  29.897  29.141  1.00  0.00     0.074 A 
ATOM     39  C   UNL A   1      37.768  31.052  31.076  1.00  0.00     0.049 A 
ATOM     40  N   UNL A   1      39.831  29.384  29.681  1.00  0.00    -0.248 NA
ATOM     41  C   UNL A   1      38.565  29.557  27.723  1.00  0.00     0.031 C 
ATOM     42  C   UNL A   1      36.747  31.775  31.823  1.00  0.00     0.029 A 
ATOM     43  N   UNL A   1      38.747  30.789  32.004  1.00  0.00    -0.354 N 
ATOM     44  C   UNL A   1      40.419  28.616  28.684  1.00  0.00     0.074 A 
ATOM     45  C   UNL A   1      39.582  28.737  27.509  1.00  0.00     0.031 C 
ATOM     46  C   UNL A   1      37.162  31.914  33.092  1.00  0.00     0.029 A 
ATOM     47  C   UNL A   1      38.484  31.315  33.248  1.00  0.00     0.049 A 
ATOM     48  H   UNL A   1      39.560  30.272  31.798  1.00  0.00     0.167 HD
ATOM     49  C   UNL A   1      41.540  27.861  28.753  1.00  0.00     0.037 A 
ATOM     50  C   UNL A   1      39.232  31.317  34.369  1.00  0.00     0.037 A 
ATOM     51  C   UNL A   1      42.366  27.735  29.926  1.00  0.00     0.049 A 
ATOM     52  C   UNL A   1      40.525  30.538  34.390  1.00  0.00     0.074 A 
ATOM     53  C   UNL A   1      43.534  27.009  30.081  1.00  0.00     0.029 A 
ATOM     54  N   UNL A   1      42.108  28.341  31.146  1.00  0.00    -0.354 N 
ATOM     55  N   UNL A   1      41.101  29.859  33.429  1.00  0.00    -0.248 NA
ATOM     56  C   UNL A   1      41.250  30.492  35.671  1.00  0.00     0.031 C 
ATOM     57  C   UNL A   1      43.955  27.132  31.408  1.00  0.00     0.029 A 
ATOM     58  C   UNL A   1      43.086  27.989  32.064  1.00  0.00     0.049 A 
ATOM     59  H   UNL A   1      41.344  28.932  31.333  1.00  0.00     0.167 HD
ATOM     60  C   UNL A   1      42.245  29.300  33.988  1.00  0.00     0.074 A 
ATOM     61  C   UNL A   1      42.313  29.764  35.357  1.00  0.00     0.031 C 
ATOM     62  C   UNL A   1      43.145  28.457  33.426  1.00  0.00     0.037 A 
BRANCH  49  63
ATOM     63  C   UNL A   1      41.911  27.071  27.533  1.00  0.00     0.057 A 
ATOM     64  C   UNL A   1      41.467  25.758  27.332  1.00  0.00     0.134 A 
ATOM     65  C   UNL A   1      42.711  27.643  26.534  1.00  0.00     0.134 A 
ATOM     66  F   UNL A   1      40.714  25.146  28.259  1.00  0.00    -0.206 F 
ATOM     67  C   UNL A   1      41.825  25.035  26.193  1.00  0.00     0.040 A 
ATOM     68  C   UNL A   1      43.049  26.941  25.378  1.00  0.00     0.040 A 
ATOM     69  F   UNL A   1      43.168  28.898  26.662  1.00  0.00    -0.206 F 
ATOM     70  C   UNL A   1      42.611  25.628  25.209  1.00  0.00     0.006 A 
ENDBRANCH  49  63
BRANCH  50  71
ATOM     71  C   UNL A   1      38.818  32.097  35.569  1.00  0.00     0.057 A 
ATOM     72  C   UNL A   1      39.124  33.464  35.666  1.00  0.00     0.134 A 
ATOM     73  C   UNL A   1      38.152  31.517  36.651  1.00  0.00     0.134 A 
ATOM     74  F   UNL A   1      39.774  34.084  34.669  1.00  0.00    -0.206 F 
ATOM     75  C   UNL A   1      38.809  34.212  36.802  1.00  0.00     0.040 A 
ATOM     76  C   UNL A   1      37.791  32.262  37.776  1.00  0.00     0.040 A 
ATOM     77  F   UNL A   1      37.833  30.214  36.632  1.00  0.00    -0.206 F 
ATOM     78  C   UNL A   1      38.131  33.611  37.859  1.00  0.00     0.006 A 
ENDBRANCH  50  71
BRANCH  62  79
ATOM     79  C   UNL A   1      44.287  27.989  34.282  1.00  0.00     0.057 A 
ATOM     80  C   UNL A   1      45.463  28.740  34.426  1.00  0.00     0.134 A 
ATOM     81  C   UNL A   1      44.195  26.795  35.008  1.00  0.00     0.134 A 
ATOM     82  F   UNL A   1      45.622  29.889  33.752  1.00  0.00    -0.206 F 
ATOM     83  C   UNL A   1      46.512  28.307  35.239  1.00  0.00     0.040 A 
ATOM     84  C   UNL A   1      45.225  26.367  35.848  1.00  0.00     0.040 A 
ATOM     85  F   UNL A   1      43.095  26.031  34.927  1.00  0.00    -0.206 F 
ATOM     86  C   UNL A   1      46.391  27.120  35.959  1.00  0.00     0.006 A 
ENDBRANCH  62  79
ENDBRANCH  36  37
ENDBRANCH  29  31
ENDBRANCH  28  29
ENDBRANCH  27  28
ENDBRANCH  26  27
ENDBRANCH  25  26
ENDBRANCH  24  25
ENDBRANCH   1  24
TORSDOF 21
ENDMDL
MODEL 2
REMARK VINA RESULT:     -10.7      4.230      8.752
REMARK SMILES C[C@@H](C(=O)OCCOCCOCCOC(=O)c1ccc(-c2c3nc(c(-c4c(F)cccc4F)c4ccc([nH]4)c(-c4c(F)cccc4F)c4nc(c(-c5c(F)cccc5F)c5ccc2[nH]5)C=C4)C=C3)cc1)c1ccc(C[C@H]2CCC[C@H]2O)cc1
REMARK SMILES IDX 9 1 8 2 7 3 6 4 5 5 3 6 4 7 2 8 1 9 71 10 72 11 83 12 73 13
REMARK SMILES IDX 82 14 74 15 75 16 76 17 77 18 80 19 78 20 79 21 81 22 10 24
REMARK SMILES IDX 11 25 12 26 13 27 14 28 15 29 16 30 17 31 18 32 70 33 19 34
REMARK SMILES IDX 69 35 20 36 21 37 22 38 63 39 23 40 68 41 62 42 64 43 24 44
REMARK SMILES IDX 67 45 61 46 60 47 25 49 51 50 34 51 50 52 35 53 38 54 49 55
REMARK SMILES IDX 65 56 36 57 37 58 48 60 66 61 39 62 26 63 27 64 32 65 28 66
REMARK SMILES IDX 29 67 31 68 33 69 30 70 52 71 53 72 58 73 54 74 55 75 57 76
REMARK SMILES IDX 59 77 56 78 40 79 41 80 46 81 42 82 43 83 45 84 47 85 44 86
REMARK H PARENT 81 23 64 48 38 59
REMARK Flexibility Score: inf
ROOT
ATOM      1  C   UNL A   1      32.891  31.323  27.248  1.00  0.00     0.188 C 
ENDROOT
BRANCH   1   2
ATOM      2  O   UNL A   1      32.686  30.112  26.560  1.00  0.00    -0.376 OA
BRANCH   2   3
ATOM      3  C   UNL A   1      33.605  29.050  26.788  1.00  0.00     0.202 C 
BRANCH   3   4
ATOM      4  C   UNL A   1      33.185  27.564  26.866  1.00  0.00     0.261 C 
BRANCH   4   5
ATOM      5  O   UNL A   1      33.933  26.632  26.055  1.00  0.00    -0.463 OA
BRANCH   5   6
ATOM      6  C   UNL A   1      33.199  25.782  25.277  1.00  0.00     0.313 C 
ATOM      7  O   UNL A   1      33.683  25.123  24.359  1.00  0.00    -0.252 OA
BRANCH   6   8
ATOM      8  C   UNL A   1      31.714  25.647  25.677  1.00  0.00     0.126 C 
ATOM      9  C   UNL A   1      31.210  24.243  26.030  1.00  0.00     0.025 C 
BRANCH   8  10
ATOM     10  C   UNL A   1      30.751  26.365  24.727  1.00  0.00    -0.034 A 
ATOM     11  C   UNL A   1      31.150  27.460  23.957  1.00  0.00     0.005 A 
ATOM     12  C   UNL A   1      29.413  25.963  24.614  1.00  0.00     0.005 A 
ATOM     13  C   UNL A   1      30.265  28.154  23.143  1.00  0.00     0.004 A 
ATOM     14  C   UNL A   1      28.495  26.726  23.874  1.00  0.00     0.004 A 
ATOM     15  C   UNL A   1      28.907  27.879  23.195  1.00  0.00    -0.048 A 
BRANCH  15  16
ATOM     16  C   UNL A   1      27.931  28.885  22.636  1.00  0.00     0.041 C 
BRANCH  16  17
ATOM     17  C   UNL A   1      28.487  30.311  22.383  1.00  0.00     0.022 C 
ATOM     18  C   UNL A   1      28.124  30.940  21.026  1.00  0.00     0.007 C 
ATOM     19  C   UNL A   1      28.230  31.434  23.405  1.00  0.00     0.117 C 
ATOM     20  C   UNL A   1      28.025  32.451  21.255  1.00  0.00     0.003 C 
ATOM     21  C   UNL A   1      28.587  32.702  22.645  1.00  0.00     0.032 C 
BRANCH  19  22
ATOM     22  O   UNL A   1      26.904  31.566  23.877  1.00  0.00    -0.393 OA
ATOM     23  H   UNL A   1      26.566  32.446  23.649  1.00  0.00     0.210 HD
ENDBRANCH  19  22
ENDBRANCH  16  17
ENDBRANCH  15  16
ENDBRANCH   8  10
ENDBRANCH   6   8
ENDBRANCH   5   6
ENDBRANCH   4   5
ENDBRANCH   3   4
ENDBRANCH   2   3
ENDBRANCH   1   2
BRANCH   1  24
ATOM     24  C   UNL A   1      34.296  31.642  27.775  1.00  0.00     0.188 C 
BRANCH  24  25
ATOM     25  O   UNL A   1      34.655  32.964  28.102  1.00  0.00    -0.376 OA
BRANCH  25  26
ATOM     26  C   UNL A   1      33.973  33.628  29.150  1.00  0.00     0.202 C 
BRANCH  26  27
ATOM     27  C   UNL A   1      34.442  33.615  30.619  1.00  0.00     0.261 C 
BRANCH  27  28
ATOM     28  O   UNL A   1      34.570  32.346  31.273  1.00  0.00    -0.460 OA
BRANCH  28  29
ATOM     29  C   UNL A   1      35.596  32.240  32.151  1.00  0.00     0.338 C 
ATOM     30  O   UNL A   1      35.604  32.589  33.327  1.00  0.00    -0.246 OA
BRANCH  29  31
ATOM     31  C   UNL A   1      36.687  31.464  31.530  1.00  0.00     0.060 A 
ATOM     32  C   UNL A   1      37.676  30.895  32.348  1.00  0.00     0.016 A 
ATOM     33  C   UNL A   1      36.760  31.336  30.143  1.00  0.00     0.016 A 
ATOM     34  C   UNL A   1      38.754  30.215  31.776  1.00  0.00     0.010 A 
ATOM     35  C   UNL A   1      37.855  30.680  29.571  1.00  0.00     0.010 A 
ATOM     36  C   UNL A   1      38.871  30.143  30.382  1.00  0.00    -0.014 A 
BRANCH  36  37
ATOM     37  C   UNL A   1      40.124  29.645  29.763  1.00  0.00     0.031 A 
ATOM     38  C   UNL A   1      41.294  30.576  29.641  1.00  0.00     0.074 A 
ATOM     39  C   UNL A   1      40.205  28.403  29.258  1.00  0.00     0.049 A 
ATOM     40  N   UNL A   1      42.458  30.372  29.079  1.00  0.00    -0.248 NA
ATOM     41  C   UNL A   1      41.108  31.930  30.182  1.00  0.00     0.031 C 
ATOM     42  C   UNL A   1      39.110  27.443  29.233  1.00  0.00     0.029 A 
ATOM     43  N   UNL A   1      41.248  27.746  28.649  1.00  0.00    -0.354 N 
ATOM     44  C   UNL A   1      43.125  31.588  29.150  1.00  0.00     0.074 A 
ATOM     45  C   UNL A   1      42.236  32.519  29.814  1.00  0.00     0.031 C 
ATOM     46  C   UNL A   1      39.543  26.311  28.654  1.00  0.00     0.029 A 
ATOM     47  C   UNL A   1      40.950  26.452  28.289  1.00  0.00     0.049 A 
ATOM     48  H   UNL A   1      42.126  28.162  28.486  1.00  0.00     0.167 HD
ATOM     49  C   UNL A   1      44.355  31.904  28.683  1.00  0.00     0.037 A 
ATOM     50  C   UNL A   1      41.729  25.499  27.741  1.00  0.00     0.037 A 
ATOM     51  C   UNL A   1      45.234  30.980  28.014  1.00  0.00     0.049 A 
ATOM     52  C   UNL A   1      43.131  25.855  27.308  1.00  0.00     0.074 A 
ATOM     53  C   UNL A   1      46.508  31.206  27.525  1.00  0.00     0.029 A 
ATOM     54  N   UNL A   1      44.927  29.658  27.732  1.00  0.00    -0.354 N 
ATOM     55  N   UNL A   1      43.773  26.991  27.428  1.00  0.00    -0.248 NA
ATOM     56  C   UNL A   1      43.901  24.804  26.624  1.00  0.00     0.031 C 
ATOM     57  C   UNL A   1      46.953  30.037  26.901  1.00  0.00     0.029 A 
ATOM     58  C   UNL A   1      45.982  29.061  27.059  1.00  0.00     0.049 A 
ATOM     59  H   UNL A   1      44.085  29.209  27.973  1.00  0.00     0.167 HD
ATOM     60  C   UNL A   1      45.013  26.795  26.829  1.00  0.00     0.074 A 
ATOM     61  C   UNL A   1      45.055  25.415  26.396  1.00  0.00     0.031 C 
ATOM     62  C   UNL A   1      46.015  27.685  26.632  1.00  0.00     0.037 A 
BRANCH  49  63
ATOM     63  C   UNL A   1      44.803  33.328  28.836  1.00  0.00     0.057 A 
ATOM     64  C   UNL A   1      45.563  33.755  29.933  1.00  0.00     0.134 A 
ATOM     65  C   UNL A   1      44.484  34.281  27.859  1.00  0.00     0.134 A 
ATOM     66  F   UNL A   1      45.886  32.896  30.911  1.00  0.00    -0.206 F 
ATOM     67  C   UNL A   1      45.969  35.084  30.063  1.00  0.00     0.040 A 
ATOM     68  C   UNL A   1      44.911  35.604  27.964  1.00  0.00     0.040 A 
ATOM     69  F   UNL A   1      43.761  33.937  26.782  1.00  0.00    -0.206 F 
ATOM     70  C   UNL A   1      45.649  36.011  29.074  1.00  0.00     0.006 A 
ENDBRANCH  49  63
BRANCH  50  71
ATOM     71  C   UNL A   1      41.240  24.100  27.585  1.00  0.00     0.057 A 
ATOM     72  C   UNL A   1      41.741  23.077  28.406  1.00  0.00     0.134 A 
ATOM     73  C   UNL A   1      40.305  23.734  26.613  1.00  0.00     0.134 A 
ATOM     74  F   UNL A   1      42.651  23.355  29.352  1.00  0.00    -0.206 F 
ATOM     75  C   UNL A   1      41.353  21.746  28.246  1.00  0.00     0.040 A 
ATOM     76  C   UNL A   1      39.874  22.413  26.470  1.00  0.00     0.040 A 
ATOM     77  F   UNL A   1      39.787  24.656  25.788  1.00  0.00    -0.206 F 
ATOM     78  C   UNL A   1      40.409  21.412  27.280  1.00  0.00     0.006 A 
ENDBRANCH  50  71
BRANCH  62  79
ATOM     79  C   UNL A   1      47.249  27.196  25.928  1.00  0.00     0.057 A 
ATOM     80  C   UNL A   1      47.415  27.327  24.542  1.00  0.00     0.134 A 
ATOM     81  C   UNL A   1      48.305  26.625  26.650  1.00  0.00     0.134 A 
ATOM     82  F   UNL A   1      46.439  27.856  23.788  1.00  0.00    -0.206 F 
ATOM     83  C   UNL A   1      48.573  26.887  23.899  1.00  0.00     0.040 A 
ATOM     84  C   UNL A   1      49.481  26.209  26.022  1.00  0.00     0.040 A 
ATOM     85  F   UNL A   1      48.220  26.477  27.981  1.00  0.00    -0.206 F 
ATOM     86  C   UNL A   1      49.614  26.332  24.641  1.00  0.00     0.006 A 
ENDBRANCH  62  79
ENDBRANCH  36  37
ENDBRANCH  29  31
ENDBRANCH  28  29
ENDBRANCH  27  28
ENDBRANCH  26  27
ENDBRANCH  25  26
ENDBRANCH  24  25
ENDBRANCH   1  24
TORSDOF 21
ENDMDL
MODEL 3
REMARK VINA RESULT:     -10.7      2.263      7.896
REMARK SMILES C[C@@H](C(=O)OCCOCCOCCOC(=O)c1ccc(-c2c3nc(c(-c4c(F)cccc4F)c4ccc([nH]4)c(-c4c(F)cccc4F)c4nc(c(-c5c(F)cccc5F)c5ccc2[nH]5)C=C4)C=C3)cc1)c1ccc(C[C@H]2CCC[C@H]2O)cc1
REMARK SMILES IDX 9 1 8 2 7 3 6 4 5 5 3 6 4 7 2 8 1 9 71 10 72 11 83 12 73 13
REMARK SMILES IDX 82 14 74 15 75 16 76 17 77 18 80 19 78 20 79 21 81 22 10 24
REMARK SMILES IDX 11 25 12 26 13 27 14 28 15 29 16 30 17 31 18 32 70 33 19 34
REMARK SMILES IDX 69 35 20 36 21 37 22 38 63 39 23 40 68 41 62 42 64 43 24 44
REMARK SMILES IDX 67 45 61 46 60 47 25 49 51 50 34 51 50 52 35 53 38 54 49 55
REMARK SMILES IDX 65 56 36 57 37 58 48 60 66 61 39 62 26 63 27 64 32 65 28 66
REMARK SMILES IDX 29 67 31 68 33 69 30 70 52 71 53 72 58 73 54 74 55 75 57 76
REMARK SMILES IDX 59 77 56 78 40 79 41 80 46 81 42 82 43 83 45 84 47 85 44 86
REMARK H PARENT 81 23 64 48 38 59
REMARK Flexibility Score: inf
ROOT
ATOM      1  C   UNL A   1      33.024  28.653  25.147  1.00  0.00     0.188 C 
ENDROOT
BRANCH   1   2
ATOM      2  O   UNL A   1      32.735  27.415  25.754  1.00  0.00    -0.376 OA
BRANCH   2   3
ATOM      3  C   UNL A   1      33.815  26.523  26.001  1.00  0.00     0.202 C 
BRANCH   3   4
ATOM      4  C   UNL A   1      34.084  25.258  25.155  1.00  0.00     0.261 C 
BRANCH   4   5
ATOM      5  O   UNL A   1      34.400  25.462  23.760  1.00  0.00    -0.463 OA
BRANCH   5   6
ATOM      6  C   UNL A   1      33.442  25.090  22.861  1.00  0.00     0.313 C 
ATOM      7  O   UNL A   1      33.642  25.029  21.651  1.00  0.00    -0.252 OA
BRANCH   6   8
ATOM      8  C   UNL A   1      32.090  24.674  23.481  1.00  0.00     0.126 C 
ATOM      9  C   UNL A   1      31.595  23.253  23.189  1.00  0.00     0.025 C 
BRANCH   8  10
ATOM     10  C   UNL A   1      30.977  25.707  23.284  1.00  0.00    -0.034 A 
ATOM     11  C   UNL A   1      31.184  26.893  22.576  1.00  0.00     0.005 A 
ATOM     12  C   UNL A   1      29.703  25.511  23.835  1.00  0.00     0.005 A 
ATOM     13  C   UNL A   1      30.197  27.862  22.449  1.00  0.00     0.004 A 
ATOM     14  C   UNL A   1      28.740  26.533  23.798  1.00  0.00     0.004 A 
ATOM     15  C   UNL A   1      29.016  27.752  23.167  1.00  0.00    -0.048 A 
BRANCH  15  16
ATOM     16  C   UNL A   1      28.148  28.973  23.345  1.00  0.00     0.041 C 
BRANCH  16  17
ATOM     17  C   UNL A   1      28.641  30.271  22.652  1.00  0.00     0.022 C 
ATOM     18  C   UNL A   1      28.211  30.452  21.185  1.00  0.00     0.007 C 
ATOM     19  C   UNL A   1      28.375  31.643  23.299  1.00  0.00     0.117 C 
ATOM     20  C   UNL A   1      28.062  31.959  20.954  1.00  0.00     0.003 C 
ATOM     21  C   UNL A   1      28.659  32.632  22.179  1.00  0.00     0.032 C 
BRANCH  19  22
ATOM     22  O   UNL A   1      27.061  31.876  23.766  1.00  0.00    -0.393 OA
ATOM     23  H   UNL A   1      26.559  32.359  23.090  1.00  0.00     0.210 HD
ENDBRANCH  19  22
ENDBRANCH  16  17
ENDBRANCH  15  16
ENDBRANCH   8  10
ENDBRANCH   6   8
ENDBRANCH   5   6
ENDBRANCH   4   5
ENDBRANCH   3   4
ENDBRANCH   2   3
ENDBRANCH   1   2
BRANCH   1  24
ATOM     24  C   UNL A   1      33.181  29.891  26.039  1.00  0.00     0.188 C 
BRANCH  24  25
ATOM     25  O   UNL A   1      32.091  30.379  26.785  1.00  0.00    -0.376 OA
BRANCH  25  26
ATOM     26  C   UNL A   1      31.383  31.512  26.318  1.00  0.00     0.202 C 
BRANCH  26  27
ATOM     27  C   UNL A   1      31.607  32.941  26.853  1.00  0.00     0.261 C 
BRANCH  27  28
ATOM     28  O   UNL A   1      32.942  33.460  26.848  1.00  0.00    -0.460 OA
BRANCH  28  29
ATOM     29  C   UNL A   1      33.408  33.890  28.045  1.00  0.00     0.338 C 
ATOM     30  O   UNL A   1      32.883  34.705  28.795  1.00  0.00    -0.246 OA
BRANCH  29  31
ATOM     31  C   UNL A   1      34.591  33.090  28.420  1.00  0.00     0.060 A 
ATOM     32  C   UNL A   1      34.416  31.768  28.856  1.00  0.00     0.016 A 
ATOM     33  C   UNL A   1      35.865  33.658  28.385  1.00  0.00     0.016 A 
ATOM     34  C   UNL A   1      35.514  31.017  29.280  1.00  0.00     0.010 A 
ATOM     35  C   UNL A   1      36.960  32.914  28.838  1.00  0.00     0.010 A 
ATOM     36  C   UNL A   1      36.787  31.603  29.314  1.00  0.00    -0.014 A 
BRANCH  36  37
ATOM     37  C   UNL A   1      37.910  30.907  29.988  1.00  0.00     0.031 A 
ATOM     38  C   UNL A   1      38.164  31.175  31.442  1.00  0.00     0.074 A 
ATOM     39  C   UNL A   1      38.737  30.096  29.306  1.00  0.00     0.049 A 
ATOM     40  N   UNL A   1      39.124  30.729  32.210  1.00  0.00    -0.248 NA
ATOM     41  C   UNL A   1      37.238  32.106  32.104  1.00  0.00     0.031 C 
ATOM     42  C   UNL A   1      38.649  29.833  27.876  1.00  0.00     0.029 A 
ATOM     43  N   UNL A   1      39.823  29.364  29.721  1.00  0.00    -0.354 N 
ATOM     44  C   UNL A   1      38.951  31.366  33.432  1.00  0.00     0.074 A 
ATOM     45  C   UNL A   1      37.792  32.224  33.301  1.00  0.00     0.031 C 
ATOM     46  C   UNL A   1      39.631  28.984  27.535  1.00  0.00     0.029 A 
ATOM     47  C   UNL A   1      40.403  28.621  28.720  1.00  0.00     0.049 A 
ATOM     48  H   UNL A   1      40.155  29.371  30.648  1.00  0.00     0.167 HD
ATOM     49  C   UNL A   1      39.706  31.263  34.551  1.00  0.00     0.037 A 
ATOM     50  C   UNL A   1      41.427  27.746  28.765  1.00  0.00     0.037 A 
ATOM     51  C   UNL A   1      40.864  30.417  34.677  1.00  0.00     0.049 A 
ATOM     52  C   UNL A   1      42.198  27.584  30.053  1.00  0.00     0.074 A 
ATOM     53  C   UNL A   1      41.678  30.232  35.780  1.00  0.00     0.029 A 
ATOM     54  N   UNL A   1      41.379  29.623  33.663  1.00  0.00    -0.354 N 
ATOM     55  N   UNL A   1      41.996  28.149  31.218  1.00  0.00    -0.248 NA
ATOM     56  C   UNL A   1      43.368  26.692  30.018  1.00  0.00     0.031 C 
ATOM     57  C   UNL A   1      42.716  29.366  35.421  1.00  0.00     0.029 A 
ATOM     58  C   UNL A   1      42.511  28.960  34.112  1.00  0.00     0.049 A 
ATOM     59  H   UNL A   1      40.998  29.542  32.760  1.00  0.00     0.167 HD
ATOM     60  C   UNL A   1      43.013  27.690  32.047  1.00  0.00     0.074 A 
ATOM     61  C   UNL A   1      43.800  26.757  31.269  1.00  0.00     0.031 C 
ATOM     62  C   UNL A   1      43.288  28.032  33.329  1.00  0.00     0.037 A 
BRANCH  49  63
ATOM     63  C   UNL A   1      39.327  32.128  35.717  1.00  0.00     0.057 A 
ATOM     64  C   UNL A   1      39.850  33.416  35.889  1.00  0.00     0.134 A 
ATOM     65  C   UNL A   1      38.408  31.669  36.670  1.00  0.00     0.134 A 
ATOM     66  F   UNL A   1      40.748  33.907  35.022  1.00  0.00    -0.206 F 
ATOM     67  C   UNL A   1      39.490  34.207  36.982  1.00  0.00     0.040 A 
ATOM     68  C   UNL A   1      38.018  32.463  37.748  1.00  0.00     0.040 A 
ATOM     69  F   UNL A   1      37.867  30.446  36.563  1.00  0.00    -0.206 F 
ATOM     70  C   UNL A   1      38.567  33.734  37.911  1.00  0.00     0.006 A 
ENDBRANCH  49  63
BRANCH  50  71
ATOM     71  C   UNL A   1      41.787  26.920  27.579  1.00  0.00     0.057 A 
ATOM     72  C   UNL A   1      41.285  25.615  27.443  1.00  0.00     0.134 A 
ATOM     73  C   UNL A   1      42.651  27.375  26.578  1.00  0.00     0.134 A 
ATOM     74  F   UNL A   1      40.461  25.109  28.373  1.00  0.00    -0.206 F 
ATOM     75  C   UNL A   1      41.652  24.791  26.379  1.00  0.00     0.040 A 
ATOM     76  C   UNL A   1      42.991  26.577  25.484  1.00  0.00     0.040 A 
ATOM     77  F   UNL A   1      43.174  28.608  26.644  1.00  0.00    -0.206 F 
ATOM     78  C   UNL A   1      42.502  25.275  25.389  1.00  0.00     0.006 A 
ENDBRANCH  50  71
BRANCH  62  79
ATOM     79  C   UNL A   1      44.479  27.386  33.980  1.00  0.00     0.057 A 
ATOM     80  C   UNL A   1      45.745  27.988  33.971  1.00  0.00     0.134 A 
ATOM     81  C   UNL A   1      44.350  26.169  34.661  1.00  0.00     0.134 A 
ATOM     82  F   UNL A   1      45.942  29.149  33.329  1.00  0.00    -0.206 F 
ATOM     83  C   UNL A   1      46.843  27.391  34.594  1.00  0.00     0.040 A 
ATOM     84  C   UNL A   1      45.433  25.578  35.313  1.00  0.00     0.040 A 
ATOM     85  F   UNL A   1      43.165  25.542  34.719  1.00  0.00    -0.206 F 
ATOM     86  C   UNL A   1      46.686  26.184  35.274  1.00  0.00     0.006 A 
ENDBRANCH  62  79
ENDBRANCH  36  37
ENDBRANCH  29  31
ENDBRANCH  28  29
ENDBRANCH  27  28
ENDBRANCH  26  27
ENDBRANCH  25  26
ENDBRANCH  24  25
ENDBRANCH   1  24
TORSDOF 21
ENDMDL
