MODEL 1
REMARK VINA RESULT:     -11.0      0.000      0.000
REMARK SMILES CC1(C)[C@H](C(=O)Nc2ccc(C(F)(F)F)nc2)[C@@H]1C(=O)OCCOCCOCCOC(=O)c1ccc(-c2c3nc(c(-c4c(F)cccc4F)c4ccc([nH]4)c(-c4c(F)cccc4F)c4nc(c(-c5c(F)cccc5F)c5ccc2[nH]5)C=C4)C=C3)cc1
REMARK SMILES IDX 25 1 24 2 23 3 22 4 21 5 19 6 20 7 18 8 1 9 2 10 3 11 4 12
REMARK SMILES IDX 5 13 6 14 7 15 8 17 9 18 17 19 10 20 16 21 11 22 12 23 13 24
REMARK SMILES IDX 14 25 15 26 26 27 27 28 28 29 29 30 30 31 31 32 32 33 33 34
REMARK SMILES IDX 34 35 86 36 35 37 85 38 36 39 37 40 38 41 79 42 39 43 84 44
REMARK SMILES IDX 78 45 80 46 40 47 83 48 77 49 76 50 41 52 67 53 50 54 66 55
REMARK SMILES IDX 51 56 54 57 65 58 81 59 52 60 53 61 64 63 82 64 55 65 42 66
REMARK SMILES IDX 43 67 48 68 44 69 45 70 47 71 49 72 46 73 68 74 69 75 74 76
REMARK SMILES IDX 70 77 71 78 73 79 75 80 72 81 56 82 57 83 62 84 58 85 59 86
REMARK SMILES IDX 61 87 63 88 60 89
REMARK H PARENT 7 16 80 51 54 62
REMARK Flexibility Score: inf
ROOT
ATOM      1  C   UNL A   1      40.790  20.808  27.239  1.00  0.00     0.188 C 
ENDROOT
BRANCH   1   2
ATOM      2  O   UNL A   1      40.218  21.512  26.151  1.00  0.00    -0.376 OA
BRANCH   2   3
ATOM      3  C   UNL A   1      38.896  21.213  25.736  1.00  0.00     0.202 C 
BRANCH   3   4
ATOM      4  C   UNL A   1      37.894  22.331  25.440  1.00  0.00     0.261 C 
BRANCH   4   5
ATOM      5  O   UNL A   1      36.904  22.098  24.426  1.00  0.00    -0.463 OA
BRANCH   5   6
ATOM      6  C   UNL A   1      35.717  21.592  24.853  1.00  0.00     0.310 C 
ATOM      7  O   UNL A   1      35.406  20.402  24.858  1.00  0.00    -0.252 OA
BRANCH   6   8
ATOM      8  C   UNL A   1      34.911  22.617  25.540  1.00  0.00     0.118 C 
ATOM      9  C   UNL A   1      32.782  23.141  26.909  1.00  0.00     0.013 C 
ATOM     10  C   UNL A   1      33.390  22.730  25.578  1.00  0.00    -0.009 C 
ATOM     11  C   UNL A   1      32.517  21.726  24.880  1.00  0.00     0.013 C 
ATOM     12  C   UNL A   1      34.252  23.782  24.871  1.00  0.00     0.100 C 
BRANCH  12  13
ATOM     13  C   UNL A   1      34.251  24.217  23.434  1.00  0.00     0.228 C 
ATOM     14  O   UNL A   1      35.074  23.674  22.698  1.00  0.00    -0.274 OA
ATOM     15  N   UNL A   1      33.179  24.856  22.852  1.00  0.00    -0.324 N 
ATOM     16  H   UNL A   1      32.695  24.344  22.164  1.00  0.00     0.169 HD
BRANCH  15  17
ATOM     17  C   UNL A   1      32.692  26.142  23.112  1.00  0.00     0.059 A 
ATOM     18  C   UNL A   1      33.448  27.278  22.897  1.00  0.00     0.030 A 
ATOM     19  C   UNL A   1      31.437  26.316  23.674  1.00  0.00     0.137 A 
ATOM     20  C   UNL A   1      33.098  28.467  23.533  1.00  0.00     0.035 A 
ATOM     21  N   UNL A   1      31.055  27.458  24.297  1.00  0.00    -0.250 NA
ATOM     22  C   UNL A   1      31.959  28.486  24.332  1.00  0.00     0.144 A 
BRANCH  22  23
ATOM     23  C   UNL A   1      31.813  29.583  25.384  1.00  0.00     0.433 C 
ATOM     24  F   UNL A   1      30.875  30.517  25.063  1.00  0.00    -0.165 F 
ATOM     25  F   UNL A   1      31.459  29.102  26.613  1.00  0.00    -0.165 F 
ATOM     26  F   UNL A   1      32.969  30.286  25.595  1.00  0.00    -0.165 F 
ENDBRANCH  22  23
ENDBRANCH  15  17
ENDBRANCH  12  13
ENDBRANCH   6   8
ENDBRANCH   5   6
ENDBRANCH   4   5
ENDBRANCH   3   4
ENDBRANCH   2   3
ENDBRANCH   1   2
BRANCH   1  27
ATOM     27  C   UNL A   1      41.893  19.760  26.984  1.00  0.00     0.188 C 
BRANCH  27  28
ATOM     28  O   UNL A   1      42.380  19.720  25.666  1.00  0.00    -0.376 OA
BRANCH  28  29
ATOM     29  C   UNL A   1      43.677  20.219  25.393  1.00  0.00     0.202 C 
BRANCH  29  30
ATOM     30  C   UNL A   1      44.159  21.662  25.678  1.00  0.00     0.261 C 
BRANCH  30  31
ATOM     31  O   UNL A   1      43.421  22.765  25.136  1.00  0.00    -0.460 OA
BRANCH  31  32
ATOM     32  C   UNL A   1      44.051  23.965  25.113  1.00  0.00     0.338 C 
ATOM     33  O   UNL A   1      44.961  24.302  24.376  1.00  0.00    -0.246 OA
BRANCH  32  34
ATOM     34  C   UNL A   1      43.318  24.914  25.982  1.00  0.00     0.060 A 
ATOM     35  C   UNL A   1      43.826  26.214  26.134  1.00  0.00     0.016 A 
ATOM     36  C   UNL A   1      42.148  24.535  26.643  1.00  0.00     0.016 A 
ATOM     37  C   UNL A   1      43.187  27.124  26.978  1.00  0.00     0.010 A 
ATOM     38  C   UNL A   1      41.525  25.441  27.512  1.00  0.00     0.010 A 
ATOM     39  C   UNL A   1      42.063  26.726  27.713  1.00  0.00    -0.014 A 
BRANCH  39  40
ATOM     40  C   UNL A   1      41.601  27.565  28.849  1.00  0.00     0.031 A 
ATOM     41  C   UNL A   1      42.348  27.465  30.154  1.00  0.00     0.074 A 
ATOM     42  C   UNL A   1      40.575  28.426  28.732  1.00  0.00     0.049 A 
ATOM     43  N   UNL A   1      42.128  28.073  31.292  1.00  0.00    -0.248 NA
ATOM     44  C   UNL A   1      43.501  26.548  30.175  1.00  0.00     0.031 C 
ATOM     45  C   UNL A   1      39.795  28.655  27.518  1.00  0.00     0.029 A 
ATOM     46  N   UNL A   1      40.009  29.267  29.660  1.00  0.00    -0.354 N 
ATOM     47  C   UNL A   1      43.108  27.611  32.162  1.00  0.00     0.074 A 
ATOM     48  C   UNL A   1      43.902  26.647  31.432  1.00  0.00     0.031 C 
ATOM     49  C   UNL A   1      38.842  29.568  27.780  1.00  0.00     0.029 A 
ATOM     50  C   UNL A   1      38.927  29.966  29.186  1.00  0.00     0.049 A 
ATOM     51  H   UNL A   1      40.349  29.358  30.580  1.00  0.00     0.167 HD
ATOM     52  C   UNL A   1      43.334  27.961  33.449  1.00  0.00     0.037 A 
ATOM     53  C   UNL A   1      38.091  30.814  29.819  1.00  0.00     0.037 A 
ATOM     54  C   UNL A   1      42.543  28.914  34.180  1.00  0.00     0.049 A 
ATOM     55  C   UNL A   1      38.317  31.132  31.276  1.00  0.00     0.074 A 
ATOM     56  C   UNL A   1      42.702  29.346  35.486  1.00  0.00     0.029 A 
ATOM     57  N   UNL A   1      41.437  29.578  33.672  1.00  0.00    -0.354 N 
ATOM     58  N   UNL A   1      39.262  30.711  32.082  1.00  0.00    -0.248 NA
ATOM     59  C   UNL A   1      37.359  32.052  31.910  1.00  0.00     0.031 C 
ATOM     60  C   UNL A   1      41.658  30.226  35.785  1.00  0.00     0.029 A 
ATOM     61  C   UNL A   1      40.887  30.395  34.647  1.00  0.00     0.049 A 
ATOM     62  H   UNL A   1      41.092  29.481  32.755  1.00  0.00     0.167 HD
ATOM     63  C   UNL A   1      39.036  31.341  33.301  1.00  0.00     0.074 A 
ATOM     64  C   UNL A   1      37.870  32.181  33.127  1.00  0.00     0.031 C 
ATOM     65  C   UNL A   1      39.733  31.238  34.459  1.00  0.00     0.037 A 
BRANCH  52  66
ATOM     66  C   UNL A   1      44.471  27.283  34.160  1.00  0.00     0.057 A 
ATOM     67  C   UNL A   1      45.757  27.838  34.201  1.00  0.00     0.134 A 
ATOM     68  C   UNL A   1      44.268  26.072  34.832  1.00  0.00     0.134 A 
ATOM     69  F   UNL A   1      46.024  28.988  33.564  1.00  0.00    -0.206 F 
ATOM     70  C   UNL A   1      46.807  27.199  34.865  1.00  0.00     0.040 A 
ATOM     71  C   UNL A   1      45.302  25.439  35.524  1.00  0.00     0.040 A 
ATOM     72  F   UNL A   1      43.061  25.487  34.835  1.00  0.00    -0.206 F 
ATOM     73  C   UNL A   1      46.578  25.999  35.536  1.00  0.00     0.006 A 
ENDBRANCH  52  66
BRANCH  53  74
ATOM     74  C   UNL A   1      36.949  31.422  29.088  1.00  0.00     0.057 A 
ATOM     75  C   UNL A   1      36.980  32.759  28.669  1.00  0.00     0.134 A 
ATOM     76  C   UNL A   1      35.782  30.695  28.823  1.00  0.00     0.134 A 
ATOM     77  F   UNL A   1      38.057  33.519  28.919  1.00  0.00    -0.206 F 
ATOM     78  C   UNL A   1      35.888  33.354  28.035  1.00  0.00     0.040 A 
ATOM     79  C   UNL A   1      34.695  31.268  28.163  1.00  0.00     0.040 A 
ATOM     80  F   UNL A   1      35.684  29.412  29.202  1.00  0.00    -0.206 F 
ATOM     81  C   UNL A   1      34.743  32.605  27.774  1.00  0.00     0.006 A 
ENDBRANCH  53  74
BRANCH  65  82
ATOM     82  C   UNL A   1      39.294  32.092  35.616  1.00  0.00     0.057 A 
ATOM     83  C   UNL A   1      39.726  33.414  35.775  1.00  0.00     0.134 A 
ATOM     84  C   UNL A   1      38.391  31.590  36.564  1.00  0.00     0.134 A 
ATOM     85  F   UNL A   1      40.597  33.954  34.910  1.00  0.00    -0.206 F 
ATOM     86  C   UNL A   1      39.299  34.197  36.851  1.00  0.00     0.040 A 
ATOM     87  C   UNL A   1      37.932  32.372  37.625  1.00  0.00     0.040 A 
ATOM     88  F   UNL A   1      37.926  30.335  36.466  1.00  0.00    -0.206 F 
ATOM     89  C   UNL A   1      38.394  33.678  37.776  1.00  0.00     0.006 A 
ENDBRANCH  65  82
ENDBRANCH  39  40
ENDBRANCH  32  34
ENDBRANCH  31  32
ENDBRANCH  30  31
ENDBRANCH  29  30
ENDBRANCH  28  29
ENDBRANCH  27  28
ENDBRANCH   1  27
TORSDOF 20
ENDMDL
MODEL 2
REMARK VINA RESULT:     -10.8      2.900      8.021
REMARK SMILES CC1(C)[C@H](C(=O)Nc2ccc(C(F)(F)F)nc2)[C@@H]1C(=O)OCCOCCOCCOC(=O)c1ccc(-c2c3nc(c(-c4c(F)cccc4F)c4ccc([nH]4)c(-c4c(F)cccc4F)c4nc(c(-c5c(F)cccc5F)c5ccc2[nH]5)C=C4)C=C3)cc1
REMARK SMILES IDX 25 1 24 2 23 3 22 4 21 5 19 6 20 7 18 8 1 9 2 10 3 11 4 12
REMARK SMILES IDX 5 13 6 14 7 15 8 17 9 18 17 19 10 20 16 21 11 22 12 23 13 24
REMARK SMILES IDX 14 25 15 26 26 27 27 28 28 29 29 30 30 31 31 32 32 33 33 34
REMARK SMILES IDX 34 35 86 36 35 37 85 38 36 39 37 40 38 41 79 42 39 43 84 44
REMARK SMILES IDX 78 45 80 46 40 47 83 48 77 49 76 50 41 52 67 53 50 54 66 55
REMARK SMILES IDX 51 56 54 57 65 58 81 59 52 60 53 61 64 63 82 64 55 65 42 66
REMARK SMILES IDX 43 67 48 68 44 69 45 70 47 71 49 72 46 73 68 74 69 75 74 76
REMARK SMILES IDX 70 77 71 78 73 79 75 80 72 81 56 82 57 83 62 84 58 85 59 86
REMARK SMILES IDX 61 87 63 88 60 89
REMARK H PARENT 7 16 80 51 54 62
REMARK Flexibility Score: inf
ROOT
ATOM      1  C   UNL A   1      34.503  29.353  27.639  1.00  0.00     0.188 C 
ENDROOT
BRANCH   1   2
ATOM      2  O   UNL A   1      34.746  28.540  26.505  1.00  0.00    -0.376 OA
BRANCH   2   3
ATOM      3  C   UNL A   1      33.663  27.897  25.855  1.00  0.00     0.202 C 
BRANCH   3   4
ATOM      4  C   UNL A   1      33.703  26.396  25.560  1.00  0.00     0.261 C 
BRANCH   4   5
ATOM      5  O   UNL A   1      33.628  25.975  24.189  1.00  0.00    -0.463 OA
BRANCH   5   6
ATOM      6  C   UNL A   1      34.310  24.843  23.872  1.00  0.00     0.310 C 
ATOM      7  O   UNL A   1      34.385  24.342  22.751  1.00  0.00    -0.252 OA
BRANCH   6   8
ATOM      8  C   UNL A   1      35.160  24.395  24.990  1.00  0.00     0.118 C 
ATOM      9  C   UNL A   1      37.519  23.681  25.767  1.00  0.00     0.013 C 
ATOM     10  C   UNL A   1      36.280  23.361  24.947  1.00  0.00    -0.009 C 
ATOM     11  C   UNL A   1      36.652  22.668  23.666  1.00  0.00     0.013 C 
ATOM     12  C   UNL A   1      34.990  23.109  25.736  1.00  0.00     0.100 C 
BRANCH  12  13
ATOM     13  C   UNL A   1      33.972  22.015  25.587  1.00  0.00     0.228 C 
ATOM     14  O   UNL A   1      34.412  20.880  25.409  1.00  0.00    -0.274 OA
ATOM     15  N   UNL A   1      32.670  22.149  26.014  1.00  0.00    -0.324 N 
ATOM     16  H   UNL A   1      32.408  21.588  26.779  1.00  0.00     0.169 HD
BRANCH  15  17
ATOM     17  C   UNL A   1      31.670  22.981  25.495  1.00  0.00     0.059 A 
ATOM     18  C   UNL A   1      31.333  22.986  24.155  1.00  0.00     0.030 A 
ATOM     19  C   UNL A   1      31.024  23.895  26.313  1.00  0.00     0.137 A 
ATOM     20  C   UNL A   1      30.652  24.078  23.623  1.00  0.00     0.035 A 
ATOM     21  N   UNL A   1      30.347  24.968  25.835  1.00  0.00    -0.250 NA
ATOM     22  C   UNL A   1      30.284  25.115  24.475  1.00  0.00     0.144 A 
BRANCH  22  23
ATOM     23  C   UNL A   1      29.978  26.487  23.880  1.00  0.00     0.433 C 
ATOM     24  F   UNL A   1      30.411  27.521  24.655  1.00  0.00    -0.165 F 
ATOM     25  F   UNL A   1      30.546  26.677  22.651  1.00  0.00    -0.165 F 
ATOM     26  F   UNL A   1      28.640  26.709  23.693  1.00  0.00    -0.165 F 
ENDBRANCH  22  23
ENDBRANCH  15  17
ENDBRANCH  12  13
ENDBRANCH   6   8
ENDBRANCH   5   6
ENDBRANCH   4   5
ENDBRANCH   3   4
ENDBRANCH   2   3
ENDBRANCH   1   2
BRANCH   1  27
ATOM     27  C   UNL A   1      33.767  30.700  27.477  1.00  0.00     0.188 C 
BRANCH  27  28
ATOM     28  O   UNL A   1      32.387  30.597  27.236  1.00  0.00    -0.376 OA
BRANCH  28  29
ATOM     29  C   UNL A   1      31.708  31.682  26.629  1.00  0.00     0.202 C 
BRANCH  29  30
ATOM     30  C   UNL A   1      31.788  33.158  27.089  1.00  0.00     0.261 C 
BRANCH  30  31
ATOM     31  O   UNL A   1      33.074  33.773  27.243  1.00  0.00    -0.460 OA
BRANCH  31  32
ATOM     32  C   UNL A   1      33.258  34.527  28.355  1.00  0.00     0.338 C 
ATOM     33  O   UNL A   1      32.530  35.410  28.771  1.00  0.00    -0.246 OA
BRANCH  32  34
ATOM     34  C   UNL A   1      34.384  33.968  29.138  1.00  0.00     0.060 A 
ATOM     35  C   UNL A   1      35.694  34.284  28.745  1.00  0.00     0.016 A 
ATOM     36  C   UNL A   1      34.160  33.143  30.242  1.00  0.00     0.016 A 
ATOM     37  C   UNL A   1      36.783  33.743  29.432  1.00  0.00     0.010 A 
ATOM     38  C   UNL A   1      35.254  32.579  30.910  1.00  0.00     0.010 A 
ATOM     39  C   UNL A   1      36.570  32.846  30.485  1.00  0.00    -0.014 A 
BRANCH  39  40
ATOM     40  C   UNL A   1      37.701  32.017  30.978  1.00  0.00     0.031 A 
ATOM     41  C   UNL A   1      38.209  32.268  32.374  1.00  0.00     0.074 A 
ATOM     42  C   UNL A   1      38.247  31.038  30.235  1.00  0.00     0.049 A 
ATOM     43  N   UNL A   1      39.191  31.696  33.021  1.00  0.00    -0.248 NA
ATOM     44  C   UNL A   1      37.509  33.312  33.142  1.00  0.00     0.031 C 
ATOM     45  C   UNL A   1      37.824  30.659  28.888  1.00  0.00     0.029 A 
ATOM     46  N   UNL A   1      39.286  30.184  30.514  1.00  0.00    -0.354 N 
ATOM     47  C   UNL A   1      39.232  32.312  34.266  1.00  0.00     0.074 A 
ATOM     48  C   UNL A   1      38.199  33.324  34.272  1.00  0.00     0.031 C 
ATOM     49  C   UNL A   1      38.608  29.656  28.453  1.00  0.00     0.029 A 
ATOM     50  C   UNL A   1      39.604  29.341  29.478  1.00  0.00     0.049 A 
ATOM     51  H   UNL A   1      39.760  30.179  31.378  1.00  0.00     0.167 HD
ATOM     52  C   UNL A   1      40.048  32.055  35.314  1.00  0.00     0.037 A 
ATOM     53  C   UNL A   1      40.595  28.434  29.365  1.00  0.00     0.037 A 
ATOM     54  C   UNL A   1      41.081  31.054  35.310  1.00  0.00     0.049 A 
ATOM     55  C   UNL A   1      41.542  28.217  30.519  1.00  0.00     0.074 A 
ATOM     56  C   UNL A   1      41.952  30.709  36.330  1.00  0.00     0.029 A 
ATOM     57  N   UNL A   1      41.390  30.242  34.230  1.00  0.00    -0.354 N 
ATOM     58  N   UNL A   1      41.554  28.786  31.701  1.00  0.00    -0.248 NA
ATOM     59  C   UNL A   1      42.611  27.225  30.323  1.00  0.00     0.031 C 
ATOM     60  C   UNL A   1      42.824  29.730  35.847  1.00  0.00     0.029 A 
ATOM     61  C   UNL A   1      42.455  29.416  34.549  1.00  0.00     0.049 A 
ATOM     62  H   UNL A   1      40.922  30.252  33.364  1.00  0.00     0.167 HD
ATOM     63  C   UNL A   1      42.602  28.195  32.400  1.00  0.00     0.074 A 
ATOM     64  C   UNL A   1      43.197  27.217  31.512  1.00  0.00     0.031 C 
ATOM     65  C   UNL A   1      43.031  28.436  33.663  1.00  0.00     0.037 A 
BRANCH  52  66
ATOM     66  C   UNL A   1      39.873  32.895  36.548  1.00  0.00     0.057 A 
ATOM     67  C   UNL A   1      40.658  34.030  36.790  1.00  0.00     0.134 A 
ATOM     68  C   UNL A   1      38.889  32.577  37.491  1.00  0.00     0.134 A 
ATOM     69  F   UNL A   1      41.630  34.381  35.934  1.00  0.00    -0.206 F 
ATOM     70  C   UNL A   1      40.487  34.804  37.940  1.00  0.00     0.040 A 
ATOM     71  C   UNL A   1      38.689  33.359  38.630  1.00  0.00     0.040 A 
ATOM     72  F   UNL A   1      38.100  31.505  37.320  1.00  0.00    -0.206 F 
ATOM     73  C   UNL A   1      39.494  34.473  38.860  1.00  0.00     0.006 A 
ENDBRANCH  52  66
BRANCH  53  74
ATOM     74  C   UNL A   1      40.760  27.661  28.106  1.00  0.00     0.057 A 
ATOM     75  C   UNL A   1      40.168  26.402  27.940  1.00  0.00     0.134 A 
ATOM     76  C   UNL A   1      41.546  28.144  27.052  1.00  0.00     0.134 A 
ATOM     77  F   UNL A   1      39.427  25.871  28.924  1.00  0.00    -0.206 F 
ATOM     78  C   UNL A   1      40.367  25.645  26.784  1.00  0.00     0.040 A 
ATOM     79  C   UNL A   1      41.730  27.411  25.879  1.00  0.00     0.040 A 
ATOM     80  F   UNL A   1      42.147  29.339  27.148  1.00  0.00    -0.206 F 
ATOM     81  C   UNL A   1      41.145  26.153  25.746  1.00  0.00     0.006 A 
ENDBRANCH  53  74
BRANCH  65  82
ATOM     82  C   UNL A   1      44.162  27.595  34.188  1.00  0.00     0.057 A 
ATOM     83  C   UNL A   1      43.952  26.342  34.773  1.00  0.00     0.134 A 
ATOM     84  C   UNL A   1      45.487  28.036  34.067  1.00  0.00     0.134 A 
ATOM     85  F   UNL A   1      42.709  25.863  34.929  1.00  0.00    -0.206 F 
ATOM     86  C   UNL A   1      45.016  25.569  35.247  1.00  0.00     0.040 A 
ATOM     87  C   UNL A   1      46.561  27.260  34.506  1.00  0.00     0.040 A 
ATOM     88  F   UNL A   1      45.764  29.223  33.504  1.00  0.00    -0.206 F 
ATOM     89  C   UNL A   1      46.326  26.025  35.107  1.00  0.00     0.006 A 
ENDBRANCH  65  82
ENDBRANCH  39  40
ENDBRANCH  32  34
ENDBRANCH  31  32
ENDBRANCH  30  31
ENDBRANCH  29  30
ENDBRANCH  28  29
ENDBRANCH  27  28
ENDBRANCH   1  27
TORSDOF 20
ENDMDL
MODEL 3
REMARK VINA RESULT:     -10.8      3.028      4.272
REMARK SMILES CC1(C)[C@H](C(=O)Nc2ccc(C(F)(F)F)nc2)[C@@H]1C(=O)OCCOCCOCCOC(=O)c1ccc(-c2c3nc(c(-c4c(F)cccc4F)c4ccc([nH]4)c(-c4c(F)cccc4F)c4nc(c(-c5c(F)cccc5F)c5ccc2[nH]5)C=C4)C=C3)cc1
REMARK SMILES IDX 25 1 24 2 23 3 22 4 21 5 19 6 20 7 18 8 1 9 2 10 3 11 4 12
REMARK SMILES IDX 5 13 6 14 7 15 8 17 9 18 17 19 10 20 16 21 11 22 12 23 13 24
REMARK SMILES IDX 14 25 15 26 26 27 27 28 28 29 29 30 30 31 31 32 32 33 33 34
REMARK SMILES IDX 34 35 86 36 35 37 85 38 36 39 37 40 38 41 79 42 39 43 84 44
REMARK SMILES IDX 78 45 80 46 40 47 83 48 77 49 76 50 41 52 67 53 50 54 66 55
REMARK SMILES IDX 51 56 54 57 65 58 81 59 52 60 53 61 64 63 82 64 55 65 42 66
REMARK SMILES IDX 43 67 48 68 44 69 45 70 47 71 49 72 46 73 68 74 69 75 74 76
REMARK SMILES IDX 70 77 71 78 73 79 75 80 72 81 56 82 57 83 62 84 58 85 59 86
REMARK SMILES IDX 61 87 63 88 60 89
REMARK H PARENT 7 16 80 51 54 62
REMARK Flexibility Score: inf
ROOT
ATOM      1  C   UNL A   1      38.473  21.216  25.346  1.00  0.00     0.188 C 
ENDROOT
BRANCH   1   2
ATOM      2  O   UNL A   1      37.607  22.191  24.793  1.00  0.00    -0.376 OA
BRANCH   2   3
ATOM      3  C   UNL A   1      36.462  22.606  25.515  1.00  0.00     0.202 C 
BRANCH   3   4
ATOM      4  C   UNL A   1      35.843  23.986  25.283  1.00  0.00     0.261 C 
BRANCH   4   5
ATOM      5  O   UNL A   1      34.718  24.366  26.090  1.00  0.00    -0.463 OA
BRANCH   5   6
ATOM      6  C   UNL A   1      33.942  25.369  25.600  1.00  0.00     0.310 C 
ATOM      7  O   UNL A   1      34.078  26.567  25.850  1.00  0.00    -0.252 OA
BRANCH   6   8
ATOM      8  C   UNL A   1      33.046  24.886  24.535  1.00  0.00     0.118 C 
ATOM      9  C   UNL A   1      30.928  25.327  23.119  1.00  0.00     0.013 C 
ATOM     10  C   UNL A   1      31.525  25.001  24.478  1.00  0.00    -0.009 C 
ATOM     11  C   UNL A   1      30.754  25.677  25.577  1.00  0.00     0.013 C 
ATOM     12  C   UNL A   1      32.220  23.640  24.606  1.00  0.00     0.100 C 
BRANCH  12  13
ATOM     13  C   UNL A   1      32.104  22.600  25.682  1.00  0.00     0.228 C 
ATOM     14  O   UNL A   1      31.953  23.016  26.831  1.00  0.00    -0.274 OA
ATOM     15  N   UNL A   1      31.778  21.289  25.417  1.00  0.00    -0.324 N 
ATOM     16  H   UNL A   1      30.899  20.989  25.745  1.00  0.00     0.169 HD
BRANCH  15  17
ATOM     17  C   UNL A   1      32.538  20.327  24.741  1.00  0.00     0.059 A 
ATOM     18  C   UNL A   1      32.063  19.653  23.632  1.00  0.00     0.030 A 
ATOM     19  C   UNL A   1      33.788  19.961  25.215  1.00  0.00     0.137 A 
ATOM     20  C   UNL A   1      32.659  18.454  23.250  1.00  0.00     0.035 A 
ATOM     21  N   UNL A   1      34.405  18.806  24.864  1.00  0.00    -0.250 NA
ATOM     22  C   UNL A   1      33.756  17.994  23.972  1.00  0.00     0.144 A 
BRANCH  22  23
ATOM     23  C   UNL A   1      34.125  16.515  23.894  1.00  0.00     0.433 C 
ATOM     24  F   UNL A   1      35.207  16.187  24.654  1.00  0.00    -0.165 F 
ATOM     25  F   UNL A   1      33.115  15.690  24.303  1.00  0.00    -0.165 F 
ATOM     26  F   UNL A   1      34.432  16.101  22.626  1.00  0.00    -0.165 F 
ENDBRANCH  22  23
ENDBRANCH  15  17
ENDBRANCH  12  13
ENDBRANCH   6   8
ENDBRANCH   5   6
ENDBRANCH   4   5
ENDBRANCH   3   4
ENDBRANCH   2   3
ENDBRANCH   1   2
BRANCH   1  27
ATOM     27  C   UNL A   1      39.741  21.655  26.108  1.00  0.00     0.188 C 
BRANCH  27  28
ATOM     28  O   UNL A   1      40.739  20.672  26.215  1.00  0.00    -0.376 OA
BRANCH  28  29
ATOM     29  C   UNL A   1      42.061  21.062  26.545  1.00  0.00     0.202 C 
BRANCH  29  30
ATOM     30  C   UNL A   1      43.115  21.589  25.542  1.00  0.00     0.261 C 
BRANCH  30  31
ATOM     31  O   UNL A   1      42.830  22.772  24.785  1.00  0.00    -0.460 OA
BRANCH  31  32
ATOM     32  C   UNL A   1      43.670  23.822  24.957  1.00  0.00     0.338 C 
ATOM     33  O   UNL A   1      44.716  24.028  24.368  1.00  0.00    -0.246 OA
BRANCH  32  34
ATOM     34  C   UNL A   1      43.018  24.827  25.827  1.00  0.00     0.060 A 
ATOM     35  C   UNL A   1      43.694  26.029  26.086  1.00  0.00     0.016 A 
ATOM     36  C   UNL A   1      41.759  24.594  26.386  1.00  0.00     0.016 A 
ATOM     37  C   UNL A   1      43.132  26.984  26.935  1.00  0.00     0.010 A 
ATOM     38  C   UNL A   1      41.211  25.541  27.261  1.00  0.00     0.010 A 
ATOM     39  C   UNL A   1      41.911  26.722  27.569  1.00  0.00    -0.014 A 
BRANCH  39  40
ATOM     40  C   UNL A   1      41.491  27.566  28.718  1.00  0.00     0.031 A 
ATOM     41  C   UNL A   1      42.266  27.450  30.005  1.00  0.00     0.074 A 
ATOM     42  C   UNL A   1      40.477  28.445  28.627  1.00  0.00     0.049 A 
ATOM     43  N   UNL A   1      42.084  28.060  31.148  1.00  0.00    -0.248 NA
ATOM     44  C   UNL A   1      43.403  26.514  29.997  1.00  0.00     0.031 C 
ATOM     45  C   UNL A   1      39.673  28.690  27.432  1.00  0.00     0.029 A 
ATOM     46  N   UNL A   1      39.948  29.294  29.569  1.00  0.00    -0.354 N 
ATOM     47  C   UNL A   1      43.076  27.579  31.994  1.00  0.00     0.074 A 
ATOM     48  C   UNL A   1      43.835  26.602  31.245  1.00  0.00     0.031 C 
ATOM     49  C   UNL A   1      38.742  29.620  27.718  1.00  0.00     0.029 A 
ATOM     50  C   UNL A   1      38.867  30.013  29.121  1.00  0.00     0.049 A 
ATOM     51  H   UNL A   1      40.311  29.377  30.481  1.00  0.00     0.167 HD
ATOM     52  C   UNL A   1      43.338  27.922  33.276  1.00  0.00     0.037 A 
ATOM     53  C   UNL A   1      38.062  30.875  29.776  1.00  0.00     0.037 A 
ATOM     54  C   UNL A   1      42.581  28.888  34.028  1.00  0.00     0.049 A 
ATOM     55  C   UNL A   1      38.328  31.186  31.228  1.00  0.00     0.074 A 
ATOM     56  C   UNL A   1      42.778  29.313  35.330  1.00  0.00     0.029 A 
ATOM     57  N   UNL A   1      41.475  29.571  33.547  1.00  0.00    -0.354 N 
ATOM     58  N   UNL A   1      39.284  30.746  32.010  1.00  0.00    -0.248 NA
ATOM     59  C   UNL A   1      37.401  32.121  31.886  1.00  0.00     0.031 C 
ATOM     60  C   UNL A   1      41.757  30.211  35.656  1.00  0.00     0.029 A 
ATOM     61  C   UNL A   1      40.963  30.396  34.536  1.00  0.00     0.049 A 
ATOM     62  H   UNL A   1      41.107  29.483  32.638  1.00  0.00     0.167 HD
ATOM     63  C   UNL A   1      39.098  31.378  33.236  1.00  0.00     0.074 A 
ATOM     64  C   UNL A   1      37.943  32.238  33.090  1.00  0.00     0.031 C 
ATOM     65  C   UNL A   1      39.820  31.260  34.376  1.00  0.00     0.037 A 
BRANCH  52  66
ATOM     66  C   UNL A   1      44.479  27.223  33.959  1.00  0.00     0.057 A 
ATOM     67  C   UNL A   1      45.784  27.732  33.932  1.00  0.00     0.134 A 
ATOM     68  C   UNL A   1      44.262  26.038  34.673  1.00  0.00     0.134 A 
ATOM     69  F   UNL A   1      46.064  28.854  33.252  1.00  0.00    -0.206 F 
ATOM     70  C   UNL A   1      46.838  27.073  34.570  1.00  0.00     0.040 A 
ATOM     71  C   UNL A   1      45.302  25.387  35.339  1.00  0.00     0.040 A 
ATOM     72  F   UNL A   1      43.037  25.498  34.742  1.00  0.00    -0.206 F 
ATOM     73  C   UNL A   1      46.596  25.901  35.283  1.00  0.00     0.006 A 
ENDBRANCH  52  66
BRANCH  53  74
ATOM     74  C   UNL A   1      36.914  31.505  29.073  1.00  0.00     0.057 A 
ATOM     75  C   UNL A   1      36.963  32.839  28.647  1.00  0.00     0.134 A 
ATOM     76  C   UNL A   1      35.725  30.801  28.844  1.00  0.00     0.134 A 
ATOM     77  F   UNL A   1      38.063  33.575  28.863  1.00  0.00    -0.206 F 
ATOM     78  C   UNL A   1      35.867  33.454  28.039  1.00  0.00     0.040 A 
ATOM     79  C   UNL A   1      34.632  31.395  28.211  1.00  0.00     0.040 A 
ATOM     80  F   UNL A   1      35.609  29.523  29.232  1.00  0.00    -0.206 F 
ATOM     81  C   UNL A   1      34.699  32.729  27.813  1.00  0.00     0.006 A 
ENDBRANCH  53  74
BRANCH  65  82
ATOM     82  C   UNL A   1      39.424  32.119  35.545  1.00  0.00     0.057 A 
ATOM     83  C   UNL A   1      38.511  31.687  36.514  1.00  0.00     0.134 A 
ATOM     84  C   UNL A   1      39.999  33.386  35.720  1.00  0.00     0.134 A 
ATOM     85  F   UNL A   1      37.916  30.490  36.403  1.00  0.00    -0.206 F 
ATOM     86  C   UNL A   1      38.161  32.495  37.600  1.00  0.00     0.040 A 
ATOM     87  C   UNL A   1      39.683  34.189  36.817  1.00  0.00     0.040 A 
ATOM     88  F   UNL A   1      40.892  33.858  34.837  1.00  0.00    -0.206 F 
ATOM     89  C   UNL A   1      38.753  33.747  37.757  1.00  0.00     0.006 A 
ENDBRANCH  65  82
ENDBRANCH  39  40
ENDBRANCH  32  34
ENDBRANCH  31  32
ENDBRANCH  30  31
ENDBRANCH  29  30
ENDBRANCH  28  29
ENDBRANCH  27  28
ENDBRANCH   1  27
TORSDOF 20
ENDMDL
