MODEL 1
REMARK VINA RESULT:     -10.4      0.000      0.000
REMARK SMILES Cc1nn(C)c(C)c1CCC(=O)Nc1sccc1C(=O)OCCOCCOCCOC(=O)c1ccc(-c2c3nc(c(-c4c(F)cccc4F)c4ccc([nH]4)c(-c4c(F)cccc4F)c4nc(c(-c5c(F)cccc5F)c5ccc2[nH]5)C=C4)C=C3)cc1
REMARK SMILES IDX 25 1 24 2 23 3 22 4 21 5 19 6 20 7 18 8 14 9 15 10 16 11
REMARK SMILES IDX 17 12 13 13 11 14 12 15 10 17 9 18 8 19 1 20 2 21 3 22 4 23
REMARK SMILES IDX 6 24 5 25 7 26 26 27 27 28 28 29 29 30 30 31 31 32 32 33
REMARK SMILES IDX 33 34 34 35 86 36 35 37 85 38 36 39 37 40 38 41 79 42 39 43
REMARK SMILES IDX 84 44 78 45 80 46 40 47 83 48 77 49 76 50 41 52 67 53 50 54
REMARK SMILES IDX 66 55 51 56 54 57 65 58 81 59 52 60 53 61 64 63 82 64 55 65
REMARK SMILES IDX 42 66 43 67 48 68 44 69 45 70 47 71 49 72 46 73 68 74 69 75
REMARK SMILES IDX 74 76 70 77 71 78 73 79 75 80 72 81 56 82 57 83 62 84 58 85
REMARK SMILES IDX 59 86 61 87 63 88 60 89
REMARK H PARENT 13 16 80 51 54 62
REMARK Flexibility Score: inf
ROOT
ATOM      1  C   UNL A   1      34.836  33.702  28.210  1.00  0.00     0.188 C 
ENDROOT
BRANCH   1   2
ATOM      2  O   UNL A   1      35.822  32.677  28.296  1.00  0.00    -0.376 OA
BRANCH   2   3
ATOM      3  C   UNL A   1      35.361  31.348  28.216  1.00  0.00     0.202 C 
BRANCH   3   4
ATOM      4  C   UNL A   1      33.976  31.267  27.590  1.00  0.00     0.261 C 
BRANCH   4   5
ATOM      5  O   UNL A   1      33.798  30.398  26.449  1.00  0.00    -0.460 OA
BRANCH   5   6
ATOM      6  C   UNL A   1      32.852  29.124  26.566  1.00  0.00     0.341 C 
ATOM      7  O   UNL A   1      33.288  28.595  27.656  1.00  0.00    -0.246 OA
BRANCH   6   8
ATOM      8  C   UNL A   1      31.408  28.489  25.088  1.00  0.00     0.094 A 
ATOM      9  C   UNL A   1      30.698  27.170  24.742  1.00  0.00     0.110 A 
ATOM     10  S   UNL A   1      30.114  27.030  23.128  1.00  0.00    -0.126 S 
ATOM     11  C   UNL A   1      30.056  28.677  22.864  1.00  0.00     0.068 A 
ATOM     12  C   UNL A   1      30.633  29.367  23.891  1.00  0.00     0.029 A 
BRANCH   9  13
ATOM     13  N   UNL A   1      30.542  25.879  25.265  1.00  0.00    -0.317 N 
ATOM     14  C   UNL A   1      31.327  24.763  25.248  1.00  0.00     0.225 C 
ATOM     15  O   UNL A   1      30.793  23.656  25.363  1.00  0.00    -0.275 OA
ATOM     16  H   UNL A   1      29.691  25.751  25.744  1.00  0.00     0.170 HD
BRANCH  14  17
ATOM     17  C   UNL A   1      32.830  24.889  25.283  1.00  0.00     0.105 C 
BRANCH  17  18
ATOM     18  C   UNL A   1      33.520  24.324  24.079  1.00  0.00     0.049 C 
BRANCH  18  19
ATOM     19  C   UNL A   1      34.161  23.040  24.409  1.00  0.00    -0.004 A 
ATOM     20  C   UNL A   1      36.690  23.823  26.105  1.00  0.00     0.069 C 
ATOM     21  C   UNL A   1      35.876  22.823  25.367  1.00  0.00     0.063 A 
ATOM     22  N   UNL A   1      36.076  21.098  25.716  1.00  0.00    -0.178 NA
ATOM     23  N   UNL A   1      34.636  20.165  25.000  1.00  0.00    -0.272 N 
ATOM     24  C   UNL A   1      33.455  21.332  24.194  1.00  0.00     0.038 A 
ATOM     25  C   UNL A   1      34.734  18.766  24.627  1.00  0.00     0.174 C 
ATOM     26  C   UNL A   1      32.152  20.788  23.685  1.00  0.00     0.066 C 
ENDBRANCH  18  19
ENDBRANCH  17  18
ENDBRANCH  14  17
ENDBRANCH   9  13
ENDBRANCH   6   8
ENDBRANCH   5   6
ENDBRANCH   4   5
ENDBRANCH   3   4
ENDBRANCH   2   3
ENDBRANCH   1   2
BRANCH   1  27
ATOM     27  C   UNL A   1      34.268  34.350  29.489  1.00  0.00     0.188 C 
BRANCH  27  28
ATOM     28  O   UNL A   1      34.063  33.524  30.608  1.00  0.00    -0.376 OA
BRANCH  28  29
ATOM     29  C   UNL A   1      34.221  34.050  31.908  1.00  0.00     0.202 C 
BRANCH  29  30
ATOM     30  C   UNL A   1      35.292  33.605  32.937  1.00  0.00     0.261 C 
BRANCH  30  31
ATOM     31  O   UNL A   1      35.737  32.236  32.964  1.00  0.00    -0.460 OA
BRANCH  31  32
ATOM     32  C   UNL A   1      36.900  31.949  33.606  1.00  0.00     0.338 C 
ATOM     33  O   UNL A   1      37.076  31.955  34.812  1.00  0.00    -0.246 OA
BRANCH  32  34
ATOM     34  C   UNL A   1      37.846  31.325  32.631  1.00  0.00     0.060 A 
ATOM     35  C   UNL A   1      38.977  30.647  33.123  1.00  0.00     0.016 A 
ATOM     36  C   UNL A   1      37.621  31.358  31.255  1.00  0.00     0.016 A 
ATOM     37  C   UNL A   1      39.896  30.039  32.258  1.00  0.00     0.010 A 
ATOM     38  C   UNL A   1      38.567  30.791  30.384  1.00  0.00     0.010 A 
ATOM     39  C   UNL A   1      39.731  30.163  30.875  1.00  0.00    -0.014 A 
BRANCH  39  40
ATOM     40  C   UNL A   1      40.878  29.905  29.955  1.00  0.00     0.031 A 
ATOM     41  C   UNL A   1      40.996  28.519  29.367  1.00  0.00     0.074 A 
ATOM     42  C   UNL A   1      41.788  30.839  29.617  1.00  0.00     0.049 A 
ATOM     43  N   UNL A   1      41.964  27.980  28.669  1.00  0.00    -0.248 NA
ATOM     44  C   UNL A   1      39.857  27.617  29.608  1.00  0.00     0.031 C 
ATOM     45  C   UNL A   1      41.762  32.243  30.017  1.00  0.00     0.029 A 
ATOM     46  N   UNL A   1      42.934  30.727  28.858  1.00  0.00    -0.354 N 
ATOM     47  C   UNL A   1      41.559  26.676  28.407  1.00  0.00     0.074 A 
ATOM     48  C   UNL A   1      40.274  26.494  29.044  1.00  0.00     0.031 C 
ATOM     49  C   UNL A   1      42.857  32.856  29.527  1.00  0.00     0.029 A 
ATOM     50  C   UNL A   1      43.682  31.880  28.812  1.00  0.00     0.049 A 
ATOM     51  H   UNL A   1      43.192  29.898  28.394  1.00  0.00     0.167 HD
ATOM     52  C   UNL A   1      42.192  25.714  27.695  1.00  0.00     0.037 A 
ATOM     53  C   UNL A   1      44.903  32.109  28.284  1.00  0.00     0.037 A 
ATOM     54  C   UNL A   1      43.470  25.884  27.057  1.00  0.00     0.049 A 
ATOM     55  C   UNL A   1      45.649  30.984  27.601  1.00  0.00     0.074 A 
ATOM     56  C   UNL A   1      44.197  24.960  26.327  1.00  0.00     0.029 A 
ATOM     57  N   UNL A   1      44.212  27.054  27.077  1.00  0.00    -0.354 N 
ATOM     58  N   UNL A   1      45.268  29.751  27.368  1.00  0.00    -0.248 NA
ATOM     59  C   UNL A   1      47.003  31.286  27.107  1.00  0.00     0.031 C 
ATOM     60  C   UNL A   1      45.406  25.553  25.952  1.00  0.00     0.029 A 
ATOM     61  C   UNL A   1      45.401  26.867  26.390  1.00  0.00     0.049 A 
ATOM     62  H   UNL A   1      43.937  27.892  27.513  1.00  0.00     0.167 HD
ATOM     63  C   UNL A   1      46.310  29.150  26.667  1.00  0.00     0.074 A 
ATOM     64  C   UNL A   1      47.335  30.155  26.499  1.00  0.00     0.031 C 
ATOM     65  C   UNL A   1      46.408  27.880  26.203  1.00  0.00     0.037 A 
BRANCH  52  66
ATOM     66  C   UNL A   1      41.522  24.374  27.593  1.00  0.00     0.057 A 
ATOM     67  C   UNL A   1      40.468  24.136  26.700  1.00  0.00     0.134 A 
ATOM     68  C   UNL A   1      41.961  23.297  28.373  1.00  0.00     0.134 A 
ATOM     69  F   UNL A   1      39.988  25.129  25.934  1.00  0.00    -0.206 F 
ATOM     70  C   UNL A   1      39.862  22.883  26.604  1.00  0.00     0.040 A 
ATOM     71  C   UNL A   1      41.383  22.031  28.263  1.00  0.00     0.040 A 
ATOM     72  F   UNL A   1      42.969  23.452  29.246  1.00  0.00    -0.206 F 
ATOM     73  C   UNL A   1      40.326  21.823  27.380  1.00  0.00     0.006 A 
ENDBRANCH  52  66
BRANCH  53  74
ATOM     74  C   UNL A   1      45.547  33.449  28.400  1.00  0.00     0.057 A 
ATOM     75  C   UNL A   1      45.403  34.416  27.396  1.00  0.00     0.134 A 
ATOM     76  C   UNL A   1      46.391  33.764  29.472  1.00  0.00     0.134 A 
ATOM     77  F   UNL A   1      44.640  34.165  26.322  1.00  0.00    -0.206 F 
ATOM     78  C   UNL A   1      46.097  35.628  27.438  1.00  0.00     0.040 A 
ATOM     79  C   UNL A   1      47.064  34.987  29.543  1.00  0.00     0.040 A 
ATOM     80  F   UNL A   1      46.588  32.882  30.463  1.00  0.00    -0.206 F 
ATOM     81  C   UNL A   1      46.928  35.919  28.517  1.00  0.00     0.006 A 
ENDBRANCH  53  74
BRANCH  65  82
ATOM     82  C   UNL A   1      47.634  27.514  25.411  1.00  0.00     0.057 A 
ATOM     83  C   UNL A   1      48.771  26.953  26.005  1.00  0.00     0.134 A 
ATOM     84  C   UNL A   1      47.655  27.683  24.019  1.00  0.00     0.134 A 
ATOM     85  F   UNL A   1      48.823  26.769  27.334  1.00  0.00    -0.206 F 
ATOM     86  C   UNL A   1      49.893  26.601  25.252  1.00  0.00     0.040 A 
ATOM     87  C   UNL A   1      48.757  27.303  23.250  1.00  0.00     0.040 A 
ATOM     88  F   UNL A   1      46.596  28.200  23.378  1.00  0.00    -0.206 F 
ATOM     89  C   UNL A   1      49.884  26.769  23.868  1.00  0.00     0.006 A 
ENDBRANCH  65  82
ENDBRANCH  39  40
ENDBRANCH  32  34
ENDBRANCH  31  32
ENDBRANCH  30  31
ENDBRANCH  29  30
ENDBRANCH  28  29
ENDBRANCH  27  28
ENDBRANCH   1  27
TORSDOF 21
ENDMDL
MODEL 2
REMARK VINA RESULT:     -10.3      4.776     10.261
REMARK SMILES Cc1nn(C)c(C)c1CCC(=O)Nc1sccc1C(=O)OCCOCCOCCOC(=O)c1ccc(-c2c3nc(c(-c4c(F)cccc4F)c4ccc([nH]4)c(-c4c(F)cccc4F)c4nc(c(-c5c(F)cccc5F)c5ccc2[nH]5)C=C4)C=C3)cc1
REMARK SMILES IDX 25 1 24 2 23 3 22 4 21 5 19 6 20 7 18 8 14 9 15 10 16 11
REMARK SMILES IDX 17 12 13 13 11 14 12 15 10 17 9 18 8 19 1 20 2 21 3 22 4 23
REMARK SMILES IDX 6 24 5 25 7 26 26 27 27 28 28 29 29 30 30 31 31 32 32 33
REMARK SMILES IDX 33 34 34 35 86 36 35 37 85 38 36 39 37 40 38 41 79 42 39 43
REMARK SMILES IDX 84 44 78 45 80 46 40 47 83 48 77 49 76 50 41 52 67 53 50 54
REMARK SMILES IDX 66 55 51 56 54 57 65 58 81 59 52 60 53 61 64 63 82 64 55 65
REMARK SMILES IDX 42 66 43 67 48 68 44 69 45 70 47 71 49 72 46 73 68 74 69 75
REMARK SMILES IDX 74 76 70 77 71 78 73 79 75 80 72 81 56 82 57 83 62 84 58 85
REMARK SMILES IDX 59 86 61 87 63 88 60 89
REMARK H PARENT 13 16 80 51 54 62
REMARK Flexibility Score: inf
ROOT
ATOM      1  C   UNL A   1      40.545  20.781  26.167  1.00  0.00     0.188 C 
ENDROOT
BRANCH   1   2
ATOM      2  O   UNL A   1      40.622  22.203  26.215  1.00  0.00    -0.376 OA
BRANCH   2   3
ATOM      3  C   UNL A   1      39.430  22.891  26.516  1.00  0.00     0.202 C 
BRANCH   3   4
ATOM      4  C   UNL A   1      38.201  22.127  26.041  1.00  0.00     0.261 C 
BRANCH   4   5
ATOM      5  O   UNL A   1      37.452  22.671  24.932  1.00  0.00    -0.460 OA
BRANCH   5   6
ATOM      6  C   UNL A   1      35.861  22.672  24.978  1.00  0.00     0.341 C 
ATOM      7  O   UNL A   1      35.623  23.911  25.234  1.00  0.00    -0.246 OA
BRANCH   6   8
ATOM      8  C   UNL A   1      34.598  20.922  24.833  1.00  0.00     0.094 A 
ATOM      9  C   UNL A   1      33.095  20.638  24.985  1.00  0.00     0.110 A 
ATOM     10  S   UNL A   1      32.672  19.014  25.372  1.00  0.00    -0.126 S 
ATOM     11  C   UNL A   1      34.093  18.363  24.788  1.00  0.00     0.068 A 
ATOM     12  C   UNL A   1      34.990  19.338  24.458  1.00  0.00     0.029 A 
BRANCH   9  13
ATOM     13  N   UNL A   1      31.891  21.340  25.133  1.00  0.00    -0.317 N 
ATOM     14  C   UNL A   1      31.478  22.315  25.994  1.00  0.00     0.225 C 
ATOM     15  O   UNL A   1      30.271  22.436  26.223  1.00  0.00    -0.275 OA
ATOM     16  H   UNL A   1      31.201  21.076  24.481  1.00  0.00     0.170 HD
BRANCH  14  17
ATOM     17  C   UNL A   1      32.456  23.344  26.504  1.00  0.00     0.105 C 
BRANCH  17  18
ATOM     18  C   UNL A   1      31.887  24.726  26.619  1.00  0.00     0.049 C 
BRANCH  18  19
ATOM     19  C   UNL A   1      32.225  25.522  25.428  1.00  0.00    -0.004 A 
ATOM     20  C   UNL A   1      30.404  24.354  23.146  1.00  0.00     0.069 C 
ATOM     21  C   UNL A   1      31.517  25.223  23.606  1.00  0.00     0.063 A 
ATOM     22  N   UNL A   1      32.043  26.583  22.601  1.00  0.00    -0.178 NA
ATOM     23  N   UNL A   1      33.095  27.722  23.627  1.00  0.00    -0.272 N 
ATOM     24  C   UNL A   1      33.222  27.091  25.357  1.00  0.00     0.038 A 
ATOM     25  C   UNL A   1      34.096  28.589  23.033  1.00  0.00     0.174 C 
ATOM     26  C   UNL A   1      33.908  27.949  26.380  1.00  0.00     0.066 C 
ENDBRANCH  18  19
ENDBRANCH  17  18
ENDBRANCH  14  17
ENDBRANCH   9  13
ENDBRANCH   6   8
ENDBRANCH   5   6
ENDBRANCH   4   5
ENDBRANCH   3   4
ENDBRANCH   2   3
ENDBRANCH   1   2
BRANCH   1  27
ATOM     27  C   UNL A   1      41.831  19.930  26.148  1.00  0.00     0.188 C 
BRANCH  27  28
ATOM     28  O   UNL A   1      43.052  20.579  26.402  1.00  0.00    -0.376 OA
BRANCH  28  29
ATOM     29  C   UNL A   1      43.872  20.980  25.326  1.00  0.00     0.202 C 
BRANCH  29  30
ATOM     30  C   UNL A   1      44.572  22.357  25.189  1.00  0.00     0.261 C 
BRANCH  30  31
ATOM     31  O   UNL A   1      43.789  23.566  25.208  1.00  0.00    -0.460 OA
BRANCH  31  32
ATOM     32  C   UNL A   1      44.432  24.747  25.399  1.00  0.00     0.338 C 
ATOM     33  O   UNL A   1      45.329  25.197  24.708  1.00  0.00    -0.246 OA
BRANCH  32  34
ATOM     34  C   UNL A   1      43.667  25.554  26.400  1.00  0.00     0.060 A 
ATOM     35  C   UNL A   1      44.086  26.870  26.670  1.00  0.00     0.016 A 
ATOM     36  C   UNL A   1      42.532  25.058  27.039  1.00  0.00     0.016 A 
ATOM     37  C   UNL A   1      43.406  27.675  27.594  1.00  0.00     0.010 A 
ATOM     38  C   UNL A   1      41.878  25.847  28.002  1.00  0.00     0.010 A 
ATOM     39  C   UNL A   1      42.333  27.146  28.316  1.00  0.00    -0.014 A 
BRANCH  39  40
ATOM     40  C   UNL A   1      41.871  27.808  29.571  1.00  0.00     0.031 A 
ATOM     41  C   UNL A   1      40.645  28.686  29.480  1.00  0.00     0.074 A 
ATOM     42  C   UNL A   1      42.475  27.650  30.765  1.00  0.00     0.049 A 
ATOM     43  N   UNL A   1      40.121  29.494  30.367  1.00  0.00    -0.248 NA
ATOM     44  C   UNL A   1      39.916  28.645  28.201  1.00  0.00     0.031 C 
ATOM     45  C   UNL A   1      43.603  26.766  31.041  1.00  0.00     0.029 A 
ATOM     46  N   UNL A   1      42.219  28.257  31.976  1.00  0.00    -0.354 N 
ATOM     47  C   UNL A   1      39.015  30.067  29.747  1.00  0.00     0.074 A 
ATOM     48  C   UNL A   1      38.962  29.540  28.402  1.00  0.00     0.031 C 
ATOM     49  C   UNL A   1      43.962  26.909  32.332  1.00  0.00     0.029 A 
ATOM     50  C   UNL A   1      43.117  27.924  32.963  1.00  0.00     0.049 A 
ATOM     51  H   UNL A   1      41.464  28.872  32.119  1.00  0.00     0.167 HD
ATOM     52  C   UNL A   1      38.118  30.948  30.249  1.00  0.00     0.037 A 
ATOM     53  C   UNL A   1      43.258  28.408  34.215  1.00  0.00     0.037 A 
ATOM     54  C   UNL A   1      38.162  31.478  31.586  1.00  0.00     0.049 A 
ATOM     55  C   UNL A   1      42.320  29.485  34.715  1.00  0.00     0.074 A 
ATOM     56  C   UNL A   1      37.305  32.389  32.179  1.00  0.00     0.029 A 
ATOM     57  N   UNL A   1      39.116  31.149  32.535  1.00  0.00    -0.354 N 
ATOM     58  N   UNL A   1      41.288  30.033  34.121  1.00  0.00    -0.248 NA
ATOM     59  C   UNL A   1      42.573  30.014  36.065  1.00  0.00     0.031 C 
ATOM     60  C   UNL A   1      37.773  32.654  33.470  1.00  0.00     0.029 A 
ATOM     61  C   UNL A   1      38.882  31.857  33.702  1.00  0.00     0.049 A 
ATOM     62  H   UNL A   1      39.851  30.508  32.401  1.00  0.00     0.167 HD
ATOM     63  C   UNL A   1      40.746  30.931  35.036  1.00  0.00     0.074 A 
ATOM     64  C   UNL A   1      41.555  30.847  36.232  1.00  0.00     0.031 C 
ATOM     65  C   UNL A   1      39.676  31.751  34.900  1.00  0.00     0.037 A 
BRANCH  52  66
ATOM     66  C   UNL A   1      37.024  31.420  29.335  1.00  0.00     0.057 A 
ATOM     67  C   UNL A   1      35.917  30.619  29.027  1.00  0.00     0.134 A 
ATOM     68  C   UNL A   1      37.062  32.707  28.785  1.00  0.00     0.134 A 
ATOM     69  F   UNL A   1      35.825  29.369  29.508  1.00  0.00    -0.206 F 
ATOM     70  C   UNL A   1      34.899  31.073  28.187  1.00  0.00     0.040 A 
ATOM     71  C   UNL A   1      36.034  33.184  27.969  1.00  0.00     0.040 A 
ATOM     72  F   UNL A   1      38.091  33.530  29.042  1.00  0.00    -0.206 F 
ATOM     73  C   UNL A   1      34.952  32.363  27.663  1.00  0.00     0.006 A 
ENDBRANCH  52  66
BRANCH  53  74
ATOM     74  C   UNL A   1      44.354  27.923  35.102  1.00  0.00     0.057 A 
ATOM     75  C   UNL A   1      44.198  26.776  35.892  1.00  0.00     0.134 A 
ATOM     76  C   UNL A   1      45.548  28.641  35.250  1.00  0.00     0.134 A 
ATOM     77  F   UNL A   1      43.065  26.062  35.829  1.00  0.00    -0.206 F 
ATOM     78  C   UNL A   1      45.171  26.380  36.814  1.00  0.00     0.040 A 
ATOM     79  C   UNL A   1      46.543  28.237  36.143  1.00  0.00     0.040 A 
ATOM     80  F   UNL A   1      45.761  29.757  34.537  1.00  0.00    -0.206 F 
ATOM     81  C   UNL A   1      46.351  27.109  36.939  1.00  0.00     0.006 A 
ENDBRANCH  53  74
BRANCH  65  82
ATOM     82  C   UNL A   1      39.267  32.578  36.088  1.00  0.00     0.057 A 
ATOM     83  C   UNL A   1      38.388  32.101  37.068  1.00  0.00     0.134 A 
ATOM     84  C   UNL A   1      39.803  33.861  36.277  1.00  0.00     0.134 A 
ATOM     85  F   UNL A   1      37.831  30.885  36.948  1.00  0.00    -0.206 F 
ATOM     86  C   UNL A   1      38.034  32.876  38.174  1.00  0.00     0.040 A 
ATOM     87  C   UNL A   1      39.483  34.632  37.396  1.00  0.00     0.040 A 
ATOM     88  F   UNL A   1      40.663  34.379  35.387  1.00  0.00    -0.206 F 
ATOM     89  C   UNL A   1      38.589  34.143  38.344  1.00  0.00     0.006 A 
ENDBRANCH  65  82
ENDBRANCH  39  40
ENDBRANCH  32  34
ENDBRANCH  31  32
ENDBRANCH  30  31
ENDBRANCH  29  30
ENDBRANCH  28  29
ENDBRANCH  27  28
ENDBRANCH   1  27
TORSDOF 21
ENDMDL
MODEL 3
REMARK VINA RESULT:      -9.8      5.060     10.804
REMARK SMILES Cc1nn(C)c(C)c1CCC(=O)Nc1sccc1C(=O)OCCOCCOCCOC(=O)c1ccc(-c2c3nc(c(-c4c(F)cccc4F)c4ccc([nH]4)c(-c4c(F)cccc4F)c4nc(c(-c5c(F)cccc5F)c5ccc2[nH]5)C=C4)C=C3)cc1
REMARK SMILES IDX 25 1 24 2 23 3 22 4 21 5 19 6 20 7 18 8 14 9 15 10 16 11
REMARK SMILES IDX 17 12 13 13 11 14 12 15 10 17 9 18 8 19 1 20 2 21 3 22 4 23
REMARK SMILES IDX 6 24 5 25 7 26 26 27 27 28 28 29 29 30 30 31 31 32 32 33
REMARK SMILES IDX 33 34 34 35 86 36 35 37 85 38 36 39 37 40 38 41 79 42 39 43
REMARK SMILES IDX 84 44 78 45 80 46 40 47 83 48 77 49 76 50 41 52 67 53 50 54
REMARK SMILES IDX 66 55 51 56 54 57 65 58 81 59 52 60 53 61 64 63 82 64 55 65
REMARK SMILES IDX 42 66 43 67 48 68 44 69 45 70 47 71 49 72 46 73 68 74 69 75
REMARK SMILES IDX 74 76 70 77 71 78 73 79 75 80 72 81 56 82 57 83 62 84 58 85
REMARK SMILES IDX 59 86 61 87 63 88 60 89
REMARK H PARENT 13 16 80 51 54 62
REMARK Flexibility Score: inf
ROOT
ATOM      1  C   UNL A   1      45.126  18.917  24.909  1.00  0.00     0.188 C 
ENDROOT
BRANCH   1   2
ATOM      2  O   UNL A   1      43.789  18.555  25.246  1.00  0.00    -0.376 OA
BRANCH   2   3
ATOM      3  C   UNL A   1      43.166  19.308  26.260  1.00  0.00     0.202 C 
BRANCH   3   4
ATOM      4  C   UNL A   1      41.810  19.840  25.817  1.00  0.00     0.261 C 
BRANCH   4   5
ATOM      5  O   UNL A   1      40.704  18.911  25.760  1.00  0.00    -0.460 OA
BRANCH   5   6
ATOM      6  C   UNL A   1      39.216  19.462  25.639  1.00  0.00     0.341 C 
ATOM      7  O   UNL A   1      38.601  18.414  25.214  1.00  0.00    -0.246 OA
BRANCH   6   8
ATOM      8  C   UNL A   1      38.605  21.513  25.949  1.00  0.00     0.094 A 
ATOM      9  C   UNL A   1      37.404  22.376  25.530  1.00  0.00     0.110 A 
ATOM     10  S   UNL A   1      37.671  24.077  25.509  1.00  0.00    -0.126 S 
ATOM     11  C   UNL A   1      38.961  24.023  26.565  1.00  0.00     0.068 A 
ATOM     12  C   UNL A   1      39.342  22.737  26.821  1.00  0.00     0.029 A 
BRANCH   9  13
ATOM     13  N   UNL A   1      36.152  22.227  24.917  1.00  0.00    -0.317 N 
ATOM     14  C   UNL A   1      34.905  22.700  25.212  1.00  0.00     0.225 C 
ATOM     15  O   UNL A   1      33.920  22.074  24.811  1.00  0.00    -0.275 OA
ATOM     16  H   UNL A   1      36.176  21.668  24.107  1.00  0.00     0.170 HD
BRANCH  14  17
ATOM     17  C   UNL A   1      34.738  24.058  25.846  1.00  0.00     0.105 C 
BRANCH  17  18
ATOM     18  C   UNL A   1      33.376  24.302  26.421  1.00  0.00     0.049 C 
BRANCH  18  19
ATOM     19  C   UNL A   1      32.662  25.323  25.638  1.00  0.00    -0.004 A 
ATOM     20  C   UNL A   1      30.939  23.690  23.576  1.00  0.00     0.069 C 
ATOM     21  C   UNL A   1      31.490  24.972  24.085  1.00  0.00     0.063 A 
ATOM     22  N   UNL A   1      30.698  26.499  23.660  1.00  0.00    -0.178 NA
ATOM     23  N   UNL A   1      31.317  27.837  24.793  1.00  0.00    -0.272 N 
ATOM     24  C   UNL A   1      32.520  27.142  26.007  1.00  0.00     0.038 A 
ATOM     25  C   UNL A   1      31.313  29.236  24.406  1.00  0.00     0.174 C 
ATOM     26  C   UNL A   1      33.022  28.035  27.104  1.00  0.00     0.066 C 
ENDBRANCH  18  19
ENDBRANCH  17  18
ENDBRANCH  14  17
ENDBRANCH   9  13
ENDBRANCH   6   8
ENDBRANCH   5   6
ENDBRANCH   4   5
ENDBRANCH   3   4
ENDBRANCH   2   3
ENDBRANCH   1   2
BRANCH   1  27
ATOM     27  C   UNL A   1      45.452  20.350  24.442  1.00  0.00     0.188 C 
BRANCH  27  28
ATOM     28  O   UNL A   1      45.949  21.255  25.395  1.00  0.00    -0.376 OA
BRANCH  28  29
ATOM     29  C   UNL A   1      45.245  22.447  25.666  1.00  0.00     0.202 C 
BRANCH  29  30
ATOM     30  C   UNL A   1      43.935  22.901  24.969  1.00  0.00     0.261 C 
BRANCH  30  31
ATOM     31  O   UNL A   1      43.754  24.284  24.611  1.00  0.00    -0.460 OA
BRANCH  31  32
ATOM     32  C   UNL A   1      44.547  25.212  25.207  1.00  0.00     0.338 C 
ATOM     33  O   UNL A   1      45.638  25.585  24.812  1.00  0.00    -0.246 OA
BRANCH  32  34
ATOM     34  C   UNL A   1      43.748  25.931  26.247  1.00  0.00     0.060 A 
ATOM     35  C   UNL A   1      44.019  27.290  26.490  1.00  0.00     0.016 A 
ATOM     36  C   UNL A   1      42.719  25.308  26.952  1.00  0.00     0.016 A 
ATOM     37  C   UNL A   1      43.300  28.016  27.449  1.00  0.00     0.010 A 
ATOM     38  C   UNL A   1      42.030  26.021  27.949  1.00  0.00     0.010 A 
ATOM     39  C   UNL A   1      42.341  27.367  28.233  1.00  0.00    -0.014 A 
BRANCH  39  40
ATOM     40  C   UNL A   1      41.874  27.981  29.511  1.00  0.00     0.031 A 
ATOM     41  C   UNL A   1      40.633  28.840  29.453  1.00  0.00     0.074 A 
ATOM     42  C   UNL A   1      42.487  27.796  30.696  1.00  0.00     0.049 A 
ATOM     43  N   UNL A   1      40.099  29.610  30.368  1.00  0.00    -0.248 NA
ATOM     44  C   UNL A   1      39.898  28.827  28.177  1.00  0.00     0.031 C 
ATOM     45  C   UNL A   1      43.632  26.923  30.938  1.00  0.00     0.029 A 
ATOM     46  N   UNL A   1      42.227  28.359  31.927  1.00  0.00    -0.354 N 
ATOM     47  C   UNL A   1      38.980  30.182  29.772  1.00  0.00     0.074 A 
ATOM     48  C   UNL A   1      38.929  29.698  28.411  1.00  0.00     0.031 C 
ATOM     49  C   UNL A   1      43.995  27.031  32.231  1.00  0.00     0.029 A 
ATOM     50  C   UNL A   1      43.136  28.011  32.898  1.00  0.00     0.049 A 
ATOM     51  H   UNL A   1      41.462  28.956  32.093  1.00  0.00     0.167 HD
ATOM     52  C   UNL A   1      38.071  31.031  30.306  1.00  0.00     0.037 A 
ATOM     53  C   UNL A   1      43.275  28.456  34.165  1.00  0.00     0.037 A 
ATOM     54  C   UNL A   1      38.112  31.519  31.659  1.00  0.00     0.049 A 
ATOM     55  C   UNL A   1      42.321  29.501  34.703  1.00  0.00     0.074 A 
ATOM     56  C   UNL A   1      37.242  32.395  32.285  1.00  0.00     0.029 A 
ATOM     57  N   UNL A   1      39.077  31.177  32.593  1.00  0.00    -0.354 N 
ATOM     58  N   UNL A   1      41.276  30.049  34.132  1.00  0.00    -0.248 NA
ATOM     59  C   UNL A   1      42.572  29.991  36.069  1.00  0.00     0.031 C 
ATOM     60  C   UNL A   1      37.713  32.627  33.581  1.00  0.00     0.029 A 
ATOM     61  C   UNL A   1      38.836  31.843  33.783  1.00  0.00     0.049 A 
ATOM     62  H   UNL A   1      39.823  30.554  32.435  1.00  0.00     0.167 HD
ATOM     63  C   UNL A   1      40.723  30.907  35.078  1.00  0.00     0.074 A 
ATOM     64  C   UNL A   1      41.540  30.800  36.267  1.00  0.00     0.031 C 
ATOM     65  C   UNL A   1      39.638  31.712  34.973  1.00  0.00     0.037 A 
BRANCH  52  66
ATOM     66  C   UNL A   1      36.964  31.513  29.413  1.00  0.00     0.057 A 
ATOM     67  C   UNL A   1      36.968  32.796  28.851  1.00  0.00     0.134 A 
ATOM     68  C   UNL A   1      35.898  30.667  29.082  1.00  0.00     0.134 A 
ATOM     69  F   UNL A   1      37.952  33.662  29.138  1.00  0.00    -0.206 F 
ATOM     70  C   UNL A   1      35.941  33.228  28.010  1.00  0.00     0.040 A 
ATOM     71  C   UNL A   1      34.881  31.077  28.218  1.00  0.00     0.040 A 
ATOM     72  F   UNL A   1      35.832  29.423  29.582  1.00  0.00    -0.206 F 
ATOM     73  C   UNL A   1      34.898  32.364  27.684  1.00  0.00     0.006 A 
ENDBRANCH  52  66
BRANCH  53  74
ATOM     74  C   UNL A   1      44.384  27.963  35.031  1.00  0.00     0.057 A 
ATOM     75  C   UNL A   1      45.599  28.654  35.123  1.00  0.00     0.134 A 
ATOM     76  C   UNL A   1      44.290  26.745  35.716  1.00  0.00     0.134 A 
ATOM     77  F   UNL A   1      45.770  29.808  34.461  1.00  0.00    -0.206 F 
ATOM     78  C   UNL A   1      46.686  28.141  35.835  1.00  0.00     0.040 A 
ATOM     79  C   UNL A   1      45.358  26.236  36.460  1.00  0.00     0.040 A 
ATOM     80  F   UNL A   1      43.163  26.020  35.661  1.00  0.00    -0.206 F 
ATOM     81  C   UNL A   1      46.566  26.929  36.511  1.00  0.00     0.006 A 
ENDBRANCH  53  74
BRANCH  65  82
ATOM     82  C   UNL A   1      39.221  32.494  36.189  1.00  0.00     0.057 A 
ATOM     83  C   UNL A   1      39.699  33.783  36.452  1.00  0.00     0.134 A 
ATOM     84  C   UNL A   1      38.286  31.961  37.089  1.00  0.00     0.134 A 
ATOM     85  F   UNL A   1      40.602  34.353  35.638  1.00  0.00    -0.206 F 
ATOM     86  C   UNL A   1      39.287  34.502  37.577  1.00  0.00     0.040 A 
ATOM     87  C   UNL A   1      37.840  32.683  38.198  1.00  0.00     0.040 A 
ATOM     88  F   UNL A   1      37.772  30.736  36.894  1.00  0.00    -0.206 F 
ATOM     89  C   UNL A   1      38.349  33.954  38.449  1.00  0.00     0.006 A 
ENDBRANCH  65  82
ENDBRANCH  39  40
ENDBRANCH  32  34
ENDBRANCH  31  32
ENDBRANCH  30  31
ENDBRANCH  29  30
ENDBRANCH  28  29
ENDBRANCH  27  28
ENDBRANCH   1  27
TORSDOF 21
ENDMDL
