MODEL 1
REMARK VINA RESULT:      -9.9      0.000      0.000
REMARK SMILES O=C(OCCOCCOCCOC(=O)[C@H]1C[C@H](O)CN1C(=O)CS[C@H]1CCS(=O)(=O)C1)c1ccc(-c2c3nc(c(-c4c(F)cccc4F)c4ccc([nH]4)c(-c4c(F)cccc4F)c4nc(c(-c5c(F)cccc5F)c5ccc2[nH]5)C=C4)C=C3)cc1
REMARK SMILES IDX 8 1 7 2 6 3 5 4 4 5 3 6 2 7 1 8 32 9 33 10 85 11 34 12 84 13
REMARK SMILES IDX 35 14 36 15 37 16 78 17 38 18 83 19 77 20 79 21 39 22 82 23
REMARK SMILES IDX 76 24 75 25 40 27 66 28 49 29 65 30 50 31 53 32 64 33 80 34
REMARK SMILES IDX 51 35 52 36 63 38 81 39 54 40 41 41 42 42 47 43 43 44 44 45
REMARK SMILES IDX 46 46 48 47 45 48 67 49 68 50 73 51 69 52 70 53 72 54 74 55
REMARK SMILES IDX 71 56 55 57 56 58 61 59 57 60 58 61 60 62 62 63 59 64 9 65
REMARK SMILES IDX 10 66 11 67 12 68 13 69 14 70 15 71 16 72 20 73 17 74 19 75
REMARK SMILES IDX 21 76 22 77 23 78 24 79 25 80 26 81 31 82 27 83 28 84 29 85
REMARK SMILES IDX 30 86 18 87
REMARK H PARENT 79 26 53 37 18 88
REMARK Flexibility Score: inf
ROOT
ATOM      1  C   UNL A   1      40.166  21.333  26.393  1.00  0.00     0.188 C 
ENDROOT
BRANCH   1   2
ATOM      2  C   UNL A   1      41.050  20.122  26.718  1.00  0.00     0.188 C 
BRANCH   2   3
ATOM      3  O   UNL A   1      42.452  20.356  26.868  1.00  0.00    -0.376 OA
BRANCH   3   4
ATOM      4  C   UNL A   1      43.209  20.415  25.661  1.00  0.00     0.202 C 
BRANCH   4   5
ATOM      5  C   UNL A   1      44.177  21.597  25.495  1.00  0.00     0.261 C 
BRANCH   5   6
ATOM      6  O   UNL A   1      43.610  22.803  24.965  1.00  0.00    -0.460 OA
BRANCH   6   7
ATOM      7  C   UNL A   1      43.990  24.093  25.126  1.00  0.00     0.338 C 
ATOM      8  O   UNL A   1      44.965  24.483  24.485  1.00  0.00    -0.246 OA
BRANCH   7   9
ATOM      9  C   UNL A   1      43.357  25.065  26.082  1.00  0.00     0.060 A 
ATOM     10  C   UNL A   1      43.658  26.423  26.202  1.00  0.00     0.016 A 
ATOM     11  C   UNL A   1      42.364  24.548  26.941  1.00  0.00     0.016 A 
ATOM     12  C   UNL A   1      43.015  27.237  27.131  1.00  0.00     0.010 A 
ATOM     13  C   UNL A   1      41.728  25.352  27.895  1.00  0.00     0.010 A 
ATOM     14  C   UNL A   1      42.075  26.701  28.006  1.00  0.00    -0.014 A 
BRANCH  14  15
ATOM     15  C   UNL A   1      41.630  27.534  29.141  1.00  0.00     0.031 A 
ATOM     16  C   UNL A   1      42.420  27.491  30.402  1.00  0.00     0.074 A 
ATOM     17  C   UNL A   1      40.642  28.433  29.009  1.00  0.00     0.049 A 
ATOM     18  N   UNL A   1      42.246  28.178  31.497  1.00  0.00    -0.248 NA
ATOM     19  C   UNL A   1      43.587  26.596  30.415  1.00  0.00     0.031 C 
ATOM     20  C   UNL A   1      39.918  28.668  27.775  1.00  0.00     0.029 A 
ATOM     21  N   UNL A   1      40.080  29.313  29.900  1.00  0.00    -0.354 N 
ATOM     22  C   UNL A   1      43.294  27.819  32.324  1.00  0.00     0.074 A 
ATOM     23  C   UNL A   1      44.089  26.840  31.614  1.00  0.00     0.031 C 
ATOM     24  C   UNL A   1      38.978  29.602  27.992  1.00  0.00     0.029 A 
ATOM     25  C   UNL A   1      39.017  30.007  29.380  1.00  0.00     0.049 A 
ATOM     26  H   UNL A   1      40.408  29.433  30.821  1.00  0.00     0.167 HD
ATOM     27  C   UNL A   1      43.557  28.274  33.568  1.00  0.00     0.037 A 
ATOM     28  C   UNL A   1      38.133  30.847  29.946  1.00  0.00     0.037 A 
ATOM     29  C   UNL A   1      42.724  29.209  34.275  1.00  0.00     0.049 A 
ATOM     30  C   UNL A   1      38.326  31.187  31.383  1.00  0.00     0.074 A 
ATOM     31  C   UNL A   1      42.867  29.687  35.564  1.00  0.00     0.029 A 
ATOM     32  N   UNL A   1      41.571  29.791  33.759  1.00  0.00    -0.354 N 
ATOM     33  N   UNL A   1      39.288  30.802  32.183  1.00  0.00    -0.248 NA
ATOM     34  C   UNL A   1      37.333  32.072  31.997  1.00  0.00     0.031 C 
ATOM     35  C   UNL A   1      41.765  30.500  35.853  1.00  0.00     0.029 A 
ATOM     36  C   UNL A   1      40.965  30.582  34.724  1.00  0.00     0.049 A 
ATOM     37  H   UNL A   1      41.235  29.660  32.843  1.00  0.00     0.167 HD
ATOM     38  C   UNL A   1      39.033  31.410  33.396  1.00  0.00     0.074 A 
ATOM     39  C   UNL A   1      37.826  32.200  33.221  1.00  0.00     0.031 C 
ATOM     40  C   UNL A   1      39.745  31.328  34.544  1.00  0.00     0.037 A 
BRANCH  27  41
ATOM     41  C   UNL A   1      44.739  27.666  34.254  1.00  0.00     0.057 A 
ATOM     42  C   UNL A   1      46.023  28.219  34.166  1.00  0.00     0.134 A 
ATOM     43  C   UNL A   1      44.593  26.466  34.959  1.00  0.00     0.134 A 
ATOM     44  F   UNL A   1      46.235  29.344  33.467  1.00  0.00    -0.206 F 
ATOM     45  C   UNL A   1      47.126  27.586  34.743  1.00  0.00     0.040 A 
ATOM     46  C   UNL A   1      45.683  25.837  35.557  1.00  0.00     0.040 A 
ATOM     47  F   UNL A   1      43.392  25.877  35.057  1.00  0.00    -0.206 F 
ATOM     48  C   UNL A   1      46.955  26.393  35.443  1.00  0.00     0.006 A 
ENDBRANCH  27  41
BRANCH  28  49
ATOM     49  C   UNL A   1      36.984  31.369  29.165  1.00  0.00     0.057 A 
ATOM     50  C   UNL A   1      35.851  30.591  28.904  1.00  0.00     0.134 A 
ATOM     51  C   UNL A   1      36.986  32.683  28.679  1.00  0.00     0.134 A 
ATOM     52  F   UNL A   1      35.797  29.316  29.315  1.00  0.00    -0.206 F 
ATOM     53  C   UNL A   1      34.761  31.104  28.195  1.00  0.00     0.040 A 
ATOM     54  C   UNL A   1      35.897  33.216  27.988  1.00  0.00     0.040 A 
ATOM     55  F   UNL A   1      38.050  33.474  28.880  1.00  0.00    -0.206 F 
ATOM     56  C   UNL A   1      34.778  32.424  27.743  1.00  0.00     0.006 A 
ENDBRANCH  28  49
BRANCH  40  57
ATOM     57  C   UNL A   1      39.223  32.128  35.693  1.00  0.00     0.057 A 
ATOM     58  C   UNL A   1      38.336  31.582  36.628  1.00  0.00     0.134 A 
ATOM     59  C   UNL A   1      39.596  33.468  35.847  1.00  0.00     0.134 A 
ATOM     60  F   UNL A   1      37.921  30.311  36.512  1.00  0.00    -0.206 F 
ATOM     61  C   UNL A   1      37.814  32.352  37.666  1.00  0.00     0.040 A 
ATOM     62  C   UNL A   1      39.101  34.240  36.897  1.00  0.00     0.040 A 
ATOM     63  F   UNL A   1      40.438  34.047  34.978  1.00  0.00    -0.206 F 
ATOM     64  C   UNL A   1      38.202  33.684  37.805  1.00  0.00     0.006 A 
ENDBRANCH  40  57
ENDBRANCH  14  15
ENDBRANCH   7   9
ENDBRANCH   6   7
ENDBRANCH   5   6
ENDBRANCH   4   5
ENDBRANCH   3   4
ENDBRANCH   2   3
ENDBRANCH   1   2
BRANCH   1  65
ATOM     65  O   UNL A   1      38.886  20.986  25.877  1.00  0.00    -0.376 OA
BRANCH  65  66
ATOM     66  C   UNL A   1      38.107  22.098  25.430  1.00  0.00     0.202 C 
BRANCH  66  67
ATOM     67  C   UNL A   1      36.875  21.708  24.607  1.00  0.00     0.261 C 
BRANCH  67  68
ATOM     68  O   UNL A   1      35.973  22.802  24.403  1.00  0.00    -0.462 OA
BRANCH  68  69
ATOM     69  C   UNL A   1      34.643  22.540  24.320  1.00  0.00     0.329 C 
ATOM     70  O   UNL A   1      34.154  21.421  24.345  1.00  0.00    -0.250 OA
BRANCH  69  71
ATOM     71  C   UNL A   1      33.864  23.870  24.222  1.00  0.00     0.197 C 
ATOM     72  C   UNL A   1      34.074  24.564  22.876  1.00  0.00     0.070 C 
ATOM     73  N   UNL A   1      32.417  23.622  24.188  1.00  0.00    -0.325 N 
ATOM     74  C   UNL A   1      33.225  23.676  21.964  1.00  0.00     0.136 C 
ATOM     75  C   UNL A   1      31.964  23.469  22.810  1.00  0.00     0.152 C 
BRANCH  73  76
ATOM     76  C   UNL A   1      31.658  23.647  25.336  1.00  0.00     0.233 C 
ATOM     77  O   UNL A   1      30.626  22.980  25.427  1.00  0.00    -0.274 OA
BRANCH  76  78
ATOM     78  C   UNL A   1      32.198  24.440  26.518  1.00  0.00     0.169 C 
BRANCH  78  79
ATOM     79  S   UNL A   1      31.687  26.205  26.467  1.00  0.00    -0.148 SA
BRANCH  79  80
ATOM     80  C   UNL A   1      31.129  26.398  24.738  1.00  0.00     0.063 C 
ATOM     81  C   UNL A   1      29.601  26.609  24.693  1.00  0.00     0.031 C 
ATOM     82  C   UNL A   1      31.699  27.629  24.046  1.00  0.00     0.151 C 
ATOM     83  C   UNL A   1      29.224  27.106  23.293  1.00  0.00     0.138 C 
ATOM     84  S   UNL A   1      30.727  27.731  22.576  1.00  0.00     0.151 S 
ATOM     85  O   UNL A   1      31.260  26.718  21.692  1.00  0.00    -0.229 OA
ATOM     86  O   UNL A   1      30.580  29.109  22.179  1.00  0.00    -0.229 OA
ENDBRANCH  79  80
ENDBRANCH  78  79
ENDBRANCH  76  78
ENDBRANCH  73  76
BRANCH  74  87
ATOM     87  O   UNL A   1      32.948  24.250  20.710  1.00  0.00    -0.391 OA
ATOM     88  H   UNL A   1      32.052  24.621  20.716  1.00  0.00     0.211 HD
ENDBRANCH  74  87
ENDBRANCH  69  71
ENDBRANCH  68  69
ENDBRANCH  67  68
ENDBRANCH  66  67
ENDBRANCH  65  66
ENDBRANCH   1  65
TORSDOF 22
ENDMDL
MODEL 2
REMARK VINA RESULT:      -9.7      4.090      6.113
REMARK SMILES O=C(OCCOCCOCCOC(=O)[C@H]1C[C@H](O)CN1C(=O)CS[C@H]1CCS(=O)(=O)C1)c1ccc(-c2c3nc(c(-c4c(F)cccc4F)c4ccc([nH]4)c(-c4c(F)cccc4F)c4nc(c(-c5c(F)cccc5F)c5ccc2[nH]5)C=C4)C=C3)cc1
REMARK SMILES IDX 8 1 7 2 6 3 5 4 4 5 3 6 2 7 1 8 32 9 33 10 85 11 34 12 84 13
REMARK SMILES IDX 35 14 36 15 37 16 78 17 38 18 83 19 77 20 79 21 39 22 82 23
REMARK SMILES IDX 76 24 75 25 40 27 66 28 49 29 65 30 50 31 53 32 64 33 80 34
REMARK SMILES IDX 51 35 52 36 63 38 81 39 54 40 41 41 42 42 47 43 43 44 44 45
REMARK SMILES IDX 46 46 48 47 45 48 67 49 68 50 73 51 69 52 70 53 72 54 74 55
REMARK SMILES IDX 71 56 55 57 56 58 61 59 57 60 58 61 60 62 62 63 59 64 9 65
REMARK SMILES IDX 10 66 11 67 12 68 13 69 14 70 15 71 16 72 20 73 17 74 19 75
REMARK SMILES IDX 21 76 22 77 23 78 24 79 25 80 26 81 31 82 27 83 28 84 29 85
REMARK SMILES IDX 30 86 18 87
REMARK H PARENT 79 26 53 37 18 88
REMARK Flexibility Score: inf
ROOT
ATOM      1  C   UNL A   1      36.974  22.572  24.740  1.00  0.00     0.188 C 
ENDROOT
BRANCH   1   2
ATOM      2  C   UNL A   1      36.846  21.294  25.580  1.00  0.00     0.188 C 
BRANCH   2   3
ATOM      3  O   UNL A   1      36.780  20.052  24.875  1.00  0.00    -0.376 OA
BRANCH   3   4
ATOM      4  C   UNL A   1      37.951  19.240  24.926  1.00  0.00     0.202 C 
BRANCH   4   5
ATOM      5  C   UNL A   1      39.212  19.862  25.547  1.00  0.00     0.261 C 
BRANCH   5   6
ATOM      6  O   UNL A   1      40.319  18.970  25.743  1.00  0.00    -0.460 OA
BRANCH   6   7
ATOM      7  C   UNL A   1      41.629  19.237  25.958  1.00  0.00     0.338 C 
ATOM      8  O   UNL A   1      42.434  18.325  25.768  1.00  0.00    -0.246 OA
BRANCH   7   9
ATOM      9  C   UNL A   1      42.169  20.538  26.481  1.00  0.00     0.060 A 
ATOM     10  C   UNL A   1      42.025  21.031  27.779  1.00  0.00     0.016 A 
ATOM     11  C   UNL A   1      42.889  21.335  25.566  1.00  0.00     0.016 A 
ATOM     12  C   UNL A   1      42.560  22.259  28.160  1.00  0.00     0.010 A 
ATOM     13  C   UNL A   1      43.412  22.582  25.932  1.00  0.00     0.010 A 
ATOM     14  C   UNL A   1      43.224  23.057  27.232  1.00  0.00    -0.014 A 
BRANCH  14  15
ATOM     15  C   UNL A   1      43.527  24.452  27.609  1.00  0.00     0.031 A 
ATOM     16  C   UNL A   1      44.950  24.889  27.610  1.00  0.00     0.074 A 
ATOM     17  C   UNL A   1      42.556  25.360  27.791  1.00  0.00     0.049 A 
ATOM     18  N   UNL A   1      45.439  26.075  27.850  1.00  0.00    -0.248 NA
ATOM     19  C   UNL A   1      45.949  23.874  27.244  1.00  0.00     0.031 C 
ATOM     20  C   UNL A   1      41.141  25.073  27.652  1.00  0.00     0.029 A 
ATOM     21  N   UNL A   1      42.597  26.690  28.121  1.00  0.00    -0.354 N 
ATOM     22  C   UNL A   1      46.801  25.958  27.642  1.00  0.00     0.074 A 
ATOM     23  C   UNL A   1      47.066  24.583  27.274  1.00  0.00     0.031 C 
ATOM     24  C   UNL A   1      40.441  26.183  27.934  1.00  0.00     0.029 A 
ATOM     25  C   UNL A   1      41.354  27.246  28.297  1.00  0.00     0.049 A 
ATOM     26  H   UNL A   1      43.436  27.197  28.222  1.00  0.00     0.167 HD
ATOM     27  C   UNL A   1      47.738  26.924  27.753  1.00  0.00     0.037 A 
ATOM     28  C   UNL A   1      40.968  28.454  28.740  1.00  0.00     0.037 A 
ATOM     29  C   UNL A   1      47.460  28.272  28.171  1.00  0.00     0.049 A 
ATOM     30  C   UNL A   1      42.032  29.450  29.048  1.00  0.00     0.074 A 
ATOM     31  C   UNL A   1      48.347  29.311  28.377  1.00  0.00     0.029 A 
ATOM     32  N   UNL A   1      46.194  28.761  28.473  1.00  0.00    -0.354 N 
ATOM     33  N   UNL A   1      43.326  29.320  28.904  1.00  0.00    -0.248 NA
ATOM     34  C   UNL A   1      41.597  30.749  29.568  1.00  0.00     0.031 C 
ATOM     35  C   UNL A   1      47.630  30.405  28.871  1.00  0.00     0.029 A 
ATOM     36  C   UNL A   1      46.285  30.072  28.915  1.00  0.00     0.049 A 
ATOM     37  H   UNL A   1      45.356  28.252  28.386  1.00  0.00     0.167 HD
ATOM     38  C   UNL A   1      43.870  30.527  29.297  1.00  0.00     0.074 A 
ATOM     39  C   UNL A   1      42.758  31.381  29.677  1.00  0.00     0.031 C 
ATOM     40  C   UNL A   1      45.172  30.893  29.326  1.00  0.00     0.037 A 
BRANCH  27  41
ATOM     41  C   UNL A   1      49.152  26.497  27.518  1.00  0.00     0.057 A 
ATOM     42  C   UNL A   1      49.981  26.046  28.552  1.00  0.00     0.134 A 
ATOM     43  C   UNL A   1      49.707  26.604  26.238  1.00  0.00     0.134 A 
ATOM     44  F   UNL A   1      49.521  25.964  29.809  1.00  0.00    -0.206 F 
ATOM     45  C   UNL A   1      51.324  25.735  28.323  1.00  0.00     0.040 A 
ATOM     46  C   UNL A   1      51.039  26.275  25.992  1.00  0.00     0.040 A 
ATOM     47  F   UNL A   1      48.968  27.051  25.212  1.00  0.00    -0.206 F 
ATOM     48  C   UNL A   1      51.853  25.846  27.039  1.00  0.00     0.006 A 
ENDBRANCH  27  41
BRANCH  28  49
ATOM     49  C   UNL A   1      39.530  28.753  28.956  1.00  0.00     0.057 A 
ATOM     50  C   UNL A   1      38.905  28.535  30.188  1.00  0.00     0.134 A 
ATOM     51  C   UNL A   1      38.748  29.292  27.927  1.00  0.00     0.134 A 
ATOM     52  F   UNL A   1      39.588  27.993  31.206  1.00  0.00    -0.206 F 
ATOM     53  C   UNL A   1      37.557  28.850  30.388  1.00  0.00     0.040 A 
ATOM     54  C   UNL A   1      37.408  29.631  28.118  1.00  0.00     0.040 A 
ATOM     55  F   UNL A   1      39.283  29.507  26.716  1.00  0.00    -0.206 F 
ATOM     56  C   UNL A   1      36.808  29.410  29.354  1.00  0.00     0.006 A 
ENDBRANCH  28  49
BRANCH  40  57
ATOM     57  C   UNL A   1      45.447  32.289  29.782  1.00  0.00     0.057 A 
ATOM     58  C   UNL A   1      45.457  33.367  28.888  1.00  0.00     0.134 A 
ATOM     59  C   UNL A   1      45.728  32.550  31.128  1.00  0.00     0.134 A 
ATOM     60  F   UNL A   1      45.224  33.170  27.582  1.00  0.00    -0.206 F 
ATOM     61  C   UNL A   1      45.766  34.658  29.315  1.00  0.00     0.040 A 
ATOM     62  C   UNL A   1      46.012  33.841  31.570  1.00  0.00     0.040 A 
ATOM     63  F   UNL A   1      45.739  31.556  32.028  1.00  0.00    -0.206 F 
ATOM     64  C   UNL A   1      46.039  34.897  30.661  1.00  0.00     0.006 A 
ENDBRANCH  40  57
ENDBRANCH  14  15
ENDBRANCH   7   9
ENDBRANCH   6   7
ENDBRANCH   5   6
ENDBRANCH   4   5
ENDBRANCH   3   4
ENDBRANCH   2   3
ENDBRANCH   1   2
BRANCH   1  65
ATOM     65  O   UNL A   1      36.873  23.770  25.502  1.00  0.00    -0.376 OA
BRANCH  65  66
ATOM     66  C   UNL A   1      35.678  24.520  25.269  1.00  0.00     0.202 C 
BRANCH  66  67
ATOM     67  C   UNL A   1      34.388  23.721  25.475  1.00  0.00     0.261 C 
BRANCH  67  68
ATOM     68  O   UNL A   1      33.431  24.410  26.288  1.00  0.00    -0.462 OA
BRANCH  68  69
ATOM     69  C   UNL A   1      32.372  23.713  26.777  1.00  0.00     0.329 C 
ATOM     70  O   UNL A   1      32.340  23.185  27.878  1.00  0.00    -0.250 OA
BRANCH  69  71
ATOM     71  C   UNL A   1      31.227  23.724  25.741  1.00  0.00     0.197 C 
ATOM     72  C   UNL A   1      30.394  22.444  25.787  1.00  0.00     0.070 C 
ATOM     73  N   UNL A   1      30.218  24.731  26.094  1.00  0.00    -0.325 N 
ATOM     74  C   UNL A   1      29.603  22.668  27.078  1.00  0.00     0.136 C 
ATOM     75  C   UNL A   1      29.192  24.139  26.946  1.00  0.00     0.152 C 
BRANCH  73  76
ATOM     76  C   UNL A   1      30.260  26.003  25.570  1.00  0.00     0.233 C 
ATOM     77  O   UNL A   1      30.978  26.871  26.070  1.00  0.00    -0.274 OA
BRANCH  76  78
ATOM     78  C   UNL A   1      29.471  26.263  24.294  1.00  0.00     0.169 C 
BRANCH  78  79
ATOM     79  S   UNL A   1      30.044  27.772  23.414  1.00  0.00    -0.148 SA
BRANCH  79  80
ATOM     80  C   UNL A   1      31.434  27.134  22.414  1.00  0.00     0.063 C 
ATOM     81  C   UNL A   1      32.777  27.445  23.109  1.00  0.00     0.031 C 
ATOM     82  C   UNL A   1      31.432  25.619  22.261  1.00  0.00     0.151 C 
ATOM     83  C   UNL A   1      33.872  26.609  22.439  1.00  0.00     0.138 C 
ATOM     84  S   UNL A   1      33.031  25.296  21.584  1.00  0.00     0.151 S 
ATOM     85  O   UNL A   1      32.935  25.657  20.186  1.00  0.00    -0.229 OA
ATOM     86  O   UNL A   1      33.498  24.005  22.023  1.00  0.00    -0.229 OA
ENDBRANCH  79  80
ENDBRANCH  78  79
ENDBRANCH  76  78
ENDBRANCH  73  76
BRANCH  74  87
ATOM     87  O   UNL A   1      28.500  21.809  27.224  1.00  0.00    -0.391 OA
ATOM     88  H   UNL A   1      27.818  22.046  26.577  1.00  0.00     0.211 HD
ENDBRANCH  74  87
ENDBRANCH  69  71
ENDBRANCH  68  69
ENDBRANCH  67  68
ENDBRANCH  66  67
ENDBRANCH  65  66
ENDBRANCH   1  65
TORSDOF 22
ENDMDL
MODEL 3
REMARK VINA RESULT:      -9.6      5.442     11.676
REMARK SMILES O=C(OCCOCCOCCOC(=O)[C@H]1C[C@H](O)CN1C(=O)CS[C@H]1CCS(=O)(=O)C1)c1ccc(-c2c3nc(c(-c4c(F)cccc4F)c4ccc([nH]4)c(-c4c(F)cccc4F)c4nc(c(-c5c(F)cccc5F)c5ccc2[nH]5)C=C4)C=C3)cc1
REMARK SMILES IDX 8 1 7 2 6 3 5 4 4 5 3 6 2 7 1 8 32 9 33 10 85 11 34 12 84 13
REMARK SMILES IDX 35 14 36 15 37 16 78 17 38 18 83 19 77 20 79 21 39 22 82 23
REMARK SMILES IDX 76 24 75 25 40 27 66 28 49 29 65 30 50 31 53 32 64 33 80 34
REMARK SMILES IDX 51 35 52 36 63 38 81 39 54 40 41 41 42 42 47 43 43 44 44 45
REMARK SMILES IDX 46 46 48 47 45 48 67 49 68 50 73 51 69 52 70 53 72 54 74 55
REMARK SMILES IDX 71 56 55 57 56 58 61 59 57 60 58 61 60 62 62 63 59 64 9 65
REMARK SMILES IDX 10 66 11 67 12 68 13 69 14 70 15 71 16 72 20 73 17 74 19 75
REMARK SMILES IDX 21 76 22 77 23 78 24 79 25 80 26 81 31 82 27 83 28 84 29 85
REMARK SMILES IDX 30 86 18 87
REMARK H PARENT 79 26 53 37 18 88
REMARK Flexibility Score: inf
ROOT
ATOM      1  C   UNL A   1      33.289  36.873  30.770  1.00  0.00     0.188 C 
ENDROOT
BRANCH   1   2
ATOM      2  C   UNL A   1      32.613  35.579  30.298  1.00  0.00     0.188 C 
BRANCH   2   3
ATOM      3  O   UNL A   1      33.465  34.490  29.937  1.00  0.00    -0.376 OA
BRANCH   3   4
ATOM      4  C   UNL A   1      34.277  34.687  28.781  1.00  0.00     0.202 C 
BRANCH   4   5
ATOM      5  C   UNL A   1      34.709  33.434  28.002  1.00  0.00     0.261 C 
BRANCH   5   6
ATOM      6  O   UNL A   1      34.559  32.185  28.690  1.00  0.00    -0.460 OA
BRANCH   6   7
ATOM      7  C   UNL A   1      34.846  30.924  28.287  1.00  0.00     0.338 C 
ATOM      8  O   UNL A   1      33.934  30.263  27.791  1.00  0.00    -0.246 OA
BRANCH   7   9
ATOM      9  C   UNL A   1      36.175  30.245  28.466  1.00  0.00     0.060 A 
ATOM     10  C   UNL A   1      36.647  29.648  29.636  1.00  0.00     0.016 A 
ATOM     11  C   UNL A   1      37.023  30.213  27.339  1.00  0.00     0.016 A 
ATOM     12  C   UNL A   1      37.904  29.050  29.698  1.00  0.00     0.010 A 
ATOM     13  C   UNL A   1      38.298  29.635  27.396  1.00  0.00     0.010 A 
ATOM     14  C   UNL A   1      38.750  29.072  28.592  1.00  0.00    -0.014 A 
BRANCH  14  15
ATOM     15  C   UNL A   1      40.158  28.674  28.789  1.00  0.00     0.031 A 
ATOM     16  C   UNL A   1      41.079  29.640  29.448  1.00  0.00     0.074 A 
ATOM     17  C   UNL A   1      40.579  27.425  28.537  1.00  0.00     0.049 A 
ATOM     18  N   UNL A   1      42.333  29.481  29.772  1.00  0.00    -0.248 NA
ATOM     19  C   UNL A   1      40.501  30.935  29.841  1.00  0.00     0.031 C 
ATOM     20  C   UNL A   1      39.722  26.364  28.046  1.00  0.00     0.029 A 
ATOM     21  N   UNL A   1      41.810  26.833  28.657  1.00  0.00    -0.354 N 
ATOM     22  C   UNL A   1      42.692  30.644  30.428  1.00  0.00     0.074 A 
ATOM     23  C   UNL A   1      41.531  31.509  30.441  1.00  0.00     0.031 C 
ATOM     24  C   UNL A   1      40.458  25.256  27.868  1.00  0.00     0.029 A 
ATOM     25  C   UNL A   1      41.837  25.537  28.205  1.00  0.00     0.049 A 
ATOM     26  H   UNL A   1      42.597  27.292  29.032  1.00  0.00     0.167 HD
ATOM     27  C   UNL A   1      43.891  30.951  30.967  1.00  0.00     0.037 A 
ATOM     28  C   UNL A   1      42.848  24.670  28.031  1.00  0.00     0.037 A 
ATOM     29  C   UNL A   1      45.047  30.098  30.897  1.00  0.00     0.049 A 
ATOM     30  C   UNL A   1      44.210  25.103  28.453  1.00  0.00     0.074 A 
ATOM     31  C   UNL A   1      46.327  30.342  31.355  1.00  0.00     0.029 A 
ATOM     32  N   UNL A   1      45.067  28.839  30.304  1.00  0.00    -0.354 N 
ATOM     33  N   UNL A   1      44.559  26.228  29.023  1.00  0.00    -0.248 NA
ATOM     34  C   UNL A   1      45.309  24.163  28.220  1.00  0.00     0.031 C 
ATOM     35  C   UNL A   1      47.138  29.265  30.979  1.00  0.00     0.029 A 
ATOM     36  C   UNL A   1      46.352  28.319  30.340  1.00  0.00     0.049 A 
ATOM     37  H   UNL A   1      44.284  28.385  29.917  1.00  0.00     0.167 HD
ATOM     38  C   UNL A   1      45.920  26.131  29.239  1.00  0.00     0.074 A 
ATOM     39  C   UNL A   1      46.329  24.828  28.744  1.00  0.00     0.031 C 
ATOM     40  C   UNL A   1      46.748  27.038  29.808  1.00  0.00     0.037 A 
BRANCH  27  41
ATOM     41  C   UNL A   1      44.009  32.313  31.573  1.00  0.00     0.057 A 
ATOM     42  C   UNL A   1      44.303  33.450  30.811  1.00  0.00     0.134 A 
ATOM     43  C   UNL A   1      43.890  32.470  32.959  1.00  0.00     0.134 A 
ATOM     44  F   UNL A   1      44.474  33.357  29.484  1.00  0.00    -0.206 F 
ATOM     45  C   UNL A   1      44.495  34.697  31.412  1.00  0.00     0.040 A 
ATOM     46  C   UNL A   1      44.056  33.712  33.567  1.00  0.00     0.040 A 
ATOM     47  F   UNL A   1      43.632  31.413  33.743  1.00  0.00    -0.206 F 
ATOM     48  C   UNL A   1      44.367  34.829  32.794  1.00  0.00     0.006 A 
ENDBRANCH  27  41
BRANCH  28  49
ATOM     49  C   UNL A   1      42.609  23.351  27.393  1.00  0.00     0.057 A 
ATOM     50  C   UNL A   1      42.308  22.210  28.143  1.00  0.00     0.134 A 
ATOM     51  C   UNL A   1      42.655  23.211  26.000  1.00  0.00     0.134 A 
ATOM     52  F   UNL A   1      42.277  22.269  29.482  1.00  0.00    -0.206 F 
ATOM     53  C   UNL A   1      42.053  20.980  27.529  1.00  0.00     0.040 A 
ATOM     54  C   UNL A   1      42.383  21.994  25.372  1.00  0.00     0.040 A 
ATOM     55  F   UNL A   1      42.957  24.263  25.226  1.00  0.00    -0.206 F 
ATOM     56  C   UNL A   1      42.080  20.872  26.139  1.00  0.00     0.006 A 
ENDBRANCH  28  49
BRANCH  40  57
ATOM     57  C   UNL A   1      48.180  26.630  29.925  1.00  0.00     0.057 A 
ATOM     58  C   UNL A   1      48.655  25.918  31.032  1.00  0.00     0.134 A 
ATOM     59  C   UNL A   1      49.097  26.977  28.926  1.00  0.00     0.134 A 
ATOM     60  F   UNL A   1      47.826  25.585  32.034  1.00  0.00    -0.206 F 
ATOM     61  C   UNL A   1      50.004  25.587  31.157  1.00  0.00     0.040 A 
ATOM     62  C   UNL A   1      50.443  26.629  29.027  1.00  0.00     0.040 A 
ATOM     63  F   UNL A   1      48.701  27.665  27.845  1.00  0.00    -0.206 F 
ATOM     64  C   UNL A   1      50.900  25.939  30.149  1.00  0.00     0.006 A 
ENDBRANCH  40  57
ENDBRANCH  14  15
ENDBRANCH   7   9
ENDBRANCH   6   7
ENDBRANCH   5   6
ENDBRANCH   4   5
ENDBRANCH   3   4
ENDBRANCH   2   3
ENDBRANCH   1   2
BRANCH   1  65
ATOM     65  O   UNL A   1      32.927  37.260  32.090  1.00  0.00    -0.376 OA
BRANCH  65  66
ATOM     66  C   UNL A   1      33.984  37.155  33.048  1.00  0.00     0.202 C 
BRANCH  66  67
ATOM     67  C   UNL A   1      34.246  35.728  33.536  1.00  0.00     0.261 C 
BRANCH  67  68
ATOM     68  O   UNL A   1      35.317  35.087  32.833  1.00  0.00    -0.462 OA
BRANCH  68  69
ATOM     69  C   UNL A   1      36.270  34.438  33.552  1.00  0.00     0.329 C 
ATOM     70  O   UNL A   1      36.944  34.953  34.432  1.00  0.00    -0.250 OA
BRANCH  69  71
ATOM     71  C   UNL A   1      36.336  32.963  33.102  1.00  0.00     0.197 C 
ATOM     72  C   UNL A   1      36.073  32.804  31.604  1.00  0.00     0.070 C 
ATOM     73  N   UNL A   1      37.709  32.451  33.202  1.00  0.00    -0.325 N 
ATOM     74  C   UNL A   1      37.389  33.331  31.028  1.00  0.00     0.136 C 
ATOM     75  C   UNL A   1      38.423  32.673  31.949  1.00  0.00     0.152 C 
BRANCH  73  76
ATOM     76  C   UNL A   1      38.145  31.783  34.324  1.00  0.00     0.233 C 
ATOM     77  O   UNL A   1      37.404  31.626  35.296  1.00  0.00    -0.274 OA
BRANCH  76  78
ATOM     78  C   UNL A   1      39.532  31.157  34.274  1.00  0.00     0.169 C 
BRANCH  78  79
ATOM     79  S   UNL A   1      39.574  29.629  33.252  1.00  0.00    -0.148 SA
BRANCH  79  80
ATOM     80  C   UNL A   1      41.272  29.019  33.536  1.00  0.00     0.063 C 
ATOM     81  C   UNL A   1      41.684  29.253  35.005  1.00  0.00     0.031 C 
ATOM     82  C   UNL A   1      41.422  27.516  33.338  1.00  0.00     0.151 C 
ATOM     83  C   UNL A   1      42.947  28.433  35.288  1.00  0.00     0.138 C 
ATOM     84  S   UNL A   1      43.023  27.196  34.013  1.00  0.00     0.151 S 
ATOM     85  O   UNL A   1      43.960  27.642  33.006  1.00  0.00    -0.229 OA
ATOM     86  O   UNL A   1      43.061  25.869  34.576  1.00  0.00    -0.229 OA
ENDBRANCH  79  80
ENDBRANCH  78  79
ENDBRANCH  76  78
ENDBRANCH  73  76
BRANCH  74  87
ATOM     87  O   UNL A   1      37.586  33.006  29.674  1.00  0.00    -0.391 OA
ATOM     88  H   UNL A   1      37.059  33.602  29.120  1.00  0.00     0.211 HD
ENDBRANCH  74  87
ENDBRANCH  69  71
ENDBRANCH  68  69
ENDBRANCH  67  68
ENDBRANCH  66  67
ENDBRANCH  65  66
ENDBRANCH   1  65
TORSDOF 22
ENDMDL
