MODEL 1
REMARK VINA RESULT:      -9.6      0.000      0.000
REMARK SMILES C#CC[N@H+](CC(=O)NC(=O)NC)CC(=O)OCCOCCOCCOC(=O)c1ccc(-c2c3nc(c(-c4c(F)cccc4F)c4ccc([nH]4)c(-c4c(F)cccc4F)c4nc(c(-c5c(F)cccc5F)c5ccc2[nH]5)C=C4)C=C3)cc1
REMARK SMILES IDX 20 1 19 2 18 3 17 4 16 5 14 6 15 7 13 8 4 9 3 11 2 12 1 13
REMARK SMILES IDX 5 14 6 15 7 16 8 17 9 18 10 20 11 21 12 22 21 24 22 25 23 26
REMARK SMILES IDX 24 27 25 28 26 29 27 30 28 31 29 32 81 33 30 34 80 35 31 36
REMARK SMILES IDX 32 37 33 38 74 39 34 40 79 41 73 42 75 43 35 44 78 45 72 46
REMARK SMILES IDX 71 47 36 49 62 50 45 51 61 52 46 53 49 54 60 55 76 56 47 57
REMARK SMILES IDX 48 58 59 60 77 61 50 62 37 63 38 64 43 65 39 66 40 67 42 68
REMARK SMILES IDX 44 69 41 70 63 71 64 72 69 73 65 74 66 75 68 76 70 77 67 78
REMARK SMILES IDX 51 79 52 80 57 81 53 82 54 83 56 84 58 85 55 86
REMARK H PARENT 4 10 8 19 11 23 75 48 49 59
REMARK Flexibility Score: inf
ROOT
ATOM      1  C   UNL A   1      30.090  27.140  23.558  1.00  0.00     0.188 C 
ENDROOT
BRANCH   1   2
ATOM      2  O   UNL A   1      29.683  26.330  24.652  1.00  0.00    -0.376 OA
BRANCH   2   3
ATOM      3  C   UNL A   1      30.563  26.245  25.777  1.00  0.00     0.202 C 
BRANCH   3   4
ATOM      4  C   UNL A   1      30.699  24.854  26.404  1.00  0.00     0.261 C 
BRANCH   4   5
ATOM      5  O   UNL A   1      31.044  23.941  25.355  1.00  0.00    -0.459 OA
BRANCH   5   6
ATOM      6  C   UNL A   1      31.551  22.730  25.697  1.00  0.00     0.361 C 
ATOM      7  O   UNL A   1      30.879  21.726  25.906  1.00  0.00    -0.245 OA
BRANCH   6   8
ATOM      8  C   UNL A   1      33.087  22.739  25.671  1.00  0.00     0.387 C 
BRANCH   8   9
ATOM      9  N   UNL A   1      33.624  21.879  24.605  1.00  0.00    -0.308 N 
ATOM     10  H   UNL A   1      32.817  21.273  24.458  1.00  0.00     0.349 HD
BRANCH   9  11
ATOM     11  C   UNL A   1      34.646  20.904  24.934  1.00  0.00     0.354 C 
BRANCH  11  12
ATOM     12  C   UNL A   1      34.368  19.434  24.664  1.00  0.00    -0.047 C 
ATOM     13  C   UNL A   1      34.129  18.173  24.432  1.00  0.00     0.010 C 
ENDBRANCH  11  12
ENDBRANCH   9  11
BRANCH   9  14
ATOM     14  C   UNL A   1      33.903  22.593  23.347  1.00  0.00     0.365 C 
BRANCH  14  15
ATOM     15  C   UNL A   1      32.644  22.811  22.507  1.00  0.00     0.283 C 
ATOM     16  O   UNL A   1      31.833  21.888  22.353  1.00  0.00    -0.268 OA
ATOM     17  N   UNL A   1      32.351  24.013  21.895  1.00  0.00    -0.273 N 
ATOM     18  C   UNL A   1      33.087  25.096  21.526  1.00  0.00     0.321 C 
ATOM     19  H   UNL A   1      31.397  24.108  21.677  1.00  0.00     0.175 HD
ATOM     20  O   UNL A   1      33.126  25.443  20.346  1.00  0.00    -0.248 OA
ATOM     21  N   UNL A   1      33.728  25.847  22.444  1.00  0.00    -0.341 N 
ATOM     22  C   UNL A   1      33.519  25.944  23.868  1.00  0.00     0.144 C 
ATOM     23  H   UNL A   1      34.451  26.415  22.089  1.00  0.00     0.165 HD
ENDBRANCH  14  15
ENDBRANCH   9  14
ENDBRANCH   8   9
ENDBRANCH   6   8
ENDBRANCH   5   6
ENDBRANCH   4   5
ENDBRANCH   3   4
ENDBRANCH   2   3
ENDBRANCH   1   2
BRANCH   1  24
ATOM     24  C   UNL A   1      30.507  28.589  23.838  1.00  0.00     0.188 C 
BRANCH  24  25
ATOM     25  O   UNL A   1      31.857  28.938  23.575  1.00  0.00    -0.376 OA
BRANCH  25  26
ATOM     26  C   UNL A   1      32.588  29.391  24.716  1.00  0.00     0.202 C 
BRANCH  26  27
ATOM     27  C   UNL A   1      31.654  29.823  25.855  1.00  0.00     0.261 C 
BRANCH  27  28
ATOM     28  O   UNL A   1      32.427  30.025  27.053  1.00  0.00    -0.460 OA
BRANCH  28  29
ATOM     29  C   UNL A   1      32.994  31.244  27.183  1.00  0.00     0.338 C 
ATOM     30  O   UNL A   1      32.461  32.338  27.148  1.00  0.00    -0.246 OA
BRANCH  29  31
ATOM     31  C   UNL A   1      34.394  31.056  27.583  1.00  0.00     0.060 A 
ATOM     32  C   UNL A   1      34.811  29.750  27.817  1.00  0.00     0.016 A 
ATOM     33  C   UNL A   1      35.252  32.122  27.838  1.00  0.00     0.016 A 
ATOM     34  C   UNL A   1      36.063  29.501  28.368  1.00  0.00     0.010 A 
ATOM     35  C   UNL A   1      36.520  31.865  28.383  1.00  0.00     0.010 A 
ATOM     36  C   UNL A   1      36.917  30.551  28.702  1.00  0.00    -0.014 A 
BRANCH  36  37
ATOM     37  C   UNL A   1      38.107  30.278  29.559  1.00  0.00     0.031 A 
ATOM     38  C   UNL A   1      39.243  29.481  28.974  1.00  0.00     0.074 A 
ATOM     39  C   UNL A   1      38.268  30.821  30.782  1.00  0.00     0.049 A 
ATOM     40  N   UNL A   1      40.241  28.889  29.576  1.00  0.00    -0.248 NA
ATOM     41  C   UNL A   1      39.253  29.337  27.508  1.00  0.00     0.031 C 
ATOM     42  C   UNL A   1      37.356  31.765  31.427  1.00  0.00     0.029 A 
ATOM     43  N   UNL A   1      39.284  30.666  31.696  1.00  0.00    -0.354 N 
ATOM     44  C   UNL A   1      40.940  28.225  28.575  1.00  0.00     0.074 A 
ATOM     45  C   UNL A   1      40.278  28.519  27.324  1.00  0.00     0.031 C 
ATOM     46  C   UNL A   1      37.865  32.126  32.616  1.00  0.00     0.029 A 
ATOM     47  C   UNL A   1      39.080  31.357  32.867  1.00  0.00     0.049 A 
ATOM     48  H   UNL A   1      40.081  30.112  31.528  1.00  0.00     0.167 HD
ATOM     49  C   UNL A   1      42.025  27.424  28.700  1.00  0.00     0.037 A 
ATOM     50  C   UNL A   1      39.757  31.322  34.032  1.00  0.00     0.037 A 
ATOM     51  C   UNL A   1      42.722  27.200  29.938  1.00  0.00     0.049 A 
ATOM     52  C   UNL A   1      40.919  30.377  34.180  1.00  0.00     0.074 A 
ATOM     53  C   UNL A   1      43.788  26.358  30.195  1.00  0.00     0.029 A 
ATOM     54  N   UNL A   1      42.437  27.861  31.123  1.00  0.00    -0.354 N 
ATOM     55  N   UNL A   1      41.464  29.591  33.282  1.00  0.00    -0.248 NA
ATOM     56  C   UNL A   1      41.531  30.281  35.513  1.00  0.00     0.031 C 
ATOM     57  C   UNL A   1      44.139  26.497  31.542  1.00  0.00     0.029 A 
ATOM     58  C   UNL A   1      43.310  27.449  32.115  1.00  0.00     0.049 A 
ATOM     59  H   UNL A   1      41.721  28.525  31.242  1.00  0.00     0.167 HD
ATOM     60  C   UNL A   1      42.476  28.905  33.941  1.00  0.00     0.074 A 
ATOM     61  C   UNL A   1      42.491  29.388  35.306  1.00  0.00     0.031 C 
ATOM     62  C   UNL A   1      43.309  27.948  33.464  1.00  0.00     0.037 A 
BRANCH  49  63
ATOM     63  C   UNL A   1      42.466  26.673  27.481  1.00  0.00     0.057 A 
ATOM     64  C   UNL A   1      43.368  27.204  26.552  1.00  0.00     0.134 A 
ATOM     65  C   UNL A   1      41.969  25.385  27.237  1.00  0.00     0.134 A 
ATOM     66  F   UNL A   1      43.859  28.441  26.714  1.00  0.00    -0.206 F 
ATOM     67  C   UNL A   1      43.745  26.489  25.414  1.00  0.00     0.040 A 
ATOM     68  C   UNL A   1      42.356  24.650  26.116  1.00  0.00     0.040 A 
ATOM     69  F   UNL A   1      41.099  24.819  28.089  1.00  0.00    -0.206 F 
ATOM     70  C   UNL A   1      43.242  25.206  25.197  1.00  0.00     0.006 A 
ENDBRANCH  49  63
BRANCH  50  71
ATOM     71  C   UNL A   1      39.292  32.133  35.190  1.00  0.00     0.057 A 
ATOM     72  C   UNL A   1      39.749  33.439  35.395  1.00  0.00     0.134 A 
ATOM     73  C   UNL A   1      38.395  31.610  36.131  1.00  0.00     0.134 A 
ATOM     74  F   UNL A   1      40.635  33.986  34.551  1.00  0.00    -0.206 F 
ATOM     75  C   UNL A   1      39.332  34.195  36.494  1.00  0.00     0.040 A 
ATOM     76  C   UNL A   1      37.948  32.363  37.217  1.00  0.00     0.040 A 
ATOM     77  F   UNL A   1      37.929  30.359  35.999  1.00  0.00    -0.206 F 
ATOM     78  C   UNL A   1      38.421  33.659  37.404  1.00  0.00     0.006 A 
ENDBRANCH  50  71
BRANCH  62  79
ATOM     79  C   UNL A   1      44.313  27.378  34.419  1.00  0.00     0.057 A 
ATOM     80  C   UNL A   1      44.044  26.225  35.164  1.00  0.00     0.134 A 
ATOM     81  C   UNL A   1      45.576  27.967  34.564  1.00  0.00     0.134 A 
ATOM     82  F   UNL A   1      42.848  25.623  35.077  1.00  0.00    -0.206 F 
ATOM     83  C   UNL A   1      44.991  25.684  36.034  1.00  0.00     0.040 A 
ATOM     84  C   UNL A   1      46.538  27.425  35.415  1.00  0.00     0.040 A 
ATOM     85  F   UNL A   1      45.895  29.071  33.871  1.00  0.00    -0.206 F 
ATOM     86  C   UNL A   1      46.246  26.281  36.156  1.00  0.00     0.006 A 
ENDBRANCH  62  79
ENDBRANCH  36  37
ENDBRANCH  29  31
ENDBRANCH  28  29
ENDBRANCH  27  28
ENDBRANCH  26  27
ENDBRANCH  25  26
ENDBRANCH  24  25
ENDBRANCH   1  24
TORSDOF 22
ENDMDL
MODEL 2
REMARK VINA RESULT:      -9.5      2.737      7.594
REMARK SMILES C#CC[N@H+](CC(=O)NC(=O)NC)CC(=O)OCCOCCOCCOC(=O)c1ccc(-c2c3nc(c(-c4c(F)cccc4F)c4ccc([nH]4)c(-c4c(F)cccc4F)c4nc(c(-c5c(F)cccc5F)c5ccc2[nH]5)C=C4)C=C3)cc1
REMARK SMILES IDX 20 1 19 2 18 3 17 4 16 5 14 6 15 7 13 8 4 9 3 11 2 12 1 13
REMARK SMILES IDX 5 14 6 15 7 16 8 17 9 18 10 20 11 21 12 22 21 24 22 25 23 26
REMARK SMILES IDX 24 27 25 28 26 29 27 30 28 31 29 32 81 33 30 34 80 35 31 36
REMARK SMILES IDX 32 37 33 38 74 39 34 40 79 41 73 42 75 43 35 44 78 45 72 46
REMARK SMILES IDX 71 47 36 49 62 50 45 51 61 52 46 53 49 54 60 55 76 56 47 57
REMARK SMILES IDX 48 58 59 60 77 61 50 62 37 63 38 64 43 65 39 66 40 67 42 68
REMARK SMILES IDX 44 69 41 70 63 71 64 72 69 73 65 74 66 75 68 76 70 77 67 78
REMARK SMILES IDX 51 79 52 80 57 81 53 82 54 83 56 84 58 85 55 86
REMARK H PARENT 4 10 8 19 11 23 75 48 49 59
REMARK Flexibility Score: inf
ROOT
ATOM      1  C   UNL A   1      34.251  31.391  27.933  1.00  0.00     0.188 C 
ENDROOT
BRANCH   1   2
ATOM      2  O   UNL A   1      33.602  30.420  27.124  1.00  0.00    -0.376 OA
BRANCH   2   3
ATOM      3  C   UNL A   1      34.159  29.103  27.093  1.00  0.00     0.202 C 
BRANCH   3   4
ATOM      4  C   UNL A   1      33.255  28.018  26.501  1.00  0.00     0.261 C 
BRANCH   4   5
ATOM      5  O   UNL A   1      34.089  26.904  26.156  1.00  0.00    -0.459 OA
BRANCH   5   6
ATOM      6  C   UNL A   1      33.505  25.805  25.617  1.00  0.00     0.361 C 
ATOM      7  O   UNL A   1      32.607  25.161  26.147  1.00  0.00    -0.245 OA
BRANCH   6   8
ATOM      8  C   UNL A   1      34.026  25.535  24.197  1.00  0.00     0.387 C 
BRANCH   8   9
ATOM      9  N   UNL A   1      33.251  24.485  23.518  1.00  0.00    -0.308 N 
ATOM     10  H   UNL A   1      32.861  24.012  24.333  1.00  0.00     0.349 HD
BRANCH   9  11
ATOM     11  C   UNL A   1      33.955  23.393  22.873  1.00  0.00     0.354 C 
BRANCH  11  12
ATOM     12  C   UNL A   1      35.390  23.106  23.285  1.00  0.00    -0.047 C 
ATOM     13  C   UNL A   1      36.621  22.859  23.638  1.00  0.00     0.010 C 
ENDBRANCH  11  12
ENDBRANCH   9  11
BRANCH   9  14
ATOM     14  C   UNL A   1      32.135  25.001  22.705  1.00  0.00     0.365 C 
BRANCH  14  15
ATOM     15  C   UNL A   1      32.593  26.020  21.662  1.00  0.00     0.283 C 
ATOM     16  O   UNL A   1      33.159  25.639  20.628  1.00  0.00    -0.268 OA
ATOM     17  N   UNL A   1      32.404  27.379  21.809  1.00  0.00    -0.273 N 
ATOM     18  C   UNL A   1      32.174  28.197  22.871  1.00  0.00     0.321 C 
ATOM     19  H   UNL A   1      32.444  27.865  20.955  1.00  0.00     0.175 HD
ATOM     20  O   UNL A   1      32.959  29.108  23.131  1.00  0.00    -0.248 OA
ATOM     21  N   UNL A   1      31.056  28.073  23.616  1.00  0.00    -0.341 N 
ATOM     22  C   UNL A   1      29.806  27.422  23.305  1.00  0.00     0.144 C 
ATOM     23  H   UNL A   1      31.100  28.489  24.508  1.00  0.00     0.165 HD
ENDBRANCH  14  15
ENDBRANCH   9  14
ENDBRANCH   8   9
ENDBRANCH   6   8
ENDBRANCH   5   6
ENDBRANCH   4   5
ENDBRANCH   3   4
ENDBRANCH   2   3
ENDBRANCH   1   2
BRANCH   1  24
ATOM     24  C   UNL A   1      33.655  32.802  28.000  1.00  0.00     0.188 C 
BRANCH  24  25
ATOM     25  O   UNL A   1      34.029  33.613  29.103  1.00  0.00    -0.376 OA
BRANCH  25  26
ATOM     26  C   UNL A   1      34.255  34.987  28.782  1.00  0.00     0.202 C 
BRANCH  26  27
ATOM     27  C   UNL A   1      33.105  35.881  29.264  1.00  0.00     0.261 C 
BRANCH  27  28
ATOM     28  O   UNL A   1      32.452  35.253  30.383  1.00  0.00    -0.460 OA
BRANCH  28  29
ATOM     29  C   UNL A   1      32.606  35.875  31.572  1.00  0.00     0.338 C 
ATOM     30  O   UNL A   1      31.947  36.783  32.047  1.00  0.00    -0.246 OA
BRANCH  29  31
ATOM     31  C   UNL A   1      33.617  35.140  32.344  1.00  0.00     0.060 A 
ATOM     32  C   UNL A   1      34.874  35.724  32.450  1.00  0.00     0.016 A 
ATOM     33  C   UNL A   1      33.389  33.866  32.856  1.00  0.00     0.016 A 
ATOM     34  C   UNL A   1      35.932  35.016  33.009  1.00  0.00     0.010 A 
ATOM     35  C   UNL A   1      34.459  33.159  33.430  1.00  0.00     0.010 A 
ATOM     36  C   UNL A   1      35.754  33.710  33.465  1.00  0.00    -0.014 A 
BRANCH  36  37
ATOM     37  C   UNL A   1      36.953  32.877  33.774  1.00  0.00     0.031 A 
ATOM     38  C   UNL A   1      37.587  33.011  35.133  1.00  0.00     0.074 A 
ATOM     39  C   UNL A   1      37.411  31.920  32.943  1.00  0.00     0.049 A 
ATOM     40  N   UNL A   1      38.763  32.617  35.545  1.00  0.00    -0.248 NA
ATOM     41  C   UNL A   1      36.779  33.679  36.167  1.00  0.00     0.031 C 
ATOM     42  C   UNL A   1      36.807  31.528  31.670  1.00  0.00     0.029 A 
ATOM     43  N   UNL A   1      38.496  31.082  33.066  1.00  0.00    -0.354 N 
ATOM     44  C   UNL A   1      38.874  33.072  36.853  1.00  0.00     0.074 A 
ATOM     45  C   UNL A   1      37.631  33.736  37.180  1.00  0.00     0.031 C 
ATOM     46  C   UNL A   1      37.509  30.510  31.145  1.00  0.00     0.029 A 
ATOM     47  C   UNL A   1      38.675  30.252  31.985  1.00  0.00     0.049 A 
ATOM     48  H   UNL A   1      39.087  31.078  33.853  1.00  0.00     0.167 HD
ATOM     49  C   UNL A   1      39.930  32.963  37.693  1.00  0.00     0.037 A 
ATOM     50  C   UNL A   1      39.695  29.429  31.674  1.00  0.00     0.037 A 
ATOM     51  C   UNL A   1      41.130  32.233  37.386  1.00  0.00     0.049 A 
ATOM     52  C   UNL A   1      40.894  29.368  32.582  1.00  0.00     0.074 A 
ATOM     53  C   UNL A   1      42.288  32.111  38.131  1.00  0.00     0.029 A 
ATOM     54  N   UNL A   1      41.305  31.466  36.244  1.00  0.00    -0.354 N 
ATOM     55  N   UNL A   1      41.087  29.960  33.737  1.00  0.00    -0.248 NA
ATOM     56  C   UNL A   1      42.034  28.560  32.125  1.00  0.00     0.031 C 
ATOM     57  C   UNL A   1      43.173  31.284  37.432  1.00  0.00     0.029 A 
ATOM     58  C   UNL A   1      42.551  30.865  36.265  1.00  0.00     0.049 A 
ATOM     59  H   UNL A   1      40.642  31.365  35.524  1.00  0.00     0.167 HD
ATOM     60  C   UNL A   1      42.367  29.602  34.139  1.00  0.00     0.074 A 
ATOM     61  C   UNL A   1      42.895  28.717  33.121  1.00  0.00     0.031 C 
ATOM     62  C   UNL A   1      43.053  29.984  35.244  1.00  0.00     0.037 A 
BRANCH  49  63
ATOM     63  C   UNL A   1      39.857  33.715  38.987  1.00  0.00     0.057 A 
ATOM     64  C   UNL A   1      39.233  33.199  40.127  1.00  0.00     0.134 A 
ATOM     65  C   UNL A   1      40.431  34.991  39.084  1.00  0.00     0.134 A 
ATOM     66  F   UNL A   1      38.642  31.995  40.091  1.00  0.00    -0.206 F 
ATOM     67  C   UNL A   1      39.163  33.932  41.313  1.00  0.00     0.040 A 
ATOM     68  C   UNL A   1      40.388  35.724  40.270  1.00  0.00     0.040 A 
ATOM     69  F   UNL A   1      41.043  35.543  38.025  1.00  0.00    -0.206 F 
ATOM     70  C   UNL A   1      39.746  35.197  41.387  1.00  0.00     0.006 A 
ENDBRANCH  49  63
BRANCH  50  71
ATOM     71  C   UNL A   1      39.680  28.671  30.394  1.00  0.00     0.057 A 
ATOM     72  C   UNL A   1      39.121  27.391  30.311  1.00  0.00     0.134 A 
ATOM     73  C   UNL A   1      40.245  29.203  29.227  1.00  0.00     0.134 A 
ATOM     74  F   UNL A   1      38.595  26.812  31.400  1.00  0.00    -0.206 F 
ATOM     75  C   UNL A   1      39.125  26.668  29.115  1.00  0.00     0.040 A 
ATOM     76  C   UNL A   1      40.231  28.504  28.020  1.00  0.00     0.040 A 
ATOM     77  F   UNL A   1      40.809  30.420  29.241  1.00  0.00    -0.206 F 
ATOM     78  C   UNL A   1      39.673  27.229  27.963  1.00  0.00     0.006 A 
ENDBRANCH  50  71
BRANCH  62  79
ATOM     79  C   UNL A   1      44.435  29.433  35.415  1.00  0.00     0.057 A 
ATOM     80  C   UNL A   1      44.663  28.214  36.064  1.00  0.00     0.134 A 
ATOM     81  C   UNL A   1      45.544  30.109  34.891  1.00  0.00     0.134 A 
ATOM     82  F   UNL A   1      43.642  27.527  36.598  1.00  0.00    -0.206 F 
ATOM     83  C   UNL A   1      45.950  27.693  36.200  1.00  0.00     0.040 A 
ATOM     84  C   UNL A   1      46.833  29.588  35.003  1.00  0.00     0.040 A 
ATOM     85  F   UNL A   1      45.389  31.279  34.253  1.00  0.00    -0.206 F 
ATOM     86  C   UNL A   1      47.039  28.378  35.662  1.00  0.00     0.006 A 
ENDBRANCH  62  79
ENDBRANCH  36  37
ENDBRANCH  29  31
ENDBRANCH  28  29
ENDBRANCH  27  28
ENDBRANCH  26  27
ENDBRANCH  25  26
ENDBRANCH  24  25
ENDBRANCH   1  24
TORSDOF 22
ENDMDL
MODEL 3
REMARK VINA RESULT:      -9.4      1.449      2.857
REMARK SMILES C#CC[N@H+](CC(=O)NC(=O)NC)CC(=O)OCCOCCOCCOC(=O)c1ccc(-c2c3nc(c(-c4c(F)cccc4F)c4ccc([nH]4)c(-c4c(F)cccc4F)c4nc(c(-c5c(F)cccc5F)c5ccc2[nH]5)C=C4)C=C3)cc1
REMARK SMILES IDX 20 1 19 2 18 3 17 4 16 5 14 6 15 7 13 8 4 9 3 11 2 12 1 13
REMARK SMILES IDX 5 14 6 15 7 16 8 17 9 18 10 20 11 21 12 22 21 24 22 25 23 26
REMARK SMILES IDX 24 27 25 28 26 29 27 30 28 31 29 32 81 33 30 34 80 35 31 36
REMARK SMILES IDX 32 37 33 38 74 39 34 40 79 41 73 42 75 43 35 44 78 45 72 46
REMARK SMILES IDX 71 47 36 49 62 50 45 51 61 52 46 53 49 54 60 55 76 56 47 57
REMARK SMILES IDX 48 58 59 60 77 61 50 62 37 63 38 64 43 65 39 66 40 67 42 68
REMARK SMILES IDX 44 69 41 70 63 71 64 72 69 73 65 74 66 75 68 76 70 77 67 78
REMARK SMILES IDX 51 79 52 80 57 81 53 82 54 83 56 84 58 85 55 86
REMARK H PARENT 4 10 8 19 11 23 75 48 49 59
REMARK Flexibility Score: inf
ROOT
ATOM      1  C   UNL A   1      33.242  26.328  23.007  1.00  0.00     0.188 C 
ENDROOT
BRANCH   1   2
ATOM      2  O   UNL A   1      34.341  26.314  23.908  1.00  0.00    -0.376 OA
BRANCH   2   3
ATOM      3  C   UNL A   1      34.508  25.156  24.731  1.00  0.00     0.202 C 
BRANCH   3   4
ATOM      4  C   UNL A   1      33.368  24.876  25.715  1.00  0.00     0.261 C 
BRANCH   4   5
ATOM      5  O   UNL A   1      33.718  23.701  26.456  1.00  0.00    -0.459 OA
BRANCH   5   6
ATOM      6  C   UNL A   1      32.726  22.998  27.056  1.00  0.00     0.361 C 
ATOM      7  O   UNL A   1      31.688  23.486  27.488  1.00  0.00    -0.245 OA
BRANCH   6   8
ATOM      8  C   UNL A   1      33.008  21.488  27.018  1.00  0.00     0.387 C 
BRANCH   8   9
ATOM      9  N   UNL A   1      32.977  20.958  25.646  1.00  0.00    -0.308 N 
ATOM     10  H   UNL A   1      33.817  21.402  25.276  1.00  0.00     0.349 HD
BRANCH   9  11
ATOM     11  C   UNL A   1      31.974  21.451  24.721  1.00  0.00     0.354 C 
BRANCH  11  12
ATOM     12  C   UNL A   1      32.431  22.150  23.451  1.00  0.00    -0.047 C 
ATOM     13  C   UNL A   1      32.823  22.749  22.362  1.00  0.00     0.010 C 
ENDBRANCH  11  12
ENDBRANCH   9  11
BRANCH   9  14
ATOM     14  C   UNL A   1      33.153  19.497  25.567  1.00  0.00     0.365 C 
BRANCH  14  15
ATOM     15  C   UNL A   1      34.463  19.101  24.888  1.00  0.00     0.283 C 
ATOM     16  O   UNL A   1      35.446  19.851  24.950  1.00  0.00    -0.268 OA
ATOM     17  N   UNL A   1      34.619  17.918  24.194  1.00  0.00    -0.273 N 
ATOM     18  C   UNL A   1      33.762  17.039  23.610  1.00  0.00     0.321 C 
ATOM     19  H   UNL A   1      35.561  17.652  24.099  1.00  0.00     0.175 HD
ATOM     20  O   UNL A   1      33.843  16.804  22.405  1.00  0.00    -0.248 OA
ATOM     21  N   UNL A   1      32.856  16.359  24.343  1.00  0.00    -0.341 N 
ATOM     22  C   UNL A   1      32.819  16.106  25.763  1.00  0.00     0.144 C 
ATOM     23  H   UNL A   1      32.105  15.978  23.831  1.00  0.00     0.165 HD
ENDBRANCH  14  15
ENDBRANCH   9  14
ENDBRANCH   8   9
ENDBRANCH   6   8
ENDBRANCH   5   6
ENDBRANCH   4   5
ENDBRANCH   3   4
ENDBRANCH   2   3
ENDBRANCH   1   2
BRANCH   1  24
ATOM     24  C   UNL A   1      32.113  27.337  23.249  1.00  0.00     0.188 C 
BRANCH  24  25
ATOM     25  O   UNL A   1      32.421  28.480  24.032  1.00  0.00    -0.376 OA
BRANCH  25  26
ATOM     26  C   UNL A   1      31.297  29.301  24.354  1.00  0.00     0.202 C 
BRANCH  26  27
ATOM     27  C   UNL A   1      31.370  29.828  25.793  1.00  0.00     0.261 C 
BRANCH  27  28
ATOM     28  O   UNL A   1      32.750  29.916  26.197  1.00  0.00    -0.460 OA
BRANCH  28  29
ATOM     29  C   UNL A   1      33.068  30.991  26.952  1.00  0.00     0.338 C 
ATOM     30  O   UNL A   1      32.338  31.871  27.369  1.00  0.00    -0.246 OA
BRANCH  29  31
ATOM     31  C   UNL A   1      34.464  30.846  27.385  1.00  0.00     0.060 A 
ATOM     32  C   UNL A   1      34.922  29.552  27.609  1.00  0.00     0.016 A 
ATOM     33  C   UNL A   1      35.276  31.938  27.679  1.00  0.00     0.016 A 
ATOM     34  C   UNL A   1      36.167  29.339  28.189  1.00  0.00     0.010 A 
ATOM     35  C   UNL A   1      36.538  31.717  28.253  1.00  0.00     0.010 A 
ATOM     36  C   UNL A   1      36.975  30.414  28.561  1.00  0.00    -0.014 A 
BRANCH  36  37
ATOM     37  C   UNL A   1      38.152  30.169  29.444  1.00  0.00     0.031 A 
ATOM     38  C   UNL A   1      39.309  29.378  28.893  1.00  0.00     0.074 A 
ATOM     39  C   UNL A   1      38.282  30.732  30.661  1.00  0.00     0.049 A 
ATOM     40  N   UNL A   1      40.302  28.808  29.522  1.00  0.00    -0.248 NA
ATOM     41  C   UNL A   1      39.348  29.213  27.430  1.00  0.00     0.031 C 
ATOM     42  C   UNL A   1      37.346  31.673  31.275  1.00  0.00     0.029 A 
ATOM     43  N   UNL A   1      39.283  30.604  31.597  1.00  0.00    -0.354 N 
ATOM     44  C   UNL A   1      41.029  28.139  28.545  1.00  0.00     0.074 A 
ATOM     45  C   UNL A   1      40.387  28.406  27.277  1.00  0.00     0.031 C 
ATOM     46  C   UNL A   1      37.828  32.058  32.468  1.00  0.00     0.029 A 
ATOM     47  C   UNL A   1      39.048  31.309  32.753  1.00  0.00     0.049 A 
ATOM     48  H   UNL A   1      40.089  30.058  31.453  1.00  0.00     0.167 HD
ATOM     49  C   UNL A   1      42.121  27.354  28.702  1.00  0.00     0.037 A 
ATOM     50  C   UNL A   1      39.703  31.301  33.931  1.00  0.00     0.037 A 
ATOM     51  C   UNL A   1      42.798  27.159  29.956  1.00  0.00     0.049 A 
ATOM     52  C   UNL A   1      40.873  30.373  34.115  1.00  0.00     0.074 A 
ATOM     53  C   UNL A   1      43.870  26.335  30.245  1.00  0.00     0.029 A 
ATOM     54  N   UNL A   1      42.482  27.833  31.125  1.00  0.00    -0.354 N 
ATOM     55  N   UNL A   1      41.446  29.581  33.239  1.00  0.00    -0.248 NA
ATOM     56  C   UNL A   1      41.462  30.305  35.460  1.00  0.00     0.031 C 
ATOM     57  C   UNL A   1      44.193  26.497  31.597  1.00  0.00     0.029 A 
ATOM     58  C   UNL A   1      43.341  27.447  32.139  1.00  0.00     0.049 A 
ATOM     59  H   UNL A   1      41.755  28.489  31.221  1.00  0.00     0.167 HD
ATOM     60  C   UNL A   1      42.454  28.919  33.927  1.00  0.00     0.074 A 
ATOM     61  C   UNL A   1      42.437  29.422  35.285  1.00  0.00     0.031 C 
ATOM     62  C   UNL A   1      43.308  27.966  33.481  1.00  0.00     0.037 A 
BRANCH  49  63
ATOM     63  C   UNL A   1      42.596  26.592  27.503  1.00  0.00     0.057 A 
ATOM     64  C   UNL A   1      42.129  25.311  27.188  1.00  0.00     0.134 A 
ATOM     65  C   UNL A   1      43.547  27.163  26.645  1.00  0.00     0.134 A 
ATOM     66  F   UNL A   1      41.239  24.699  27.983  1.00  0.00    -0.206 F 
ATOM     67  C   UNL A   1      42.605  24.616  26.075  1.00  0.00     0.040 A 
ATOM     68  C   UNL A   1      44.013  26.489  25.516  1.00  0.00     0.040 A 
ATOM     69  F   UNL A   1      44.036  28.388  26.892  1.00  0.00    -0.206 F 
ATOM     70  C   UNL A   1      43.546  25.208  25.232  1.00  0.00     0.006 A 
ENDBRANCH  49  63
BRANCH  50  71
ATOM     71  C   UNL A   1      39.205  32.122  35.068  1.00  0.00     0.057 A 
ATOM     72  C   UNL A   1      39.587  33.459  35.223  1.00  0.00     0.134 A 
ATOM     73  C   UNL A   1      38.353  31.580  36.039  1.00  0.00     0.134 A 
ATOM     74  F   UNL A   1      40.429  34.027  34.347  1.00  0.00    -0.206 F 
ATOM     75  C   UNL A   1      39.140  34.226  36.301  1.00  0.00     0.040 A 
ATOM     76  C   UNL A   1      37.876  32.342  37.105  1.00  0.00     0.040 A 
ATOM     77  F   UNL A   1      37.959  30.300  35.956  1.00  0.00    -0.206 F 
ATOM     78  C   UNL A   1      38.274  33.670  37.242  1.00  0.00     0.006 A 
ENDBRANCH  50  71
BRANCH  62  79
ATOM     79  C   UNL A   1      44.302  27.424  34.463  1.00  0.00     0.057 A 
ATOM     80  C   UNL A   1      44.031  26.280  35.223  1.00  0.00     0.134 A 
ATOM     81  C   UNL A   1      45.555  28.029  34.619  1.00  0.00     0.134 A 
ATOM     82  F   UNL A   1      42.843  25.665  35.126  1.00  0.00    -0.206 F 
ATOM     83  C   UNL A   1      44.969  25.765  36.119  1.00  0.00     0.040 A 
ATOM     84  C   UNL A   1      46.508  27.511  35.496  1.00  0.00     0.040 A 
ATOM     85  F   UNL A   1      45.875  29.123  33.913  1.00  0.00    -0.206 F 
ATOM     86  C   UNL A   1      46.215  26.378  36.252  1.00  0.00     0.006 A 
ENDBRANCH  62  79
ENDBRANCH  36  37
ENDBRANCH  29  31
ENDBRANCH  28  29
ENDBRANCH  27  28
ENDBRANCH  26  27
ENDBRANCH  25  26
ENDBRANCH  24  25
ENDBRANCH   1  24
TORSDOF 22
ENDMDL
