MODEL 1
REMARK VINA RESULT:      -9.7      0.000      0.000
REMARK SMILES COc1ccc(-c2nc(NCC(=O)OCCOCCOCCOC(=O)c3ccc(-c4c5nc(c(-c6c(F)cccc6F)c6ccc([nH]6)c(-c6c(F)cccc6F)c6nc(c(-c7c(F)cccc7F)c7ccc4[nH]7)C=C6)C=C5)cc3)sc2-c2ccc(OC)cc2)cc1
REMARK SMILES IDX 18 1 17 2 16 3 15 4 14 5 12 6 13 7 11 8 10 9 9 11 7 12 8 13
REMARK SMILES IDX 81 14 80 15 6 16 3 17 4 18 91 19 5 20 90 21 2 22 1 23 82 24
REMARK SMILES IDX 83 25 89 26 84 27 88 28 85 29 86 30 87 31 19 32 20 33 21 34
REMARK SMILES IDX 22 35 23 36 24 37 25 38 26 39 27 40 79 41 28 42 78 43 29 44
REMARK SMILES IDX 30 45 31 46 72 47 32 48 77 49 71 50 73 51 33 52 76 53 70 54
REMARK SMILES IDX 69 55 34 57 60 58 43 59 59 60 44 61 47 62 58 63 74 64 45 65
REMARK SMILES IDX 46 66 57 68 75 69 48 70 35 71 36 72 41 73 37 74 38 75 40 76
REMARK SMILES IDX 42 77 39 78 61 79 62 80 67 81 63 82 64 83 66 84 68 85 65 86
REMARK SMILES IDX 49 87 50 88 55 89 51 90 52 91 54 92 56 93 53 94
REMARK H PARENT 10 10 73 56 47 67
REMARK Flexibility Score: inf
ROOT
ATOM      1  C   UNL A   1      44.501  18.841  25.251  1.00  0.00     0.188 C 
ENDROOT
BRANCH   1   2
ATOM      2  O   UNL A   1      43.790  18.078  26.221  1.00  0.00    -0.376 OA
BRANCH   2   3
ATOM      3  C   UNL A   1      42.369  18.191  26.275  1.00  0.00     0.202 C 
BRANCH   3   4
ATOM      4  C   UNL A   1      41.750  19.600  26.220  1.00  0.00     0.261 C 
BRANCH   4   5
ATOM      5  O   UNL A   1      41.341  20.125  27.502  1.00  0.00    -0.462 OA
BRANCH   5   6
ATOM      6  C   UNL A   1      41.523  21.459  27.709  1.00  0.00     0.325 C 
ATOM      7  O   UNL A   1      42.581  21.951  28.090  1.00  0.00    -0.250 OA
BRANCH   6   8
ATOM      8  C   UNL A   1      40.354  22.340  27.241  1.00  0.00     0.238 C 
BRANCH   8   9
ATOM      9  N   UNL A   1      39.673  21.969  26.007  1.00  0.00    -0.351 N 
ATOM     10  H   UNL A   1      40.224  21.568  25.297  1.00  0.00     0.163 HD
BRANCH   9  11
ATOM     11  C   UNL A   1      38.361  22.126  25.746  1.00  0.00     0.184 A 
ATOM     12  C   UNL A   1      36.295  21.501  25.232  1.00  0.00     0.091 A 
ATOM     13  N   UNL A   1      37.566  21.087  25.597  1.00  0.00    -0.220 NA
ATOM     14  C   UNL A   1      36.145  22.873  25.111  1.00  0.00     0.064 A 
ATOM     15  S   UNL A   1      37.608  23.650  25.537  1.00  0.00    -0.096 S 
BRANCH  12  16
ATOM     16  C   UNL A   1      35.181  20.573  25.054  1.00  0.00     0.002 A 
ATOM     17  C   UNL A   1      33.163  18.623  25.138  1.00  0.00     0.118 A 
ATOM     18  C   UNL A   1      32.886  19.932  25.529  1.00  0.00     0.047 A 
ATOM     19  C   UNL A   1      34.418  18.306  24.620  1.00  0.00     0.047 A 
ATOM     20  C   UNL A   1      33.891  20.903  25.494  1.00  0.00     0.014 A 
ATOM     21  C   UNL A   1      35.425  19.280  24.573  1.00  0.00     0.014 A 
BRANCH  17  22
ATOM     22  O   UNL A   1      32.140  17.721  25.249  1.00  0.00    -0.497 OA
ATOM     23  C   UNL A   1      32.583  16.395  25.533  1.00  0.00     0.278 C 
ENDBRANCH  17  22
ENDBRANCH  12  16
BRANCH  14  24
ATOM     24  C   UNL A   1      34.991  23.694  24.782  1.00  0.00    -0.006 A 
ATOM     25  C   UNL A   1      34.492  23.731  23.475  1.00  0.00     0.013 A 
ATOM     26  C   UNL A   1      34.380  24.466  25.773  1.00  0.00     0.013 A 
ATOM     27  C   UNL A   1      33.410  24.552  23.165  1.00  0.00     0.047 A 
ATOM     28  C   UNL A   1      33.293  25.282  25.462  1.00  0.00     0.047 A 
ATOM     29  C   UNL A   1      32.807  25.332  24.154  1.00  0.00     0.118 A 
BRANCH  29  30
ATOM     30  O   UNL A   1      31.766  26.102  23.720  1.00  0.00    -0.497 OA
ATOM     31  C   UNL A   1      30.502  25.456  23.632  1.00  0.00     0.278 C 
ENDBRANCH  29  30
ENDBRANCH  14  24
ENDBRANCH   9  11
ENDBRANCH   8   9
ENDBRANCH   6   8
ENDBRANCH   5   6
ENDBRANCH   4   5
ENDBRANCH   3   4
ENDBRANCH   2   3
ENDBRANCH   1   2
BRANCH   1  32
ATOM     32  C   UNL A   1      46.029  18.977  25.383  1.00  0.00     0.188 C 
BRANCH  32  33
ATOM     33  O   UNL A   1      46.492  20.305  25.343  1.00  0.00    -0.376 OA
BRANCH  33  34
ATOM     34  C   UNL A   1      45.576  21.313  24.971  1.00  0.00     0.202 C 
BRANCH  34  35
ATOM     35  C   UNL A   1      45.300  22.417  26.003  1.00  0.00     0.261 C 
BRANCH  35  36
ATOM     36  O   UNL A   1      46.365  23.358  26.237  1.00  0.00    -0.460 OA
BRANCH  36  37
ATOM     37  C   UNL A   1      46.497  24.377  25.361  1.00  0.00     0.338 C 
ATOM     38  O   UNL A   1      46.808  24.295  24.179  1.00  0.00    -0.246 OA
BRANCH  37  39
ATOM     39  C   UNL A   1      45.976  25.604  26.005  1.00  0.00     0.060 A 
ATOM     40  C   UNL A   1      45.167  26.478  25.264  1.00  0.00     0.016 A 
ATOM     41  C   UNL A   1      46.280  25.888  27.337  1.00  0.00     0.016 A 
ATOM     42  C   UNL A   1      44.676  27.650  25.847  1.00  0.00     0.010 A 
ATOM     43  C   UNL A   1      45.811  27.073  27.912  1.00  0.00     0.010 A 
ATOM     44  C   UNL A   1      45.031  27.975  27.163  1.00  0.00    -0.014 A 
BRANCH  44  45
ATOM     45  C   UNL A   1      44.769  29.336  27.695  1.00  0.00     0.031 A 
ATOM     46  C   UNL A   1      45.835  30.384  27.526  1.00  0.00     0.074 A 
ATOM     47  C   UNL A   1      43.621  29.645  28.322  1.00  0.00     0.049 A 
ATOM     48  N   UNL A   1      45.884  31.608  27.988  1.00  0.00    -0.248 NA
ATOM     49  C   UNL A   1      47.008  29.992  26.730  1.00  0.00     0.031 C 
ATOM     50  C   UNL A   1      42.488  28.742  28.512  1.00  0.00     0.029 A 
ATOM     51  N   UNL A   1      43.228  30.812  28.932  1.00  0.00    -0.354 N 
ATOM     52  C   UNL A   1      47.097  32.125  27.552  1.00  0.00     0.074 A 
ATOM     53  C   UNL A   1      47.766  31.074  26.815  1.00  0.00     0.031 C 
ATOM     54  C   UNL A   1      41.533  29.383  29.208  1.00  0.00     0.029 A 
ATOM     55  C   UNL A   1      42.003  30.726  29.546  1.00  0.00     0.049 A 
ATOM     56  H   UNL A   1      43.774  31.631  28.929  1.00  0.00     0.167 HD
ATOM     57  C   UNL A   1      47.610  33.363  27.744  1.00  0.00     0.037 A 
ATOM     58  C   UNL A   1      41.351  31.620  30.318  1.00  0.00     0.037 A 
ATOM     59  C   UNL A   1      46.948  34.406  28.482  1.00  0.00     0.049 A 
ATOM     60  C   UNL A   1      41.979  32.963  30.593  1.00  0.00     0.074 A 
ATOM     61  C   UNL A   1      47.377  35.701  28.717  1.00  0.00     0.029 A 
ATOM     62  N   UNL A   1      45.723  34.270  29.117  1.00  0.00    -0.354 N 
ATOM     63  N   UNL A   1      43.116  33.453  30.161  1.00  0.00    -0.248 NA
ATOM     64  C   UNL A   1      41.228  33.879  31.467  1.00  0.00     0.031 C 
ATOM     65  C   UNL A   1      46.440  36.328  29.544  1.00  0.00     0.029 A 
ATOM     66  C   UNL A   1      45.395  35.447  29.771  1.00  0.00     0.049 A 
ATOM     67  H   UNL A   1      45.167  33.456  29.106  1.00  0.00     0.167 HD
ATOM     68  C   UNL A   1      43.201  34.740  30.682  1.00  0.00     0.074 A 
ATOM     69  C   UNL A   1      41.995  34.960  31.452  1.00  0.00     0.031 C 
ATOM     70  C   UNL A   1      44.189  35.658  30.531  1.00  0.00     0.037 A 
BRANCH  57  71
ATOM     71  C   UNL A   1      48.972  33.640  27.178  1.00  0.00     0.057 A 
ATOM     72  C   UNL A   1      50.148  33.319  27.870  1.00  0.00     0.134 A 
ATOM     73  C   UNL A   1      49.109  34.227  25.913  1.00  0.00     0.134 A 
ATOM     74  F   UNL A   1      50.088  32.769  29.092  1.00  0.00    -0.206 F 
ATOM     75  C   UNL A   1      51.408  33.602  27.340  1.00  0.00     0.040 A 
ATOM     76  C   UNL A   1      50.364  34.486  25.359  1.00  0.00     0.040 A 
ATOM     77  F   UNL A   1      48.027  34.557  25.193  1.00  0.00    -0.206 F 
ATOM     78  C   UNL A   1      51.518  34.181  26.077  1.00  0.00     0.006 A 
ENDBRANCH  57  71
BRANCH  58  79
ATOM     79  C   UNL A   1      40.030  31.274  30.905  1.00  0.00     0.057 A 
ATOM     80  C   UNL A   1      39.936  30.557  32.104  1.00  0.00     0.134 A 
ATOM     81  C   UNL A   1      38.832  31.629  30.272  1.00  0.00     0.134 A 
ATOM     82  F   UNL A   1      41.047  30.162  32.743  1.00  0.00    -0.206 F 
ATOM     83  C   UNL A   1      38.701  30.191  32.643  1.00  0.00     0.040 A 
ATOM     84  C   UNL A   1      37.591  31.294  30.815  1.00  0.00     0.040 A 
ATOM     85  F   UNL A   1      38.853  32.313  29.119  1.00  0.00    -0.206 F 
ATOM     86  C   UNL A   1      37.523  30.567  32.001  1.00  0.00     0.006 A 
ENDBRANCH  58  79
BRANCH  70  87
ATOM     87  C   UNL A   1      43.991  37.003  31.174  1.00  0.00     0.057 A 
ATOM     88  C   UNL A   1      43.606  38.131  30.438  1.00  0.00     0.134 A 
ATOM     89  C   UNL A   1      44.144  37.160  32.558  1.00  0.00     0.134 A 
ATOM     90  F   UNL A   1      43.452  38.056  29.107  1.00  0.00    -0.206 F 
ATOM     91  C   UNL A   1      43.406  39.371  31.050  1.00  0.00     0.040 A 
ATOM     92  C   UNL A   1      43.917  38.386  33.186  1.00  0.00     0.040 A 
ATOM     93  F   UNL A   1      44.500  36.119  33.326  1.00  0.00    -0.206 F 
ATOM     94  C   UNL A   1      43.553  39.497  32.431  1.00  0.00     0.006 A 
ENDBRANCH  70  87
ENDBRANCH  44  45
ENDBRANCH  37  39
ENDBRANCH  36  37
ENDBRANCH  35  36
ENDBRANCH  34  35
ENDBRANCH  33  34
ENDBRANCH  32  33
ENDBRANCH   1  32
TORSDOF 23
ENDMDL
MODEL 2
REMARK VINA RESULT:      -9.7      4.764     11.321
REMARK SMILES COc1ccc(-c2nc(NCC(=O)OCCOCCOCCOC(=O)c3ccc(-c4c5nc(c(-c6c(F)cccc6F)c6ccc([nH]6)c(-c6c(F)cccc6F)c6nc(c(-c7c(F)cccc7F)c7ccc4[nH]7)C=C6)C=C5)cc3)sc2-c2ccc(OC)cc2)cc1
REMARK SMILES IDX 18 1 17 2 16 3 15 4 14 5 12 6 13 7 11 8 10 9 9 11 7 12 8 13
REMARK SMILES IDX 81 14 80 15 6 16 3 17 4 18 91 19 5 20 90 21 2 22 1 23 82 24
REMARK SMILES IDX 83 25 89 26 84 27 88 28 85 29 86 30 87 31 19 32 20 33 21 34
REMARK SMILES IDX 22 35 23 36 24 37 25 38 26 39 27 40 79 41 28 42 78 43 29 44
REMARK SMILES IDX 30 45 31 46 72 47 32 48 77 49 71 50 73 51 33 52 76 53 70 54
REMARK SMILES IDX 69 55 34 57 60 58 43 59 59 60 44 61 47 62 58 63 74 64 45 65
REMARK SMILES IDX 46 66 57 68 75 69 48 70 35 71 36 72 41 73 37 74 38 75 40 76
REMARK SMILES IDX 42 77 39 78 61 79 62 80 67 81 63 82 64 83 66 84 68 85 65 86
REMARK SMILES IDX 49 87 50 88 55 89 51 90 52 91 54 92 56 93 53 94
REMARK H PARENT 10 10 73 56 47 67
REMARK Flexibility Score: inf
ROOT
ATOM      1  C   UNL A   1      34.633  35.615  32.837  1.00  0.00     0.188 C 
ENDROOT
BRANCH   1   2
ATOM      2  O   UNL A   1      33.717  35.093  31.879  1.00  0.00    -0.376 OA
BRANCH   2   3
ATOM      3  C   UNL A   1      34.231  34.551  30.663  1.00  0.00     0.202 C 
BRANCH   3   4
ATOM      4  C   UNL A   1      33.787  35.194  29.337  1.00  0.00     0.261 C 
BRANCH   4   5
ATOM      5  O   UNL A   1      34.665  34.932  28.220  1.00  0.00    -0.462 OA
BRANCH   5   6
ATOM      6  C   UNL A   1      35.003  33.633  27.993  1.00  0.00     0.325 C 
ATOM      7  O   UNL A   1      36.153  33.207  28.060  1.00  0.00    -0.250 OA
BRANCH   6   8
ATOM      8  C   UNL A   1      33.807  32.682  27.833  1.00  0.00     0.238 C 
BRANCH   8   9
ATOM      9  N   UNL A   1      34.040  31.256  28.027  1.00  0.00    -0.351 N 
ATOM     10  H   UNL A   1      34.529  30.990  28.839  1.00  0.00     0.163 HD
BRANCH   9  11
ATOM     11  C   UNL A   1      33.650  30.269  27.198  1.00  0.00     0.184 A 
ATOM     12  C   UNL A   1      32.479  29.312  25.574  1.00  0.00     0.091 A 
ATOM     13  N   UNL A   1      32.807  30.497  26.213  1.00  0.00    -0.220 NA
ATOM     14  C   UNL A   1      33.093  28.185  26.095  1.00  0.00     0.064 A 
ATOM     15  S   UNL A   1      34.154  28.639  27.357  1.00  0.00    -0.096 S 
BRANCH  12  16
ATOM     16  C   UNL A   1      31.610  29.260  24.402  1.00  0.00     0.002 A 
ATOM     17  C   UNL A   1      29.945  29.631  22.172  1.00  0.00     0.118 A 
ATOM     18  C   UNL A   1      31.314  29.439  21.996  1.00  0.00     0.047 A 
ATOM     19  C   UNL A   1      29.391  29.547  23.449  1.00  0.00     0.047 A 
ATOM     20  C   UNL A   1      32.146  29.261  23.106  1.00  0.00     0.014 A 
ATOM     21  C   UNL A   1      30.221  29.357  24.562  1.00  0.00     0.014 A 
BRANCH  17  22
ATOM     22  O   UNL A   1      29.207  29.849  21.040  1.00  0.00    -0.497 OA
ATOM     23  C   UNL A   1      28.116  30.746  21.240  1.00  0.00     0.278 C 
ENDBRANCH  17  22
ENDBRANCH  12  16
BRANCH  14  24
ATOM     24  C   UNL A   1      33.039  26.785  25.701  1.00  0.00    -0.006 A 
ATOM     25  C   UNL A   1      32.046  25.941  26.210  1.00  0.00     0.013 A 
ATOM     26  C   UNL A   1      33.993  26.272  24.819  1.00  0.00     0.013 A 
ATOM     27  C   UNL A   1      32.029  24.593  25.855  1.00  0.00     0.047 A 
ATOM     28  C   UNL A   1      33.970  24.925  24.460  1.00  0.00     0.047 A 
ATOM     29  C   UNL A   1      32.990  24.079  24.982  1.00  0.00     0.118 A 
BRANCH  29  30
ATOM     30  O   UNL A   1      32.871  22.742  24.724  1.00  0.00    -0.497 OA
ATOM     31  C   UNL A   1      32.008  22.011  25.586  1.00  0.00     0.278 C 
ENDBRANCH  29  30
ENDBRANCH  14  24
ENDBRANCH   9  11
ENDBRANCH   8   9
ENDBRANCH   6   8
ENDBRANCH   5   6
ENDBRANCH   4   5
ENDBRANCH   3   4
ENDBRANCH   2   3
ENDBRANCH   1   2
BRANCH   1  32
ATOM     32  C   UNL A   1      36.008  34.943  32.997  1.00  0.00     0.188 C 
BRANCH  32  33
ATOM     33  O   UNL A   1      35.977  33.742  33.729  1.00  0.00    -0.376 OA
BRANCH  33  34
ATOM     34  C   UNL A   1      36.662  32.626  33.198  1.00  0.00     0.202 C 
BRANCH  34  35
ATOM     35  C   UNL A   1      35.877  31.723  32.234  1.00  0.00     0.261 C 
BRANCH  35  36
ATOM     36  O   UNL A   1      36.648  30.774  31.474  1.00  0.00    -0.460 OA
BRANCH  36  37
ATOM     37  C   UNL A   1      37.215  29.752  32.149  1.00  0.00     0.338 C 
ATOM     38  O   UNL A   1      36.754  29.166  33.121  1.00  0.00    -0.246 OA
BRANCH  37  39
ATOM     39  C   UNL A   1      38.395  29.295  31.380  1.00  0.00     0.060 A 
ATOM     40  C   UNL A   1      39.433  28.626  32.046  1.00  0.00     0.016 A 
ATOM     41  C   UNL A   1      38.474  29.519  30.005  1.00  0.00     0.016 A 
ATOM     42  C   UNL A   1      40.562  28.199  31.343  1.00  0.00     0.010 A 
ATOM     43  C   UNL A   1      39.616  29.116  29.306  1.00  0.00     0.010 A 
ATOM     44  C   UNL A   1      40.678  28.479  29.976  1.00  0.00    -0.014 A 
BRANCH  44  45
ATOM     45  C   UNL A   1      41.980  28.299  29.281  1.00  0.00     0.031 A 
ATOM     46  C   UNL A   1      42.274  26.963  28.656  1.00  0.00     0.074 A 
ATOM     47  C   UNL A   1      42.889  29.287  29.208  1.00  0.00     0.049 A 
ATOM     48  N   UNL A   1      43.369  26.531  28.086  1.00  0.00    -0.248 NA
ATOM     49  C   UNL A   1      41.179  25.980  28.685  1.00  0.00     0.031 C 
ATOM     50  C   UNL A   1      42.714  30.641  29.728  1.00  0.00     0.029 A 
ATOM     51  N   UNL A   1      44.155  29.290  28.676  1.00  0.00    -0.354 N 
ATOM     52  C   UNL A   1      43.102  25.223  27.703  1.00  0.00     0.074 A 
ATOM     53  C   UNL A   1      41.752  24.923  28.131  1.00  0.00     0.031 C 
ATOM     54  C   UNL A   1      43.840  31.341  29.504  1.00  0.00     0.029 A 
ATOM     55  C   UNL A   1      44.827  30.473  28.861  1.00  0.00     0.049 A 
ATOM     56  H   UNL A   1      44.544  28.517  28.206  1.00  0.00     0.167 HD
ATOM     57  C   UNL A   1      43.904  24.349  27.051  1.00  0.00     0.037 A 
ATOM     58  C   UNL A   1      46.102  30.806  28.573  1.00  0.00     0.037 A 
ATOM     59  C   UNL A   1      45.248  24.645  26.631  1.00  0.00     0.049 A 
ATOM     60  C   UNL A   1      47.008  29.788  27.925  1.00  0.00     0.074 A 
ATOM     61  C   UNL A   1      46.136  23.832  25.946  1.00  0.00     0.029 A 
ATOM     62  N   UNL A   1      45.905  25.843  26.867  1.00  0.00    -0.354 N 
ATOM     63  N   UNL A   1      46.742  28.561  27.548  1.00  0.00    -0.248 NA
ATOM     64  C   UNL A   1      48.395  30.206  27.666  1.00  0.00     0.031 C 
ATOM     65  C   UNL A   1      47.349  24.517  25.822  1.00  0.00     0.029 A 
ATOM     66  C   UNL A   1      47.197  25.781  26.370  1.00  0.00     0.049 A 
ATOM     67  H   UNL A   1      45.511  26.624  27.320  1.00  0.00     0.167 HD
ATOM     68  C   UNL A   1      47.915  28.074  26.978  1.00  0.00     0.074 A 
ATOM     69  C   UNL A   1      48.889  29.142  27.050  1.00  0.00     0.031 C 
ATOM     70  C   UNL A   1      48.158  26.852  26.441  1.00  0.00     0.037 A 
BRANCH  57  71
ATOM     71  C   UNL A   1      43.358  22.975  26.790  1.00  0.00     0.057 A 
ATOM     72  C   UNL A   1      43.026  22.537  25.501  1.00  0.00     0.134 A 
ATOM     73  C   UNL A   1      43.171  22.072  27.845  1.00  0.00     0.134 A 
ATOM     74  F   UNL A   1      43.165  23.356  24.448  1.00  0.00    -0.206 F 
ATOM     75  C   UNL A   1      42.498  21.264  25.275  1.00  0.00     0.040 A 
ATOM     76  C   UNL A   1      42.674  20.786  27.627  1.00  0.00     0.040 A 
ATOM     77  F   UNL A   1      43.472  22.424  29.104  1.00  0.00    -0.206 F 
ATOM     78  C   UNL A   1      42.328  20.383  26.340  1.00  0.00     0.006 A 
ENDBRANCH  57  71
BRANCH  58  79
ATOM     79  C   UNL A   1      46.613  32.161  28.907  1.00  0.00     0.057 A 
ATOM     80  C   UNL A   1      47.157  32.439  30.167  1.00  0.00     0.134 A 
ATOM     81  C   UNL A   1      46.547  33.215  27.988  1.00  0.00     0.134 A 
ATOM     82  F   UNL A   1      47.221  31.479  31.102  1.00  0.00    -0.206 F 
ATOM     83  C   UNL A   1      47.602  33.718  30.505  1.00  0.00     0.040 A 
ATOM     84  C   UNL A   1      47.014  34.492  28.303  1.00  0.00     0.040 A 
ATOM     85  F   UNL A   1      46.033  33.016  26.765  1.00  0.00    -0.206 F 
ATOM     86  C   UNL A   1      47.537  34.748  29.568  1.00  0.00     0.006 A 
ENDBRANCH  58  79
BRANCH  70  87
ATOM     87  C   UNL A   1      49.519  26.614  25.845  1.00  0.00     0.057 A 
ATOM     88  C   UNL A   1      50.529  25.939  26.541  1.00  0.00     0.134 A 
ATOM     89  C   UNL A   1      49.804  27.026  24.536  1.00  0.00     0.134 A 
ATOM     90  F   UNL A   1      50.328  25.524  27.802  1.00  0.00    -0.206 F 
ATOM     91  C   UNL A   1      51.782  25.705  25.968  1.00  0.00     0.040 A 
ATOM     92  C   UNL A   1      51.041  26.772  23.942  1.00  0.00     0.040 A 
ATOM     93  F   UNL A   1      48.879  27.668  23.808  1.00  0.00    -0.206 F 
ATOM     94  C   UNL A   1      52.037  26.116  24.660  1.00  0.00     0.006 A 
ENDBRANCH  70  87
ENDBRANCH  44  45
ENDBRANCH  37  39
ENDBRANCH  36  37
ENDBRANCH  35  36
ENDBRANCH  34  35
ENDBRANCH  33  34
ENDBRANCH  32  33
ENDBRANCH   1  32
TORSDOF 23
ENDMDL
MODEL 3
REMARK VINA RESULT:      -9.3      0.467      5.946
REMARK SMILES COc1ccc(-c2nc(NCC(=O)OCCOCCOCCOC(=O)c3ccc(-c4c5nc(c(-c6c(F)cccc6F)c6ccc([nH]6)c(-c6c(F)cccc6F)c6nc(c(-c7c(F)cccc7F)c7ccc4[nH]7)C=C6)C=C5)cc3)sc2-c2ccc(OC)cc2)cc1
REMARK SMILES IDX 18 1 17 2 16 3 15 4 14 5 12 6 13 7 11 8 10 9 9 11 7 12 8 13
REMARK SMILES IDX 81 14 80 15 6 16 3 17 4 18 91 19 5 20 90 21 2 22 1 23 82 24
REMARK SMILES IDX 83 25 89 26 84 27 88 28 85 29 86 30 87 31 19 32 20 33 21 34
REMARK SMILES IDX 22 35 23 36 24 37 25 38 26 39 27 40 79 41 28 42 78 43 29 44
REMARK SMILES IDX 30 45 31 46 72 47 32 48 77 49 71 50 73 51 33 52 76 53 70 54
REMARK SMILES IDX 69 55 34 57 60 58 43 59 59 60 44 61 47 62 58 63 74 64 45 65
REMARK SMILES IDX 46 66 57 68 75 69 48 70 35 71 36 72 41 73 37 74 38 75 40 76
REMARK SMILES IDX 42 77 39 78 61 79 62 80 67 81 63 82 64 83 66 84 68 85 65 86
REMARK SMILES IDX 49 87 50 88 55 89 51 90 52 91 54 92 56 93 53 94
REMARK H PARENT 10 10 73 56 47 67
REMARK Flexibility Score: inf
ROOT
ATOM      1  C   UNL A   1      44.519  18.867  25.273  1.00  0.00     0.188 C 
ENDROOT
BRANCH   1   2
ATOM      2  O   UNL A   1      43.766  18.037  26.153  1.00  0.00    -0.376 OA
BRANCH   2   3
ATOM      3  C   UNL A   1      42.341  18.096  26.099  1.00  0.00     0.202 C 
BRANCH   3   4
ATOM      4  C   UNL A   1      41.670  19.481  26.124  1.00  0.00     0.261 C 
BRANCH   4   5
ATOM      5  O   UNL A   1      41.409  19.997  27.448  1.00  0.00    -0.462 OA
BRANCH   5   6
ATOM      6  C   UNL A   1      41.554  21.338  27.627  1.00  0.00     0.325 C 
ATOM      7  O   UNL A   1      42.576  21.861  28.063  1.00  0.00    -0.250 OA
BRANCH   6   8
ATOM      8  C   UNL A   1      40.405  22.185  27.058  1.00  0.00     0.238 C 
BRANCH   8   9
ATOM      9  N   UNL A   1      39.675  21.658  25.910  1.00  0.00    -0.351 N 
ATOM     10  H   UNL A   1      40.189  21.124  25.262  1.00  0.00     0.163 HD
BRANCH   9  11
ATOM     11  C   UNL A   1      38.365  21.834  25.654  1.00  0.00     0.184 A 
ATOM     12  C   UNL A   1      36.286  21.239  25.155  1.00  0.00     0.091 A 
ATOM     13  N   UNL A   1      37.552  20.807  25.519  1.00  0.00    -0.220 NA
ATOM     14  C   UNL A   1      36.160  22.612  25.020  1.00  0.00     0.064 A 
ATOM     15  S   UNL A   1      37.637  23.369  25.432  1.00  0.00    -0.096 S 
BRANCH  12  16
ATOM     16  C   UNL A   1      35.156  20.328  24.992  1.00  0.00     0.002 A 
ATOM     17  C   UNL A   1      33.111  18.409  25.101  1.00  0.00     0.118 A 
ATOM     18  C   UNL A   1      32.859  19.720  25.499  1.00  0.00     0.047 A 
ATOM     19  C   UNL A   1      34.353  18.074  24.563  1.00  0.00     0.047 A 
ATOM     20  C   UNL A   1      33.878  20.676  25.451  1.00  0.00     0.014 A 
ATOM     21  C   UNL A   1      35.373  19.033  24.504  1.00  0.00     0.014 A 
BRANCH  17  22
ATOM     22  O   UNL A   1      32.076  17.521  25.225  1.00  0.00    -0.497 OA
ATOM     23  C   UNL A   1      32.502  16.195  25.536  1.00  0.00     0.278 C 
ENDBRANCH  17  22
ENDBRANCH  12  16
BRANCH  14  24
ATOM     24  C   UNL A   1      35.017  23.449  24.688  1.00  0.00    -0.006 A 
ATOM     25  C   UNL A   1      34.334  23.275  23.479  1.00  0.00     0.013 A 
ATOM     26  C   UNL A   1      34.605  24.448  25.574  1.00  0.00     0.013 A 
ATOM     27  C   UNL A   1      33.266  24.109  23.156  1.00  0.00     0.047 A 
ATOM     28  C   UNL A   1      33.531  25.277  25.251  1.00  0.00     0.047 A 
ATOM     29  C   UNL A   1      32.862  25.114  24.036  1.00  0.00     0.118 A 
BRANCH  29  30
ATOM     30  O   UNL A   1      31.813  25.871  23.597  1.00  0.00    -0.497 OA
ATOM     31  C   UNL A   1      30.520  25.299  23.746  1.00  0.00     0.278 C 
ENDBRANCH  29  30
ENDBRANCH  14  24
ENDBRANCH   9  11
ENDBRANCH   8   9
ENDBRANCH   6   8
ENDBRANCH   5   6
ENDBRANCH   4   5
ENDBRANCH   3   4
ENDBRANCH   2   3
ENDBRANCH   1   2
BRANCH   1  32
ATOM     32  C   UNL A   1      46.044  18.962  25.461  1.00  0.00     0.188 C 
BRANCH  32  33
ATOM     33  O   UNL A   1      46.534  20.280  25.512  1.00  0.00    -0.376 OA
BRANCH  33  34
ATOM     34  C   UNL A   1      45.645  21.329  25.193  1.00  0.00     0.202 C 
BRANCH  34  35
ATOM     35  C   UNL A   1      45.435  22.412  26.263  1.00  0.00     0.261 C 
BRANCH  35  36
ATOM     36  O   UNL A   1      46.452  23.427  26.357  1.00  0.00    -0.460 OA
BRANCH  36  37
ATOM     37  C   UNL A   1      46.458  24.389  25.410  1.00  0.00     0.338 C 
ATOM     38  O   UNL A   1      46.574  24.231  24.201  1.00  0.00    -0.246 OA
BRANCH  37  39
ATOM     39  C   UNL A   1      46.067  25.665  26.053  1.00  0.00     0.060 A 
ATOM     40  C   UNL A   1      45.537  26.697  25.264  1.00  0.00     0.016 A 
ATOM     41  C   UNL A   1      46.216  25.839  27.429  1.00  0.00     0.016 A 
ATOM     42  C   UNL A   1      45.175  27.914  25.847  1.00  0.00     0.010 A 
ATOM     43  C   UNL A   1      45.878  27.066  28.008  1.00  0.00     0.010 A 
ATOM     44  C   UNL A   1      45.383  28.120  27.217  1.00  0.00    -0.014 A 
BRANCH  44  45
ATOM     45  C   UNL A   1      45.283  29.486  27.793  1.00  0.00     0.031 A 
ATOM     46  C   UNL A   1      44.058  29.832  28.593  1.00  0.00     0.074 A 
ATOM     47  C   UNL A   1      46.246  30.406  27.611  1.00  0.00     0.049 A 
ATOM     48  N   UNL A   1      43.694  30.978  29.110  1.00  0.00    -0.248 NA
ATOM     49  C   UNL A   1      43.111  28.733  28.837  1.00  0.00     0.031 C 
ATOM     50  C   UNL A   1      47.504  30.189  26.901  1.00  0.00     0.029 A 
ATOM     51  N   UNL A   1      46.302  31.722  28.004  1.00  0.00    -0.354 N 
ATOM     52  C   UNL A   1      42.471  30.741  29.725  1.00  0.00     0.074 A 
ATOM     53  C   UNL A   1      42.142  29.351  29.492  1.00  0.00     0.031 C 
ATOM     54  C   UNL A   1      48.201  31.339  26.891  1.00  0.00     0.029 A 
ATOM     55  C   UNL A   1      47.423  32.380  27.561  1.00  0.00     0.049 A 
ATOM     56  H   UNL A   1      45.604  32.151  28.549  1.00  0.00     0.167 HD
ATOM     57  C   UNL A   1      41.693  31.600  30.424  1.00  0.00     0.037 A 
ATOM     58  C   UNL A   1      47.764  33.682  27.659  1.00  0.00     0.037 A 
ATOM     59  C   UNL A   1      42.017  32.984  30.651  1.00  0.00     0.049 A 
ATOM     60  C   UNL A   1      46.840  34.642  28.366  1.00  0.00     0.074 A 
ATOM     61  C   UNL A   1      41.302  33.932  31.362  1.00  0.00     0.029 A 
ATOM     62  N   UNL A   1      43.146  33.622  30.157  1.00  0.00    -0.354 N 
ATOM     63  N   UNL A   1      45.696  34.407  28.962  1.00  0.00    -0.248 NA
ATOM     64  C   UNL A   1      47.258  36.052  28.411  1.00  0.00     0.031 C 
ATOM     65  C   UNL A   1      41.967  35.156  31.249  1.00  0.00     0.029 A 
ATOM     66  C   UNL A   1      43.130  34.959  30.522  1.00  0.00     0.049 A 
ATOM     67  H   UNL A   1      43.853  33.189  29.626  1.00  0.00     0.167 HD
ATOM     68  C   UNL A   1      45.277  35.629  29.480  1.00  0.00     0.074 A 
ATOM     69  C   UNL A   1      46.294  36.599  29.137  1.00  0.00     0.031 C 
ATOM     70  C   UNL A   1      44.151  35.917  30.180  1.00  0.00     0.037 A 
BRANCH  57  71
ATOM     71  C   UNL A   1      40.393  31.072  30.959  1.00  0.00     0.057 A 
ATOM     72  C   UNL A   1      39.172  31.296  30.309  1.00  0.00     0.134 A 
ATOM     73  C   UNL A   1      40.366  30.318  32.140  1.00  0.00     0.134 A 
ATOM     74  F   UNL A   1      39.126  32.023  29.183  1.00  0.00    -0.206 F 
ATOM     75  C   UNL A   1      37.968  30.817  30.830  1.00  0.00     0.040 A 
ATOM     76  C   UNL A   1      39.172  29.807  32.653  1.00  0.00     0.040 A 
ATOM     77  F   UNL A   1      41.498  30.062  32.812  1.00  0.00    -0.206 F 
ATOM     78  C   UNL A   1      37.968  30.064  32.002  1.00  0.00     0.006 A 
ENDBRANCH  57  71
BRANCH  58  79
ATOM     79  C   UNL A   1      49.034  34.166  27.059  1.00  0.00     0.057 A 
ATOM     80  C   UNL A   1      49.083  34.623  25.736  1.00  0.00     0.134 A 
ATOM     81  C   UNL A   1      50.234  34.161  27.782  1.00  0.00     0.134 A 
ATOM     82  F   UNL A   1      47.974  34.625  24.982  1.00  0.00    -0.206 F 
ATOM     83  C   UNL A   1      50.278  35.042  25.150  1.00  0.00     0.040 A 
ATOM     84  C   UNL A   1      51.431  34.604  27.217  1.00  0.00     0.040 A 
ATOM     85  F   UNL A   1      50.257  33.733  29.052  1.00  0.00    -0.206 F 
ATOM     86  C   UNL A   1      51.457  35.040  25.895  1.00  0.00     0.006 A 
ENDBRANCH  58  79
BRANCH  70  87
ATOM     87  C   UNL A   1      43.976  37.331  30.664  1.00  0.00     0.057 A 
ATOM     88  C   UNL A   1      44.394  37.739  31.936  1.00  0.00     0.134 A 
ATOM     89  C   UNL A   1      43.424  38.307  29.823  1.00  0.00     0.134 A 
ATOM     90  F   UNL A   1      44.922  36.856  32.796  1.00  0.00    -0.206 F 
ATOM     91  C   UNL A   1      44.245  39.061  32.365  1.00  0.00     0.040 A 
ATOM     92  C   UNL A   1      43.298  39.636  30.229  1.00  0.00     0.040 A 
ATOM     93  F   UNL A   1      43.013  37.988  28.587  1.00  0.00    -0.206 F 
ATOM     94  C   UNL A   1      43.702  40.015  31.506  1.00  0.00     0.006 A 
ENDBRANCH  70  87
ENDBRANCH  44  45
ENDBRANCH  37  39
ENDBRANCH  36  37
ENDBRANCH  35  36
ENDBRANCH  34  35
ENDBRANCH  33  34
ENDBRANCH  32  33
ENDBRANCH   1  32
TORSDOF 23
ENDMDL
