MODEL 1
REMARK VINA RESULT:     -12.1      0.000      0.000
REMARK SMILES Cc1ccc([C@H](C)NC(=O)[C@H]2[C@@H]3CC[C@@H](C3)[C@@H]2C(=O)OCCOCCOCCOC(=O)c2ccc(-c3c4nc(c(-c5c(F)cccc5F)c5ccc([nH]5)c(-c5c(F)cccc5F)c5nc(c(-c6c(F)cccc6F)c6ccc3[nH]6)C=C5)C=C4)cc2)cc1
REMARK SMILES IDX 24 1 23 2 22 3 21 4 20 5 18 6 19 7 17 8 11 9 12 10 13 11
REMARK SMILES IDX 16 12 15 13 14 14 9 15 8 16 10 18 6 19 7 20 5 21 1 22 2 23
REMARK SMILES IDX 3 24 87 25 4 26 86 27 25 28 26 29 27 30 28 31 29 32 30 33
REMARK SMILES IDX 31 34 32 35 33 36 85 37 34 38 84 39 35 40 36 41 37 42 78 43
REMARK SMILES IDX 38 44 83 45 77 46 79 47 39 48 82 49 76 50 75 51 40 53 66 54
REMARK SMILES IDX 49 55 65 56 50 57 53 58 64 59 80 60 51 61 52 62 63 64 81 65
REMARK SMILES IDX 54 66 41 67 42 68 47 69 43 70 44 71 46 72 48 73 45 74 67 75
REMARK SMILES IDX 68 76 73 77 69 78 70 79 72 80 74 81 71 82 55 83 56 84 61 85
REMARK SMILES IDX 57 86 58 87 60 88 62 89 59 90
REMARK H PARENT 8 17 79 52 53 63
REMARK Flexibility Score: inf
ROOT
ATOM      1  C   UNL A   1      34.048  33.082  28.712  1.00  0.00     0.188 C 
ENDROOT
BRANCH   1   2
ATOM      2  O   UNL A   1      34.434  32.123  27.723  1.00  0.00    -0.376 OA
BRANCH   2   3
ATOM      3  C   UNL A   1      33.697  30.920  27.495  1.00  0.00     0.202 C 
BRANCH   3   4
ATOM      4  C   UNL A   1      34.376  29.468  27.443  1.00  0.00     0.261 C 
BRANCH   4   5
ATOM      5  O   UNL A   1      33.598  28.237  27.110  1.00  0.00    -0.463 OA
BRANCH   5   6
ATOM      6  C   UNL A   1      32.242  27.876  27.168  1.00  0.00     0.310 C 
ATOM      7  O   UNL A   1      31.648  27.830  28.238  1.00  0.00    -0.252 OA
BRANCH   6   8
ATOM      8  C   UNL A   1      31.413  27.660  25.569  1.00  0.00     0.115 C 
ATOM      9  C   UNL A   1      31.715  26.235  25.088  1.00  0.00     0.096 C 
ATOM     10  C   UNL A   1      31.853  26.360  23.551  1.00  0.00     0.002 C 
ATOM     11  C   UNL A   1      32.974  27.357  23.140  1.00  0.00     0.005 C 
ATOM     12  C   UNL A   1      30.649  27.201  23.222  1.00  0.00     0.009 C 
ATOM     13  C   UNL A   1      31.110  28.374  24.143  1.00  0.00     0.004 C 
ATOM     14  C   UNL A   1      32.282  28.713  23.240  1.00  0.00     0.005 C 
BRANCH   9  15
ATOM     15  C   UNL A   1      30.701  25.173  25.601  1.00  0.00     0.224 C 
ATOM     16  N   UNL A   1      30.627  23.845  25.286  1.00  0.00    -0.349 N 
ATOM     17  H   UNL A   1      29.758  23.464  25.550  1.00  0.00     0.164 HD
ATOM     18  O   UNL A   1      29.811  25.564  26.370  1.00  0.00    -0.275 OA
BRANCH  16  19
ATOM     19  C   UNL A   1      31.489  22.822  24.658  1.00  0.00     0.109 C 
ATOM     20  C   UNL A   1      31.397  22.937  23.126  1.00  0.00     0.036 C 
BRANCH  19  21
ATOM     21  C   UNL A   1      32.970  22.866  24.993  1.00  0.00    -0.026 A 
ATOM     22  C   UNL A   1      36.988  23.995  25.990  1.00  0.00     0.044 C 
ATOM     23  C   UNL A   1      35.620  23.534  25.615  1.00  0.00    -0.051 A 
ATOM     24  C   UNL A   1      35.176  23.637  24.296  1.00  0.00     0.004 A 
ATOM     25  C   UNL A   1      34.780  22.983  26.588  1.00  0.00     0.004 A 
ATOM     26  C   UNL A   1      33.860  23.313  23.991  1.00  0.00     0.006 A 
ATOM     27  C   UNL A   1      33.458  22.662  26.284  1.00  0.00     0.006 A 
ENDBRANCH  19  21
ENDBRANCH  16  19
ENDBRANCH   9  15
ENDBRANCH   6   8
ENDBRANCH   5   6
ENDBRANCH   4   5
ENDBRANCH   3   4
ENDBRANCH   2   3
ENDBRANCH   1   2
BRANCH   1  28
ATOM     28  C   UNL A   1      33.384  34.392  28.320  1.00  0.00     0.188 C 
BRANCH  28  29
ATOM     29  O   UNL A   1      32.644  34.831  29.447  1.00  0.00    -0.376 OA
BRANCH  29  30
ATOM     30  C   UNL A   1      32.903  36.149  29.887  1.00  0.00     0.202 C 
BRANCH  30  31
ATOM     31  C   UNL A   1      32.715  36.300  31.400  1.00  0.00     0.261 C 
BRANCH  31  32
ATOM     32  O   UNL A   1      33.948  36.676  32.061  1.00  0.00    -0.460 OA
BRANCH  32  33
ATOM     33  C   UNL A   1      34.401  35.829  33.054  1.00  0.00     0.338 C 
ATOM     34  O   UNL A   1      34.391  36.079  34.222  1.00  0.00    -0.246 OA
BRANCH  33  35
ATOM     35  C   UNL A   1      34.951  34.571  32.446  1.00  0.00     0.060 A 
ATOM     36  C   UNL A   1      34.716  33.254  32.842  1.00  0.00     0.016 A 
ATOM     37  C   UNL A   1      35.890  34.721  31.486  1.00  0.00     0.016 A 
ATOM     38  C   UNL A   1      35.580  32.151  32.405  1.00  0.00     0.010 A 
ATOM     39  C   UNL A   1      36.740  33.648  31.181  1.00  0.00     0.010 A 
ATOM     40  C   UNL A   1      36.767  32.304  31.644  1.00  0.00    -0.014 A 
BRANCH  40  41
ATOM     41  C   UNL A   1      38.038  31.164  31.617  1.00  0.00     0.031 A 
ATOM     42  C   UNL A   1      38.489  29.687  30.830  1.00  0.00     0.074 A 
ATOM     43  C   UNL A   1      39.175  31.724  32.113  1.00  0.00     0.049 A 
ATOM     44  N   UNL A   1      39.707  29.159  30.923  1.00  0.00    -0.248 NA
ATOM     45  C   UNL A   1      37.768  28.716  29.954  1.00  0.00     0.031 C 
ATOM     46  C   UNL A   1      40.570  31.475  31.740  1.00  0.00     0.029 A 
ATOM     47  N   UNL A   1      39.304  32.653  33.150  1.00  0.00    -0.354 N 
ATOM     48  C   UNL A   1      39.895  28.146  29.972  1.00  0.00     0.074 A 
ATOM     49  C   UNL A   1      38.619  27.800  29.529  1.00  0.00     0.031 C 
ATOM     50  C   UNL A   1      41.379  31.950  32.694  1.00  0.00     0.029 A 
ATOM     51  C   UNL A   1      40.528  32.387  33.771  1.00  0.00     0.049 A 
ATOM     52  H   UNL A   1      38.661  33.357  33.394  1.00  0.00     0.167 HD
ATOM     53  C   UNL A   1      41.089  27.682  29.514  1.00  0.00     0.037 A 
ATOM     54  C   UNL A   1      40.595  32.024  35.077  1.00  0.00     0.037 A 
ATOM     55  C   UNL A   1      42.136  28.077  30.418  1.00  0.00     0.049 A 
ATOM     56  C   UNL A   1      41.401  30.776  35.287  1.00  0.00     0.074 A 
ATOM     57  C   UNL A   1      43.177  28.974  30.362  1.00  0.00     0.029 A 
ATOM     58  N   UNL A   1      42.038  27.638  31.729  1.00  0.00    -0.354 N 
ATOM     59  N   UNL A   1      41.729  29.971  34.314  1.00  0.00    -0.248 NA
ATOM     60  C   UNL A   1      41.937  30.335  36.568  1.00  0.00     0.031 C 
ATOM     61  C   UNL A   1      43.649  29.146  31.693  1.00  0.00     0.029 A 
ATOM     62  C   UNL A   1      42.934  28.303  32.530  1.00  0.00     0.049 A 
ATOM     63  H   UNL A   1      41.411  26.946  32.044  1.00  0.00     0.167 HD
ATOM     64  C   UNL A   1      42.515  28.960  34.785  1.00  0.00     0.074 A 
ATOM     65  C   UNL A   1      42.617  29.230  36.206  1.00  0.00     0.031 C 
ATOM     66  C   UNL A   1      42.998  27.992  33.954  1.00  0.00     0.037 A 
BRANCH  53  67
ATOM     67  C   UNL A   1      41.316  26.886  28.213  1.00  0.00     0.057 A 
ATOM     68  C   UNL A   1      42.076  25.697  28.224  1.00  0.00     0.134 A 
ATOM     69  C   UNL A   1      40.918  27.274  26.909  1.00  0.00     0.134 A 
ATOM     70  F   UNL A   1      42.581  25.209  29.365  1.00  0.00    -0.206 F 
ATOM     71  C   UNL A   1      42.383  24.959  27.061  1.00  0.00     0.040 A 
ATOM     72  C   UNL A   1      41.156  26.509  25.750  1.00  0.00     0.040 A 
ATOM     73  F   UNL A   1      40.343  28.455  26.654  1.00  0.00    -0.206 F 
ATOM     74  C   UNL A   1      41.903  25.348  25.819  1.00  0.00     0.006 A 
ENDBRANCH  53  67
BRANCH  54  75
ATOM     75  C   UNL A   1      39.471  32.594  35.873  1.00  0.00     0.057 A 
ATOM     76  C   UNL A   1      38.502  31.676  36.334  1.00  0.00     0.134 A 
ATOM     77  C   UNL A   1      39.588  33.794  36.585  1.00  0.00     0.134 A 
ATOM     78  F   UNL A   1      38.373  30.481  35.734  1.00  0.00    -0.206 F 
ATOM     79  C   UNL A   1      37.775  31.883  37.511  1.00  0.00     0.040 A 
ATOM     80  C   UNL A   1      38.839  34.026  37.753  1.00  0.00     0.040 A 
ATOM     81  F   UNL A   1      40.527  34.694  36.257  1.00  0.00    -0.206 F 
ATOM     82  C   UNL A   1      37.957  33.055  38.237  1.00  0.00     0.006 A 
ENDBRANCH  54  75
BRANCH  66  83
ATOM     83  C   UNL A   1      43.556  26.654  34.380  1.00  0.00     0.057 A 
ATOM     84  C   UNL A   1      42.774  25.612  34.904  1.00  0.00     0.134 A 
ATOM     85  C   UNL A   1      44.877  26.286  34.027  1.00  0.00     0.134 A 
ATOM     86  F   UNL A   1      41.474  25.775  35.177  1.00  0.00    -0.206 F 
ATOM     87  C   UNL A   1      43.259  24.305  35.053  1.00  0.00     0.040 A 
ATOM     88  C   UNL A   1      45.349  24.972  34.113  1.00  0.00     0.040 A 
ATOM     89  F   UNL A   1      45.742  27.172  33.511  1.00  0.00    -0.206 F 
ATOM     90  C   UNL A   1      44.537  23.974  34.625  1.00  0.00     0.006 A 
ENDBRANCH  66  83
ENDBRANCH  40  41
ENDBRANCH  33  35
ENDBRANCH  32  33
ENDBRANCH  31  32
ENDBRANCH  30  31
ENDBRANCH  29  30
ENDBRANCH  28  29
ENDBRANCH   1  28
TORSDOF 20
ENDMDL
MODEL 2
REMARK VINA RESULT:     -11.3      4.216     10.233
REMARK SMILES Cc1ccc([C@H](C)NC(=O)[C@H]2[C@@H]3CC[C@@H](C3)[C@@H]2C(=O)OCCOCCOCCOC(=O)c2ccc(-c3c4nc(c(-c5c(F)cccc5F)c5ccc([nH]5)c(-c5c(F)cccc5F)c5nc(c(-c6c(F)cccc6F)c6ccc3[nH]6)C=C5)C=C4)cc2)cc1
REMARK SMILES IDX 24 1 23 2 22 3 21 4 20 5 18 6 19 7 17 8 11 9 12 10 13 11
REMARK SMILES IDX 16 12 15 13 14 14 9 15 8 16 10 18 6 19 7 20 5 21 1 22 2 23
REMARK SMILES IDX 3 24 87 25 4 26 86 27 25 28 26 29 27 30 28 31 29 32 30 33
REMARK SMILES IDX 31 34 32 35 33 36 85 37 34 38 84 39 35 40 36 41 37 42 78 43
REMARK SMILES IDX 38 44 83 45 77 46 79 47 39 48 82 49 76 50 75 51 40 53 66 54
REMARK SMILES IDX 49 55 65 56 50 57 53 58 64 59 80 60 51 61 52 62 63 64 81 65
REMARK SMILES IDX 54 66 41 67 42 68 47 69 43 70 44 71 46 72 48 73 45 74 67 75
REMARK SMILES IDX 68 76 73 77 69 78 70 79 72 80 74 81 71 82 55 83 56 84 61 85
REMARK SMILES IDX 57 86 58 87 60 88 62 89 59 90
REMARK H PARENT 8 17 79 52 53 63
REMARK Flexibility Score: inf
ROOT
ATOM      1  C   UNL A   1      37.014  23.557  25.135  1.00  0.00     0.188 C 
ENDROOT
BRANCH   1   2
ATOM      2  O   UNL A   1      35.801  24.310  25.227  1.00  0.00    -0.376 OA
BRANCH   2   3
ATOM      3  C   UNL A   1      34.530  23.691  25.437  1.00  0.00     0.202 C 
BRANCH   3   4
ATOM      4  C   UNL A   1      33.197  24.135  24.666  1.00  0.00     0.261 C 
BRANCH   4   5
ATOM      5  O   UNL A   1      33.208  24.549  23.230  1.00  0.00    -0.463 OA
BRANCH   5   6
ATOM      6  C   UNL A   1      33.223  25.780  22.554  1.00  0.00     0.310 C 
ATOM      7  O   UNL A   1      34.027  25.997  21.657  1.00  0.00    -0.252 OA
BRANCH   6   8
ATOM      8  C   UNL A   1      31.882  26.927  22.975  1.00  0.00     0.115 C 
ATOM      9  C   UNL A   1      32.235  27.563  24.326  1.00  0.00     0.096 C 
ATOM     10  C   UNL A   1      30.875  27.729  25.048  1.00  0.00     0.002 C 
ATOM     11  C   UNL A   1      30.134  26.373  25.225  1.00  0.00     0.005 C 
ATOM     12  C   UNL A   1      30.036  28.323  23.950  1.00  0.00     0.009 C 
ATOM     13  C   UNL A   1      30.268  27.107  22.999  1.00  0.00     0.004 C 
ATOM     14  C   UNL A   1      29.450  26.177  23.876  1.00  0.00     0.005 C 
BRANCH   9  15
ATOM     15  C   UNL A   1      33.108  28.844  24.206  1.00  0.00     0.224 C 
ATOM     16  N   UNL A   1      33.453  29.735  25.184  1.00  0.00    -0.349 N 
ATOM     17  H   UNL A   1      33.797  30.573  24.798  1.00  0.00     0.164 HD
ATOM     18  O   UNL A   1      33.531  29.139  23.078  1.00  0.00    -0.275 OA
BRANCH  16  19
ATOM     19  C   UNL A   1      33.450  29.789  26.661  1.00  0.00     0.109 C 
ATOM     20  C   UNL A   1      34.617  28.950  27.211  1.00  0.00     0.036 C 
BRANCH  19  21
ATOM     21  C   UNL A   1      33.582  31.160  27.302  1.00  0.00    -0.026 A 
ATOM     22  C   UNL A   1      34.407  35.267  28.233  1.00  0.00     0.044 C 
ATOM     23  C   UNL A   1      34.113  33.825  27.987  1.00  0.00    -0.051 A 
ATOM     24  C   UNL A   1      35.118  32.866  28.124  1.00  0.00     0.004 A 
ATOM     25  C   UNL A   1      32.821  33.429  27.629  1.00  0.00     0.004 A 
ATOM     26  C   UNL A   1      34.854  31.546  27.777  1.00  0.00     0.006 A 
ATOM     27  C   UNL A   1      32.557  32.107  27.276  1.00  0.00     0.006 A 
ENDBRANCH  19  21
ENDBRANCH  16  19
ENDBRANCH   9  15
ENDBRANCH   6   8
ENDBRANCH   5   6
ENDBRANCH   4   5
ENDBRANCH   3   4
ENDBRANCH   2   3
ENDBRANCH   1   2
BRANCH   1  28
ATOM     28  C   UNL A   1      37.138  22.183  25.774  1.00  0.00     0.188 C 
BRANCH  28  29
ATOM     29  O   UNL A   1      38.207  21.520  25.120  1.00  0.00    -0.376 OA
BRANCH  29  30
ATOM     30  C   UNL A   1      38.044  20.132  24.913  1.00  0.00     0.202 C 
BRANCH  30  31
ATOM     31  C   UNL A   1      39.206  19.321  25.496  1.00  0.00     0.261 C 
BRANCH  31  32
ATOM     32  O   UNL A   1      40.050  20.129  26.352  1.00  0.00    -0.460 OA
BRANCH  32  33
ATOM     33  C   UNL A   1      41.391  20.183  26.025  1.00  0.00     0.338 C 
ATOM     34  O   UNL A   1      41.972  19.359  25.384  1.00  0.00    -0.246 OA
BRANCH  33  35
ATOM     35  C   UNL A   1      42.021  21.404  26.633  1.00  0.00     0.060 A 
ATOM     36  C   UNL A   1      42.003  21.801  27.971  1.00  0.00     0.016 A 
ATOM     37  C   UNL A   1      42.557  22.300  25.776  1.00  0.00     0.016 A 
ATOM     38  C   UNL A   1      42.337  23.173  28.372  1.00  0.00     0.010 A 
ATOM     39  C   UNL A   1      42.768  23.619  26.204  1.00  0.00     0.010 A 
ATOM     40  C   UNL A   1      42.607  24.237  27.474  1.00  0.00    -0.014 A 
BRANCH  40  41
ATOM     41  C   UNL A   1      42.435  25.889  27.871  1.00  0.00     0.031 A 
ATOM     42  C   UNL A   1      41.205  27.098  28.050  1.00  0.00     0.074 A 
ATOM     43  C   UNL A   1      43.530  26.318  28.557  1.00  0.00     0.049 A 
ATOM     44  N   UNL A   1      41.436  28.292  28.590  1.00  0.00    -0.248 NA
ATOM     45  C   UNL A   1      39.753  27.158  27.707  1.00  0.00     0.031 C 
ATOM     46  C   UNL A   1      43.623  27.324  29.619  1.00  0.00     0.029 A 
ATOM     47  N   UNL A   1      44.865  25.939  28.387  1.00  0.00    -0.354 N 
ATOM     48  C   UNL A   1      40.236  28.955  28.885  1.00  0.00     0.074 A 
ATOM     49  C   UNL A   1      39.248  28.291  28.162  1.00  0.00     0.031 C 
ATOM     50  C   UNL A   1      44.898  27.700  29.767  1.00  0.00     0.029 A 
ATOM     51  C   UNL A   1      45.639  27.057  28.712  1.00  0.00     0.049 A 
ATOM     52  H   UNL A   1      45.195  25.059  28.095  1.00  0.00     0.167 HD
ATOM     53  C   UNL A   1      40.075  29.970  29.776  1.00  0.00     0.037 A 
ATOM     54  C   UNL A   1      46.456  27.642  27.801  1.00  0.00     0.037 A 
ATOM     55  C   UNL A   1      41.356  30.548  30.082  1.00  0.00     0.049 A 
ATOM     56  C   UNL A   1      46.236  29.122  27.697  1.00  0.00     0.074 A 
ATOM     57  C   UNL A   1      42.179  30.551  31.184  1.00  0.00     0.029 A 
ATOM     58  N   UNL A   1      42.077  31.083  29.025  1.00  0.00    -0.354 N 
ATOM     59  N   UNL A   1      45.184  29.719  28.185  1.00  0.00    -0.248 NA
ATOM     60  C   UNL A   1      47.164  30.063  27.083  1.00  0.00     0.031 C 
ATOM     61  C   UNL A   1      43.454  31.012  30.750  1.00  0.00     0.029 A 
ATOM     62  C   UNL A   1      43.371  31.344  29.405  1.00  0.00     0.049 A 
ATOM     63  H   UNL A   1      41.712  31.252  28.127  1.00  0.00     0.167 HD
ATOM     64  C   UNL A   1      45.282  31.067  28.003  1.00  0.00     0.074 A 
ATOM     65  C   UNL A   1      46.541  31.236  27.306  1.00  0.00     0.031 C 
ATOM     66  C   UNL A   1      44.305  31.915  28.441  1.00  0.00     0.037 A 
BRANCH  53  67
ATOM     67  C   UNL A   1      38.742  30.426  30.403  1.00  0.00     0.057 A 
ATOM     68  C   UNL A   1      37.922  29.508  31.091  1.00  0.00     0.134 A 
ATOM     69  C   UNL A   1      38.150  31.709  30.280  1.00  0.00     0.134 A 
ATOM     70  F   UNL A   1      38.299  28.232  31.255  1.00  0.00    -0.206 F 
ATOM     71  C   UNL A   1      36.659  29.840  31.626  1.00  0.00     0.040 A 
ATOM     72  C   UNL A   1      36.924  32.072  30.871  1.00  0.00     0.040 A 
ATOM     73  F   UNL A   1      38.677  32.674  29.517  1.00  0.00    -0.206 F 
ATOM     74  C   UNL A   1      36.163  31.132  31.540  1.00  0.00     0.006 A 
ENDBRANCH  53  67
BRANCH  54  75
ATOM     75  C   UNL A   1      46.957  26.665  26.793  1.00  0.00     0.057 A 
ATOM     76  C   UNL A   1      46.355  26.720  25.516  1.00  0.00     0.134 A 
ATOM     77  C   UNL A   1      48.240  26.109  26.858  1.00  0.00     0.134 A 
ATOM     78  F   UNL A   1      45.148  27.292  25.370  1.00  0.00    -0.206 F 
ATOM     79  C   UNL A   1      47.037  26.357  24.350  1.00  0.00     0.040 A 
ATOM     80  C   UNL A   1      48.923  25.712  25.694  1.00  0.00     0.040 A 
ATOM     81  F   UNL A   1      48.912  26.077  28.017  1.00  0.00    -0.206 F 
ATOM     82  C   UNL A   1      48.336  25.869  24.435  1.00  0.00     0.006 A 
ENDBRANCH  54  75
BRANCH  66  83
ATOM     83  C   UNL A   1      44.109  33.346  28.000  1.00  0.00     0.057 A 
ATOM     84  C   UNL A   1      44.306  34.456  28.837  1.00  0.00     0.134 A 
ATOM     85  C   UNL A   1      43.966  33.656  26.625  1.00  0.00     0.134 A 
ATOM     86  F   UNL A   1      44.572  34.318  30.141  1.00  0.00    -0.206 F 
ATOM     87  C   UNL A   1      44.369  35.769  28.349  1.00  0.00     0.040 A 
ATOM     88  C   UNL A   1      44.090  34.955  26.123  1.00  0.00     0.040 A 
ATOM     89  F   UNL A   1      43.775  32.701  25.704  1.00  0.00    -0.206 F 
ATOM     90  C   UNL A   1      44.296  36.019  26.985  1.00  0.00     0.006 A 
ENDBRANCH  66  83
ENDBRANCH  40  41
ENDBRANCH  33  35
ENDBRANCH  32  33
ENDBRANCH  31  32
ENDBRANCH  30  31
ENDBRANCH  29  30
ENDBRANCH  28  29
ENDBRANCH   1  28
TORSDOF 20
ENDMDL
MODEL 3
REMARK VINA RESULT:     -11.0      2.283      3.543
REMARK SMILES Cc1ccc([C@H](C)NC(=O)[C@H]2[C@@H]3CC[C@@H](C3)[C@@H]2C(=O)OCCOCCOCCOC(=O)c2ccc(-c3c4nc(c(-c5c(F)cccc5F)c5ccc([nH]5)c(-c5c(F)cccc5F)c5nc(c(-c6c(F)cccc6F)c6ccc3[nH]6)C=C5)C=C4)cc2)cc1
REMARK SMILES IDX 24 1 23 2 22 3 21 4 20 5 18 6 19 7 17 8 11 9 12 10 13 11
REMARK SMILES IDX 16 12 15 13 14 14 9 15 8 16 10 18 6 19 7 20 5 21 1 22 2 23
REMARK SMILES IDX 3 24 87 25 4 26 86 27 25 28 26 29 27 30 28 31 29 32 30 33
REMARK SMILES IDX 31 34 32 35 33 36 85 37 34 38 84 39 35 40 36 41 37 42 78 43
REMARK SMILES IDX 38 44 83 45 77 46 79 47 39 48 82 49 76 50 75 51 40 53 66 54
REMARK SMILES IDX 49 55 65 56 50 57 53 58 64 59 80 60 51 61 52 62 63 64 81 65
REMARK SMILES IDX 54 66 41 67 42 68 47 69 43 70 44 71 46 72 48 73 45 74 67 75
REMARK SMILES IDX 68 76 73 77 69 78 70 79 72 80 74 81 71 82 55 83 56 84 61 85
REMARK SMILES IDX 57 86 58 87 60 88 62 89 59 90
REMARK H PARENT 8 17 79 52 53 63
REMARK Flexibility Score: inf
ROOT
ATOM      1  C   UNL A   1      33.278  28.307  25.860  1.00  0.00     0.188 C 
ENDROOT
BRANCH   1   2
ATOM      2  O   UNL A   1      31.891  28.645  25.759  1.00  0.00    -0.376 OA
BRANCH   2   3
ATOM      3  C   UNL A   1      31.012  28.001  24.835  1.00  0.00     0.202 C 
BRANCH   3   4
ATOM      4  C   UNL A   1      30.987  26.414  24.605  1.00  0.00     0.261 C 
BRANCH   4   5
ATOM      5  O   UNL A   1      30.726  25.452  25.719  1.00  0.00    -0.463 OA
BRANCH   5   6
ATOM      6  C   UNL A   1      31.351  24.285  26.187  1.00  0.00     0.310 C 
ATOM      7  O   UNL A   1      31.143  23.870  27.320  1.00  0.00    -0.252 OA
BRANCH   6   8
ATOM      8  C   UNL A   1      32.326  23.367  24.964  1.00  0.00     0.115 C 
ATOM      9  C   UNL A   1      33.803  23.517  25.353  1.00  0.00     0.096 C 
ATOM     10  C   UNL A   1      34.558  23.593  24.004  1.00  0.00     0.002 C 
ATOM     11  C   UNL A   1      34.071  24.779  23.123  1.00  0.00     0.005 C 
ATOM     12  C   UNL A   1      33.922  22.455  23.252  1.00  0.00     0.009 C 
ATOM     13  C   UNL A   1      32.489  23.063  23.377  1.00  0.00     0.004 C 
ATOM     14  C   UNL A   1      32.823  24.217  22.450  1.00  0.00     0.005 C 
BRANCH   9  15
ATOM     15  C   UNL A   1      34.299  22.436  26.356  1.00  0.00     0.224 C 
ATOM     16  N   UNL A   1      34.615  21.129  26.112  1.00  0.00    -0.349 N 
ATOM     17  H   UNL A   1      34.660  20.611  26.949  1.00  0.00     0.164 HD
ATOM     18  O   UNL A   1      34.394  22.769  27.547  1.00  0.00    -0.275 OA
BRANCH  16  19
ATOM     19  C   UNL A   1      34.907  20.277  24.941  1.00  0.00     0.109 C 
ATOM     20  C   UNL A   1      36.411  19.949  24.901  1.00  0.00     0.036 C 
BRANCH  19  21
ATOM     21  C   UNL A   1      34.186  18.943  24.860  1.00  0.00    -0.026 A 
ATOM     22  C   UNL A   1      32.754  14.936  25.411  1.00  0.00     0.044 C 
ATOM     23  C   UNL A   1      33.222  16.327  25.146  1.00  0.00    -0.051 A 
ATOM     24  C   UNL A   1      34.402  16.552  24.436  1.00  0.00     0.004 A 
ATOM     25  C   UNL A   1      32.469  17.413  25.600  1.00  0.00     0.004 A 
ATOM     26  C   UNL A   1      34.882  17.849  24.301  1.00  0.00     0.006 A 
ATOM     27  C   UNL A   1      32.951  18.715  25.470  1.00  0.00     0.006 A 
ENDBRANCH  19  21
ENDBRANCH  16  19
ENDBRANCH   9  15
ENDBRANCH   6   8
ENDBRANCH   5   6
ENDBRANCH   4   5
ENDBRANCH   3   4
ENDBRANCH   2   3
ENDBRANCH   1   2
BRANCH   1  28
ATOM     28  C   UNL A   1      34.166  28.933  26.923  1.00  0.00     0.188 C 
BRANCH  28  29
ATOM     29  O   UNL A   1      34.216  30.323  26.650  1.00  0.00    -0.376 OA
BRANCH  29  30
ATOM     30  C   UNL A   1      33.386  31.144  27.445  1.00  0.00     0.202 C 
BRANCH  30  31
ATOM     31  C   UNL A   1      34.172  31.873  28.539  1.00  0.00     0.261 C 
BRANCH  31  32
ATOM     32  O   UNL A   1      34.051  33.311  28.422  1.00  0.00    -0.460 OA
BRANCH  32  33
ATOM     33  C   UNL A   1      34.503  34.059  29.492  1.00  0.00     0.338 C 
ATOM     34  O   UNL A   1      33.894  34.946  30.011  1.00  0.00    -0.246 OA
BRANCH  33  35
ATOM     35  C   UNL A   1      35.889  33.625  29.875  1.00  0.00     0.060 A 
ATOM     36  C   UNL A   1      37.035  33.618  29.080  1.00  0.00     0.016 A 
ATOM     37  C   UNL A   1      36.029  33.047  31.088  1.00  0.00     0.016 A 
ATOM     38  C   UNL A   1      38.226  32.845  29.452  1.00  0.00     0.010 A 
ATOM     39  C   UNL A   1      37.154  32.249  31.343  1.00  0.00     0.010 A 
ATOM     40  C   UNL A   1      38.310  31.970  30.565  1.00  0.00    -0.014 A 
BRANCH  40  41
ATOM     41  C   UNL A   1      39.425  30.682  30.685  1.00  0.00     0.031 A 
ATOM     42  C   UNL A   1      39.797  29.164  29.934  1.00  0.00     0.074 A 
ATOM     43  C   UNL A   1      40.543  31.095  31.343  1.00  0.00     0.049 A 
ATOM     44  N   UNL A   1      40.916  28.489  30.180  1.00  0.00    -0.248 NA
ATOM     45  C   UNL A   1      39.089  28.294  28.948  1.00  0.00     0.031 C 
ATOM     46  C   UNL A   1      41.935  30.677  31.157  1.00  0.00     0.029 A 
ATOM     47  N   UNL A   1      40.640  31.995  32.408  1.00  0.00    -0.354 N 
ATOM     48  C   UNL A   1      41.108  27.466  29.241  1.00  0.00     0.074 A 
ATOM     49  C   UNL A   1      39.873  27.283  28.622  1.00  0.00     0.031 C 
ATOM     50  C   UNL A   1      42.657  31.043  32.222  1.00  0.00     0.029 A 
ATOM     51  C   UNL A   1      41.725  31.576  33.184  1.00  0.00     0.049 A 
ATOM     52  H   UNL A   1      40.060  32.772  32.578  1.00  0.00     0.167 HD
ATOM     53  C   UNL A   1      42.288  26.860  28.939  1.00  0.00     0.037 A 
ATOM     54  C   UNL A   1      41.568  31.201  34.478  1.00  0.00     0.037 A 
ATOM     55  C   UNL A   1      43.242  27.118  29.985  1.00  0.00     0.049 A 
ATOM     56  C   UNL A   1      42.180  29.862  34.768  1.00  0.00     0.074 A 
ATOM     57  C   UNL A   1      44.382  27.880  30.090  1.00  0.00     0.029 A 
ATOM     58  N   UNL A   1      42.912  26.688  31.261  1.00  0.00    -0.354 N 
ATOM     59  N   UNL A   1      42.538  29.028  33.831  1.00  0.00    -0.248 NA
ATOM     60  C   UNL A   1      42.478  29.351  36.100  1.00  0.00     0.031 C 
ATOM     61  C   UNL A   1      44.685  27.985  31.476  1.00  0.00     0.029 A 
ATOM     62  C   UNL A   1      43.764  27.233  32.191  1.00  0.00     0.049 A 
ATOM     63  H   UNL A   1      42.169  26.077  31.472  1.00  0.00     0.167 HD
ATOM     64  C   UNL A   1      43.123  27.925  34.382  1.00  0.00     0.074 A 
ATOM     65  C   UNL A   1      43.062  28.173  35.809  1.00  0.00     0.031 C 
ATOM     66  C   UNL A   1      43.594  26.909  33.602  1.00  0.00     0.037 A 
BRANCH  53  67
ATOM     67  C   UNL A   1      42.593  26.048  27.664  1.00  0.00     0.057 A 
ATOM     68  C   UNL A   1      42.364  24.657  27.628  1.00  0.00     0.134 A 
ATOM     69  C   UNL A   1      43.207  26.536  26.483  1.00  0.00     0.134 A 
ATOM     70  F   UNL A   1      41.839  24.015  28.681  1.00  0.00    -0.206 F 
ATOM     71  C   UNL A   1      42.687  23.843  26.521  1.00  0.00     0.040 A 
ATOM     72  C   UNL A   1      43.467  25.748  25.345  1.00  0.00     0.040 A 
ATOM     73  F   UNL A   1      43.668  27.788  26.377  1.00  0.00    -0.206 F 
ATOM     74  C   UNL A   1      43.218  24.388  25.363  1.00  0.00     0.006 A 
ENDBRANCH  53  67
BRANCH  54  75
ATOM     75  C   UNL A   1      40.424  31.902  35.127  1.00  0.00     0.057 A 
ATOM     76  C   UNL A   1      39.238  31.151  35.283  1.00  0.00     0.134 A 
ATOM     77  C   UNL A   1      40.602  32.984  35.998  1.00  0.00     0.134 A 
ATOM     78  F   UNL A   1      39.027  30.066  34.519  1.00  0.00    -0.206 F 
ATOM     79  C   UNL A   1      38.337  31.384  36.327  1.00  0.00     0.040 A 
ATOM     80  C   UNL A   1      39.685  33.246  37.032  1.00  0.00     0.040 A 
ATOM     81  F   UNL A   1      41.728  33.710  35.964  1.00  0.00    -0.206 F 
ATOM     82  C   UNL A   1      38.570  32.424  37.220  1.00  0.00     0.006 A 
ENDBRANCH  54  75
BRANCH  66  83
ATOM     83  C   UNL A   1      43.921  25.510  34.071  1.00  0.00     0.057 A 
ATOM     84  C   UNL A   1      42.990  24.650  34.675  1.00  0.00     0.134 A 
ATOM     85  C   UNL A   1      45.137  24.894  33.685  1.00  0.00     0.134 A 
ATOM     86  F   UNL A   1      41.754  25.057  34.989  1.00  0.00    -0.206 F 
ATOM     87  C   UNL A   1      43.237  23.284  34.867  1.00  0.00     0.040 A 
ATOM     88  C   UNL A   1      45.367  23.521  33.817  1.00  0.00     0.040 A 
ATOM     89  F   UNL A   1      46.121  25.586  33.094  1.00  0.00    -0.206 F 
ATOM     90  C   UNL A   1      44.414  22.708  34.407  1.00  0.00     0.006 A 
ENDBRANCH  66  83
ENDBRANCH  40  41
ENDBRANCH  33  35
ENDBRANCH  32  33
ENDBRANCH  31  32
ENDBRANCH  30  31
ENDBRANCH  29  30
ENDBRANCH  28  29
ENDBRANCH   1  28
TORSDOF 20
ENDMDL
