MODEL 1
REMARK VINA RESULT:     -10.5      0.000      0.000
REMARK SMILES CN1CC(=O)N(CC(=O)N2CCCC[C@H]2C(=O)OCCOCCOCCOC(=O)c2ccc(-c3c4nc(c(-c5c(F)cccc5F)c5ccc([nH]5)c(-c5c(F)cccc5F)c5nc(c(-c6c(F)cccc6F)c6ccc3[nH]6)C=C5)C=C4)cc2)C1=O
REMARK SMILES IDX 22 1 21 2 20 3 19 4 18 5 16 6 17 7 15 8 10 9 11 10 12 11
REMARK SMILES IDX 14 12 13 13 8 14 9 15 7 16 6 17 1 18 2 19 3 20 84 21 4 22
REMARK SMILES IDX 85 23 5 24 23 25 24 26 25 27 26 28 27 29 28 30 29 31 30 32
REMARK SMILES IDX 31 33 83 34 32 35 82 36 33 37 34 38 35 39 76 40 36 41 81 42
REMARK SMILES IDX 75 43 77 44 37 45 80 46 74 47 73 48 38 50 64 51 47 52 63 53
REMARK SMILES IDX 48 54 51 55 62 56 78 57 49 58 50 59 61 61 79 62 52 63 39 64
REMARK SMILES IDX 40 65 45 66 41 67 42 68 44 69 46 70 43 71 65 72 66 73 71 74
REMARK SMILES IDX 67 75 68 76 70 77 72 78 69 79 53 80 54 81 59 82 55 83 56 84
REMARK SMILES IDX 58 85 60 86 57 87
REMARK H PARENT 77 49 51 60
REMARK Flexibility Score: inf
ROOT
ATOM      1  C   UNL A   1      38.859  22.112  26.122  1.00  0.00     0.188 C 
ENDROOT
BRANCH   1   2
ATOM      2  O   UNL A   1      38.147  21.609  24.997  1.00  0.00    -0.376 OA
BRANCH   2   3
ATOM      3  C   UNL A   1      37.028  22.323  24.490  1.00  0.00     0.202 C 
BRANCH   3   4
ATOM      4  C   UNL A   1      35.654  21.677  24.684  1.00  0.00     0.261 C 
BRANCH   4   5
ATOM      5  O   UNL A   1      34.627  22.635  24.995  1.00  0.00    -0.462 OA
BRANCH   5   6
ATOM      6  C   UNL A   1      33.986  23.193  23.933  1.00  0.00     0.328 C 
ATOM      7  O   UNL A   1      33.387  22.552  23.079  1.00  0.00    -0.250 OA
BRANCH   6   8
ATOM      8  C   UNL A   1      34.147  24.738  23.929  1.00  0.00     0.195 C 
ATOM      9  N   UNL A   1      33.095  25.429  23.187  1.00  0.00    -0.327 N 
ATOM     10  C   UNL A   1      31.747  25.212  23.714  1.00  0.00     0.120 C 
ATOM     11  C   UNL A   1      31.644  25.644  25.176  1.00  0.00     0.022 C 
ATOM     12  C   UNL A   1      34.164  25.286  25.366  1.00  0.00     0.037 C 
ATOM     13  C   UNL A   1      32.801  25.166  26.057  1.00  0.00     0.005 C 
BRANCH   9  14
ATOM     14  C   UNL A   1      33.288  26.313  22.133  1.00  0.00     0.243 C 
ATOM     15  O   UNL A   1      33.327  25.903  20.967  1.00  0.00    -0.273 OA
BRANCH  14  16
ATOM     16  C   UNL A   1      33.610  27.801  22.386  1.00  0.00     0.230 C 
BRANCH  16  17
ATOM     17  N   UNL A   1      32.687  28.660  23.111  1.00  0.00    -0.253 N 
ATOM     18  C   UNL A   1      29.274  29.776  23.677  1.00  0.00     0.149 C 
ATOM     19  N   UNL A   1      30.687  29.460  23.711  1.00  0.00    -0.318 N 
ATOM     20  C   UNL A   1      31.485  29.619  24.898  1.00  0.00     0.221 C 
ATOM     21  C   UNL A   1      31.388  28.815  22.710  1.00  0.00     0.327 C 
ATOM     22  C   UNL A   1      32.797  29.001  24.428  1.00  0.00     0.250 C 
ATOM     23  O   UNL A   1      30.910  28.412  21.663  1.00  0.00    -0.248 OA
ATOM     24  O   UNL A   1      33.779  28.850  25.140  1.00  0.00    -0.272 OA
ENDBRANCH  16  17
ENDBRANCH  14  16
ENDBRANCH   9  14
ENDBRANCH   6   8
ENDBRANCH   5   6
ENDBRANCH   4   5
ENDBRANCH   3   4
ENDBRANCH   2   3
ENDBRANCH   1   2
BRANCH   1  25
ATOM     25  C   UNL A   1      40.075  21.362  26.699  1.00  0.00     0.188 C 
BRANCH  25  26
ATOM     26  O   UNL A   1      40.988  20.884  25.732  1.00  0.00    -0.376 OA
BRANCH  26  27
ATOM     27  C   UNL A   1      42.139  20.250  26.267  1.00  0.00     0.202 C 
BRANCH  27  28
ATOM     28  C   UNL A   1      43.418  20.907  25.746  1.00  0.00     0.261 C 
BRANCH  28  29
ATOM     29  O   UNL A   1      43.658  22.222  26.292  1.00  0.00    -0.460 OA
BRANCH  29  30
ATOM     30  C   UNL A   1      43.261  23.276  25.542  1.00  0.00     0.338 C 
ATOM     31  O   UNL A   1      43.133  23.318  24.334  1.00  0.00    -0.246 OA
BRANCH  30  32
ATOM     32  C   UNL A   1      42.853  24.364  26.455  1.00  0.00     0.060 A 
ATOM     33  C   UNL A   1      43.460  25.625  26.353  1.00  0.00     0.016 A 
ATOM     34  C   UNL A   1      41.889  24.128  27.432  1.00  0.00     0.016 A 
ATOM     35  C   UNL A   1      43.106  26.652  27.231  1.00  0.00     0.010 A 
ATOM     36  C   UNL A   1      41.544  25.154  28.319  1.00  0.00     0.010 A 
ATOM     37  C   UNL A   1      42.155  26.418  28.233  1.00  0.00    -0.014 A 
BRANCH  37  38
ATOM     38  C   UNL A   1      41.835  27.452  29.250  1.00  0.00     0.031 A 
ATOM     39  C   UNL A   1      42.582  27.461  30.554  1.00  0.00     0.074 A 
ATOM     40  C   UNL A   1      40.852  28.346  29.037  1.00  0.00     0.049 A 
ATOM     41  N   UNL A   1      42.334  28.135  31.646  1.00  0.00    -0.248 NA
ATOM     42  C   UNL A   1      43.765  26.590  30.634  1.00  0.00     0.031 C 
ATOM     43  C   UNL A   1      40.086  28.487  27.800  1.00  0.00     0.029 A 
ATOM     44  N   UNL A   1      40.308  29.285  29.879  1.00  0.00    -0.354 N 
ATOM     45  C   UNL A   1      43.314  27.756  32.555  1.00  0.00     0.074 A 
ATOM     46  C   UNL A   1      44.159  26.790  31.885  1.00  0.00     0.031 C 
ATOM     47  C   UNL A   1      39.146  29.433  27.976  1.00  0.00     0.029 A 
ATOM     48  C   UNL A   1      39.211  29.923  29.351  1.00  0.00     0.049 A 
ATOM     49  H   UNL A   1      40.668  29.482  30.775  1.00  0.00     0.167 HD
ATOM     50  C   UNL A   1      43.488  28.171  33.832  1.00  0.00     0.037 A 
ATOM     51  C   UNL A   1      38.328  30.764  29.926  1.00  0.00     0.037 A 
ATOM     52  C   UNL A   1      42.651  29.135  34.499  1.00  0.00     0.049 A 
ATOM     53  C   UNL A   1      38.486  31.135  31.378  1.00  0.00     0.074 A 
ATOM     54  C   UNL A   1      42.769  29.635  35.785  1.00  0.00     0.029 A 
ATOM     55  N   UNL A   1      41.536  29.737  33.937  1.00  0.00    -0.354 N 
ATOM     56  N   UNL A   1      39.418  30.778  32.228  1.00  0.00    -0.248 NA
ATOM     57  C   UNL A   1      37.459  32.018  31.954  1.00  0.00     0.031 C 
ATOM     58  C   UNL A   1      41.696  30.500  36.019  1.00  0.00     0.029 A 
ATOM     59  C   UNL A   1      40.938  30.578  34.863  1.00  0.00     0.049 A 
ATOM     60  H   UNL A   1      41.216  29.588  33.018  1.00  0.00     0.167 HD
ATOM     61  C   UNL A   1      39.103  31.410  33.427  1.00  0.00     0.074 A 
ATOM     62  C   UNL A   1      37.904  32.185  33.190  1.00  0.00     0.031 C 
ATOM     63  C   UNL A   1      39.748  31.350  34.617  1.00  0.00     0.037 A 
BRANCH  50  64
ATOM     64  C   UNL A   1      44.613  27.563  34.615  1.00  0.00     0.057 A 
ATOM     65  C   UNL A   1      44.449  26.388  35.358  1.00  0.00     0.134 A 
ATOM     66  C   UNL A   1      45.895  28.127  34.566  1.00  0.00     0.134 A 
ATOM     67  F   UNL A   1      43.243  25.809  35.454  1.00  0.00    -0.206 F 
ATOM     68  C   UNL A   1      45.518  25.800  36.035  1.00  0.00     0.040 A 
ATOM     69  C   UNL A   1      46.977  27.535  35.220  1.00  0.00     0.040 A 
ATOM     70  F   UNL A   1      46.120  29.249  33.868  1.00  0.00    -0.206 F 
ATOM     71  C   UNL A   1      46.790  26.369  35.958  1.00  0.00     0.006 A 
ENDBRANCH  50  64
BRANCH  51  72
ATOM     72  C   UNL A   1      37.167  31.276  29.152  1.00  0.00     0.057 A 
ATOM     73  C   UNL A   1      37.161  32.573  28.628  1.00  0.00     0.134 A 
ATOM     74  C   UNL A   1      36.017  30.498  28.964  1.00  0.00     0.134 A 
ATOM     75  F   UNL A   1      38.221  33.376  28.802  1.00  0.00    -0.206 F 
ATOM     76  C   UNL A   1      36.046  33.087  27.964  1.00  0.00     0.040 A 
ATOM     77  C   UNL A   1      34.906  30.990  28.278  1.00  0.00     0.040 A 
ATOM     78  F   UNL A   1      35.957  29.249  29.448  1.00  0.00    -0.206 F 
ATOM     79  C   UNL A   1      34.915  32.293  27.784  1.00  0.00     0.006 A 
ENDBRANCH  51  72
BRANCH  63  80
ATOM     80  C   UNL A   1      39.194  32.169  35.747  1.00  0.00     0.057 A 
ATOM     81  C   UNL A   1      38.280  31.640  36.666  1.00  0.00     0.134 A 
ATOM     82  C   UNL A   1      39.608  33.494  35.939  1.00  0.00     0.134 A 
ATOM     83  F   UNL A   1      37.832  30.382  36.530  1.00  0.00    -0.206 F 
ATOM     84  C   UNL A   1      37.781  32.404  37.723  1.00  0.00     0.040 A 
ATOM     85  C   UNL A   1      39.137  34.260  37.007  1.00  0.00     0.040 A 
ATOM     86  F   UNL A   1      40.489  34.062  35.101  1.00  0.00    -0.206 F 
ATOM     87  C   UNL A   1      38.215  33.716  37.899  1.00  0.00     0.006 A 
ENDBRANCH  63  80
ENDBRANCH  37  38
ENDBRANCH  30  32
ENDBRANCH  29  30
ENDBRANCH  28  29
ENDBRANCH  27  28
ENDBRANCH  26  27
ENDBRANCH  25  26
ENDBRANCH   1  25
TORSDOF 20
ENDMDL
MODEL 2
REMARK VINA RESULT:     -10.5      4.118      9.641
REMARK SMILES CN1CC(=O)N(CC(=O)N2CCCC[C@H]2C(=O)OCCOCCOCCOC(=O)c2ccc(-c3c4nc(c(-c5c(F)cccc5F)c5ccc([nH]5)c(-c5c(F)cccc5F)c5nc(c(-c6c(F)cccc6F)c6ccc3[nH]6)C=C5)C=C4)cc2)C1=O
REMARK SMILES IDX 22 1 21 2 20 3 19 4 18 5 16 6 17 7 15 8 10 9 11 10 12 11
REMARK SMILES IDX 14 12 13 13 8 14 9 15 7 16 6 17 1 18 2 19 3 20 84 21 4 22
REMARK SMILES IDX 85 23 5 24 23 25 24 26 25 27 26 28 27 29 28 30 29 31 30 32
REMARK SMILES IDX 31 33 83 34 32 35 82 36 33 37 34 38 35 39 76 40 36 41 81 42
REMARK SMILES IDX 75 43 77 44 37 45 80 46 74 47 73 48 38 50 64 51 47 52 63 53
REMARK SMILES IDX 48 54 51 55 62 56 78 57 49 58 50 59 61 61 79 62 52 63 39 64
REMARK SMILES IDX 40 65 45 66 41 67 42 68 44 69 46 70 43 71 65 72 66 73 71 74
REMARK SMILES IDX 67 75 68 76 70 77 72 78 69 79 53 80 54 81 59 82 55 83 56 84
REMARK SMILES IDX 58 85 60 86 57 87
REMARK H PARENT 77 49 51 60
REMARK Flexibility Score: inf
ROOT
ATOM      1  C   UNL A   1      33.506  32.804  28.136  1.00  0.00     0.188 C 
ENDROOT
BRANCH   1   2
ATOM      2  O   UNL A   1      33.368  31.580  27.422  1.00  0.00    -0.376 OA
BRANCH   2   3
ATOM      3  C   UNL A   1      34.370  30.579  27.533  1.00  0.00     0.202 C 
BRANCH   3   4
ATOM      4  C   UNL A   1      33.968  29.157  27.131  1.00  0.00     0.261 C 
BRANCH   4   5
ATOM      5  O   UNL A   1      34.040  28.940  25.711  1.00  0.00    -0.462 OA
BRANCH   5   6
ATOM      6  C   UNL A   1      33.788  27.673  25.284  1.00  0.00     0.328 C 
ATOM      7  O   UNL A   1      33.789  26.690  26.015  1.00  0.00    -0.250 OA
BRANCH   6   8
ATOM      8  C   UNL A   1      33.539  27.636  23.751  1.00  0.00     0.195 C 
ATOM      9  N   UNL A   1      32.843  26.431  23.305  1.00  0.00    -0.327 N 
ATOM     10  C   UNL A   1      31.513  26.254  23.888  1.00  0.00     0.120 C 
ATOM     11  C   UNL A   1      30.609  27.449  23.585  1.00  0.00     0.022 C 
ATOM     12  C   UNL A   1      32.719  28.859  23.305  1.00  0.00     0.037 C 
ATOM     13  C   UNL A   1      31.272  28.811  23.807  1.00  0.00     0.005 C 
BRANCH   9  14
ATOM     14  C   UNL A   1      33.295  25.540  22.339  1.00  0.00     0.243 C 
ATOM     15  O   UNL A   1      33.498  25.920  21.180  1.00  0.00    -0.273 OA
BRANCH  14  16
ATOM     16  C   UNL A   1      33.414  24.030  22.635  1.00  0.00     0.230 C 
BRANCH  16  17
ATOM     17  N   UNL A   1      34.246  23.538  23.721  1.00  0.00    -0.253 N 
ATOM     18  C   UNL A   1      34.493  21.795  26.902  1.00  0.00     0.149 C 
ATOM     19  N   UNL A   1      34.684  22.443  25.621  1.00  0.00    -0.318 N 
ATOM     20  C   UNL A   1      35.907  22.322  24.870  1.00  0.00     0.221 C 
ATOM     21  C   UNL A   1      33.701  23.081  24.891  1.00  0.00     0.327 C 
ATOM     22  C   UNL A   1      35.507  23.033  23.583  1.00  0.00     0.250 C 
ATOM     23  O   UNL A   1      32.531  23.176  25.219  1.00  0.00    -0.248 OA
ATOM     24  O   UNL A   1      36.222  23.124  22.597  1.00  0.00    -0.272 OA
ENDBRANCH  16  17
ENDBRANCH  14  16
ENDBRANCH   9  14
ENDBRANCH   6   8
ENDBRANCH   5   6
ENDBRANCH   4   5
ENDBRANCH   3   4
ENDBRANCH   2   3
ENDBRANCH   1   2
BRANCH   1  25
ATOM     25  C   UNL A   1      34.676  33.766  27.857  1.00  0.00     0.188 C 
BRANCH  25  26
ATOM     26  O   UNL A   1      34.762  34.865  28.741  1.00  0.00    -0.376 OA
BRANCH  26  27
ATOM     27  C   UNL A   1      33.750  34.904  29.736  1.00  0.00     0.202 C 
BRANCH  27  28
ATOM     28  C   UNL A   1      34.351  34.752  31.133  1.00  0.00     0.261 C 
BRANCH  28  29
ATOM     29  O   UNL A   1      35.560  33.963  31.163  1.00  0.00    -0.460 OA
BRANCH  29  30
ATOM     30  C   UNL A   1      35.430  32.662  31.514  1.00  0.00     0.338 C 
ATOM     31  O   UNL A   1      34.454  32.118  31.992  1.00  0.00    -0.246 OA
BRANCH  30  32
ATOM     32  C   UNL A   1      36.648  31.945  31.080  1.00  0.00     0.060 A 
ATOM     33  C   UNL A   1      37.454  31.302  32.031  1.00  0.00     0.016 A 
ATOM     34  C   UNL A   1      37.006  31.932  29.734  1.00  0.00     0.016 A 
ATOM     35  C   UNL A   1      38.625  30.648  31.637  1.00  0.00     0.010 A 
ATOM     36  C   UNL A   1      38.184  31.287  29.343  1.00  0.00     0.010 A 
ATOM     37  C   UNL A   1      39.007  30.650  30.290  1.00  0.00    -0.014 A 
BRANCH  37  38
ATOM     38  C   UNL A   1      40.297  30.059  29.853  1.00  0.00     0.031 A 
ATOM     39  C   UNL A   1      41.502  30.945  29.705  1.00  0.00     0.074 A 
ATOM     40  C   UNL A   1      40.386  28.754  29.540  1.00  0.00     0.049 A 
ATOM     41  N   UNL A   1      42.659  30.685  29.154  1.00  0.00    -0.248 NA
ATOM     42  C   UNL A   1      41.382  32.306  30.250  1.00  0.00     0.031 C 
ATOM     43  C   UNL A   1      39.314  27.770  29.689  1.00  0.00     0.029 A 
ATOM     44  N   UNL A   1      41.426  28.039  28.995  1.00  0.00    -0.354 N 
ATOM     45  C   UNL A   1      43.401  31.854  29.263  1.00  0.00     0.074 A 
ATOM     46  C   UNL A   1      42.560  32.826  29.932  1.00  0.00     0.031 C 
ATOM     47  C   UNL A   1      39.741  26.587  29.213  1.00  0.00     0.029 A 
ATOM     48  C   UNL A   1      41.092  26.743  28.679  1.00  0.00     0.049 A 
ATOM     49  H   UNL A   1      42.322  28.418  28.845  1.00  0.00     0.167 HD
ATOM     50  C   UNL A   1      44.664  32.097  28.840  1.00  0.00     0.037 A 
ATOM     51  C   UNL A   1      41.776  25.808  27.990  1.00  0.00     0.037 A 
ATOM     52  C   UNL A   1      45.503  31.131  28.179  1.00  0.00     0.049 A 
ATOM     53  C   UNL A   1      43.142  26.133  27.442  1.00  0.00     0.074 A 
ATOM     54  C   UNL A   1      46.807  31.281  27.738  1.00  0.00     0.029 A 
ATOM     55  N   UNL A   1      45.118  29.840  27.854  1.00  0.00    -0.354 N 
ATOM     56  N   UNL A   1      43.839  27.238  27.556  1.00  0.00    -0.248 NA
ATOM     57  C   UNL A   1      43.812  25.083  26.659  1.00  0.00     0.031 C 
ATOM     58  C   UNL A   1      47.193  30.098  27.100  1.00  0.00     0.029 A 
ATOM     59  C   UNL A   1      46.149  29.193  27.189  1.00  0.00     0.049 A 
ATOM     60  H   UNL A   1      44.243  29.441  28.065  1.00  0.00     0.167 HD
ATOM     61  C   UNL A   1      45.033  27.007  26.881  1.00  0.00     0.074 A 
ATOM     62  C   UNL A   1      44.974  25.652  26.376  1.00  0.00     0.031 C 
ATOM     63  C   UNL A   1      46.083  27.843  26.695  1.00  0.00     0.037 A 
BRANCH  50  64
ATOM     64  C   UNL A   1      45.217  33.475  29.048  1.00  0.00     0.057 A 
ATOM     65  C   UNL A   1      45.971  33.809  30.178  1.00  0.00     0.134 A 
ATOM     66  C   UNL A   1      45.047  34.460  28.066  1.00  0.00     0.134 A 
ATOM     67  F   UNL A   1      46.157  32.913  31.160  1.00  0.00    -0.206 F 
ATOM     68  C   UNL A   1      46.529  35.079  30.332  1.00  0.00     0.040 A 
ATOM     69  C   UNL A   1      45.619  35.727  28.197  1.00  0.00     0.040 A 
ATOM     70  F   UNL A   1      44.340  34.203  26.957  1.00  0.00    -0.206 F 
ATOM     71  C   UNL A   1      46.362  36.039  29.334  1.00  0.00     0.006 A 
ENDBRANCH  50  64
BRANCH  51  72
ATOM     72  C   UNL A   1      41.164  24.482  27.716  1.00  0.00     0.057 A 
ATOM     73  C   UNL A   1      41.575  23.338  28.409  1.00  0.00     0.134 A 
ATOM     74  C   UNL A   1      40.193  24.320  26.720  1.00  0.00     0.134 A 
ATOM     75  F   UNL A   1      42.525  23.424  29.352  1.00  0.00    -0.206 F 
ATOM     76  C   UNL A   1      41.060  22.076  28.106  1.00  0.00     0.040 A 
ATOM     77  C   UNL A   1      39.649  23.069  26.427  1.00  0.00     0.040 A 
ATOM     78  F   UNL A   1      39.761  25.376  26.016  1.00  0.00    -0.206 F 
ATOM     79  C   UNL A   1      40.089  21.940  27.115  1.00  0.00     0.006 A 
ENDBRANCH  51  72
BRANCH  63  80
ATOM     80  C   UNL A   1      47.268  27.309  25.943  1.00  0.00     0.057 A 
ATOM     81  C   UNL A   1      48.298  26.611  26.584  1.00  0.00     0.134 A 
ATOM     82  C   UNL A   1      47.362  27.465  24.553  1.00  0.00     0.134 A 
ATOM     83  F   UNL A   1      48.277  26.440  27.915  1.00  0.00    -0.206 F 
ATOM     84  C   UNL A   1      49.390  26.106  25.875  1.00  0.00     0.040 A 
ATOM     85  C   UNL A   1      48.434  26.940  23.829  1.00  0.00     0.040 A 
ATOM     86  F   UNL A   1      46.405  28.115  23.873  1.00  0.00    -0.206 F 
ATOM     87  C   UNL A   1      49.456  26.264  24.493  1.00  0.00     0.006 A 
ENDBRANCH  63  80
ENDBRANCH  37  38
ENDBRANCH  30  32
ENDBRANCH  29  30
ENDBRANCH  28  29
ENDBRANCH  27  28
ENDBRANCH  26  27
ENDBRANCH  25  26
ENDBRANCH   1  25
TORSDOF 20
ENDMDL
MODEL 3
REMARK VINA RESULT:     -10.3      1.158      6.143
REMARK SMILES CN1CC(=O)N(CC(=O)N2CCCC[C@H]2C(=O)OCCOCCOCCOC(=O)c2ccc(-c3c4nc(c(-c5c(F)cccc5F)c5ccc([nH]5)c(-c5c(F)cccc5F)c5nc(c(-c6c(F)cccc6F)c6ccc3[nH]6)C=C5)C=C4)cc2)C1=O
REMARK SMILES IDX 22 1 21 2 20 3 19 4 18 5 16 6 17 7 15 8 10 9 11 10 12 11
REMARK SMILES IDX 14 12 13 13 8 14 9 15 7 16 6 17 1 18 2 19 3 20 84 21 4 22
REMARK SMILES IDX 85 23 5 24 23 25 24 26 25 27 26 28 27 29 28 30 29 31 30 32
REMARK SMILES IDX 31 33 83 34 32 35 82 36 33 37 34 38 35 39 76 40 36 41 81 42
REMARK SMILES IDX 75 43 77 44 37 45 80 46 74 47 73 48 38 50 64 51 47 52 63 53
REMARK SMILES IDX 48 54 51 55 62 56 78 57 49 58 50 59 61 61 79 62 52 63 39 64
REMARK SMILES IDX 40 65 45 66 41 67 42 68 44 69 46 70 43 71 65 72 66 73 71 74
REMARK SMILES IDX 67 75 68 76 70 77 72 78 69 79 53 80 54 81 59 82 55 83 56 84
REMARK SMILES IDX 58 85 60 86 57 87
REMARK H PARENT 77 49 51 60
REMARK Flexibility Score: inf
ROOT
ATOM      1  C   UNL A   1      40.996  21.195  26.714  1.00  0.00     0.188 C 
ENDROOT
BRANCH   1   2
ATOM      2  O   UNL A   1      39.920  21.265  25.784  1.00  0.00    -0.376 OA
BRANCH   2   3
ATOM      3  C   UNL A   1      38.752  22.007  26.105  1.00  0.00     0.202 C 
BRANCH   3   4
ATOM      4  C   UNL A   1      37.619  21.984  25.077  1.00  0.00     0.261 C 
BRANCH   4   5
ATOM      5  O   UNL A   1      37.005  23.273  24.896  1.00  0.00    -0.462 OA
BRANCH   5   6
ATOM      6  C   UNL A   1      36.184  23.401  23.819  1.00  0.00     0.328 C 
ATOM      7  O   UNL A   1      36.476  23.035  22.687  1.00  0.00    -0.250 OA
BRANCH   6   8
ATOM      8  C   UNL A   1      34.854  24.102  24.208  1.00  0.00     0.195 C 
ATOM      9  N   UNL A   1      33.940  24.278  23.081  1.00  0.00    -0.327 N 
ATOM     10  C   UNL A   1      33.514  23.027  22.451  1.00  0.00     0.120 C 
ATOM     11  C   UNL A   1      32.835  22.100  23.459  1.00  0.00     0.022 C 
ATOM     12  C   UNL A   1      34.122  23.308  25.303  1.00  0.00     0.037 C 
ATOM     13  C   UNL A   1      33.574  21.971  24.793  1.00  0.00     0.005 C 
BRANCH   9  14
ATOM     14  C   UNL A   1      33.397  25.484  22.654  1.00  0.00     0.243 C 
ATOM     15  O   UNL A   1      33.751  25.988  21.582  1.00  0.00    -0.273 OA
BRANCH  14  16
ATOM     16  C   UNL A   1      32.457  26.304  23.562  1.00  0.00     0.230 C 
BRANCH  16  17
ATOM     17  N   UNL A   1      31.561  27.307  23.010  1.00  0.00    -0.253 N 
ATOM     18  C   UNL A   1      28.222  28.735  22.840  1.00  0.00     0.149 C 
ATOM     19  N   UNL A   1      29.635  28.420  22.783  1.00  0.00    -0.318 N 
ATOM     20  C   UNL A   1      30.636  29.411  22.488  1.00  0.00     0.221 C 
ATOM     21  C   UNL A   1      30.205  27.223  23.172  1.00  0.00     0.327 C 
ATOM     22  C   UNL A   1      31.902  28.597  22.722  1.00  0.00     0.250 C 
ATOM     23  O   UNL A   1      29.597  26.270  23.628  1.00  0.00    -0.248 OA
ATOM     24  O   UNL A   1      33.034  29.052  22.653  1.00  0.00    -0.272 OA
ENDBRANCH  16  17
ENDBRANCH  14  16
ENDBRANCH   9  14
ENDBRANCH   6   8
ENDBRANCH   5   6
ENDBRANCH   4   5
ENDBRANCH   3   4
ENDBRANCH   2   3
ENDBRANCH   1   2
BRANCH   1  25
ATOM     25  C   UNL A   1      42.443  20.947  26.247  1.00  0.00     0.188 C 
BRANCH  25  26
ATOM     26  O   UNL A   1      42.880  21.795  25.205  1.00  0.00    -0.376 OA
BRANCH  26  27
ATOM     27  C   UNL A   1      44.290  21.913  25.091  1.00  0.00     0.202 C 
BRANCH  27  28
ATOM     28  C   UNL A   1      44.673  23.163  24.298  1.00  0.00     0.261 C 
BRANCH  28  29
ATOM     29  O   UNL A   1      43.949  24.348  24.697  1.00  0.00    -0.460 OA
BRANCH  29  30
ATOM     30  C   UNL A   1      44.686  25.391  25.143  1.00  0.00     0.338 C 
ATOM     31  O   UNL A   1      45.708  25.837  24.659  1.00  0.00    -0.246 OA
BRANCH  30  32
ATOM     32  C   UNL A   1      43.959  26.022  26.265  1.00  0.00     0.060 A 
ATOM     33  C   UNL A   1      44.244  27.348  26.623  1.00  0.00     0.016 A 
ATOM     34  C   UNL A   1      43.015  25.291  26.982  1.00  0.00     0.016 A 
ATOM     35  C   UNL A   1      43.587  27.945  27.702  1.00  0.00     0.010 A 
ATOM     36  C   UNL A   1      42.366  25.886  28.069  1.00  0.00     0.010 A 
ATOM     37  C   UNL A   1      42.654  27.211  28.444  1.00  0.00    -0.014 A 
BRANCH  37  38
ATOM     38  C   UNL A   1      42.018  27.778  29.661  1.00  0.00     0.031 A 
ATOM     39  C   UNL A   1      40.770  28.603  29.525  1.00  0.00     0.074 A 
ATOM     40  C   UNL A   1      42.575  27.604  30.873  1.00  0.00     0.049 A 
ATOM     41  N   UNL A   1      40.168  29.350  30.414  1.00  0.00    -0.248 NA
ATOM     42  C   UNL A   1      40.115  28.584  28.207  1.00  0.00     0.031 C 
ATOM     43  C   UNL A   1      43.750  26.783  31.158  1.00  0.00     0.029 A 
ATOM     44  N   UNL A   1      42.237  28.143  32.092  1.00  0.00    -0.354 N 
ATOM     45  C   UNL A   1      39.076  29.909  29.762  1.00  0.00     0.074 A 
ATOM     46  C   UNL A   1      39.101  29.417  28.400  1.00  0.00     0.031 C 
ATOM     47  C   UNL A   1      44.058  26.902  32.462  1.00  0.00     0.029 A 
ATOM     48  C   UNL A   1      43.135  27.845  33.089  1.00  0.00     0.049 A 
ATOM     49  H   UNL A   1      41.430  28.689  32.236  1.00  0.00     0.167 HD
ATOM     50  C   UNL A   1      38.144  30.759  30.253  1.00  0.00     0.037 A 
ATOM     51  C   UNL A   1      43.233  28.320  34.347  1.00  0.00     0.037 A 
ATOM     52  C   UNL A   1      38.116  31.247  31.607  1.00  0.00     0.049 A 
ATOM     53  C   UNL A   1      42.241  29.341  34.839  1.00  0.00     0.074 A 
ATOM     54  C   UNL A   1      37.192  32.091  32.200  1.00  0.00     0.029 A 
ATOM     55  N   UNL A   1      39.057  30.942  32.578  1.00  0.00    -0.354 N 
ATOM     56  N   UNL A   1      41.208  29.860  34.220  1.00  0.00    -0.248 NA
ATOM     57  C   UNL A   1      42.436  29.853  36.206  1.00  0.00     0.031 C 
ATOM     58  C   UNL A   1      37.603  32.339  33.513  1.00  0.00     0.029 A 
ATOM     59  C   UNL A   1      38.754  31.608  33.755  1.00  0.00     0.049 A 
ATOM     60  H   UNL A   1      39.827  30.341  32.449  1.00  0.00     0.167 HD
ATOM     61  C   UNL A   1      40.620  30.737  35.126  1.00  0.00     0.074 A 
ATOM     62  C   UNL A   1      41.401  30.668  36.343  1.00  0.00     0.031 C 
ATOM     63  C   UNL A   1      39.534  31.530  34.963  1.00  0.00     0.037 A 
BRANCH  50  64
ATOM     64  C   UNL A   1      37.084  31.250  29.312  1.00  0.00     0.057 A 
ATOM     65  C   UNL A   1      35.986  30.459  28.953  1.00  0.00     0.134 A 
ATOM     66  C   UNL A   1      37.131  32.559  28.814  1.00  0.00     0.134 A 
ATOM     67  F   UNL A   1      35.891  29.193  29.387  1.00  0.00    -0.206 F 
ATOM     68  C   UNL A   1      34.977  30.948  28.124  1.00  0.00     0.040 A 
ATOM     69  C   UNL A   1      36.117  33.067  28.003  1.00  0.00     0.040 A 
ATOM     70  F   UNL A   1      38.153  33.370  29.125  1.00  0.00    -0.206 F 
ATOM     71  C   UNL A   1      35.035  32.260  27.653  1.00  0.00     0.006 A 
ENDBRANCH  50  64
BRANCH  51  72
ATOM     72  C   UNL A   1      44.351  27.888  35.225  1.00  0.00     0.057 A 
ATOM     73  C   UNL A   1      45.548  28.610  35.282  1.00  0.00     0.134 A 
ATOM     74  C   UNL A   1      44.267  26.716  35.988  1.00  0.00     0.134 A 
ATOM     75  F   UNL A   1      45.700  29.723  34.549  1.00  0.00    -0.206 F 
ATOM     76  C   UNL A   1      46.630  28.171  36.047  1.00  0.00     0.040 A 
ATOM     77  C   UNL A   1      45.331  26.282  36.779  1.00  0.00     0.040 A 
ATOM     78  F   UNL A   1      43.148  25.977  35.973  1.00  0.00    -0.206 F 
ATOM     79  C   UNL A   1      46.521  27.005  36.802  1.00  0.00     0.006 A 
ENDBRANCH  51  72
BRANCH  63  80
ATOM     80  C   UNL A   1      39.101  32.362  36.136  1.00  0.00     0.057 A 
ATOM     81  C   UNL A   1      38.254  31.856  37.129  1.00  0.00     0.134 A 
ATOM     82  C   UNL A   1      39.568  33.673  36.292  1.00  0.00     0.134 A 
ATOM     83  F   UNL A   1      37.760  30.612  37.032  1.00  0.00    -0.206 F 
ATOM     84  C   UNL A   1      37.868  32.632  38.224  1.00  0.00     0.040 A 
ATOM     85  C   UNL A   1      39.212  34.449  37.397  1.00  0.00     0.040 A 
ATOM     86  F   UNL A   1      40.391  34.218  35.383  1.00  0.00    -0.206 F 
ATOM     87  C   UNL A   1      38.353  33.930  38.363  1.00  0.00     0.006 A 
ENDBRANCH  63  80
ENDBRANCH  37  38
ENDBRANCH  30  32
ENDBRANCH  29  30
ENDBRANCH  28  29
ENDBRANCH  27  28
ENDBRANCH  26  27
ENDBRANCH  25  26
ENDBRANCH   1  25
TORSDOF 20
ENDMDL
