MODEL 1
REMARK VINA RESULT:      -9.1      0.000      0.000
REMARK SMILES C=Cc1cccc(-c2ccc([C@@H](C)C(=O)OCCOCCOCCOC(=O)c3ccc(-c4c5nc(c(-c6c(F)cccc6F)c6ccc([nH]6)c(-c6c(F)cccc6F)c6nc(c(-c7c(F)cccc7F)c7ccc4[nH]7)C=C6)C=C5)cc3)cc2)c1
REMARK SMILES IDX 20 1 19 2 18 3 17 4 16 5 14 6 15 7 12 8 13 9 11 10 8 11 9 12
REMARK SMILES IDX 83 13 10 14 82 15 7 16 3 17 4 18 84 19 5 20 6 21 2 22 1 23
REMARK SMILES IDX 21 24 22 25 23 26 24 27 25 28 26 29 27 30 28 31 29 32 81 33
REMARK SMILES IDX 30 34 80 35 31 36 32 37 33 38 74 39 34 40 79 41 73 42 75 43
REMARK SMILES IDX 35 44 78 45 72 46 71 47 36 49 62 50 45 51 61 52 46 53 49 54
REMARK SMILES IDX 60 55 76 56 47 57 48 58 59 60 77 61 50 62 37 63 38 64 43 65
REMARK SMILES IDX 39 66 40 67 42 68 44 69 41 70 63 71 64 72 69 73 65 74 66 75
REMARK SMILES IDX 68 76 70 77 67 78 51 79 52 80 57 81 53 82 54 83 56 84 58 85
REMARK SMILES IDX 55 86
REMARK H PARENT 75 48 49 59
REMARK Flexibility Score: inf
ROOT
ATOM      1  C   UNL A   1      33.027  37.099  30.329  1.00  0.00     0.188 C 
ENDROOT
BRANCH   1   2
ATOM      2  O   UNL A   1      32.148  36.785  31.405  1.00  0.00    -0.376 OA
BRANCH   2   3
ATOM      3  C   UNL A   1      32.655  36.105  32.547  1.00  0.00     0.202 C 
BRANCH   3   4
ATOM      4  C   UNL A   1      33.861  36.710  33.284  1.00  0.00     0.261 C 
BRANCH   4   5
ATOM      5  O   UNL A   1      35.133  36.057  33.060  1.00  0.00    -0.463 OA
BRANCH   5   6
ATOM      6  C   UNL A   1      35.154  34.706  33.185  1.00  0.00     0.313 C 
ATOM      7  O   UNL A   1      34.819  34.122  34.215  1.00  0.00    -0.252 OA
BRANCH   6   8
ATOM      8  C   UNL A   1      35.607  33.908  31.957  1.00  0.00     0.126 C 
ATOM      9  C   UNL A   1      35.139  32.463  32.112  1.00  0.00     0.025 C 
BRANCH   8  10
ATOM     10  C   UNL A   1      37.052  33.952  31.458  1.00  0.00    -0.034 A 
ATOM     11  C   UNL A   1      39.722  33.994  30.413  1.00  0.00    -0.018 A 
ATOM     12  C   UNL A   1      39.433  34.422  31.720  1.00  0.00     0.009 A 
ATOM     13  C   UNL A   1      38.650  33.538  29.636  1.00  0.00     0.009 A 
ATOM     14  C   UNL A   1      38.126  34.393  32.242  1.00  0.00     0.005 A 
ATOM     15  C   UNL A   1      37.343  33.509  30.151  1.00  0.00     0.005 A 
BRANCH  11  16
ATOM     16  C   UNL A   1      41.109  33.958  29.902  1.00  0.00    -0.018 A 
ATOM     17  C   UNL A   1      43.290  32.856  29.634  1.00  0.00    -0.026 A 
ATOM     18  C   UNL A   1      43.772  33.987  28.963  1.00  0.00     0.008 A 
ATOM     19  C   UNL A   1      41.963  32.854  30.107  1.00  0.00     0.016 A 
ATOM     20  C   UNL A   1      42.943  35.085  28.746  1.00  0.00     0.001 A 
ATOM     21  C   UNL A   1      41.627  35.067  29.211  1.00  0.00     0.009 A 
BRANCH  17  22
ATOM     22  C   UNL A   1      44.227  31.745  29.859  1.00  0.00     0.000 C 
ATOM     23  C   UNL A   1      43.977  30.467  29.549  1.00  0.00     0.009 C 
ENDBRANCH  17  22
ENDBRANCH  11  16
ENDBRANCH   8  10
ENDBRANCH   6   8
ENDBRANCH   5   6
ENDBRANCH   4   5
ENDBRANCH   3   4
ENDBRANCH   2   3
ENDBRANCH   1   2
BRANCH   1  24
ATOM     24  C   UNL A   1      33.603  35.963  29.469  1.00  0.00     0.188 C 
BRANCH  24  25
ATOM     25  O   UNL A   1      32.679  35.398  28.567  1.00  0.00    -0.376 OA
BRANCH  25  26
ATOM     26  C   UNL A   1      32.985  34.119  28.053  1.00  0.00     0.202 C 
BRANCH  26  27
ATOM     27  C   UNL A   1      34.366  33.561  28.420  1.00  0.00     0.261 C 
BRANCH  27  28
ATOM     28  O   UNL A   1      34.879  32.511  27.576  1.00  0.00    -0.460 OA
BRANCH  28  29
ATOM     29  C   UNL A   1      34.566  31.234  27.891  1.00  0.00     0.338 C 
ATOM     30  O   UNL A   1      33.515  30.655  27.665  1.00  0.00    -0.246 OA
BRANCH  29  31
ATOM     31  C   UNL A   1      35.804  30.582  28.383  1.00  0.00     0.060 A 
ATOM     32  C   UNL A   1      35.783  29.871  29.593  1.00  0.00     0.016 A 
ATOM     33  C   UNL A   1      36.976  30.640  27.627  1.00  0.00     0.016 A 
ATOM     34  C   UNL A   1      36.932  29.211  30.044  1.00  0.00     0.010 A 
ATOM     35  C   UNL A   1      38.131  30.003  28.095  1.00  0.00     0.010 A 
ATOM     36  C   UNL A   1      38.121  29.291  29.308  1.00  0.00    -0.014 A 
BRANCH  36  37
ATOM     37  C   UNL A   1      39.395  28.732  29.831  1.00  0.00     0.031 A 
ATOM     38  C   UNL A   1      40.071  29.416  30.986  1.00  0.00     0.074 A 
ATOM     39  C   UNL A   1      39.976  27.662  29.258  1.00  0.00     0.049 A 
ATOM     40  N   UNL A   1      41.258  29.212  31.497  1.00  0.00    -0.248 NA
ATOM     41  C   UNL A   1      39.302  30.480  31.649  1.00  0.00     0.031 C 
ATOM     42  C   UNL A   1      39.409  26.875  28.166  1.00  0.00     0.029 A 
ATOM     43  N   UNL A   1      41.195  27.073  29.501  1.00  0.00    -0.354 N 
ATOM     44  C   UNL A   1      41.387  30.130  32.531  1.00  0.00     0.074 A 
ATOM     45  C   UNL A   1      40.164  30.906  32.562  1.00  0.00     0.031 C 
ATOM     46  C   UNL A   1      40.289  25.923  27.813  1.00  0.00     0.029 A 
ATOM     47  C   UNL A   1      41.501  26.063  28.620  1.00  0.00     0.049 A 
ATOM     48  H   UNL A   1      41.790  27.347  30.237  1.00  0.00     0.167 HD
ATOM     49  C   UNL A   1      42.429  30.311  33.378  1.00  0.00     0.037 A 
ATOM     50  C   UNL A   1      42.644  25.366  28.453  1.00  0.00     0.037 A 
ATOM     51  C   UNL A   1      43.648  29.545  33.340  1.00  0.00     0.049 A 
ATOM     52  C   UNL A   1      43.833  25.661  29.333  1.00  0.00     0.074 A 
ATOM     53  C   UNL A   1      44.749  29.636  34.174  1.00  0.00     0.029 A 
ATOM     54  N   UNL A   1      43.934  28.559  32.408  1.00  0.00    -0.354 N 
ATOM     55  N   UNL A   1      43.937  26.509  30.328  1.00  0.00    -0.248 NA
ATOM     56  C   UNL A   1      45.067  24.908  29.059  1.00  0.00     0.031 C 
ATOM     57  C   UNL A   1      45.727  28.753  33.707  1.00  0.00     0.029 A 
ATOM     58  C   UNL A   1      45.212  28.067  32.618  1.00  0.00     0.049 A 
ATOM     59  H   UNL A   1      43.320  28.255  31.701  1.00  0.00     0.167 HD
ATOM     60  C   UNL A   1      45.236  26.378  30.808  1.00  0.00     0.074 A 
ATOM     61  C   UNL A   1      45.876  25.354  30.010  1.00  0.00     0.031 C 
ATOM     62  C   UNL A   1      45.844  27.049  31.817  1.00  0.00     0.037 A 
BRANCH  49  63
ATOM     63  C   UNL A   1      42.312  31.408  34.396  1.00  0.00     0.057 A 
ATOM     64  C   UNL A   1      41.718  31.202  35.647  1.00  0.00     0.134 A 
ATOM     65  C   UNL A   1      42.838  32.681  34.134  1.00  0.00     0.134 A 
ATOM     66  F   UNL A   1      41.186  30.010  35.959  1.00  0.00    -0.206 F 
ATOM     67  C   UNL A   1      41.627  32.228  36.590  1.00  0.00     0.040 A 
ATOM     68  C   UNL A   1      42.779  33.705  35.079  1.00  0.00     0.040 A 
ATOM     69  F   UNL A   1      43.428  32.946  32.958  1.00  0.00    -0.206 F 
ATOM     70  C   UNL A   1      42.165  33.482  36.309  1.00  0.00     0.006 A 
ENDBRANCH  49  63
BRANCH  50  71
ATOM     71  C   UNL A   1      42.743  24.345  27.377  1.00  0.00     0.057 A 
ATOM     72  C   UNL A   1      42.514  22.989  27.642  1.00  0.00     0.134 A 
ATOM     73  C   UNL A   1      43.099  24.693  26.068  1.00  0.00     0.134 A 
ATOM     74  F   UNL A   1      42.202  22.587  28.882  1.00  0.00    -0.206 F 
ATOM     75  C   UNL A   1      42.647  22.017  26.648  1.00  0.00     0.040 A 
ATOM     76  C   UNL A   1      43.206  23.735  25.058  1.00  0.00     0.040 A 
ATOM     77  F   UNL A   1      43.341  25.973  25.749  1.00  0.00    -0.206 F 
ATOM     78  C   UNL A   1      42.986  22.391  25.349  1.00  0.00     0.006 A 
ENDBRANCH  50  71
BRANCH  62  79
ATOM     79  C   UNL A   1      47.269  26.693  32.133  1.00  0.00     0.057 A 
ATOM     80  C   UNL A   1      47.593  25.605  32.954  1.00  0.00     0.134 A 
ATOM     81  C   UNL A   1      48.331  27.404  31.558  1.00  0.00     0.134 A 
ATOM     82  F   UNL A   1      46.625  24.889  33.546  1.00  0.00    -0.206 F 
ATOM     83  C   UNL A   1      48.919  25.247  33.203  1.00  0.00     0.040 A 
ATOM     84  C   UNL A   1      49.661  27.039  31.778  1.00  0.00     0.040 A 
ATOM     85  F   UNL A   1      48.093  28.452  30.753  1.00  0.00    -0.206 F 
ATOM     86  C   UNL A   1      49.957  25.959  32.606  1.00  0.00     0.006 A 
ENDBRANCH  62  79
ENDBRANCH  36  37
ENDBRANCH  29  31
ENDBRANCH  28  29
ENDBRANCH  27  28
ENDBRANCH  26  27
ENDBRANCH  25  26
ENDBRANCH  24  25
ENDBRANCH   1  24
TORSDOF 20
ENDMDL
MODEL 2
REMARK VINA RESULT:      -8.3      4.457     11.036
REMARK SMILES C=Cc1cccc(-c2ccc([C@@H](C)C(=O)OCCOCCOCCOC(=O)c3ccc(-c4c5nc(c(-c6c(F)cccc6F)c6ccc([nH]6)c(-c6c(F)cccc6F)c6nc(c(-c7c(F)cccc7F)c7ccc4[nH]7)C=C6)C=C5)cc3)cc2)c1
REMARK SMILES IDX 20 1 19 2 18 3 17 4 16 5 14 6 15 7 12 8 13 9 11 10 8 11 9 12
REMARK SMILES IDX 83 13 10 14 82 15 7 16 3 17 4 18 84 19 5 20 6 21 2 22 1 23
REMARK SMILES IDX 21 24 22 25 23 26 24 27 25 28 26 29 27 30 28 31 29 32 81 33
REMARK SMILES IDX 30 34 80 35 31 36 32 37 33 38 74 39 34 40 79 41 73 42 75 43
REMARK SMILES IDX 35 44 78 45 72 46 71 47 36 49 62 50 45 51 61 52 46 53 49 54
REMARK SMILES IDX 60 55 76 56 47 57 48 58 59 60 77 61 50 62 37 63 38 64 43 65
REMARK SMILES IDX 39 66 40 67 42 68 44 69 41 70 63 71 64 72 69 73 65 74 66 75
REMARK SMILES IDX 68 76 70 77 67 78 51 79 52 80 57 81 53 82 54 83 56 84 58 85
REMARK SMILES IDX 55 86
REMARK H PARENT 75 48 49 59
REMARK Flexibility Score: inf
ROOT
ATOM      1  C   UNL A   1      44.041  20.380  25.391  1.00  0.00     0.188 C 
ENDROOT
BRANCH   1   2
ATOM      2  O   UNL A   1      44.498  21.012  24.199  1.00  0.00    -0.376 OA
BRANCH   2   3
ATOM      3  C   UNL A   1      45.026  22.331  24.265  1.00  0.00     0.202 C 
BRANCH   3   4
ATOM      4  C   UNL A   1      46.301  22.568  25.090  1.00  0.00     0.261 C 
BRANCH   4   5
ATOM      5  O   UNL A   1      46.112  23.178  26.388  1.00  0.00    -0.463 OA
BRANCH   5   6
ATOM      6  C   UNL A   1      46.184  24.532  26.441  1.00  0.00     0.313 C 
ATOM      7  O   UNL A   1      47.010  25.185  25.805  1.00  0.00    -0.252 OA
BRANCH   6   8
ATOM      8  C   UNL A   1      45.159  25.241  27.335  1.00  0.00     0.126 C 
ATOM      9  C   UNL A   1      45.269  26.746  27.105  1.00  0.00     0.025 C 
BRANCH   8  10
ATOM     10  C   UNL A   1      45.047  24.934  28.829  1.00  0.00    -0.034 A 
ATOM     11  C   UNL A   1      44.747  24.275  31.604  1.00  0.00    -0.018 A 
ATOM     12  C   UNL A   1      45.717  25.192  31.162  1.00  0.00     0.009 A 
ATOM     13  C   UNL A   1      43.924  23.694  30.631  1.00  0.00     0.009 A 
ATOM     14  C   UNL A   1      45.860  25.527  29.802  1.00  0.00     0.005 A 
ATOM     15  C   UNL A   1      44.064  24.024  29.273  1.00  0.00     0.005 A 
BRANCH  11  16
ATOM     16  C   UNL A   1      44.555  23.988  33.042  1.00  0.00    -0.018 A 
ATOM     17  C   UNL A   1      43.181  23.961  35.079  1.00  0.00    -0.026 A 
ATOM     18  C   UNL A   1      44.281  23.489  35.807  1.00  0.00     0.008 A 
ATOM     19  C   UNL A   1      43.330  24.215  33.702  1.00  0.00     0.016 A 
ATOM     20  C   UNL A   1      45.498  23.253  35.172  1.00  0.00     0.001 A 
ATOM     21  C   UNL A   1      45.631  23.500  33.805  1.00  0.00     0.009 A 
BRANCH  17  22
ATOM     22  C   UNL A   1      41.937  24.219  35.817  1.00  0.00     0.000 C 
ATOM     23  C   UNL A   1      41.755  25.238  36.668  1.00  0.00     0.009 C 
ENDBRANCH  17  22
ENDBRANCH  11  16
ENDBRANCH   8  10
ENDBRANCH   6   8
ENDBRANCH   5   6
ENDBRANCH   4   5
ENDBRANCH   3   4
ENDBRANCH   2   3
ENDBRANCH   1   2
BRANCH   1  24
ATOM     24  C   UNL A   1      43.157  19.127  25.289  1.00  0.00     0.188 C 
BRANCH  24  25
ATOM     25  O   UNL A   1      41.949  19.214  26.009  1.00  0.00    -0.376 OA
BRANCH  25  26
ATOM     26  C   UNL A   1      41.725  20.395  26.749  1.00  0.00     0.202 C 
BRANCH  26  27
ATOM     27  C   UNL A   1      40.499  21.222  26.337  1.00  0.00     0.261 C 
BRANCH  27  28
ATOM     28  O   UNL A   1      40.590  22.647  26.537  1.00  0.00    -0.460 OA
BRANCH  28  29
ATOM     29  C   UNL A   1      39.475  23.387  26.341  1.00  0.00     0.338 C 
ATOM     30  O   UNL A   1      38.450  23.041  25.777  1.00  0.00    -0.246 OA
BRANCH  29  31
ATOM     31  C   UNL A   1      39.634  24.641  27.116  1.00  0.00     0.060 A 
ATOM     32  C   UNL A   1      40.381  25.701  26.580  1.00  0.00     0.016 A 
ATOM     33  C   UNL A   1      39.010  24.784  28.357  1.00  0.00     0.016 A 
ATOM     34  C   UNL A   1      40.498  26.908  27.281  1.00  0.00     0.010 A 
ATOM     35  C   UNL A   1      39.152  25.981  29.067  1.00  0.00     0.010 A 
ATOM     36  C   UNL A   1      39.902  27.048  28.541  1.00  0.00    -0.014 A 
BRANCH  36  37
ATOM     37  C   UNL A   1      40.131  28.255  29.377  1.00  0.00     0.031 A 
ATOM     38  C   UNL A   1      41.305  28.280  30.315  1.00  0.00     0.074 A 
ATOM     39  C   UNL A   1      39.280  29.298  29.346  1.00  0.00     0.049 A 
ATOM     40  N   UNL A   1      41.606  29.144  31.250  1.00  0.00    -0.248 NA
ATOM     41  C   UNL A   1      42.266  27.174  30.180  1.00  0.00     0.031 C 
ATOM     42  C   UNL A   1      38.133  29.428  28.452  1.00  0.00     0.029 A 
ATOM     43  N   UNL A   1      39.240  30.437  30.116  1.00  0.00    -0.354 N 
ATOM     44  C   UNL A   1      42.782  28.680  31.828  1.00  0.00     0.074 A 
ATOM     45  C   UNL A   1      43.128  27.448  31.149  1.00  0.00     0.031 C 
ATOM     46  C   UNL A   1      37.482  30.567  28.743  1.00  0.00     0.029 A 
ATOM     47  C   UNL A   1      38.138  31.223  29.874  1.00  0.00     0.049 A 
ATOM     48  H   UNL A   1      39.933  30.668  30.776  1.00  0.00     0.167 HD
ATOM     49  C   UNL A   1      43.507  29.230  32.831  1.00  0.00     0.037 A 
ATOM     50  C   UNL A   1      37.687  32.317  30.520  1.00  0.00     0.037 A 
ATOM     51  C   UNL A   1      43.156  30.450  33.511  1.00  0.00     0.049 A 
ATOM     52  C   UNL A   1      38.448  32.850  31.708  1.00  0.00     0.074 A 
ATOM     53  C   UNL A   1      43.843  31.101  34.522  1.00  0.00     0.029 A 
ATOM     54  N   UNL A   1      42.013  31.194  33.262  1.00  0.00    -0.354 N 
ATOM     55  N   UNL A   1      39.574  32.424  32.229  1.00  0.00    -0.248 NA
ATOM     56  C   UNL A   1      37.869  34.009  32.405  1.00  0.00     0.031 C 
ATOM     57  C   UNL A   1      43.083  32.201  34.929  1.00  0.00     0.029 A 
ATOM     58  C   UNL A   1      41.952  32.271  34.131  1.00  0.00     0.049 A 
ATOM     59  H   UNL A   1      41.343  30.987  32.570  1.00  0.00     0.167 HD
ATOM     60  C   UNL A   1      39.846  33.271  33.297  1.00  0.00     0.074 A 
ATOM     61  C   UNL A   1      38.779  34.249  33.339  1.00  0.00     0.031 C 
ATOM     62  C   UNL A   1      40.885  33.239  34.168  1.00  0.00     0.037 A 
BRANCH  49  63
ATOM     63  C   UNL A   1      44.734  28.494  33.283  1.00  0.00     0.057 A 
ATOM     64  C   UNL A   1      45.979  28.674  32.667  1.00  0.00     0.134 A 
ATOM     65  C   UNL A   1      44.677  27.619  34.378  1.00  0.00     0.134 A 
ATOM     66  F   UNL A   1      46.102  29.489  31.608  1.00  0.00    -0.206 F 
ATOM     67  C   UNL A   1      47.116  27.992  33.106  1.00  0.00     0.040 A 
ATOM     68  C   UNL A   1      45.812  26.955  34.843  1.00  0.00     0.040 A 
ATOM     69  F   UNL A   1      43.519  27.406  35.019  1.00  0.00    -0.206 F 
ATOM     70  C   UNL A   1      47.035  27.135  34.201  1.00  0.00     0.006 A 
ENDBRANCH  49  63
BRANCH  50  71
ATOM     71  C   UNL A   1      36.421  32.967  30.089  1.00  0.00     0.057 A 
ATOM     72  C   UNL A   1      36.383  33.816  28.977  1.00  0.00     0.134 A 
ATOM     73  C   UNL A   1      35.226  32.782  30.797  1.00  0.00     0.134 A 
ATOM     74  F   UNL A   1      37.501  34.059  28.276  1.00  0.00    -0.206 F 
ATOM     75  C   UNL A   1      35.209  34.465  28.589  1.00  0.00     0.040 A 
ATOM     76  C   UNL A   1      34.038  33.401  30.403  1.00  0.00     0.040 A 
ATOM     77  F   UNL A   1      35.194  31.989  31.878  1.00  0.00    -0.206 F 
ATOM     78  C   UNL A   1      34.029  34.251  29.301  1.00  0.00     0.006 A 
ENDBRANCH  50  71
BRANCH  62  79
ATOM     79  C   UNL A   1      40.935  34.297  35.233  1.00  0.00     0.057 A 
ATOM     80  C   UNL A   1      40.376  34.095  36.502  1.00  0.00     0.134 A 
ATOM     81  C   UNL A   1      41.606  35.507  35.012  1.00  0.00     0.134 A 
ATOM     82  F   UNL A   1      39.709  32.963  36.778  1.00  0.00    -0.206 F 
ATOM     83  C   UNL A   1      40.471  35.061  37.505  1.00  0.00     0.040 A 
ATOM     84  C   UNL A   1      41.731  36.470  36.015  1.00  0.00     0.040 A 
ATOM     85  F   UNL A   1      42.173  35.764  33.823  1.00  0.00    -0.206 F 
ATOM     86  C   UNL A   1      41.159  36.248  37.266  1.00  0.00     0.006 A 
ENDBRANCH  62  79
ENDBRANCH  36  37
ENDBRANCH  29  31
ENDBRANCH  28  29
ENDBRANCH  27  28
ENDBRANCH  26  27
ENDBRANCH  25  26
ENDBRANCH  24  25
ENDBRANCH   1  24
TORSDOF 20
ENDMDL
MODEL 3
REMARK VINA RESULT:      -8.2      4.315     10.478
REMARK SMILES C=Cc1cccc(-c2ccc([C@@H](C)C(=O)OCCOCCOCCOC(=O)c3ccc(-c4c5nc(c(-c6c(F)cccc6F)c6ccc([nH]6)c(-c6c(F)cccc6F)c6nc(c(-c7c(F)cccc7F)c7ccc4[nH]7)C=C6)C=C5)cc3)cc2)c1
REMARK SMILES IDX 20 1 19 2 18 3 17 4 16 5 14 6 15 7 12 8 13 9 11 10 8 11 9 12
REMARK SMILES IDX 83 13 10 14 82 15 7 16 3 17 4 18 84 19 5 20 6 21 2 22 1 23
REMARK SMILES IDX 21 24 22 25 23 26 24 27 25 28 26 29 27 30 28 31 29 32 81 33
REMARK SMILES IDX 30 34 80 35 31 36 32 37 33 38 74 39 34 40 79 41 73 42 75 43
REMARK SMILES IDX 35 44 78 45 72 46 71 47 36 49 62 50 45 51 61 52 46 53 49 54
REMARK SMILES IDX 60 55 76 56 47 57 48 58 59 60 77 61 50 62 37 63 38 64 43 65
REMARK SMILES IDX 39 66 40 67 42 68 44 69 41 70 63 71 64 72 69 73 65 74 66 75
REMARK SMILES IDX 68 76 70 77 67 78 51 79 52 80 57 81 53 82 54 83 56 84 58 85
REMARK SMILES IDX 55 86
REMARK H PARENT 75 48 49 59
REMARK Flexibility Score: inf
ROOT
ATOM      1  C   UNL A   1      44.081  20.226  25.304  1.00  0.00     0.188 C 
ENDROOT
BRANCH   1   2
ATOM      2  O   UNL A   1      44.537  20.742  24.057  1.00  0.00    -0.376 OA
BRANCH   2   3
ATOM      3  C   UNL A   1      44.872  22.120  23.951  1.00  0.00     0.202 C 
BRANCH   3   4
ATOM      4  C   UNL A   1      46.300  22.557  24.320  1.00  0.00     0.261 C 
BRANCH   4   5
ATOM      5  O   UNL A   1      46.482  23.055  25.666  1.00  0.00    -0.463 OA
BRANCH   5   6
ATOM      6  C   UNL A   1      46.401  24.400  25.834  1.00  0.00     0.313 C 
ATOM      7  O   UNL A   1      46.990  25.203  25.112  1.00  0.00    -0.252 OA
BRANCH   6   8
ATOM      8  C   UNL A   1      45.510  24.898  26.978  1.00  0.00     0.126 C 
ATOM      9  C   UNL A   1      44.184  24.143  26.929  1.00  0.00     0.025 C 
BRANCH   8  10
ATOM     10  C   UNL A   1      45.268  26.389  27.217  1.00  0.00    -0.034 A 
ATOM     11  C   UNL A   1      44.714  29.178  27.592  1.00  0.00    -0.018 A 
ATOM     12  C   UNL A   1      45.767  28.536  28.267  1.00  0.00     0.009 A 
ATOM     13  C   UNL A   1      43.943  28.400  26.719  1.00  0.00     0.009 A 
ATOM     14  C   UNL A   1      46.049  27.170  28.078  1.00  0.00     0.005 A 
ATOM     15  C   UNL A   1      44.220  27.036  26.529  1.00  0.00     0.005 A 
BRANCH  11  16
ATOM     16  C   UNL A   1      44.474  30.629  27.740  1.00  0.00    -0.018 A 
ATOM     17  C   UNL A   1      44.239  32.891  26.808  1.00  0.00    -0.026 A 
ATOM     18  C   UNL A   1      44.087  33.402  28.103  1.00  0.00     0.008 A 
ATOM     19  C   UNL A   1      44.441  31.508  26.637  1.00  0.00     0.016 A 
ATOM     20  C   UNL A   1      44.112  32.551  29.205  1.00  0.00     0.001 A 
ATOM     21  C   UNL A   1      44.303  31.180  29.022  1.00  0.00     0.009 A 
BRANCH  17  22
ATOM     22  C   UNL A   1      44.235  33.848  25.692  1.00  0.00     0.000 C 
ATOM     23  C   UNL A   1      45.148  34.812  25.515  1.00  0.00     0.009 C 
ENDBRANCH  17  22
ENDBRANCH  11  16
ENDBRANCH   8  10
ENDBRANCH   6   8
ENDBRANCH   5   6
ENDBRANCH   4   5
ENDBRANCH   3   4
ENDBRANCH   2   3
ENDBRANCH   1   2
BRANCH   1  24
ATOM     24  C   UNL A   1      43.339  18.881  25.337  1.00  0.00     0.188 C 
BRANCH  24  25
ATOM     25  O   UNL A   1      42.077  18.934  25.963  1.00  0.00    -0.376 OA
BRANCH  25  26
ATOM     26  C   UNL A   1      41.781  20.091  26.715  1.00  0.00     0.202 C 
BRANCH  26  27
ATOM     27  C   UNL A   1      40.534  20.873  26.279  1.00  0.00     0.261 C 
BRANCH  27  28
ATOM     28  O   UNL A   1      40.625  22.310  26.341  1.00  0.00    -0.460 OA
BRANCH  28  29
ATOM     29  C   UNL A   1      39.479  23.023  26.253  1.00  0.00     0.338 C 
ATOM     30  O   UNL A   1      38.403  22.638  25.823  1.00  0.00    -0.246 OA
BRANCH  29  31
ATOM     31  C   UNL A   1      39.698  24.306  26.962  1.00  0.00     0.060 A 
ATOM     32  C   UNL A   1      40.466  25.313  26.359  1.00  0.00     0.016 A 
ATOM     33  C   UNL A   1      39.109  24.529  28.209  1.00  0.00     0.016 A 
ATOM     34  C   UNL A   1      40.640  26.547  26.997  1.00  0.00     0.010 A 
ATOM     35  C   UNL A   1      39.308  25.753  28.857  1.00  0.00     0.010 A 
ATOM     36  C   UNL A   1      40.080  26.767  28.262  1.00  0.00    -0.014 A 
BRANCH  36  37
ATOM     37  C   UNL A   1      40.370  28.004  29.033  1.00  0.00     0.031 A 
ATOM     38  C   UNL A   1      41.615  28.065  29.873  1.00  0.00     0.074 A 
ATOM     39  C   UNL A   1      39.515  29.044  29.033  1.00  0.00     0.049 A 
ATOM     40  N   UNL A   1      41.985  28.962  30.750  1.00  0.00    -0.248 NA
ATOM     41  C   UNL A   1      42.566  26.957  29.702  1.00  0.00     0.031 C 
ATOM     42  C   UNL A   1      38.299  29.139  28.229  1.00  0.00     0.029 A 
ATOM     43  N   UNL A   1      39.530  30.210  29.762  1.00  0.00    -0.354 N 
ATOM     44  C   UNL A   1      43.205  28.521  31.249  1.00  0.00     0.074 A 
ATOM     45  C   UNL A   1      43.502  27.266  30.589  1.00  0.00     0.031 C 
ATOM     46  C   UNL A   1      37.668  30.288  28.529  1.00  0.00     0.029 A 
ATOM     47  C   UNL A   1      38.409  30.985  29.580  1.00  0.00     0.049 A 
ATOM     48  H   UNL A   1      40.273  30.465  30.356  1.00  0.00     0.167 HD
ATOM     49  C   UNL A   1      44.005  29.108  32.171  1.00  0.00     0.037 A 
ATOM     50  C   UNL A   1      38.006  32.101  30.220  1.00  0.00     0.037 A 
ATOM     51  C   UNL A   1      43.704  30.352  32.832  1.00  0.00     0.049 A 
ATOM     52  C   UNL A   1      38.857  32.677  31.324  1.00  0.00     0.074 A 
ATOM     53  C   UNL A   1      44.466  31.040  33.761  1.00  0.00     0.029 A 
ATOM     54  N   UNL A   1      42.541  31.084  32.649  1.00  0.00    -0.354 N 
ATOM     55  N   UNL A   1      40.022  32.272  31.769  1.00  0.00    -0.248 NA
ATOM     56  C   UNL A   1      38.330  33.860  32.023  1.00  0.00     0.031 C 
ATOM     57  C   UNL A   1      43.736  32.153  34.187  1.00  0.00     0.029 A 
ATOM     58  C   UNL A   1      42.545  32.192  33.480  1.00  0.00     0.049 A 
ATOM     59  H   UNL A   1      41.820  30.851  32.020  1.00  0.00     0.167 HD
ATOM     60  C   UNL A   1      40.374  33.158  32.781  1.00  0.00     0.074 A 
ATOM     61  C   UNL A   1      39.310  34.135  32.872  1.00  0.00     0.031 C 
ATOM     62  C   UNL A   1      41.479  33.159  33.567  1.00  0.00     0.037 A 
BRANCH  49  63
ATOM     63  C   UNL A   1      45.268  28.391  32.550  1.00  0.00     0.057 A 
ATOM     64  C   UNL A   1      46.507  28.716  31.984  1.00  0.00     0.134 A 
ATOM     65  C   UNL A   1      45.249  27.385  33.526  1.00  0.00     0.134 A 
ATOM     66  F   UNL A   1      46.594  29.663  31.036  1.00  0.00    -0.206 F 
ATOM     67  C   UNL A   1      47.676  28.050  32.354  1.00  0.00     0.040 A 
ATOM     68  C   UNL A   1      46.415  26.732  33.925  1.00  0.00     0.040 A 
ATOM     69  F   UNL A   1      44.098  27.028  34.115  1.00  0.00    -0.206 F 
ATOM     70  C   UNL A   1      47.633  27.059  33.332  1.00  0.00     0.006 A 
ENDBRANCH  49  63
BRANCH  50  71
ATOM     71  C   UNL A   1      36.707  32.733  29.869  1.00  0.00     0.057 A 
ATOM     72  C   UNL A   1      36.617  33.686  28.848  1.00  0.00     0.134 A 
ATOM     73  C   UNL A   1      35.531  32.424  30.565  1.00  0.00     0.134 A 
ATOM     74  F   UNL A   1      37.713  34.049  28.165  1.00  0.00    -0.206 F 
ATOM     75  C   UNL A   1      35.410  34.317  28.538  1.00  0.00     0.040 A 
ATOM     76  C   UNL A   1      34.311  33.025  30.247  1.00  0.00     0.040 A 
ATOM     77  F   UNL A   1      35.548  31.526  31.561  1.00  0.00    -0.206 F 
ATOM     78  C   UNL A   1      34.250  33.980  29.235  1.00  0.00     0.006 A 
ENDBRANCH  50  71
BRANCH  62  79
ATOM     79  C   UNL A   1      41.610  34.255  34.586  1.00  0.00     0.057 A 
ATOM     80  C   UNL A   1      42.146  35.507  34.259  1.00  0.00     0.134 A 
ATOM     81  C   UNL A   1      41.134  34.081  35.893  1.00  0.00     0.134 A 
ATOM     82  F   UNL A   1      42.631  35.739  33.029  1.00  0.00    -0.206 F 
ATOM     83  C   UNL A   1      42.218  36.540  35.196  1.00  0.00     0.040 A 
ATOM     84  C   UNL A   1      41.175  35.114  36.832  1.00  0.00     0.040 A 
ATOM     85  F   UNL A   1      40.599  32.910  36.273  1.00  0.00    -0.206 F 
ATOM     86  C   UNL A   1      41.722  36.347  36.484  1.00  0.00     0.006 A 
ENDBRANCH  62  79
ENDBRANCH  36  37
ENDBRANCH  29  31
ENDBRANCH  28  29
ENDBRANCH  27  28
ENDBRANCH  26  27
ENDBRANCH  25  26
ENDBRANCH  24  25
ENDBRANCH   1  24
TORSDOF 20
ENDMDL
