MODEL 1
REMARK VINA RESULT:     -10.3      0.000      0.000
REMARK SMILES CC(C)C[C@H](NC(=O)c1cc(Cl)nnc1Cl)C(=O)OCCOCCOCCOC(=O)c1ccc(-c2c3nc(c(-c4c(F)cccc4F)c4ccc([nH]4)c(-c4c(F)cccc4F)c4nc(c(-c5c(F)cccc5F)c5ccc2[nH]5)C=C4)C=C3)cc1
REMARK SMILES IDX 23 1 22 2 21 3 20 4 19 5 17 6 18 7 5 8 4 9 2 10 1 11 3 12
REMARK SMILES IDX 6 13 7 14 8 16 9 17 10 18 15 19 11 20 14 21 16 22 12 23
REMARK SMILES IDX 13 24 24 25 25 26 26 27 27 28 28 29 29 30 30 31 31 32 32 33
REMARK SMILES IDX 84 34 33 35 83 36 34 37 35 38 36 39 77 40 37 41 82 42 76 43
REMARK SMILES IDX 78 44 38 45 81 46 75 47 74 48 39 50 65 51 48 52 64 53 49 54
REMARK SMILES IDX 52 55 63 56 79 57 50 58 51 59 62 61 80 62 53 63 40 64 41 65
REMARK SMILES IDX 46 66 42 67 43 68 45 69 47 70 44 71 66 72 67 73 72 74 68 75
REMARK SMILES IDX 69 76 71 77 73 78 70 79 54 80 55 81 60 82 56 83 57 84 59 85
REMARK SMILES IDX 61 86 58 87
REMARK H PARENT 6 15 78 49 52 60
REMARK Flexibility Score: inf
ROOT
ATOM      1  C   UNL A   1      40.406  21.134  26.637  1.00  0.00     0.188 C 
ENDROOT
BRANCH   1   2
ATOM      2  O   UNL A   1      39.141  21.714  26.341  1.00  0.00    -0.376 OA
BRANCH   2   3
ATOM      3  C   UNL A   1      38.174  20.979  25.608  1.00  0.00     0.202 C 
BRANCH   3   4
ATOM      4  C   UNL A   1      37.528  21.659  24.392  1.00  0.00     0.261 C 
BRANCH   4   5
ATOM      5  O   UNL A   1      36.258  22.308  24.625  1.00  0.00    -0.462 OA
BRANCH   5   6
ATOM      6  C   UNL A   1      35.761  23.014  23.575  1.00  0.00     0.328 C 
ATOM      7  O   UNL A   1      36.352  23.166  22.509  1.00  0.00    -0.250 OA
BRANCH   6   8
ATOM      8  C   UNL A   1      34.390  23.686  23.834  1.00  0.00     0.192 C 
BRANCH   8   9
ATOM      9  C   UNL A   1      33.332  22.619  24.141  1.00  0.00     0.040 C 
BRANCH   9  10
ATOM     10  C   UNL A   1      32.903  22.425  25.610  1.00  0.00    -0.015 C 
ATOM     11  C   UNL A   1      33.276  21.080  26.233  1.00  0.00     0.007 C 
ATOM     12  C   UNL A   1      33.508  23.550  26.451  1.00  0.00     0.007 C 
ENDBRANCH   9  10
ENDBRANCH   8   9
BRANCH   8  13
ATOM     13  N   UNL A   1      33.949  24.890  23.080  1.00  0.00    -0.338 N 
ATOM     14  C   UNL A   1      33.017  25.879  23.128  1.00  0.00     0.255 C 
ATOM     15  H   UNL A   1      34.518  25.010  22.285  1.00  0.00     0.164 HD
ATOM     16  O   UNL A   1      32.914  26.654  22.179  1.00  0.00    -0.269 OA
BRANCH  14  17
ATOM     17  C   UNL A   1      32.146  26.112  24.261  1.00  0.00     0.082 A 
ATOM     18  C   UNL A   1      32.593  26.928  25.298  1.00  0.00     0.060 A 
ATOM     19  C   UNL A   1      30.949  25.431  24.393  1.00  0.00     0.164 A 
ATOM     20  C   UNL A   1      31.742  27.099  26.368  1.00  0.00     0.152 A 
ATOM     21  N   UNL A   1      30.147  25.627  25.458  1.00  0.00    -0.136 NA
ATOM     22  Cl  UNL A   1      30.350  24.289  23.262  1.00  0.00    -0.059 Cl
ATOM     23  Cl  UNL A   1      32.127  28.149  27.662  1.00  0.00    -0.060 Cl
ATOM     24  N   UNL A   1      30.540  26.492  26.450  1.00  0.00    -0.137 NA
ENDBRANCH  14  17
ENDBRANCH   8  13
ENDBRANCH   6   8
ENDBRANCH   5   6
ENDBRANCH   4   5
ENDBRANCH   3   4
ENDBRANCH   2   3
ENDBRANCH   1   2
BRANCH   1  25
ATOM     25  C   UNL A   1      40.769  19.738  26.098  1.00  0.00     0.188 C 
BRANCH  25  26
ATOM     26  O   UNL A   1      42.045  19.658  25.500  1.00  0.00    -0.376 OA
BRANCH  26  27
ATOM     27  C   UNL A   1      43.065  20.449  26.078  1.00  0.00     0.202 C 
BRANCH  27  28
ATOM     28  C   UNL A   1      43.729  21.467  25.141  1.00  0.00     0.261 C 
BRANCH  28  29
ATOM     29  O   UNL A   1      43.024  22.709  24.958  1.00  0.00    -0.460 OA
BRANCH  29  30
ATOM     30  C   UNL A   1      43.756  23.847  24.972  1.00  0.00     0.338 C 
ATOM     31  O   UNL A   1      44.746  24.093  24.313  1.00  0.00    -0.246 OA
BRANCH  30  32
ATOM     32  C   UNL A   1      43.017  24.843  25.784  1.00  0.00     0.060 A 
ATOM     33  C   UNL A   1      43.263  26.210  25.584  1.00  0.00     0.016 A 
ATOM     34  C   UNL A   1      42.098  24.426  26.747  1.00  0.00     0.016 A 
ATOM     35  C   UNL A   1      42.608  27.165  26.366  1.00  0.00     0.010 A 
ATOM     36  C   UNL A   1      41.477  25.378  27.561  1.00  0.00     0.010 A 
ATOM     37  C   UNL A   1      41.758  26.747  27.398  1.00  0.00    -0.014 A 
BRANCH  37  38
ATOM     38  C   UNL A   1      41.414  27.688  28.492  1.00  0.00     0.031 A 
ATOM     39  C   UNL A   1      42.227  27.606  29.756  1.00  0.00     0.074 A 
ATOM     40  C   UNL A   1      40.405  28.571  28.398  1.00  0.00     0.049 A 
ATOM     41  N   UNL A   1      42.066  28.224  30.896  1.00  0.00    -0.248 NA
ATOM     42  C   UNL A   1      43.379  26.690  29.722  1.00  0.00     0.031 C 
ATOM     43  C   UNL A   1      39.580  28.793  27.215  1.00  0.00     0.029 A 
ATOM     44  N   UNL A   1      39.892  29.429  29.339  1.00  0.00    -0.354 N 
ATOM     45  C   UNL A   1      43.091  27.767  31.715  1.00  0.00     0.074 A 
ATOM     46  C   UNL A   1      43.854  26.806  30.951  1.00  0.00     0.031 C 
ATOM     47  C   UNL A   1      38.635  29.705  27.512  1.00  0.00     0.029 A 
ATOM     48  C   UNL A   1      38.769  30.097  28.916  1.00  0.00     0.049 A 
ATOM     49  H   UNL A   1      40.290  29.554  30.230  1.00  0.00     0.167 HD
ATOM     50  C   UNL A   1      43.371  28.109  32.994  1.00  0.00     0.037 A 
ATOM     51  C   UNL A   1      37.926  30.898  29.599  1.00  0.00     0.037 A 
ATOM     52  C   UNL A   1      42.588  29.030  33.770  1.00  0.00     0.049 A 
ATOM     53  C   UNL A   1      38.186  31.181  31.058  1.00  0.00     0.074 A 
ATOM     54  C   UNL A   1      42.783  29.445  35.075  1.00  0.00     0.029 A 
ATOM     55  N   UNL A   1      41.437  29.659  33.316  1.00  0.00    -0.354 N 
ATOM     56  N   UNL A   1      39.168  30.766  31.822  1.00  0.00    -0.248 NA
ATOM     57  C   UNL A   1      37.214  32.040  31.752  1.00  0.00     0.031 C 
ATOM     58  C   UNL A   1      41.717  30.277  35.430  1.00  0.00     0.029 A 
ATOM     59  C   UNL A   1      40.892  30.431  34.326  1.00  0.00     0.049 A 
ATOM     60  H   UNL A   1      41.065  29.570  32.409  1.00  0.00     0.167 HD
ATOM     61  C   UNL A   1      38.952  31.335  33.072  1.00  0.00     0.074 A 
ATOM     62  C   UNL A   1      37.744  32.127  32.966  1.00  0.00     0.031 C 
ATOM     63  C   UNL A   1      39.691  31.220  34.203  1.00  0.00     0.037 A 
BRANCH  50  64
ATOM     64  C   UNL A   1      44.541  27.421  33.636  1.00  0.00     0.057 A 
ATOM     65  C   UNL A   1      44.373  26.189  34.278  1.00  0.00     0.134 A 
ATOM     66  C   UNL A   1      45.837  27.952  33.582  1.00  0.00     0.134 A 
ATOM     67  F   UNL A   1      43.158  25.625  34.365  1.00  0.00    -0.206 F 
ATOM     68  C   UNL A   1      45.454  25.501  34.831  1.00  0.00     0.040 A 
ATOM     69  C   UNL A   1      46.930  27.259  34.104  1.00  0.00     0.040 A 
ATOM     70  F   UNL A   1      46.070  29.119  32.961  1.00  0.00    -0.206 F 
ATOM     71  C   UNL A   1      46.739  26.029  34.733  1.00  0.00     0.006 A 
ENDBRANCH  50  64
BRANCH  51  72
ATOM     72  C   UNL A   1      36.729  31.460  28.923  1.00  0.00     0.057 A 
ATOM     73  C   UNL A   1      35.607  30.666  28.653  1.00  0.00     0.134 A 
ATOM     74  C   UNL A   1      36.671  32.805  28.546  1.00  0.00     0.134 A 
ATOM     75  F   UNL A   1      35.597  29.368  28.995  1.00  0.00    -0.206 F 
ATOM     76  C   UNL A   1      34.479  31.185  28.017  1.00  0.00     0.040 A 
ATOM     77  C   UNL A   1      35.538  33.344  27.931  1.00  0.00     0.040 A 
ATOM     78  F   UNL A   1      37.702  33.624  28.803  1.00  0.00    -0.206 F 
ATOM     79  C   UNL A   1      34.440  32.530  27.659  1.00  0.00     0.006 A 
ENDBRANCH  51  72
BRANCH  63  80
ATOM     80  C   UNL A   1      39.250  31.997  35.410  1.00  0.00     0.057 A 
ATOM     81  C   UNL A   1      39.690  33.314  35.602  1.00  0.00     0.134 A 
ATOM     82  C   UNL A   1      38.458  31.428  36.415  1.00  0.00     0.134 A 
ATOM     83  F   UNL A   1      40.460  33.916  34.683  1.00  0.00    -0.206 F 
ATOM     84  C   UNL A   1      39.371  34.031  36.756  1.00  0.00     0.040 A 
ATOM     85  C   UNL A   1      38.110  32.145  37.562  1.00  0.00     0.040 A 
ATOM     86  F   UNL A   1      37.994  30.176  36.288  1.00  0.00    -0.206 F 
ATOM     87  C   UNL A   1      38.576  33.446  37.739  1.00  0.00     0.006 A 
ENDBRANCH  63  80
ENDBRANCH  37  38
ENDBRANCH  30  32
ENDBRANCH  29  30
ENDBRANCH  28  29
ENDBRANCH  27  28
ENDBRANCH  26  27
ENDBRANCH  25  26
ENDBRANCH   1  25
TORSDOF 21
ENDMDL
MODEL 2
REMARK VINA RESULT:     -10.3      1.429      2.338
REMARK SMILES CC(C)C[C@H](NC(=O)c1cc(Cl)nnc1Cl)C(=O)OCCOCCOCCOC(=O)c1ccc(-c2c3nc(c(-c4c(F)cccc4F)c4ccc([nH]4)c(-c4c(F)cccc4F)c4nc(c(-c5c(F)cccc5F)c5ccc2[nH]5)C=C4)C=C3)cc1
REMARK SMILES IDX 23 1 22 2 21 3 20 4 19 5 17 6 18 7 5 8 4 9 2 10 1 11 3 12
REMARK SMILES IDX 6 13 7 14 8 16 9 17 10 18 15 19 11 20 14 21 16 22 12 23
REMARK SMILES IDX 13 24 24 25 25 26 26 27 27 28 28 29 29 30 30 31 31 32 32 33
REMARK SMILES IDX 84 34 33 35 83 36 34 37 35 38 36 39 77 40 37 41 82 42 76 43
REMARK SMILES IDX 78 44 38 45 81 46 75 47 74 48 39 50 65 51 48 52 64 53 49 54
REMARK SMILES IDX 52 55 63 56 79 57 50 58 51 59 62 61 80 62 53 63 40 64 41 65
REMARK SMILES IDX 46 66 42 67 43 68 45 69 47 70 44 71 66 72 67 73 72 74 68 75
REMARK SMILES IDX 69 76 71 77 73 78 70 79 54 80 55 81 60 82 56 83 57 84 59 85
REMARK SMILES IDX 61 86 58 87
REMARK H PARENT 6 15 78 49 52 60
REMARK Flexibility Score: inf
ROOT
ATOM      1  C   UNL A   1      39.968  21.690  26.166  1.00  0.00     0.188 C 
ENDROOT
BRANCH   1   2
ATOM      2  O   UNL A   1      38.567  21.933  26.125  1.00  0.00    -0.376 OA
BRANCH   2   3
ATOM      3  C   UNL A   1      37.772  21.352  25.104  1.00  0.00     0.202 C 
BRANCH   3   4
ATOM      4  C   UNL A   1      37.004  22.298  24.168  1.00  0.00     0.261 C 
BRANCH   4   5
ATOM      5  O   UNL A   1      36.942  23.683  24.574  1.00  0.00    -0.462 OA
BRANCH   5   6
ATOM      6  C   UNL A   1      35.872  24.020  25.342  1.00  0.00     0.328 C 
ATOM      7  O   UNL A   1      35.730  23.674  26.512  1.00  0.00    -0.250 OA
BRANCH   6   8
ATOM      8  C   UNL A   1      34.780  24.841  24.612  1.00  0.00     0.192 C 
BRANCH   8   9
ATOM      9  C   UNL A   1      33.913  25.587  25.634  1.00  0.00     0.040 C 
BRANCH   9  10
ATOM     10  C   UNL A   1      33.504  27.039  25.314  1.00  0.00    -0.015 C 
ATOM     11  C   UNL A   1      32.011  27.263  25.068  1.00  0.00     0.007 C 
ATOM     12  C   UNL A   1      33.962  27.943  26.460  1.00  0.00     0.007 C 
ENDBRANCH   9  10
ENDBRANCH   8   9
BRANCH   8  13
ATOM     13  N   UNL A   1      34.111  24.341  23.381  1.00  0.00    -0.338 N 
ATOM     14  C   UNL A   1      33.425  23.261  22.921  1.00  0.00     0.255 C 
ATOM     15  H   UNL A   1      34.191  25.012  22.664  1.00  0.00     0.164 HD
ATOM     16  O   UNL A   1      33.136  23.196  21.728  1.00  0.00    -0.269 OA
BRANCH  14  17
ATOM     17  C   UNL A   1      32.963  22.179  23.766  1.00  0.00     0.082 A 
ATOM     18  C   UNL A   1      33.581  20.934  23.666  1.00  0.00     0.060 A 
ATOM     19  C   UNL A   1      31.839  22.323  24.559  1.00  0.00     0.164 A 
ATOM     20  C   UNL A   1      33.091  19.928  24.468  1.00  0.00     0.152 A 
ATOM     21  N   UNL A   1      31.393  21.311  25.329  1.00  0.00    -0.136 NA
ATOM     22  Cl  UNL A   1      30.900  23.754  24.664  1.00  0.00    -0.059 Cl
ATOM     23  Cl  UNL A   1      33.817  18.381  24.512  1.00  0.00    -0.060 Cl
ATOM     24  N   UNL A   1      32.042  20.101  25.299  1.00  0.00    -0.137 NA
ENDBRANCH  14  17
ENDBRANCH   8  13
ENDBRANCH   6   8
ENDBRANCH   5   6
ENDBRANCH   4   5
ENDBRANCH   3   4
ENDBRANCH   2   3
ENDBRANCH   1   2
BRANCH   1  25
ATOM     25  C   UNL A   1      40.506  20.274  26.443  1.00  0.00     0.188 C 
BRANCH  25  26
ATOM     26  O   UNL A   1      41.847  20.236  26.879  1.00  0.00    -0.376 OA
BRANCH  26  27
ATOM     27  C   UNL A   1      42.830  20.022  25.884  1.00  0.00     0.202 C 
BRANCH  27  28
ATOM     28  C   UNL A   1      43.726  21.227  25.564  1.00  0.00     0.261 C 
BRANCH  28  29
ATOM     29  O   UNL A   1      43.452  22.430  26.305  1.00  0.00    -0.460 OA
BRANCH  29  30
ATOM     30  C   UNL A   1      43.839  23.603  25.752  1.00  0.00     0.338 C 
ATOM     31  O   UNL A   1      44.506  23.758  24.750  1.00  0.00    -0.246 OA
BRANCH  30  32
ATOM     32  C   UNL A   1      43.126  24.690  26.465  1.00  0.00     0.060 A 
ATOM     33  C   UNL A   1      43.607  26.005  26.369  1.00  0.00     0.016 A 
ATOM     34  C   UNL A   1      41.999  24.407  27.236  1.00  0.00     0.016 A 
ATOM     35  C   UNL A   1      42.975  27.038  27.064  1.00  0.00     0.010 A 
ATOM     36  C   UNL A   1      41.394  25.432  27.970  1.00  0.00     0.010 A 
ATOM     37  C   UNL A   1      41.903  26.743  27.916  1.00  0.00    -0.014 A 
BRANCH  37  38
ATOM     38  C   UNL A   1      41.517  27.710  28.973  1.00  0.00     0.031 A 
ATOM     39  C   UNL A   1      42.276  27.655  30.271  1.00  0.00     0.074 A 
ATOM     40  C   UNL A   1      40.515  28.592  28.816  1.00  0.00     0.049 A 
ATOM     41  N   UNL A   1      42.069  28.299  31.389  1.00  0.00    -0.248 NA
ATOM     42  C   UNL A   1      43.425  26.736  30.306  1.00  0.00     0.031 C 
ATOM     43  C   UNL A   1      39.740  28.788  27.595  1.00  0.00     0.029 A 
ATOM     44  N   UNL A   1      39.965  29.473  29.715  1.00  0.00    -0.354 N 
ATOM     45  C   UNL A   1      43.057  27.860  32.261  1.00  0.00     0.074 A 
ATOM     46  C   UNL A   1      43.848  26.880  31.551  1.00  0.00     0.031 C 
ATOM     47  C   UNL A   1      38.787  29.708  27.831  1.00  0.00     0.029 A 
ATOM     48  C   UNL A   1      38.863  30.133  29.230  1.00  0.00     0.049 A 
ATOM     49  H   UNL A   1      40.326  29.617  30.619  1.00  0.00     0.167 HD
ATOM     50  C   UNL A   1      43.285  28.230  33.542  1.00  0.00     0.037 A 
ATOM     51  C   UNL A   1      37.994  30.951  29.859  1.00  0.00     0.037 A 
ATOM     52  C   UNL A   1      42.472  29.170  34.263  1.00  0.00     0.049 A 
ATOM     53  C   UNL A   1      38.194  31.267  31.320  1.00  0.00     0.074 A 
ATOM     54  C   UNL A   1      42.614  29.615  35.565  1.00  0.00     0.029 A 
ATOM     55  N   UNL A   1      41.344  29.791  33.747  1.00  0.00    -0.354 N 
ATOM     56  N   UNL A   1      39.143  30.868  32.134  1.00  0.00    -0.248 NA
ATOM     57  C   UNL A   1      37.196  32.144  31.954  1.00  0.00     0.031 C 
ATOM     58  C   UNL A   1      41.536  30.457  35.856  1.00  0.00     0.029 A 
ATOM     59  C   UNL A   1      40.759  30.587  34.716  1.00  0.00     0.049 A 
ATOM     60  H   UNL A   1      41.009  29.682  32.827  1.00  0.00     0.167 HD
ATOM     61  C   UNL A   1      38.876  31.466  33.361  1.00  0.00     0.074 A 
ATOM     62  C   UNL A   1      37.676  32.258  33.186  1.00  0.00     0.031 C 
ATOM     63  C   UNL A   1      39.566  31.375  34.524  1.00  0.00     0.037 A 
BRANCH  50  64
ATOM     64  C   UNL A   1      44.424  27.555  34.248  1.00  0.00     0.057 A 
ATOM     65  C   UNL A   1      44.215  26.364  34.953  1.00  0.00     0.134 A 
ATOM     66  C   UNL A   1      45.733  28.054  34.195  1.00  0.00     0.134 A 
ATOM     67  F   UNL A   1      42.987  25.832  35.044  1.00  0.00    -0.206 F 
ATOM     68  C   UNL A   1      45.268  25.686  35.569  1.00  0.00     0.040 A 
ATOM     69  C   UNL A   1      46.799  27.369  34.779  1.00  0.00     0.040 A 
ATOM     70  F   UNL A   1      46.005  29.179  33.515  1.00  0.00    -0.206 F 
ATOM     71  C   UNL A   1      46.566  26.181  35.471  1.00  0.00     0.006 A 
ENDBRANCH  50  64
BRANCH  51  72
ATOM     72  C   UNL A   1      36.828  31.500  29.120  1.00  0.00     0.057 A 
ATOM     73  C   UNL A   1      35.705  30.709  28.846  1.00  0.00     0.134 A 
ATOM     74  C   UNL A   1      36.802  32.829  28.686  1.00  0.00     0.134 A 
ATOM     75  F   UNL A   1      35.665  29.427  29.240  1.00  0.00    -0.206 F 
ATOM     76  C   UNL A   1      34.606  31.216  28.152  1.00  0.00     0.040 A 
ATOM     77  C   UNL A   1      35.698  33.356  28.012  1.00  0.00     0.040 A 
ATOM     78  F   UNL A   1      37.835  33.644  28.945  1.00  0.00    -0.206 F 
ATOM     79  C   UNL A   1      34.598  32.546  27.737  1.00  0.00     0.006 A 
ENDBRANCH  51  72
BRANCH  63  80
ATOM     80  C   UNL A   1      39.078  32.181  35.693  1.00  0.00     0.057 A 
ATOM     81  C   UNL A   1      39.483  33.514  35.852  1.00  0.00     0.134 A 
ATOM     82  C   UNL A   1      38.274  31.627  36.697  1.00  0.00     0.134 A 
ATOM     83  F   UNL A   1      40.262  34.103  34.933  1.00  0.00    -0.206 F 
ATOM     84  C   UNL A   1      39.119  34.260  36.973  1.00  0.00     0.040 A 
ATOM     85  C   UNL A   1      37.881  32.372  37.811  1.00  0.00     0.040 A 
ATOM     86  F   UNL A   1      37.842  30.361  36.600  1.00  0.00    -0.206 F 
ATOM     87  C   UNL A   1      38.313  33.690  37.955  1.00  0.00     0.006 A 
ENDBRANCH  63  80
ENDBRANCH  37  38
ENDBRANCH  30  32
ENDBRANCH  29  30
ENDBRANCH  28  29
ENDBRANCH  27  28
ENDBRANCH  26  27
ENDBRANCH  25  26
ENDBRANCH   1  25
TORSDOF 21
ENDMDL
MODEL 3
REMARK VINA RESULT:     -10.1      2.354      7.708
REMARK SMILES CC(C)C[C@H](NC(=O)c1cc(Cl)nnc1Cl)C(=O)OCCOCCOCCOC(=O)c1ccc(-c2c3nc(c(-c4c(F)cccc4F)c4ccc([nH]4)c(-c4c(F)cccc4F)c4nc(c(-c5c(F)cccc5F)c5ccc2[nH]5)C=C4)C=C3)cc1
REMARK SMILES IDX 23 1 22 2 21 3 20 4 19 5 17 6 18 7 5 8 4 9 2 10 1 11 3 12
REMARK SMILES IDX 6 13 7 14 8 16 9 17 10 18 15 19 11 20 14 21 16 22 12 23
REMARK SMILES IDX 13 24 24 25 25 26 26 27 27 28 28 29 29 30 30 31 31 32 32 33
REMARK SMILES IDX 84 34 33 35 83 36 34 37 35 38 36 39 77 40 37 41 82 42 76 43
REMARK SMILES IDX 78 44 38 45 81 46 75 47 74 48 39 50 65 51 48 52 64 53 49 54
REMARK SMILES IDX 52 55 63 56 79 57 50 58 51 59 62 61 80 62 53 63 40 64 41 65
REMARK SMILES IDX 46 66 42 67 43 68 45 69 47 70 44 71 66 72 67 73 72 74 68 75
REMARK SMILES IDX 69 76 71 77 73 78 70 79 54 80 55 81 60 82 56 83 57 84 59 85
REMARK SMILES IDX 61 86 58 87
REMARK H PARENT 6 15 78 49 52 60
REMARK Flexibility Score: inf
ROOT
ATOM      1  C   UNL A   1      33.197  27.485  26.070  1.00  0.00     0.188 C 
ENDROOT
BRANCH   1   2
ATOM      2  O   UNL A   1      33.145  27.662  24.660  1.00  0.00    -0.376 OA
BRANCH   2   3
ATOM      3  C   UNL A   1      33.140  26.535  23.799  1.00  0.00     0.202 C 
BRANCH   3   4
ATOM      4  C   UNL A   1      34.086  25.372  24.137  1.00  0.00     0.261 C 
BRANCH   4   5
ATOM      5  O   UNL A   1      34.027  24.227  23.258  1.00  0.00    -0.462 OA
BRANCH   5   6
ATOM      6  C   UNL A   1      35.066  23.358  23.361  1.00  0.00     0.328 C 
ATOM      7  O   UNL A   1      36.057  23.383  22.635  1.00  0.00    -0.250 OA
BRANCH   6   8
ATOM      8  C   UNL A   1      34.894  22.263  24.443  1.00  0.00     0.192 C 
BRANCH   8   9
ATOM      9  C   UNL A   1      36.231  21.555  24.692  1.00  0.00     0.040 C 
BRANCH   9  10
ATOM     10  C   UNL A   1      37.112  22.057  25.854  1.00  0.00    -0.015 C 
ATOM     11  C   UNL A   1      38.616  21.834  25.683  1.00  0.00     0.007 C 
ATOM     12  C   UNL A   1      36.850  23.550  26.060  1.00  0.00     0.007 C 
ENDBRANCH   9  10
ENDBRANCH   8   9
BRANCH   8  13
ATOM     13  N   UNL A   1      33.657  21.443  24.543  1.00  0.00    -0.338 N 
ATOM     14  C   UNL A   1      32.397  21.496  25.052  1.00  0.00     0.255 C 
ATOM     15  H   UNL A   1      33.795  20.578  24.092  1.00  0.00     0.164 HD
ATOM     16  O   UNL A   1      31.691  20.490  25.018  1.00  0.00    -0.269 OA
BRANCH  14  17
ATOM     17  C   UNL A   1      31.801  22.694  25.608  1.00  0.00     0.082 A 
ATOM     18  C   UNL A   1      31.065  23.532  24.772  1.00  0.00     0.060 A 
ATOM     19  C   UNL A   1      32.069  23.086  26.907  1.00  0.00     0.164 A 
ATOM     20  C   UNL A   1      30.541  24.673  25.337  1.00  0.00     0.152 A 
ATOM     21  N   UNL A   1      31.535  24.212  27.420  1.00  0.00    -0.136 NA
ATOM     22  Cl  UNL A   1      33.075  22.225  27.996  1.00  0.00    -0.059 Cl
ATOM     23  Cl  UNL A   1      29.541  25.737  24.448  1.00  0.00    -0.060 Cl
ATOM     24  N   UNL A   1      30.742  25.007  26.629  1.00  0.00    -0.137 NA
ENDBRANCH  14  17
ENDBRANCH   8  13
ENDBRANCH   6   8
ENDBRANCH   5   6
ENDBRANCH   4   5
ENDBRANCH   3   4
ENDBRANCH   2   3
ENDBRANCH   1   2
BRANCH   1  25
ATOM     25  C   UNL A   1      33.262  28.705  27.009  1.00  0.00     0.188 C 
BRANCH  25  26
ATOM     26  O   UNL A   1      32.046  29.409  27.133  1.00  0.00    -0.376 OA
BRANCH  26  27
ATOM     27  C   UNL A   1      31.847  30.491  26.244  1.00  0.00     0.202 C 
BRANCH  27  28
ATOM     28  C   UNL A   1      31.612  31.857  26.902  1.00  0.00     0.261 C 
BRANCH  28  29
ATOM     29  O   UNL A   1      32.650  32.836  26.710  1.00  0.00    -0.460 OA
BRANCH  29  30
ATOM     30  C   UNL A   1      33.113  33.476  27.809  1.00  0.00     0.338 C 
ATOM     31  O   UNL A   1      32.528  34.304  28.477  1.00  0.00    -0.246 OA
BRANCH  30  32
ATOM     32  C   UNL A   1      34.393  32.836  28.192  1.00  0.00     0.060 A 
ATOM     33  C   UNL A   1      34.377  31.545  28.743  1.00  0.00     0.016 A 
ATOM     34  C   UNL A   1      35.601  33.514  28.021  1.00  0.00     0.016 A 
ATOM     35  C   UNL A   1      35.568  30.938  29.149  1.00  0.00     0.010 A 
ATOM     36  C   UNL A   1      36.787  32.925  28.469  1.00  0.00     0.010 A 
ATOM     37  C   UNL A   1      36.770  31.652  29.069  1.00  0.00    -0.014 A 
BRANCH  37  38
ATOM     38  C   UNL A   1      37.936  31.221  29.878  1.00  0.00     0.031 A 
ATOM     39  C   UNL A   1      38.861  30.203  29.270  1.00  0.00     0.074 A 
ATOM     40  C   UNL A   1      38.166  31.684  31.119  1.00  0.00     0.049 A 
ATOM     41  N   UNL A   1      39.877  29.574  29.799  1.00  0.00    -0.248 NA
ATOM     42  C   UNL A   1      38.590  29.842  27.869  1.00  0.00     0.031 C 
ATOM     43  C   UNL A   1      37.385  32.710  31.801  1.00  0.00     0.029 A 
ATOM     44  N   UNL A   1      39.123  31.319  32.033  1.00  0.00    -0.354 N 
ATOM     45  C   UNL A   1      40.363  28.742  28.798  1.00  0.00     0.074 A 
ATOM     46  C   UNL A   1      39.518  28.928  27.640  1.00  0.00     0.031 C 
ATOM     47  C   UNL A   1      37.872  32.869  33.045  1.00  0.00     0.029 A 
ATOM     48  C   UNL A   1      38.973  31.926  33.255  1.00  0.00     0.049 A 
ATOM     49  H   UNL A   1      39.847  30.683  31.833  1.00  0.00     0.167 HD
ATOM     50  C   UNL A   1      41.414  27.890  28.838  1.00  0.00     0.037 A 
ATOM     51  C   UNL A   1      39.622  31.713  34.418  1.00  0.00     0.037 A 
ATOM     52  C   UNL A   1      42.227  27.670  30.002  1.00  0.00     0.049 A 
ATOM     53  C   UNL A   1      40.718  30.678  34.479  1.00  0.00     0.074 A 
ATOM     54  C   UNL A   1      43.314  26.830  30.150  1.00  0.00     0.029 A 
ATOM     55  N   UNL A   1      42.020  28.281  31.231  1.00  0.00    -0.354 N 
ATOM     56  N   UNL A   1      41.189  29.910  33.525  1.00  0.00    -0.248 NA
ATOM     57  C   UNL A   1      41.369  30.474  35.783  1.00  0.00     0.031 C 
ATOM     58  C   UNL A   1      43.727  26.884  31.485  1.00  0.00     0.029 A 
ATOM     59  C   UNL A   1      42.937  27.808  32.153  1.00  0.00     0.049 A 
ATOM     60  H   UNL A   1      41.324  28.952  31.419  1.00  0.00     0.167 HD
ATOM     61  C   UNL A   1      42.207  29.158  34.101  1.00  0.00     0.074 A 
ATOM     62  C   UNL A   1      42.288  29.562  35.490  1.00  0.00     0.031 C 
ATOM     63  C   UNL A   1      43.008  28.225  33.531  1.00  0.00     0.037 A 
BRANCH  50  64
ATOM     64  C   UNL A   1      41.685  27.093  27.595  1.00  0.00     0.057 A 
ATOM     65  C   UNL A   1      42.545  27.590  26.609  1.00  0.00     0.134 A 
ATOM     66  C   UNL A   1      41.135  25.820  27.393  1.00  0.00     0.134 A 
ATOM     67  F   UNL A   1      43.106  28.802  26.740  1.00  0.00    -0.206 F 
ATOM     68  C   UNL A   1      42.860  26.844  25.472  1.00  0.00     0.040 A 
ATOM     69  C   UNL A   1      41.467  25.052  26.276  1.00  0.00     0.040 A 
ATOM     70  F   UNL A   1      40.321  25.276  28.312  1.00  0.00    -0.206 F 
ATOM     71  C   UNL A   1      42.331  25.565  25.310  1.00  0.00     0.006 A 
ENDBRANCH  50  64
BRANCH  51  72
ATOM     72  C   UNL A   1      39.228  32.467  35.635  1.00  0.00     0.057 A 
ATOM     73  C   UNL A   1      38.344  31.920  36.574  1.00  0.00     0.134 A 
ATOM     74  C   UNL A   1      39.736  33.743  35.897  1.00  0.00     0.134 A 
ATOM     75  F   UNL A   1      37.826  30.697  36.384  1.00  0.00    -0.206 F 
ATOM     76  C   UNL A   1      37.967  32.622  37.720  1.00  0.00     0.040 A 
ATOM     77  C   UNL A   1      39.387  34.447  37.052  1.00  0.00     0.040 A 
ATOM     78  F   UNL A   1      40.610  34.309  35.051  1.00  0.00    -0.206 F 
ATOM     79  C   UNL A   1      38.494  33.888  37.964  1.00  0.00     0.006 A 
ENDBRANCH  51  72
BRANCH  63  80
ATOM     80  C   UNL A   1      44.075  27.601  34.385  1.00  0.00     0.057 A 
ATOM     81  C   UNL A   1      45.341  28.195  34.481  1.00  0.00     0.134 A 
ATOM     82  C   UNL A   1      43.881  26.384  35.050  1.00  0.00     0.134 A 
ATOM     83  F   UNL A   1      45.597  29.356  33.861  1.00  0.00    -0.206 F 
ATOM     84  C   UNL A   1      46.379  27.593  35.193  1.00  0.00     0.040 A 
ATOM     85  C   UNL A   1      44.904  25.785  35.787  1.00  0.00     0.040 A 
ATOM     86  F   UNL A   1      42.689  25.769  35.008  1.00  0.00    -0.206 F 
ATOM     87  C   UNL A   1      46.160  26.385  35.852  1.00  0.00     0.006 A 
ENDBRANCH  63  80
ENDBRANCH  37  38
ENDBRANCH  30  32
ENDBRANCH  29  30
ENDBRANCH  28  29
ENDBRANCH  27  28
ENDBRANCH  26  27
ENDBRANCH  25  26
ENDBRANCH   1  25
TORSDOF 21
ENDMDL
