MODEL 1
REMARK VINA RESULT:     -11.4      0.000      0.000
REMARK SMILES Cc1cn2c(=O)cc(CSc3ccccc3C(=O)OCCOCCOCCOC(=O)c3ccc(-c4c5nc(c(-c6c(F)cccc6F)c6ccc([nH]6)c(-c6c(F)cccc6F)c6nc(c(-c7c(F)cccc7F)c7ccc4[nH]7)C=C6)C=C5)cc3)nc2s1
REMARK SMILES IDX 23 1 22 2 21 3 20 4 19 5 17 6 18 7 16 8 11 9 12 10 13 11
REMARK SMILES IDX 15 12 14 13 10 14 9 15 8 16 1 17 2 18 3 19 87 20 4 21 86 22
REMARK SMILES IDX 5 23 85 24 6 25 7 26 24 27 25 28 26 29 27 30 28 31 29 32
REMARK SMILES IDX 30 33 31 34 32 35 84 36 33 37 83 38 34 39 35 40 36 41 77 42
REMARK SMILES IDX 37 43 82 44 76 45 78 46 38 47 81 48 75 49 74 50 39 52 65 53
REMARK SMILES IDX 48 54 64 55 49 56 52 57 63 58 79 59 50 60 51 61 62 63 80 64
REMARK SMILES IDX 53 65 40 66 41 67 46 68 42 69 43 70 45 71 47 72 44 73 66 74
REMARK SMILES IDX 67 75 72 76 68 77 69 78 71 79 73 80 70 81 54 82 55 83 60 84
REMARK SMILES IDX 56 85 57 86 59 87 61 88 58 89
REMARK H PARENT 78 51 52 62
REMARK Flexibility Score: inf
ROOT
ATOM      1  C   UNL A   1      41.046  20.448  27.319  1.00  0.00     0.188 C 
ENDROOT
BRANCH   1   2
ATOM      2  O   UNL A   1      40.048  21.459  27.234  1.00  0.00    -0.376 OA
BRANCH   2   3
ATOM      3  C   UNL A   1      39.230  21.505  26.063  1.00  0.00     0.202 C 
BRANCH   3   4
ATOM      4  C   UNL A   1      38.216  22.654  25.915  1.00  0.00     0.261 C 
BRANCH   4   5
ATOM      5  O   UNL A   1      36.850  22.217  25.746  1.00  0.00    -0.460 OA
BRANCH   5   6
ATOM      6  C   UNL A   1      36.368  22.258  24.479  1.00  0.00     0.339 C 
ATOM      7  O   UNL A   1      37.012  22.510  23.472  1.00  0.00    -0.246 OA
BRANCH   6   8
ATOM      8  C   UNL A   1      35.003  21.682  24.414  1.00  0.00     0.073 A 
ATOM      9  C   UNL A   1      33.874  22.320  23.872  1.00  0.00     0.022 A 
ATOM     10  C   UNL A   1      32.672  21.593  23.792  1.00  0.00     0.016 A 
ATOM     11  C   UNL A   1      32.574  20.286  24.277  1.00  0.00     0.001 A 
ATOM     12  C   UNL A   1      34.894  20.364  24.903  1.00  0.00     0.017 A 
ATOM     13  C   UNL A   1      33.684  19.674  24.843  1.00  0.00     0.001 A 
BRANCH   9  14
ATOM     14  S   UNL A   1      33.861  23.943  23.128  1.00  0.00    -0.119 SA
BRANCH  14  15
ATOM     15  C   UNL A   1      34.255  25.009  24.556  1.00  0.00     0.131 C 
BRANCH  15  16
ATOM     16  C   UNL A   1      33.373  26.230  24.742  1.00  0.00     0.059 A 
ATOM     17  C   UNL A   1      29.196  30.521  23.287  1.00  0.00     0.058 C 
ATOM     18  C   UNL A   1      30.210  29.515  23.695  1.00  0.00     0.022 A 
ATOM     19  C   UNL A   1      31.080  29.610  24.708  1.00  0.00     0.111 A 
ATOM     20  S   UNL A   1      30.404  28.001  22.837  1.00  0.00    -0.102 S 
ATOM     21  N   UNL A   1      31.905  28.515  24.842  1.00  0.00    -0.258 N 
ATOM     22  C   UNL A   1      31.712  27.526  23.907  1.00  0.00     0.197 A 
ATOM     23  C   UNL A   1      32.846  28.365  25.826  1.00  0.00     0.258 A 
ATOM     24  N   UNL A   1      32.371  26.421  23.810  1.00  0.00    -0.224 NA
ATOM     25  O   UNL A   1      33.061  29.152  26.742  1.00  0.00    -0.269 OA
ATOM     26  C   UNL A   1      33.631  27.118  25.720  1.00  0.00     0.097 A 
ENDBRANCH  15  16
ENDBRANCH  14  15
ENDBRANCH   9  14
ENDBRANCH   6   8
ENDBRANCH   5   6
ENDBRANCH   4   5
ENDBRANCH   3   4
ENDBRANCH   2   3
ENDBRANCH   1   2
BRANCH   1  27
ATOM     27  C   UNL A   1      42.036  20.279  26.151  1.00  0.00     0.188 C 
BRANCH  27  28
ATOM     28  O   UNL A   1      43.083  21.239  26.117  1.00  0.00    -0.376 OA
BRANCH  28  29
ATOM     29  C   UNL A   1      42.856  22.480  25.463  1.00  0.00     0.202 C 
BRANCH  29  30
ATOM     30  C   UNL A   1      42.788  23.677  26.408  1.00  0.00     0.261 C 
BRANCH  30  31
ATOM     31  O   UNL A   1      41.631  24.480  26.202  1.00  0.00    -0.460 OA
BRANCH  31  32
ATOM     32  C   UNL A   1      41.866  25.688  25.651  1.00  0.00     0.338 C 
ATOM     33  O   UNL A   1      42.695  25.974  24.808  1.00  0.00    -0.246 OA
BRANCH  32  34
ATOM     34  C   UNL A   1      40.905  26.640  26.205  1.00  0.00     0.060 A 
ATOM     35  C   UNL A   1      41.121  27.997  25.946  1.00  0.00     0.016 A 
ATOM     36  C   UNL A   1      40.005  26.189  27.174  1.00  0.00     0.016 A 
ATOM     37  C   UNL A   1      40.611  28.913  26.838  1.00  0.00     0.010 A 
ATOM     38  C   UNL A   1      39.526  27.097  28.083  1.00  0.00     0.010 A 
ATOM     39  C   UNL A   1      39.931  28.427  27.958  1.00  0.00    -0.014 A 
BRANCH  39  40
ATOM     40  C   UNL A   1      39.924  29.268  29.137  1.00  0.00     0.031 A 
ATOM     41  C   UNL A   1      38.757  30.135  29.364  1.00  0.00     0.074 A 
ATOM     42  C   UNL A   1      40.898  29.119  30.056  1.00  0.00     0.049 A 
ATOM     43  N   UNL A   1      38.742  31.422  29.471  1.00  0.00    -0.248 NA
ATOM     44  C   UNL A   1      37.436  29.500  29.448  1.00  0.00     0.031 C 
ATOM     45  C   UNL A   1      41.911  28.058  30.131  1.00  0.00     0.029 A 
ATOM     46  N   UNL A   1      41.110  29.832  31.193  1.00  0.00    -0.354 N 
ATOM     47  C   UNL A   1      37.434  31.755  29.797  1.00  0.00     0.074 A 
ATOM     48  C   UNL A   1      36.650  30.556  29.647  1.00  0.00     0.031 C 
ATOM     49  C   UNL A   1      42.483  28.083  31.355  1.00  0.00     0.029 A 
ATOM     50  C   UNL A   1      41.957  29.215  32.097  1.00  0.00     0.049 A 
ATOM     51  H   UNL A   1      40.697  30.710  31.358  1.00  0.00     0.167 HD
ATOM     52  C   UNL A   1      37.115  32.947  30.366  1.00  0.00     0.037 A 
ATOM     53  C   UNL A   1      42.133  29.566  33.393  1.00  0.00     0.037 A 
ATOM     54  C   UNL A   1      38.158  33.925  30.211  1.00  0.00     0.049 A 
ATOM     55  C   UNL A   1      41.636  30.956  33.559  1.00  0.00     0.074 A 
ATOM     56  C   UNL A   1      38.811  34.479  29.127  1.00  0.00     0.029 A 
ATOM     57  N   UNL A   1      38.918  34.253  31.306  1.00  0.00    -0.354 N 
ATOM     58  N   UNL A   1      42.222  32.016  33.074  1.00  0.00    -0.248 NA
ATOM     59  C   UNL A   1      40.237  31.135  33.926  1.00  0.00     0.031 C 
ATOM     60  C   UNL A   1      40.152  34.685  29.564  1.00  0.00     0.029 A 
ATOM     61  C   UNL A   1      40.225  34.252  30.887  1.00  0.00     0.049 A 
ATOM     62  H   UNL A   1      38.591  34.451  32.213  1.00  0.00     0.167 HD
ATOM     63  C   UNL A   1      41.185  32.859  32.699  1.00  0.00     0.074 A 
ATOM     64  C   UNL A   1      39.995  32.312  33.342  1.00  0.00     0.031 C 
ATOM     65  C   UNL A   1      41.326  33.756  31.678  1.00  0.00     0.037 A 
BRANCH  52  66
ATOM     66  C   UNL A   1      35.970  33.127  31.320  1.00  0.00     0.057 A 
ATOM     67  C   UNL A   1      35.967  32.621  32.636  1.00  0.00     0.134 A 
ATOM     68  C   UNL A   1      34.950  34.042  31.019  1.00  0.00     0.134 A 
ATOM     69  F   UNL A   1      36.951  31.838  33.100  1.00  0.00    -0.206 F 
ATOM     70  C   UNL A   1      35.000  32.976  33.578  1.00  0.00     0.040 A 
ATOM     71  C   UNL A   1      34.010  34.448  31.973  1.00  0.00     0.040 A 
ATOM     72  F   UNL A   1      34.880  34.621  29.811  1.00  0.00    -0.206 F 
ATOM     73  C   UNL A   1      34.031  33.913  33.255  1.00  0.00     0.006 A 
ENDBRANCH  52  66
BRANCH  53  74
ATOM     74  C   UNL A   1      42.470  28.686  34.535  1.00  0.00     0.057 A 
ATOM     75  C   UNL A   1      43.649  28.854  35.286  1.00  0.00     0.134 A 
ATOM     76  C   UNL A   1      41.749  27.512  34.785  1.00  0.00     0.134 A 
ATOM     77  F   UNL A   1      44.479  29.883  35.062  1.00  0.00    -0.206 F 
ATOM     78  C   UNL A   1      44.072  27.925  36.241  1.00  0.00     0.040 A 
ATOM     79  C   UNL A   1      42.171  26.563  35.726  1.00  0.00     0.040 A 
ATOM     80  F   UNL A   1      40.642  27.230  34.083  1.00  0.00    -0.206 F 
ATOM     81  C   UNL A   1      43.337  26.769  36.458  1.00  0.00     0.006 A 
ENDBRANCH  53  74
BRANCH  65  82
ATOM     82  C   UNL A   1      42.705  34.000  31.140  1.00  0.00     0.057 A 
ATOM     83  C   UNL A   1      43.409  35.139  31.548  1.00  0.00     0.134 A 
ATOM     84  C   UNL A   1      43.279  33.231  30.117  1.00  0.00     0.134 A 
ATOM     85  F   UNL A   1      42.889  35.960  32.475  1.00  0.00    -0.206 F 
ATOM     86  C   UNL A   1      44.636  35.489  30.980  1.00  0.00     0.040 A 
ATOM     87  C   UNL A   1      44.521  33.554  29.561  1.00  0.00     0.040 A 
ATOM     88  F   UNL A   1      42.626  32.190  29.584  1.00  0.00    -0.206 F 
ATOM     89  C   UNL A   1      45.201  34.689  29.990  1.00  0.00     0.006 A 
ENDBRANCH  65  82
ENDBRANCH  39  40
ENDBRANCH  32  34
ENDBRANCH  31  32
ENDBRANCH  30  31
ENDBRANCH  29  30
ENDBRANCH  28  29
ENDBRANCH  27  28
ENDBRANCH   1  27
TORSDOF 20
ENDMDL
MODEL 2
REMARK VINA RESULT:     -11.2      1.317      1.704
REMARK SMILES Cc1cn2c(=O)cc(CSc3ccccc3C(=O)OCCOCCOCCOC(=O)c3ccc(-c4c5nc(c(-c6c(F)cccc6F)c6ccc([nH]6)c(-c6c(F)cccc6F)c6nc(c(-c7c(F)cccc7F)c7ccc4[nH]7)C=C6)C=C5)cc3)nc2s1
REMARK SMILES IDX 23 1 22 2 21 3 20 4 19 5 17 6 18 7 16 8 11 9 12 10 13 11
REMARK SMILES IDX 15 12 14 13 10 14 9 15 8 16 1 17 2 18 3 19 87 20 4 21 86 22
REMARK SMILES IDX 5 23 85 24 6 25 7 26 24 27 25 28 26 29 27 30 28 31 29 32
REMARK SMILES IDX 30 33 31 34 32 35 84 36 33 37 83 38 34 39 35 40 36 41 77 42
REMARK SMILES IDX 37 43 82 44 76 45 78 46 38 47 81 48 75 49 74 50 39 52 65 53
REMARK SMILES IDX 48 54 64 55 49 56 52 57 63 58 79 59 50 60 51 61 62 63 80 64
REMARK SMILES IDX 53 65 40 66 41 67 46 68 42 69 43 70 45 71 47 72 44 73 66 74
REMARK SMILES IDX 67 75 72 76 68 77 69 78 71 79 73 80 70 81 54 82 55 83 60 84
REMARK SMILES IDX 56 85 57 86 59 87 61 88 58 89
REMARK H PARENT 78 51 52 62
REMARK Flexibility Score: inf
ROOT
ATOM      1  C   UNL A   1      39.685  21.882  26.496  1.00  0.00     0.188 C 
ENDROOT
BRANCH   1   2
ATOM      2  O   UNL A   1      38.674  21.673  25.517  1.00  0.00    -0.376 OA
BRANCH   2   3
ATOM      3  C   UNL A   1      37.605  22.618  25.436  1.00  0.00     0.202 C 
BRANCH   3   4
ATOM      4  C   UNL A   1      36.308  22.207  24.714  1.00  0.00     0.261 C 
BRANCH   4   5
ATOM      5  O   UNL A   1      36.027  20.793  24.766  1.00  0.00    -0.460 OA
BRANCH   5   6
ATOM      6  C   UNL A   1      34.896  20.438  25.425  1.00  0.00     0.339 C 
ATOM      7  O   UNL A   1      34.445  20.979  26.423  1.00  0.00    -0.246 OA
BRANCH   6   8
ATOM      8  C   UNL A   1      34.099  19.475  24.627  1.00  0.00     0.073 A 
ATOM      9  C   UNL A   1      32.843  19.735  24.052  1.00  0.00     0.022 A 
ATOM     10  C   UNL A   1      32.266  18.745  23.235  1.00  0.00     0.016 A 
ATOM     11  C   UNL A   1      32.890  17.512  23.029  1.00  0.00     0.001 A 
ATOM     12  C   UNL A   1      34.720  18.226  24.416  1.00  0.00     0.017 A 
ATOM     13  C   UNL A   1      34.114  17.248  23.630  1.00  0.00     0.001 A 
BRANCH   9  14
ATOM     14  S   UNL A   1      31.967  21.288  24.142  1.00  0.00    -0.119 SA
BRANCH  14  15
ATOM     15  C   UNL A   1      32.663  22.190  22.718  1.00  0.00     0.131 C 
BRANCH  15  16
ATOM     16  C   UNL A   1      32.431  23.690  22.698  1.00  0.00     0.059 A 
ATOM     17  C   UNL A   1      29.337  28.988  23.278  1.00  0.00     0.058 C 
ATOM     18  C   UNL A   1      30.135  27.745  23.121  1.00  0.00     0.022 A 
ATOM     19  C   UNL A   1      31.299  27.608  22.472  1.00  0.00     0.111 A 
ATOM     20  S   UNL A   1      29.607  26.218  23.798  1.00  0.00    -0.102 S 
ATOM     21  N   UNL A   1      31.803  26.326  22.492  1.00  0.00    -0.258 N 
ATOM     22  C   UNL A   1      31.022  25.406  23.151  1.00  0.00     0.197 A 
ATOM     23  C   UNL A   1      32.995  25.950  21.933  1.00  0.00     0.258 A 
ATOM     24  N   UNL A   1      31.267  24.146  23.287  1.00  0.00    -0.224 NA
ATOM     25  O   UNL A   1      33.794  26.695  21.376  1.00  0.00    -0.269 OA
ATOM     26  C   UNL A   1      33.285  24.507  22.052  1.00  0.00     0.097 A 
ENDBRANCH  15  16
ENDBRANCH  14  15
ENDBRANCH   9  14
ENDBRANCH   6   8
ENDBRANCH   5   6
ENDBRANCH   4   5
ENDBRANCH   3   4
ENDBRANCH   2   3
ENDBRANCH   1   2
BRANCH   1  27
ATOM     27  C   UNL A   1      40.883  20.915  26.549  1.00  0.00     0.188 C 
BRANCH  27  28
ATOM     28  O   UNL A   1      42.064  21.401  25.926  1.00  0.00    -0.376 OA
BRANCH  28  29
ATOM     29  C   UNL A   1      42.774  22.469  26.539  1.00  0.00     0.202 C 
BRANCH  29  30
ATOM     30  C   UNL A   1      42.918  23.706  25.657  1.00  0.00     0.261 C 
BRANCH  30  31
ATOM     31  O   UNL A   1      41.836  24.618  25.802  1.00  0.00    -0.460 OA
BRANCH  31  32
ATOM     32  C   UNL A   1      42.143  25.909  25.566  1.00  0.00     0.338 C 
ATOM     33  O   UNL A   1      43.082  26.347  24.929  1.00  0.00    -0.246 OA
BRANCH  32  34
ATOM     34  C   UNL A   1      41.111  26.746  26.176  1.00  0.00     0.060 A 
ATOM     35  C   UNL A   1      41.148  28.116  25.901  1.00  0.00     0.016 A 
ATOM     36  C   UNL A   1      40.332  26.200  27.199  1.00  0.00     0.016 A 
ATOM     37  C   UNL A   1      40.587  28.974  26.821  1.00  0.00     0.010 A 
ATOM     38  C   UNL A   1      39.803  27.054  28.134  1.00  0.00     0.010 A 
ATOM     39  C   UNL A   1      40.039  28.422  27.982  1.00  0.00    -0.014 A 
BRANCH  39  40
ATOM     40  C   UNL A   1      40.004  29.266  29.157  1.00  0.00     0.031 A 
ATOM     41  C   UNL A   1      38.827  30.127  29.358  1.00  0.00     0.074 A 
ATOM     42  C   UNL A   1      40.961  29.126  30.096  1.00  0.00     0.049 A 
ATOM     43  N   UNL A   1      38.802  31.414  29.460  1.00  0.00    -0.248 NA
ATOM     44  C   UNL A   1      37.508  29.483  29.418  1.00  0.00     0.031 C 
ATOM     45  C   UNL A   1      41.978  28.072  30.195  1.00  0.00     0.029 A 
ATOM     46  N   UNL A   1      41.145  29.845  31.234  1.00  0.00    -0.354 N 
ATOM     47  C   UNL A   1      37.486  31.740  29.759  1.00  0.00     0.074 A 
ATOM     48  C   UNL A   1      36.712  30.535  29.598  1.00  0.00     0.031 C 
ATOM     49  C   UNL A   1      42.526  28.105  31.430  1.00  0.00     0.029 A 
ATOM     50  C   UNL A   1      41.978  29.237  32.157  1.00  0.00     0.049 A 
ATOM     51  H   UNL A   1      40.723  30.721  31.388  1.00  0.00     0.167 HD
ATOM     52  C   UNL A   1      37.148  32.932  30.317  1.00  0.00     0.037 A 
ATOM     53  C   UNL A   1      42.126  29.593  33.455  1.00  0.00     0.037 A 
ATOM     54  C   UNL A   1      38.188  33.916  30.179  1.00  0.00     0.049 A 
ATOM     55  C   UNL A   1      41.617  30.981  33.606  1.00  0.00     0.074 A 
ATOM     56  C   UNL A   1      38.859  34.470  29.105  1.00  0.00     0.029 A 
ATOM     57  N   UNL A   1      38.924  34.253  31.287  1.00  0.00    -0.354 N 
ATOM     58  N   UNL A   1      42.206  32.043  33.129  1.00  0.00    -0.248 NA
ATOM     59  C   UNL A   1      40.210  31.152  33.944  1.00  0.00     0.031 C 
ATOM     60  C   UNL A   1      40.190  34.686  29.568  1.00  0.00     0.029 A 
ATOM     61  C   UNL A   1      40.239  34.258  30.894  1.00  0.00     0.049 A 
ATOM     62  H   UNL A   1      38.578  34.452  32.187  1.00  0.00     0.167 HD
ATOM     63  C   UNL A   1      41.172  32.878  32.730  1.00  0.00     0.074 A 
ATOM     64  C   UNL A   1      39.973  32.325  33.351  1.00  0.00     0.031 C 
ATOM     65  C   UNL A   1      41.327  33.772  31.709  1.00  0.00     0.037 A 
BRANCH  52  66
ATOM     66  C   UNL A   1      35.984  33.108  31.247  1.00  0.00     0.057 A 
ATOM     67  C   UNL A   1      35.952  32.597  32.561  1.00  0.00     0.134 A 
ATOM     68  C   UNL A   1      34.970  34.025  30.929  1.00  0.00     0.134 A 
ATOM     69  F   UNL A   1      36.927  31.812  33.042  1.00  0.00    -0.206 F 
ATOM     70  C   UNL A   1      34.966  32.948  33.484  1.00  0.00     0.040 A 
ATOM     71  C   UNL A   1      34.011  34.427  31.865  1.00  0.00     0.040 A 
ATOM     72  F   UNL A   1      34.926  34.609  29.722  1.00  0.00    -0.206 F 
ATOM     73  C   UNL A   1      34.004  33.887  33.145  1.00  0.00     0.006 A 
ENDBRANCH  52  66
BRANCH  53  74
ATOM     74  C   UNL A   1      42.446  28.719  34.606  1.00  0.00     0.057 A 
ATOM     75  C   UNL A   1      43.571  28.940  35.422  1.00  0.00     0.134 A 
ATOM     76  C   UNL A   1      41.775  27.507  34.806  1.00  0.00     0.134 A 
ATOM     77  F   UNL A   1      44.357  30.014  35.253  1.00  0.00    -0.206 F 
ATOM     78  C   UNL A   1      43.990  28.025  36.393  1.00  0.00     0.040 A 
ATOM     79  C   UNL A   1      42.195  26.571  35.762  1.00  0.00     0.040 A 
ATOM     80  F   UNL A   1      40.724  27.175  34.042  1.00  0.00    -0.206 F 
ATOM     81  C   UNL A   1      43.306  26.829  36.559  1.00  0.00     0.006 A 
ENDBRANCH  53  74
BRANCH  65  82
ATOM     82  C   UNL A   1      42.716  34.023  31.197  1.00  0.00     0.057 A 
ATOM     83  C   UNL A   1      43.400  35.172  31.607  1.00  0.00     0.134 A 
ATOM     84  C   UNL A   1      43.318  33.248  30.195  1.00  0.00     0.134 A 
ATOM     85  F   UNL A   1      42.853  35.999  32.514  1.00  0.00    -0.206 F 
ATOM     86  C   UNL A   1      44.635  35.528  31.061  1.00  0.00     0.040 A 
ATOM     87  C   UNL A   1      44.568  33.576  29.662  1.00  0.00     0.040 A 
ATOM     88  F   UNL A   1      42.685  32.195  29.660  1.00  0.00    -0.206 F 
ATOM     89  C   UNL A   1      45.228  34.722  30.092  1.00  0.00     0.006 A 
ENDBRANCH  65  82
ENDBRANCH  39  40
ENDBRANCH  32  34
ENDBRANCH  31  32
ENDBRANCH  30  31
ENDBRANCH  29  30
ENDBRANCH  28  29
ENDBRANCH  27  28
ENDBRANCH   1  27
TORSDOF 20
ENDMDL
MODEL 3
REMARK VINA RESULT:     -11.2      3.917      9.662
REMARK SMILES Cc1cn2c(=O)cc(CSc3ccccc3C(=O)OCCOCCOCCOC(=O)c3ccc(-c4c5nc(c(-c6c(F)cccc6F)c6ccc([nH]6)c(-c6c(F)cccc6F)c6nc(c(-c7c(F)cccc7F)c7ccc4[nH]7)C=C6)C=C5)cc3)nc2s1
REMARK SMILES IDX 23 1 22 2 21 3 20 4 19 5 17 6 18 7 16 8 11 9 12 10 13 11
REMARK SMILES IDX 15 12 14 13 10 14 9 15 8 16 1 17 2 18 3 19 87 20 4 21 86 22
REMARK SMILES IDX 5 23 85 24 6 25 7 26 24 27 25 28 26 29 27 30 28 31 29 32
REMARK SMILES IDX 30 33 31 34 32 35 84 36 33 37 83 38 34 39 35 40 36 41 77 42
REMARK SMILES IDX 37 43 82 44 76 45 78 46 38 47 81 48 75 49 74 50 39 52 65 53
REMARK SMILES IDX 48 54 64 55 49 56 52 57 63 58 79 59 50 60 51 61 62 63 80 64
REMARK SMILES IDX 53 65 40 66 41 67 46 68 42 69 43 70 45 71 47 72 44 73 66 74
REMARK SMILES IDX 67 75 72 76 68 77 69 78 71 79 73 80 70 81 54 82 55 83 60 84
REMARK SMILES IDX 56 85 57 86 59 87 61 88 58 89
REMARK H PARENT 78 51 52 62
REMARK Flexibility Score: inf
ROOT
ATOM      1  C   UNL A   1      34.786  33.241  27.866  1.00  0.00     0.188 C 
ENDROOT
BRANCH   1   2
ATOM      2  O   UNL A   1      34.684  31.847  27.598  1.00  0.00    -0.376 OA
BRANCH   2   3
ATOM      3  C   UNL A   1      33.381  31.265  27.531  1.00  0.00     0.202 C 
BRANCH   3   4
ATOM      4  C   UNL A   1      33.249  29.797  27.083  1.00  0.00     0.261 C 
BRANCH   4   5
ATOM      5  O   UNL A   1      32.056  29.519  26.320  1.00  0.00    -0.460 OA
BRANCH   5   6
ATOM      6  C   UNL A   1      32.248  29.192  25.018  1.00  0.00     0.339 C 
ATOM      7  O   UNL A   1      33.279  29.349  24.382  1.00  0.00    -0.246 OA
BRANCH   6   8
ATOM      8  C   UNL A   1      31.135  28.352  24.513  1.00  0.00     0.073 A 
ATOM      9  C   UNL A   1      30.855  27.038  24.924  1.00  0.00     0.022 A 
ATOM     10  C   UNL A   1      29.696  26.416  24.423  1.00  0.00     0.016 A 
ATOM     11  C   UNL A   1      28.862  27.056  23.504  1.00  0.00     0.001 A 
ATOM     12  C   UNL A   1      30.289  28.990  23.583  1.00  0.00     0.017 A 
ATOM     13  C   UNL A   1      29.165  28.341  23.074  1.00  0.00     0.001 A 
BRANCH   9  14
ATOM     14  S   UNL A   1      31.766  26.124  26.158  1.00  0.00    -0.119 SA
BRANCH  14  15
ATOM     15  C   UNL A   1      31.029  24.462  26.008  1.00  0.00     0.131 C 
BRANCH  15  16
ATOM     16  C   UNL A   1      32.003  23.311  25.831  1.00  0.00     0.059 A 
ATOM     17  C   UNL A   1      37.421  20.518  24.924  1.00  0.00     0.058 C 
ATOM     18  C   UNL A   1      36.087  21.133  25.146  1.00  0.00     0.022 A 
ATOM     19  C   UNL A   1      34.892  20.546  25.003  1.00  0.00     0.111 A 
ATOM     20  S   UNL A   1      35.912  22.805  25.636  1.00  0.00    -0.102 S 
ATOM     21  N   UNL A   1      33.825  21.373  25.276  1.00  0.00    -0.258 N 
ATOM     22  C   UNL A   1      34.163  22.659  25.624  1.00  0.00     0.197 A 
ATOM     23  C   UNL A   1      32.512  20.988  25.237  1.00  0.00     0.258 A 
ATOM     24  N   UNL A   1      33.348  23.620  25.902  1.00  0.00    -0.224 NA
ATOM     25  O   UNL A   1      32.101  19.857  24.998  1.00  0.00    -0.269 OA
ATOM     26  C   UNL A   1      31.558  22.078  25.527  1.00  0.00     0.097 A 
ENDBRANCH  15  16
ENDBRANCH  14  15
ENDBRANCH   9  14
ENDBRANCH   6   8
ENDBRANCH   5   6
ENDBRANCH   4   5
ENDBRANCH   3   4
ENDBRANCH   2   3
ENDBRANCH   1   2
BRANCH   1  27
ATOM     27  C   UNL A   1      34.039  33.822  29.081  1.00  0.00     0.188 C 
BRANCH  27  28
ATOM     28  O   UNL A   1      34.873  34.183  30.173  1.00  0.00    -0.376 OA
BRANCH  28  29
ATOM     29  C   UNL A   1      35.145  33.216  31.178  1.00  0.00     0.202 C 
BRANCH  29  30
ATOM     30  C   UNL A   1      36.505  32.539  31.037  1.00  0.00     0.261 C 
BRANCH  30  31
ATOM     31  O   UNL A   1      36.424  31.258  30.423  1.00  0.00    -0.460 OA
BRANCH  31  32
ATOM     32  C   UNL A   1      36.633  30.214  31.251  1.00  0.00     0.338 C 
ATOM     33  O   UNL A   1      36.299  30.109  32.416  1.00  0.00    -0.246 OA
BRANCH  32  34
ATOM     34  C   UNL A   1      37.311  29.159  30.500  1.00  0.00     0.060 A 
ATOM     35  C   UNL A   1      37.887  28.117  31.231  1.00  0.00     0.016 A 
ATOM     36  C   UNL A   1      37.589  29.380  29.148  1.00  0.00     0.016 A 
ATOM     37  C   UNL A   1      38.943  27.438  30.664  1.00  0.00     0.010 A 
ATOM     38  C   UNL A   1      38.663  28.730  28.595  1.00  0.00     0.010 A 
ATOM     39  C   UNL A   1      39.386  27.851  29.404  1.00  0.00    -0.014 A 
BRANCH  39  40
ATOM     40  C   UNL A   1      40.772  27.590  29.078  1.00  0.00     0.031 A 
ATOM     41  C   UNL A   1      41.094  26.344  28.364  1.00  0.00     0.074 A 
ATOM     42  C   UNL A   1      41.691  28.551  29.296  1.00  0.00     0.049 A 
ATOM     43  N   UNL A   1      41.877  25.394  28.752  1.00  0.00    -0.248 NA
ATOM     44  C   UNL A   1      40.437  26.105  27.072  1.00  0.00     0.031 C 
ATOM     45  C   UNL A   1      41.457  29.953  29.664  1.00  0.00     0.029 A 
ATOM     46  N   UNL A   1      43.036  28.496  29.116  1.00  0.00    -0.354 N 
ATOM     47  C   UNL A   1      41.945  24.506  27.687  1.00  0.00     0.074 A 
ATOM     48  C   UNL A   1      40.949  24.923  26.733  1.00  0.00     0.031 C 
ATOM     49  C   UNL A   1      42.598  30.653  29.473  1.00  0.00     0.029 A 
ATOM     50  C   UNL A   1      43.652  29.735  29.078  1.00  0.00     0.049 A 
ATOM     51  H   UNL A   1      43.529  27.650  29.021  1.00  0.00     0.167 HD
ATOM     52  C   UNL A   1      42.955  23.604  27.564  1.00  0.00     0.037 A 
ATOM     53  C   UNL A   1      44.915  29.987  28.658  1.00  0.00     0.037 A 
ATOM     54  C   UNL A   1      43.663  23.404  28.799  1.00  0.00     0.049 A 
ATOM     55  C   UNL A   1      45.664  28.705  28.679  1.00  0.00     0.074 A 
ATOM     56  C   UNL A   1      43.298  23.004  30.071  1.00  0.00     0.029 A 
ATOM     57  N   UNL A   1      44.921  23.938  28.929  1.00  0.00    -0.354 N 
ATOM     58  N   UNL A   1      46.028  28.076  29.763  1.00  0.00    -0.248 NA
ATOM     59  C   UNL A   1      45.653  27.895  27.468  1.00  0.00     0.031 C 
ATOM     60  C   UNL A   1      44.135  23.748  30.952  1.00  0.00     0.029 A 
ATOM     61  C   UNL A   1      44.961  24.544  30.160  1.00  0.00     0.049 A 
ATOM     62  H   UNL A   1      45.651  23.895  28.270  1.00  0.00     0.167 HD
ATOM     63  C   UNL A   1      45.900  26.728  29.457  1.00  0.00     0.074 A 
ATOM     64  C   UNL A   1      45.769  26.677  28.005  1.00  0.00     0.031 C 
ATOM     65  C   UNL A   1      45.626  25.799  30.420  1.00  0.00     0.037 A 
BRANCH  52  66
ATOM     66  C   UNL A   1      43.479  23.127  26.242  1.00  0.00     0.057 A 
ATOM     67  C   UNL A   1      44.221  23.939  25.359  1.00  0.00     0.134 A 
ATOM     68  C   UNL A   1      43.473  21.756  25.943  1.00  0.00     0.134 A 
ATOM     69  F   UNL A   1      44.419  25.245  25.591  1.00  0.00    -0.206 F 
ATOM     70  C   UNL A   1      44.884  23.429  24.242  1.00  0.00     0.040 A 
ATOM     71  C   UNL A   1      44.181  21.228  24.859  1.00  0.00     0.040 A 
ATOM     72  F   UNL A   1      42.836  20.883  26.737  1.00  0.00    -0.206 F 
ATOM     73  C   UNL A   1      44.887  22.064  24.002  1.00  0.00     0.006 A 
ENDBRANCH  52  66
BRANCH  53  74
ATOM     74  C   UNL A   1      45.428  31.213  28.007  1.00  0.00     0.057 A 
ATOM     75  C   UNL A   1      44.829  31.755  26.854  1.00  0.00     0.134 A 
ATOM     76  C   UNL A   1      46.661  31.768  28.372  1.00  0.00     0.134 A 
ATOM     77  F   UNL A   1      43.701  31.237  26.345  1.00  0.00    -0.206 F 
ATOM     78  C   UNL A   1      45.406  32.797  26.123  1.00  0.00     0.040 A 
ATOM     79  C   UNL A   1      47.261  32.800  27.638  1.00  0.00     0.040 A 
ATOM     80  F   UNL A   1      47.341  31.285  29.422  1.00  0.00    -0.206 F 
ATOM     81  C   UNL A   1      46.633  33.317  26.509  1.00  0.00     0.006 A 
ENDBRANCH  53  74
BRANCH  65  82
ATOM     82  C   UNL A   1      45.727  26.221  31.857  1.00  0.00     0.057 A 
ATOM     83  C   UNL A   1      46.908  25.970  32.563  1.00  0.00     0.134 A 
ATOM     84  C   UNL A   1      44.640  26.717  32.591  1.00  0.00     0.134 A 
ATOM     85  F   UNL A   1      47.969  25.431  31.940  1.00  0.00    -0.206 F 
ATOM     86  C   UNL A   1      47.012  26.216  33.934  1.00  0.00     0.040 A 
ATOM     87  C   UNL A   1      44.740  26.996  33.958  1.00  0.00     0.040 A 
ATOM     88  F   UNL A   1      43.438  26.880  32.023  1.00  0.00    -0.206 F 
ATOM     89  C   UNL A   1      45.928  26.741  34.634  1.00  0.00     0.006 A 
ENDBRANCH  65  82
ENDBRANCH  39  40
ENDBRANCH  32  34
ENDBRANCH  31  32
ENDBRANCH  30  31
ENDBRANCH  29  30
ENDBRANCH  28  29
ENDBRANCH  27  28
ENDBRANCH   1  27
TORSDOF 20
ENDMDL
