MODEL 1
REMARK VINA RESULT:     -13.4      0.000      0.000
REMARK SMILES Cc1ccc(NC(=O)C[C@@H](C(=O)OCCOCCOCCOC(=O)c2ccc(-c3c4nc(c(-c5c(F)cccc5F)c5ccc([nH]5)c(-c5c(F)cccc5F)c5nc(c(-c6c(F)cccc6F)c6ccc3[nH]6)C=C5)C=C4)cc2)[NH+]2CCOCC2)cc1
REMARK SMILES IDX 17 1 16 2 15 3 14 4 13 5 11 6 12 7 10 8 9 9 7 10 6 11 8 13
REMARK SMILES IDX 5 14 1 15 2 16 3 17 86 18 4 19 85 20 79 21 80 22 84 23 81 25
REMARK SMILES IDX 83 26 82 27 18 28 19 29 20 30 21 31 22 32 23 33 24 34 25 35
REMARK SMILES IDX 26 36 78 37 27 38 77 39 28 40 29 41 30 42 71 43 31 44 76 45
REMARK SMILES IDX 70 46 72 47 32 48 75 49 69 50 68 51 33 53 59 54 42 55 58 56
REMARK SMILES IDX 43 57 46 58 57 59 73 60 44 61 45 62 56 64 74 65 47 66 34 67
REMARK SMILES IDX 35 68 40 69 36 70 37 71 39 72 41 73 38 74 60 75 61 76 66 77
REMARK SMILES IDX 62 78 63 79 65 80 67 81 64 82 48 83 49 84 54 85 50 86 51 87
REMARK SMILES IDX 53 88 55 89 52 90
REMARK H PARENT 6 12 79 24 72 52 46 63
REMARK Flexibility Score: inf
ROOT
ATOM      1  C   UNL A   1      38.941  20.996  25.977  1.00  0.00     0.188 C 
ENDROOT
BRANCH   1   2
ATOM      2  O   UNL A   1      37.993  20.867  24.870  1.00  0.00    -0.376 OA
BRANCH   2   3
ATOM      3  C   UNL A   1      36.605  19.845  24.805  1.00  0.00     0.202 C 
BRANCH   3   4
ATOM      4  C   UNL A   1      34.441  20.358  24.980  1.00  0.00     0.261 C 
BRANCH   4   5
ATOM      5  O   UNL A   1      33.305  21.841  25.320  1.00  0.00    -0.459 OA
BRANCH   5   6
ATOM      6  C   UNL A   1      31.998  22.953  25.395  1.00  0.00     0.365 C 
ATOM      7  O   UNL A   1      30.901  22.656  25.860  1.00  0.00    -0.245 OA
BRANCH   6   8
ATOM      8  C   UNL A   1      31.984  24.747  24.746  1.00  0.00     0.304 C 
BRANCH   8   9
ATOM      9  C   UNL A   1      30.455  25.790  24.509  1.00  0.00     0.177 C 
BRANCH   9  10
ATOM     10  C   UNL A   1      30.230  27.616  24.052  1.00  0.00     0.231 C 
ATOM     11  N   UNL A   1      31.009  28.874  24.397  1.00  0.00    -0.326 N 
ATOM     12  H   UNL A   1      30.810  29.587  23.747  1.00  0.00     0.169 HD
ATOM     13  O   UNL A   1      29.314  27.821  23.225  1.00  0.00    -0.274 OA
BRANCH  11  14
ATOM     14  C   UNL A   1      32.019  29.383  25.452  1.00  0.00     0.041 A 
ATOM     15  C   UNL A   1      35.493  30.700  28.962  1.00  0.00     0.044 C 
ATOM     16  C   UNL A   1      34.635  30.712  27.714  1.00  0.00    -0.051 A 
ATOM     17  C   UNL A   1      34.897  29.227  26.852  1.00  0.00     0.005 A 
ATOM     18  C   UNL A   1      33.119  31.591  27.419  1.00  0.00     0.005 A 
ATOM     19  C   UNL A   1      33.543  28.522  25.852  1.00  0.00     0.026 A 
ATOM     20  C   UNL A   1      31.810  30.913  26.352  1.00  0.00     0.026 A 
ENDBRANCH  11  14
ENDBRANCH   9  10
ENDBRANCH   8   9
BRANCH   8  21
ATOM     21  N   UNL A   1      32.998  24.800  23.593  1.00  0.00    -0.319 N 
ATOM     22  C   UNL A   1      33.947  25.930  23.504  1.00  0.00     0.291 C 
ATOM     23  C   UNL A   1      32.730  24.321  22.233  1.00  0.00     0.291 C 
ATOM     24  H   UNL A   1      33.403  23.992  24.065  1.00  0.00     0.348 HD
ATOM     25  C   UNL A   1      33.496  27.001  22.510  1.00  0.00     0.221 C 
ATOM     26  C   UNL A   1      32.635  25.356  21.080  1.00  0.00     0.221 C 
ATOM     27  O   UNL A   1      33.538  26.459  21.189  1.00  0.00    -0.370 OA
ENDBRANCH   8  21
ENDBRANCH   6   8
ENDBRANCH   5   6
ENDBRANCH   4   5
ENDBRANCH   3   4
ENDBRANCH   2   3
ENDBRANCH   1   2
BRANCH   1  28
ATOM     28  C   UNL A   1      40.014  19.954  26.123  1.00  0.00     0.188 C 
BRANCH  28  29
ATOM     29  O   UNL A   1      40.637  20.085  27.378  1.00  0.00    -0.376 OA
BRANCH  29  30
ATOM     30  C   UNL A   1      41.984  19.659  27.365  1.00  0.00     0.202 C 
BRANCH  30  31
ATOM     31  C   UNL A   1      42.664  20.125  26.065  1.00  0.00     0.261 C 
BRANCH  31  32
ATOM     32  O   UNL A   1      43.304  21.422  26.263  1.00  0.00    -0.460 OA
BRANCH  32  33
ATOM     33  C   UNL A   1      42.722  22.534  25.692  1.00  0.00     0.338 C 
ATOM     34  O   UNL A   1      43.076  23.044  24.642  1.00  0.00    -0.246 OA
BRANCH  33  35
ATOM     35  C   UNL A   1      41.826  23.246  26.688  1.00  0.00     0.060 A 
ATOM     36  C   UNL A   1      40.852  24.194  26.291  1.00  0.00     0.016 A 
ATOM     37  C   UNL A   1      42.378  23.417  27.917  1.00  0.00     0.016 A 
ATOM     38  C   UNL A   1      40.674  25.450  26.997  1.00  0.00     0.010 A 
ATOM     39  C   UNL A   1      42.380  24.729  28.361  1.00  0.00     0.010 A 
ATOM     40  C   UNL A   1      41.520  25.812  28.056  1.00  0.00    -0.014 A 
BRANCH  40  41
ATOM     41  C   UNL A   1      41.725  27.364  28.857  1.00  0.00     0.031 A 
ATOM     42  C   UNL A   1      40.283  28.295  29.929  1.00  0.00     0.074 A 
ATOM     43  C   UNL A   1      43.208  27.786  28.701  1.00  0.00     0.049 A 
ATOM     44  N   UNL A   1      40.386  28.981  31.104  1.00  0.00    -0.248 NA
ATOM     45  C   UNL A   1      38.774  28.783  29.616  1.00  0.00     0.031 C 
ATOM     46  C   UNL A   1      44.097  28.860  29.513  1.00  0.00     0.029 A 
ATOM     47  N   UNL A   1      44.306  27.242  28.042  1.00  0.00    -0.354 N 
ATOM     48  C   UNL A   1      39.540  30.048  31.270  1.00  0.00     0.074 A 
ATOM     49  C   UNL A   1      38.386  29.587  30.605  1.00  0.00     0.031 C 
ATOM     50  C   UNL A   1      45.406  28.684  29.478  1.00  0.00     0.029 A 
ATOM     51  C   UNL A   1      45.529  27.936  28.298  1.00  0.00     0.049 A 
ATOM     52  H   UNL A   1      44.246  26.455  27.455  1.00  0.00     0.167 HD
ATOM     53  C   UNL A   1      39.871  31.362  31.546  1.00  0.00     0.037 A 
ATOM     54  C   UNL A   1      46.227  28.581  27.336  1.00  0.00     0.037 A 
ATOM     55  C   UNL A   1      41.309  31.772  31.393  1.00  0.00     0.049 A 
ATOM     56  C   UNL A   1      45.875  30.128  27.337  1.00  0.00     0.074 A 
ATOM     57  C   UNL A   1      42.458  31.685  32.161  1.00  0.00     0.029 A 
ATOM     58  N   UNL A   1      41.778  32.379  30.208  1.00  0.00    -0.354 N 
ATOM     59  N   UNL A   1      44.796  30.643  27.928  1.00  0.00    -0.248 NA
ATOM     60  C   UNL A   1      46.774  31.207  26.951  1.00  0.00     0.031 C 
ATOM     61  C   UNL A   1      43.609  32.053  31.358  1.00  0.00     0.029 A 
ATOM     62  C   UNL A   1      43.207  32.392  30.067  1.00  0.00     0.049 A 
ATOM     63  H   UNL A   1      41.174  32.762  29.532  1.00  0.00     0.167 HD
ATOM     64  C   UNL A   1      44.869  32.007  28.122  1.00  0.00     0.074 A 
ATOM     65  C   UNL A   1      46.141  32.298  27.446  1.00  0.00     0.031 C 
ATOM     66  C   UNL A   1      43.932  32.829  28.770  1.00  0.00     0.037 A 
BRANCH  53  67
ATOM     67  C   UNL A   1      38.809  32.233  32.263  1.00  0.00     0.057 A 
ATOM     68  C   UNL A   1      38.312  33.386  31.625  1.00  0.00     0.134 A 
ATOM     69  C   UNL A   1      38.364  32.111  33.601  1.00  0.00     0.134 A 
ATOM     70  F   UNL A   1      38.546  33.616  30.326  1.00  0.00    -0.206 F 
ATOM     71  C   UNL A   1      37.569  34.378  32.294  1.00  0.00     0.040 A 
ATOM     72  C   UNL A   1      37.697  33.129  34.305  1.00  0.00     0.040 A 
ATOM     73  F   UNL A   1      38.466  30.966  34.284  1.00  0.00    -0.206 F 
ATOM     74  C   UNL A   1      37.306  34.282  33.653  1.00  0.00     0.006 A 
ENDBRANCH  53  67
BRANCH  54  75
ATOM     75  C   UNL A   1      46.746  27.444  26.507  1.00  0.00     0.057 A 
ATOM     76  C   UNL A   1      46.287  27.469  25.141  1.00  0.00     0.134 A 
ATOM     77  C   UNL A   1      48.096  27.108  26.674  1.00  0.00     0.134 A 
ATOM     78  F   UNL A   1      45.023  27.841  24.867  1.00  0.00    -0.206 F 
ATOM     79  C   UNL A   1      47.174  27.453  24.046  1.00  0.00     0.040 A 
ATOM     80  C   UNL A   1      48.980  27.064  25.573  1.00  0.00     0.040 A 
ATOM     81  F   UNL A   1      48.638  27.142  27.899  1.00  0.00    -0.206 F 
ATOM     82  C   UNL A   1      48.535  27.298  24.269  1.00  0.00     0.006 A 
ENDBRANCH  54  75
BRANCH  66  83
ATOM     83  C   UNL A   1      43.574  34.208  28.143  1.00  0.00     0.057 A 
ATOM     84  C   UNL A   1      43.477  35.428  28.849  1.00  0.00     0.134 A 
ATOM     85  C   UNL A   1      43.467  34.385  26.741  1.00  0.00     0.134 A 
ATOM     86  F   UNL A   1      43.680  35.526  30.167  1.00  0.00    -0.206 F 
ATOM     87  C   UNL A   1      43.224  36.669  28.238  1.00  0.00     0.040 A 
ATOM     88  C   UNL A   1      43.305  35.631  26.115  1.00  0.00     0.040 A 
ATOM     89  F   UNL A   1      43.538  33.370  25.873  1.00  0.00    -0.206 F 
ATOM     90  C   UNL A   1      43.155  36.780  26.864  1.00  0.00     0.006 A 
ENDBRANCH  66  83
ENDBRANCH  40  41
ENDBRANCH  33  35
ENDBRANCH  32  33
ENDBRANCH  31  32
ENDBRANCH  30  31
ENDBRANCH  29  30
ENDBRANCH  28  29
ENDBRANCH   1  28
TORSDOF 21
ENDMDL
MODEL 2
REMARK VINA RESULT:     -13.1      6.790     11.792
REMARK SMILES Cc1ccc(NC(=O)C[C@@H](C(=O)OCCOCCOCCOC(=O)c2ccc(-c3c4nc(c(-c5c(F)cccc5F)c5ccc([nH]5)c(-c5c(F)cccc5F)c5nc(c(-c6c(F)cccc6F)c6ccc3[nH]6)C=C5)C=C4)cc2)[NH+]2CCOCC2)cc1
REMARK SMILES IDX 17 1 16 2 15 3 14 4 13 5 11 6 12 7 10 8 9 9 7 10 6 11 8 13
REMARK SMILES IDX 5 14 1 15 2 16 3 17 86 18 4 19 85 20 79 21 80 22 84 23 81 25
REMARK SMILES IDX 83 26 82 27 18 28 19 29 20 30 21 31 22 32 23 33 24 34 25 35
REMARK SMILES IDX 26 36 78 37 27 38 77 39 28 40 29 41 30 42 71 43 31 44 76 45
REMARK SMILES IDX 70 46 72 47 32 48 75 49 69 50 68 51 33 53 59 54 42 55 58 56
REMARK SMILES IDX 43 57 46 58 57 59 73 60 44 61 45 62 56 64 74 65 47 66 34 67
REMARK SMILES IDX 35 68 40 69 36 70 37 71 39 72 41 73 38 74 60 75 61 76 66 77
REMARK SMILES IDX 62 78 63 79 65 80 67 81 64 82 48 83 49 84 54 85 50 86 51 87
REMARK SMILES IDX 53 88 55 89 52 90
REMARK H PARENT 6 12 79 24 72 52 46 63
REMARK Flexibility Score: inf
ROOT
ATOM      1  C   UNL A   1      32.312  31.303  27.013  1.00  0.00     0.188 C 
ENDROOT
BRANCH   1   2
ATOM      2  O   UNL A   1      32.049  30.661  25.725  1.00  0.00    -0.376 OA
BRANCH   2   3
ATOM      3  C   UNL A   1      31.613  29.014  25.454  1.00  0.00     0.202 C 
BRANCH   3   4
ATOM      4  C   UNL A   1      31.394  27.336  26.907  1.00  0.00     0.261 C 
BRANCH   4   5
ATOM      5  O   UNL A   1      31.239  25.444  26.957  1.00  0.00    -0.459 OA
BRANCH   5   6
ATOM      6  C   UNL A   1      31.519  23.750  26.917  1.00  0.00     0.365 C 
ATOM      7  O   UNL A   1      30.909  22.961  27.634  1.00  0.00    -0.245 OA
BRANCH   6   8
ATOM      8  C   UNL A   1      32.808  22.828  25.854  1.00  0.00     0.304 C 
BRANCH   8   9
ATOM      9  C   UNL A   1      34.616  22.649  26.278  1.00  0.00     0.177 C 
BRANCH   9  10
ATOM     10  C   UNL A   1      35.945  21.446  25.659  1.00  0.00     0.231 C 
ATOM     11  N   UNL A   1      37.454  21.393  25.829  1.00  0.00    -0.326 N 
ATOM     12  H   UNL A   1      37.784  20.482  25.653  1.00  0.00     0.169 HD
ATOM     13  O   UNL A   1      35.484  20.443  25.072  1.00  0.00    -0.274 OA
BRANCH  11  14
ATOM     14  C   UNL A   1      38.633  22.325  26.194  1.00  0.00     0.041 A 
ATOM     15  C   UNL A   1      42.723  25.088  27.520  1.00  0.00     0.044 C 
ATOM     16  C   UNL A   1      41.550  24.545  26.731  1.00  0.00    -0.051 A 
ATOM     17  C   UNL A   1      41.780  22.838  26.507  1.00  0.00     0.005 A 
ATOM     18  C   UNL A   1      39.896  25.184  26.623  1.00  0.00     0.005 A 
ATOM     19  C   UNL A   1      40.323  21.747  26.381  1.00  0.00     0.026 A 
ATOM     20  C   UNL A   1      38.456  24.090  26.415  1.00  0.00     0.026 A 
ENDBRANCH  11  14
ENDBRANCH   9  10
ENDBRANCH   8   9
BRANCH   8  21
ATOM     21  N   UNL A   1      32.511  23.198  24.393  1.00  0.00    -0.319 N 
ATOM     22  C   UNL A   1      33.099  22.394  23.301  1.00  0.00     0.291 C 
ATOM     23  C   UNL A   1      32.336  24.570  23.907  1.00  0.00     0.291 C 
ATOM     24  H   UNL A   1      31.566  22.897  24.630  1.00  0.00     0.348 HD
ATOM     25  C   UNL A   1      34.348  23.038  22.701  1.00  0.00     0.221 C 
ATOM     26  C   UNL A   1      33.409  25.171  22.959  1.00  0.00     0.221 C 
ATOM     27  O   UNL A   1      33.974  24.243  22.030  1.00  0.00    -0.370 OA
ENDBRANCH   8  21
ENDBRANCH   6   8
ENDBRANCH   5   6
ENDBRANCH   4   5
ENDBRANCH   3   4
ENDBRANCH   2   3
ENDBRANCH   1   2
BRANCH   1  28
ATOM     28  C   UNL A   1      33.703  31.228  27.578  1.00  0.00     0.188 C 
BRANCH  28  29
ATOM     29  O   UNL A   1      34.017  32.434  28.230  1.00  0.00    -0.376 OA
BRANCH  29  30
ATOM     30  C   UNL A   1      34.973  32.266  29.256  1.00  0.00     0.202 C 
BRANCH  30  31
ATOM     31  C   UNL A   1      34.594  33.138  30.467  1.00  0.00     0.261 C 
BRANCH  31  32
ATOM     32  O   UNL A   1      34.402  32.306  31.651  1.00  0.00    -0.460 OA
BRANCH  32  33
ATOM     33  C   UNL A   1      34.359  32.920  32.884  1.00  0.00     0.338 C 
ATOM     34  O   UNL A   1      33.364  33.426  33.377  1.00  0.00    -0.246 OA
BRANCH  33  35
ATOM     35  C   UNL A   1      35.759  33.196  33.399  1.00  0.00     0.060 A 
ATOM     36  C   UNL A   1      36.745  32.185  33.500  1.00  0.00     0.016 A 
ATOM     37  C   UNL A   1      35.836  34.215  34.293  1.00  0.00     0.016 A 
ATOM     38  C   UNL A   1      37.594  32.059  34.670  1.00  0.00     0.010 A 
ATOM     39  C   UNL A   1      36.446  33.875  35.489  1.00  0.00     0.010 A 
ATOM     40  C   UNL A   1      37.416  32.888  35.788  1.00  0.00    -0.014 A 
BRANCH  40  41
ATOM     41  C   UNL A   1      38.075  32.749  37.413  1.00  0.00     0.031 A 
ATOM     42  C   UNL A   1      37.051  32.030  39.002  1.00  0.00     0.074 A 
ATOM     43  C   UNL A   1      39.574  33.137  37.350  1.00  0.00     0.049 A 
ATOM     44  N   UNL A   1      37.477  31.211  40.008  1.00  0.00    -0.248 NA
ATOM     45  C   UNL A   1      35.657  32.418  39.724  1.00  0.00     0.031 C 
ATOM     46  C   UNL A   1      40.789  32.847  38.371  1.00  0.00     0.029 A 
ATOM     47  N   UNL A   1      40.413  33.602  36.343  1.00  0.00    -0.354 N 
ATOM     48  C   UNL A   1      36.922  31.415  41.245  1.00  0.00     0.074 A 
ATOM     49  C   UNL A   1      35.609  31.788  40.896  1.00  0.00     0.031 C 
ATOM     50  C   UNL A   1      42.007  32.887  37.859  1.00  0.00     0.029 A 
ATOM     51  C   UNL A   1      41.783  33.699  36.738  1.00  0.00     0.049 A 
ATOM     52  H   UNL A   1      40.094  33.842  35.444  1.00  0.00     0.167 HD
ATOM     53  C   UNL A   1      37.572  31.677  42.438  1.00  0.00     0.037 A 
ATOM     54  C   UNL A   1      42.454  34.872  36.796  1.00  0.00     0.037 A 
ATOM     55  C   UNL A   1      39.025  32.057  42.377  1.00  0.00     0.049 A 
ATOM     56  C   UNL A   1      42.455  35.438  38.278  1.00  0.00     0.074 A 
ATOM     57  C   UNL A   1      40.229  31.379  42.271  1.00  0.00     0.029 A 
ATOM     58  N   UNL A   1      39.433  33.408  42.382  1.00  0.00    -0.354 N 
ATOM     59  N   UNL A   1      41.617  35.027  39.231  1.00  0.00    -0.248 NA
ATOM     60  C   UNL A   1      43.501  36.256  38.878  1.00  0.00     0.031 C 
ATOM     61  C   UNL A   1      41.299  32.327  42.018  1.00  0.00     0.029 A 
ATOM     62  C   UNL A   1      40.792  33.624  41.972  1.00  0.00     0.049 A 
ATOM     63  H   UNL A   1      38.835  34.143  42.645  1.00  0.00     0.167 HD
ATOM     64  C   UNL A   1      42.018  35.369  40.507  1.00  0.00     0.074 A 
ATOM     65  C   UNL A   1      43.206  36.176  40.197  1.00  0.00     0.031 C 
ATOM     66  C   UNL A   1      41.392  35.029  41.717  1.00  0.00     0.037 A 
BRANCH  53  67
ATOM     67  C   UNL A   1      36.848  31.285  43.750  1.00  0.00     0.057 A 
ATOM     68  C   UNL A   1      37.156  30.061  44.372  1.00  0.00     0.134 A 
ATOM     69  C   UNL A   1      35.753  31.949  44.353  1.00  0.00     0.134 A 
ATOM     70  F   UNL A   1      38.223  29.341  44.001  1.00  0.00    -0.206 F 
ATOM     71  C   UNL A   1      36.368  29.495  45.395  1.00  0.00     0.040 A 
ATOM     72  C   UNL A   1      34.908  31.362  45.312  1.00  0.00     0.040 A 
ATOM     73  F   UNL A   1      35.485  33.238  44.121  1.00  0.00    -0.206 F 
ATOM     74  C   UNL A   1      35.206  30.117  45.830  1.00  0.00     0.006 A 
ENDBRANCH  53  67
BRANCH  54  75
ATOM     75  C   UNL A   1      42.579  35.236  35.347  1.00  0.00     0.057 A 
ATOM     76  C   UNL A   1      41.994  36.512  35.019  1.00  0.00     0.134 A 
ATOM     77  C   UNL A   1      43.812  34.973  34.737  1.00  0.00     0.134 A 
ATOM     78  F   UNL A   1      40.841  36.888  35.601  1.00  0.00    -0.206 F 
ATOM     79  C   UNL A   1      42.724  37.536  34.383  1.00  0.00     0.040 A 
ATOM     80  C   UNL A   1      44.532  35.992  34.073  1.00  0.00     0.040 A 
ATOM     81  F   UNL A   1      44.476  33.851  35.045  1.00  0.00    -0.206 F 
ATOM     82  C   UNL A   1      44.020  37.287  33.950  1.00  0.00     0.006 A 
ENDBRANCH  54  75
BRANCH  66  83
ATOM     83  C   UNL A   1      41.257  36.111  42.828  1.00  0.00     0.057 A 
ATOM     84  C   UNL A   1      42.066  36.205  43.983  1.00  0.00     0.134 A 
ATOM     85  C   UNL A   1      40.384  37.219  42.689  1.00  0.00     0.134 A 
ATOM     86  F   UNL A   1      43.054  35.345  44.253  1.00  0.00    -0.206 F 
ATOM     87  C   UNL A   1      41.964  37.239  44.930  1.00  0.00     0.040 A 
ATOM     88  C   UNL A   1      40.339  38.302  43.581  1.00  0.00     0.040 A 
ATOM     89  F   UNL A   1      39.532  37.348  41.666  1.00  0.00    -0.206 F 
ATOM     90  C   UNL A   1      41.111  38.305  44.724  1.00  0.00     0.006 A 
ENDBRANCH  66  83
ENDBRANCH  40  41
ENDBRANCH  33  35
ENDBRANCH  32  33
ENDBRANCH  31  32
ENDBRANCH  30  31
ENDBRANCH  29  30
ENDBRANCH  28  29
ENDBRANCH   1  28
TORSDOF 21
ENDMDL
MODEL 3
REMARK VINA RESULT:     -12.8      4.394     10.259
REMARK SMILES Cc1ccc(NC(=O)C[C@@H](C(=O)OCCOCCOCCOC(=O)c2ccc(-c3c4nc(c(-c5c(F)cccc5F)c5ccc([nH]5)c(-c5c(F)cccc5F)c5nc(c(-c6c(F)cccc6F)c6ccc3[nH]6)C=C5)C=C4)cc2)[NH+]2CCOCC2)cc1
REMARK SMILES IDX 17 1 16 2 15 3 14 4 13 5 11 6 12 7 10 8 9 9 7 10 6 11 8 13
REMARK SMILES IDX 5 14 1 15 2 16 3 17 86 18 4 19 85 20 79 21 80 22 84 23 81 25
REMARK SMILES IDX 83 26 82 27 18 28 19 29 20 30 21 31 22 32 23 33 24 34 25 35
REMARK SMILES IDX 26 36 78 37 27 38 77 39 28 40 29 41 30 42 71 43 31 44 76 45
REMARK SMILES IDX 70 46 72 47 32 48 75 49 69 50 68 51 33 53 59 54 42 55 58 56
REMARK SMILES IDX 43 57 46 58 57 59 73 60 44 61 45 62 56 64 74 65 47 66 34 67
REMARK SMILES IDX 35 68 40 69 36 70 37 71 39 72 41 73 38 74 60 75 61 76 66 77
REMARK SMILES IDX 62 78 63 79 65 80 67 81 64 82 48 83 49 84 54 85 50 86 51 87
REMARK SMILES IDX 53 88 55 89 52 90
REMARK H PARENT 6 12 79 24 72 52 46 63
REMARK Flexibility Score: inf
ROOT
ATOM      1  C   UNL A   1      33.152  36.001  30.067  1.00  0.00     0.188 C 
ENDROOT
BRANCH   1   2
ATOM      2  O   UNL A   1      32.631  35.409  28.835  1.00  0.00    -0.376 OA
BRANCH   2   3
ATOM      3  C   UNL A   1      33.063  33.885  28.151  1.00  0.00     0.202 C 
BRANCH   3   4
ATOM      4  C   UNL A   1      31.846  32.470  26.929  1.00  0.00     0.261 C 
BRANCH   4   5
ATOM      5  O   UNL A   1      31.571  30.609  26.673  1.00  0.00    -0.459 OA
BRANCH   5   6
ATOM      6  C   UNL A   1      31.723  28.900  26.596  1.00  0.00     0.365 C 
ATOM      7  O   UNL A   1      32.213  28.237  27.506  1.00  0.00    -0.245 OA
BRANCH   6   8
ATOM      8  C   UNL A   1      31.243  27.773  25.133  1.00  0.00     0.304 C 
BRANCH   8   9
ATOM      9  C   UNL A   1      30.770  25.974  25.275  1.00  0.00     0.177 C 
BRANCH   9  10
ATOM     10  C   UNL A   1      31.077  24.493  24.132  1.00  0.00     0.231 C 
ATOM     11  N   UNL A   1      32.215  23.494  24.013  1.00  0.00    -0.326 N 
ATOM     12  H   UNL A   1      31.909  22.684  23.542  1.00  0.00     0.169 HD
ATOM     13  O   UNL A   1      30.110  24.222  23.386  1.00  0.00    -0.274 OA
BRANCH  11  14
ATOM     14  C   UNL A   1      33.705  23.352  24.403  1.00  0.00     0.041 A 
ATOM     15  C   UNL A   1      38.546  23.082  26.017  1.00  0.00     0.044 C 
ATOM     16  C   UNL A   1      37.196  22.693  25.455  1.00  0.00    -0.051 A 
ATOM     17  C   UNL A   1      35.979  23.059  26.640  1.00  0.00     0.005 A 
ATOM     18  C   UNL A   1      36.694  22.579  23.754  1.00  0.00     0.005 A 
ATOM     19  C   UNL A   1      34.301  23.513  26.089  1.00  0.00     0.026 A 
ATOM     20  C   UNL A   1      34.993  22.956  23.229  1.00  0.00     0.026 A 
ENDBRANCH  11  14
ENDBRANCH   9  10
ENDBRANCH   8   9
BRANCH   8  21
ATOM     21  N   UNL A   1      32.216  28.106  23.991  1.00  0.00    -0.319 N 
ATOM     22  C   UNL A   1      31.704  28.240  22.611  1.00  0.00     0.291 C 
ATOM     23  C   UNL A   1      33.602  27.634  23.921  1.00  0.00     0.291 C 
ATOM     24  H   UNL A   1      32.285  29.006  24.467  1.00  0.00     0.348 HD
ATOM     25  C   UNL A   1      31.923  26.979  21.776  1.00  0.00     0.221 C 
ATOM     26  C   UNL A   1      33.988  26.608  22.822  1.00  0.00     0.221 C 
ATOM     27  O   UNL A   1      33.324  26.794  21.569  1.00  0.00    -0.370 OA
ENDBRANCH   8  21
ENDBRANCH   6   8
ENDBRANCH   5   6
ENDBRANCH   4   5
ENDBRANCH   3   4
ENDBRANCH   2   3
ENDBRANCH   1   2
BRANCH   1  28
ATOM     28  C   UNL A   1      32.248  36.068  31.266  1.00  0.00     0.188 C 
BRANCH  28  29
ATOM     29  O   UNL A   1      32.808  35.331  32.325  1.00  0.00    -0.376 OA
BRANCH  29  30
ATOM     30  C   UNL A   1      34.105  34.856  32.033  1.00  0.00     0.202 C 
BRANCH  30  31
ATOM     31  C   UNL A   1      34.353  33.531  32.777  1.00  0.00     0.261 C 
BRANCH  31  32
ATOM     32  O   UNL A   1      35.617  33.587  33.505  1.00  0.00    -0.460 OA
BRANCH  32  33
ATOM     33  C   UNL A   1      36.791  33.505  32.787  1.00  0.00     0.338 C 
ATOM     34  O   UNL A   1      37.530  34.447  32.549  1.00  0.00    -0.246 OA
BRANCH  33  35
ATOM     35  C   UNL A   1      36.877  32.187  32.041  1.00  0.00     0.060 A 
ATOM     36  C   UNL A   1      36.889  30.937  32.705  1.00  0.00     0.016 A 
ATOM     37  C   UNL A   1      37.539  32.255  30.857  1.00  0.00     0.016 A 
ATOM     38  C   UNL A   1      37.806  29.878  32.327  1.00  0.00     0.010 A 
ATOM     39  C   UNL A   1      38.579  31.348  30.736  1.00  0.00     0.010 A 
ATOM     40  C   UNL A   1      38.779  30.082  31.336  1.00  0.00    -0.014 A 
BRANCH  40  41
ATOM     41  C   UNL A   1      40.181  29.107  30.914  1.00  0.00     0.031 A 
ATOM     42  C   UNL A   1      40.178  27.654  29.506  1.00  0.00     0.074 A 
ATOM     43  C   UNL A   1      41.397  29.660  31.701  1.00  0.00     0.049 A 
ATOM     44  N   UNL A   1      41.131  27.345  28.580  1.00  0.00    -0.248 NA
ATOM     45  C   UNL A   1      39.313  26.309  29.266  1.00  0.00     0.031 C 
ATOM     46  C   UNL A   1      42.983  29.476  31.470  1.00  0.00     0.029 A 
ATOM     47  N   UNL A   1      41.560  30.660  32.653  1.00  0.00    -0.354 N 
ATOM     48  C   UNL A   1      41.263  26.021  28.250  1.00  0.00     0.074 A 
ATOM     49  C   UNL A   1      39.926  25.584  28.332  1.00  0.00     0.031 C 
ATOM     50  C   UNL A   1      43.763  30.406  31.992  1.00  0.00     0.029 A 
ATOM     51  C   UNL A   1      42.925  30.899  33.003  1.00  0.00     0.049 A 
ATOM     52  H   UNL A   1      40.808  31.155  33.049  1.00  0.00     0.167 HD
ATOM     53  C   UNL A   1      42.400  25.235  28.319  1.00  0.00     0.037 A 
ATOM     54  C   UNL A   1      43.418  30.686  34.245  1.00  0.00     0.037 A 
ATOM     55  C   UNL A   1      43.578  25.769  29.084  1.00  0.00     0.049 A 
ATOM     56  C   UNL A   1      44.117  29.264  34.328  1.00  0.00     0.074 A 
ATOM     57  C   UNL A   1      44.620  26.646  28.827  1.00  0.00     0.029 A 
ATOM     58  N   UNL A   1      43.802  25.415  30.432  1.00  0.00    -0.354 N 
ATOM     59  N   UNL A   1      43.921  28.287  33.441  1.00  0.00    -0.248 NA
ATOM     60  C   UNL A   1      45.239  28.915  35.189  1.00  0.00     0.031 C 
ATOM     61  C   UNL A   1      45.319  26.946  30.063  1.00  0.00     0.029 A 
ATOM     62  C   UNL A   1      44.737  26.255  31.125  1.00  0.00     0.049 A 
ATOM     63  H   UNL A   1      43.352  24.653  30.862  1.00  0.00     0.167 HD
ATOM     64  C   UNL A   1      44.878  27.295  33.490  1.00  0.00     0.074 A 
ATOM     65  C   UNL A   1      45.663  27.748  34.647  1.00  0.00     0.031 C 
ATOM     66  C   UNL A   1      44.988  26.173  32.651  1.00  0.00     0.037 A 
BRANCH  53  67
ATOM     67  C   UNL A   1      42.483  24.009  27.375  1.00  0.00     0.057 A 
ATOM     68  C   UNL A   1      42.390  22.712  27.914  1.00  0.00     0.134 A 
ATOM     69  C   UNL A   1      42.813  24.010  25.999  1.00  0.00     0.134 A 
ATOM     70  F   UNL A   1      41.989  22.511  29.176  1.00  0.00    -0.206 F 
ATOM     71  C   UNL A   1      42.727  21.550  27.192  1.00  0.00     0.040 A 
ATOM     72  C   UNL A   1      43.234  22.871  25.289  1.00  0.00     0.040 A 
ATOM     73  F   UNL A   1      42.662  25.093  25.230  1.00  0.00    -0.206 F 
ATOM     74  C   UNL A   1      43.207  21.629  25.892  1.00  0.00     0.006 A 
ENDBRANCH  53  67
BRANCH  54  75
ATOM     75  C   UNL A   1      42.755  31.772  35.038  1.00  0.00     0.057 A 
ATOM     76  C   UNL A   1      42.011  31.288  36.172  1.00  0.00     0.134 A 
ATOM     77  C   UNL A   1      43.510  32.929  35.272  1.00  0.00     0.134 A 
ATOM     78  F   UNL A   1      41.304  30.148  36.071  1.00  0.00    -0.206 F 
ATOM     79  C   UNL A   1      42.246  31.750  37.483  1.00  0.00     0.040 A 
ATOM     80  C   UNL A   1      43.722  33.410  36.584  1.00  0.00     0.040 A 
ATOM     81  F   UNL A   1      44.303  33.408  34.304  1.00  0.00    -0.206 F 
ATOM     82  C   UNL A   1      43.145  32.787  37.693  1.00  0.00     0.006 A 
ENDBRANCH  54  75
BRANCH  66  83
ATOM     83  C   UNL A   1      45.333  24.791  33.278  1.00  0.00     0.057 A 
ATOM     84  C   UNL A   1      46.607  24.398  33.746  1.00  0.00     0.134 A 
ATOM     85  C   UNL A   1      44.328  23.839  33.584  1.00  0.00     0.134 A 
ATOM     86  F   UNL A   1      47.681  25.192  33.689  1.00  0.00    -0.206 F 
ATOM     87  C   UNL A   1      46.867  23.167  34.374  1.00  0.00     0.040 A 
ATOM     88  C   UNL A   1      44.561  22.649  34.291  1.00  0.00     0.040 A 
ATOM     89  F   UNL A   1      43.044  24.004  33.246  1.00  0.00    -0.206 F 
ATOM     90  C   UNL A   1      45.839  22.293  34.667  1.00  0.00     0.006 A 
ENDBRANCH  66  83
ENDBRANCH  40  41
ENDBRANCH  33  35
ENDBRANCH  32  33
ENDBRANCH  31  32
ENDBRANCH  30  31
ENDBRANCH  29  30
ENDBRANCH  28  29
ENDBRANCH   1  28
TORSDOF 21
ENDMDL
