MODEL 1
REMARK VINA RESULT:     -10.3      0.000      0.000
REMARK SMILES Cc1n[nH]c(SCC[C@@H]2CCC[C@]2([NH2+]C(C)C)C(=O)OCCOCCOCCOC(=O)c2ccc(-c3c4nc(c(-c5c(F)cccc5F)c5ccc([nH]5)c(-c5c(F)cccc5F)c5nc(c(-c6c(F)cccc6F)c6ccc3[nH]6)C=C5)C=C4)cc2)n1
REMARK SMILES IDX 24 1 23 2 22 3 21 4 20 5 18 6 19 7 13 8 9 9 10 10 11 11
REMARK SMILES IDX 12 12 8 13 7 14 6 15 5 16 1 17 2 18 3 19 86 20 4 21 14 23
REMARK SMILES IDX 15 26 16 27 17 28 25 29 26 30 27 31 28 32 29 33 30 34 31 35
REMARK SMILES IDX 32 36 33 37 85 38 34 39 84 40 35 41 36 42 37 43 78 44 38 45
REMARK SMILES IDX 83 46 77 47 79 48 39 49 82 50 76 51 75 52 40 54 66 55 49 56
REMARK SMILES IDX 65 57 50 58 53 59 64 60 80 61 51 62 52 63 63 65 81 66 54 67
REMARK SMILES IDX 41 68 42 69 47 70 43 71 44 72 46 73 48 74 45 75 67 76 68 77
REMARK SMILES IDX 73 78 69 79 70 80 72 81 74 82 71 83 55 84 56 85 61 86 57 87
REMARK SMILES IDX 58 88 60 89 62 90 59 91
REMARK H PARENT 4 22 14 24 14 25 79 53 53 64
REMARK Flexibility Score: inf
ROOT
ATOM      1  C   UNL A   1      38.802  21.873  26.020  1.00  0.00     0.188 C 
ENDROOT
BRANCH   1   2
ATOM      2  O   UNL A   1      38.398  23.114  26.590  1.00  0.00    -0.376 OA
BRANCH   2   3
ATOM      3  C   UNL A   1      37.760  24.054  25.747  1.00  0.00     0.202 C 
BRANCH   3   4
ATOM      4  C   UNL A   1      36.480  23.525  25.076  1.00  0.00     0.261 C 
BRANCH   4   5
ATOM      5  O   UNL A   1      35.242  24.176  25.431  1.00  0.00    -0.459 OA
BRANCH   5   6
ATOM      6  C   UNL A   1      34.409  24.481  24.397  1.00  0.00     0.368 C 
ATOM      7  O   UNL A   1      34.751  24.419  23.220  1.00  0.00    -0.245 OA
BRANCH   6   8
ATOM      8  C   UNL A   1      33.063  25.152  24.852  1.00  0.00     0.197 C 
ATOM      9  C   UNL A   1      31.790  24.280  25.093  1.00  0.00     0.063 C 
ATOM     10  C   UNL A   1      31.277  23.927  23.698  1.00  0.00     0.011 C 
ATOM     11  C   UNL A   1      31.590  25.148  22.849  1.00  0.00     0.008 C 
ATOM     12  C   UNL A   1      32.541  26.025  23.670  1.00  0.00     0.081 C 
BRANCH   9  13
ATOM     13  C   UNL A   1      31.806  23.084  26.058  1.00  0.00     0.022 C 
BRANCH  13  14
ATOM     14  C   UNL A   1      31.804  21.698  25.402  1.00  0.00     0.079 C 
BRANCH  14  15
ATOM     15  S   UNL A   1      33.459  21.054  24.991  1.00  0.00    -0.087 SA
BRANCH  15  16
ATOM     16  C   UNL A   1      33.293  19.352  25.154  1.00  0.00     0.183 A 
ATOM     17  C   UNL A   1      33.453  15.955  24.249  1.00  0.00     0.092 C 
ATOM     18  C   UNL A   1      33.246  17.273  24.883  1.00  0.00     0.148 A 
ATOM     19  N   UNL A   1      32.690  17.420  26.095  1.00  0.00    -0.158 NA
ATOM     20  N   UNL A   1      33.624  18.442  24.273  1.00  0.00    -0.206 NA
ATOM     21  N   UNL A   1      32.778  18.753  26.261  1.00  0.00    -0.254 N 
ATOM     22  H   UNL A   1      32.506  19.232  27.077  1.00  0.00     0.192 HD
ENDBRANCH  15  16
ENDBRANCH  14  15
ENDBRANCH  13  14
ENDBRANCH   9  13
BRANCH   8  23
ATOM     23  N   UNL A   1      33.285  25.957  26.092  1.00  0.00    -0.330 N 
ATOM     24  H   UNL A   1      34.286  25.949  26.289  1.00  0.00     0.347 HD
ATOM     25  H   UNL A   1      32.707  25.513  26.805  1.00  0.00     0.347 HD
BRANCH  23  26
ATOM     26  C   UNL A   1      32.848  27.364  26.059  1.00  0.00     0.176 C 
ATOM     27  C   UNL A   1      31.651  27.655  26.964  1.00  0.00     0.075 C 
ATOM     28  C   UNL A   1      34.044  28.209  26.500  1.00  0.00     0.075 C 
ENDBRANCH  23  26
ENDBRANCH   8  23
ENDBRANCH   6   8
ENDBRANCH   5   6
ENDBRANCH   4   5
ENDBRANCH   3   4
ENDBRANCH   2   3
ENDBRANCH   1   2
BRANCH   1  29
ATOM     29  C   UNL A   1      40.266  21.430  26.124  1.00  0.00     0.188 C 
BRANCH  29  30
ATOM     30  O   UNL A   1      40.409  20.215  26.859  1.00  0.00    -0.376 OA
BRANCH  30  31
ATOM     31  C   UNL A   1      41.758  19.905  27.201  1.00  0.00     0.202 C 
BRANCH  31  32
ATOM     32  C   UNL A   1      42.305  18.877  26.218  1.00  0.00     0.261 C 
BRANCH  32  33
ATOM     33  O   UNL A   1      42.859  19.486  25.051  1.00  0.00    -0.460 OA
BRANCH  33  34
ATOM     34  C   UNL A   1      44.202  19.466  24.926  1.00  0.00     0.338 C 
ATOM     35  O   UNL A   1      44.930  18.494  24.978  1.00  0.00    -0.246 OA
BRANCH  34  36
ATOM     36  C   UNL A   1      44.657  20.860  24.767  1.00  0.00     0.060 A 
ATOM     37  C   UNL A   1      45.829  21.214  25.433  1.00  0.00     0.016 A 
ATOM     38  C   UNL A   1      43.795  21.825  24.219  1.00  0.00     0.016 A 
ATOM     39  C   UNL A   1      45.972  22.527  25.824  1.00  0.00     0.010 A 
ATOM     40  C   UNL A   1      43.938  23.135  24.606  1.00  0.00     0.010 A 
ATOM     41  C   UNL A   1      44.947  23.427  25.518  1.00  0.00    -0.014 A 
BRANCH  41  42
ATOM     42  C   UNL A   1      44.818  24.589  26.370  1.00  0.00     0.031 A 
ATOM     43  C   UNL A   1      45.949  25.530  26.386  1.00  0.00     0.074 A 
ATOM     44  C   UNL A   1      43.678  24.814  27.051  1.00  0.00     0.049 A 
ATOM     45  N   UNL A   1      46.675  25.871  27.396  1.00  0.00    -0.248 NA
ATOM     46  C   UNL A   1      46.354  26.125  25.107  1.00  0.00     0.031 C 
ATOM     47  C   UNL A   1      42.382  24.143  26.892  1.00  0.00     0.029 A 
ATOM     48  N   UNL A   1      43.412  25.789  27.960  1.00  0.00    -0.354 N 
ATOM     49  C   UNL A   1      47.534  26.852  26.923  1.00  0.00     0.074 A 
ATOM     50  C   UNL A   1      47.376  26.889  25.490  1.00  0.00     0.031 C 
ATOM     51  C   UNL A   1      41.429  24.878  27.506  1.00  0.00     0.029 A 
ATOM     52  C   UNL A   1      42.062  25.995  28.188  1.00  0.00     0.049 A 
ATOM     53  H   UNL A   1      44.117  26.302  28.417  1.00  0.00     0.167 HD
ATOM     54  C   UNL A   1      48.173  27.709  27.761  1.00  0.00     0.037 A 
ATOM     55  C   UNL A   1      41.511  27.067  28.805  1.00  0.00     0.037 A 
ATOM     56  C   UNL A   1      48.200  27.235  29.117  1.00  0.00     0.049 A 
ATOM     57  C   UNL A   1      42.577  27.735  29.596  1.00  0.00     0.074 A 
ATOM     58  C   UNL A   1      48.676  26.090  29.730  1.00  0.00     0.029 A 
ATOM     59  N   UNL A   1      47.382  27.834  30.042  1.00  0.00    -0.354 N 
ATOM     60  N   UNL A   1      43.105  27.251  30.685  1.00  0.00    -0.248 NA
ATOM     61  C   UNL A   1      43.356  28.776  28.938  1.00  0.00     0.031 C 
ATOM     62  C   UNL A   1      47.754  25.817  30.781  1.00  0.00     0.029 A 
ATOM     63  C   UNL A   1      46.787  26.821  30.754  1.00  0.00     0.049 A 
ATOM     64  H   UNL A   1      47.246  28.800  30.170  1.00  0.00     0.167 HD
ATOM     65  C   UNL A   1      44.444  27.610  30.622  1.00  0.00     0.074 A 
ATOM     66  C   UNL A   1      44.515  28.635  29.585  1.00  0.00     0.031 C 
ATOM     67  C   UNL A   1      45.416  26.850  31.206  1.00  0.00     0.037 A 
BRANCH  54  68
ATOM     68  C   UNL A   1      48.507  29.120  27.384  1.00  0.00     0.057 A 
ATOM     69  C   UNL A   1      49.828  29.579  27.489  1.00  0.00     0.134 A 
ATOM     70  C   UNL A   1      47.529  30.113  27.166  1.00  0.00     0.134 A 
ATOM     71  F   UNL A   1      50.834  28.728  27.741  1.00  0.00    -0.206 F 
ATOM     72  C   UNL A   1      50.150  30.939  27.411  1.00  0.00     0.040 A 
ATOM     73  C   UNL A   1      47.845  31.464  27.032  1.00  0.00     0.040 A 
ATOM     74  F   UNL A   1      46.219  29.830  27.171  1.00  0.00    -0.206 F 
ATOM     75  C   UNL A   1      49.158  31.885  27.178  1.00  0.00     0.006 A 
ENDBRANCH  54  68
BRANCH  55  76
ATOM     76  C   UNL A   1      40.203  27.704  28.529  1.00  0.00     0.057 A 
ATOM     77  C   UNL A   1      39.201  27.748  29.507  1.00  0.00     0.134 A 
ATOM     78  C   UNL A   1      39.984  28.500  27.389  1.00  0.00     0.134 A 
ATOM     79  F   UNL A   1      39.336  27.065  30.653  1.00  0.00    -0.206 F 
ATOM     80  C   UNL A   1      38.056  28.543  29.366  1.00  0.00     0.040 A 
ATOM     81  C   UNL A   1      38.838  29.284  27.227  1.00  0.00     0.040 A 
ATOM     82  F   UNL A   1      40.911  28.616  26.429  1.00  0.00    -0.206 F 
ATOM     83  C   UNL A   1      37.874  29.318  28.225  1.00  0.00     0.006 A 
ENDBRANCH  55  76
BRANCH  67  84
ATOM     84  C   UNL A   1      44.993  25.770  32.160  1.00  0.00     0.057 A 
ATOM     85  C   UNL A   1      44.770  25.984  33.528  1.00  0.00     0.134 A 
ATOM     86  C   UNL A   1      44.656  24.510  31.653  1.00  0.00     0.134 A 
ATOM     87  F   UNL A   1      44.955  27.191  34.080  1.00  0.00    -0.206 F 
ATOM     88  C   UNL A   1      44.287  24.972  34.362  1.00  0.00     0.040 A 
ATOM     89  C   UNL A   1      44.139  23.500  32.470  1.00  0.00     0.040 A 
ATOM     90  F   UNL A   1      44.780  24.252  30.341  1.00  0.00    -0.206 F 
ATOM     91  C   UNL A   1      43.967  23.726  33.833  1.00  0.00     0.006 A 
ENDBRANCH  67  84
ENDBRANCH  41  42
ENDBRANCH  34  36
ENDBRANCH  33  34
ENDBRANCH  32  33
ENDBRANCH  31  32
ENDBRANCH  30  31
ENDBRANCH  29  30
ENDBRANCH   1  29
TORSDOF 23
ENDMDL
MODEL 2
REMARK VINA RESULT:     -10.1      1.418      3.788
REMARK SMILES Cc1n[nH]c(SCC[C@@H]2CCC[C@]2([NH2+]C(C)C)C(=O)OCCOCCOCCOC(=O)c2ccc(-c3c4nc(c(-c5c(F)cccc5F)c5ccc([nH]5)c(-c5c(F)cccc5F)c5nc(c(-c6c(F)cccc6F)c6ccc3[nH]6)C=C5)C=C4)cc2)n1
REMARK SMILES IDX 24 1 23 2 22 3 21 4 20 5 18 6 19 7 13 8 9 9 10 10 11 11
REMARK SMILES IDX 12 12 8 13 7 14 6 15 5 16 1 17 2 18 3 19 86 20 4 21 14 23
REMARK SMILES IDX 15 26 16 27 17 28 25 29 26 30 27 31 28 32 29 33 30 34 31 35
REMARK SMILES IDX 32 36 33 37 85 38 34 39 84 40 35 41 36 42 37 43 78 44 38 45
REMARK SMILES IDX 83 46 77 47 79 48 39 49 82 50 76 51 75 52 40 54 66 55 49 56
REMARK SMILES IDX 65 57 50 58 53 59 64 60 80 61 51 62 52 63 63 65 81 66 54 67
REMARK SMILES IDX 41 68 42 69 47 70 43 71 44 72 46 73 48 74 45 75 67 76 68 77
REMARK SMILES IDX 73 78 69 79 70 80 72 81 74 82 71 83 55 84 56 85 61 86 57 87
REMARK SMILES IDX 58 88 60 89 62 90 59 91
REMARK H PARENT 4 22 14 24 14 25 79 53 53 64
REMARK Flexibility Score: inf
ROOT
ATOM      1  C   UNL A   1      38.661  22.175  26.354  1.00  0.00     0.188 C 
ENDROOT
BRANCH   1   2
ATOM      2  O   UNL A   1      38.332  23.446  25.802  1.00  0.00    -0.376 OA
BRANCH   2   3
ATOM      3  C   UNL A   1      36.989  23.678  25.424  1.00  0.00     0.202 C 
BRANCH   3   4
ATOM      4  C   UNL A   1      36.261  22.427  24.902  1.00  0.00     0.261 C 
BRANCH   4   5
ATOM      5  O   UNL A   1      35.250  21.856  25.760  1.00  0.00    -0.459 OA
BRANCH   5   6
ATOM      6  C   UNL A   1      34.053  22.506  25.789  1.00  0.00     0.368 C 
ATOM      7  O   UNL A   1      33.787  23.382  26.607  1.00  0.00    -0.245 OA
BRANCH   6   8
ATOM      8  C   UNL A   1      32.968  21.867  24.851  1.00  0.00     0.197 C 
ATOM      9  C   UNL A   1      32.426  22.658  23.619  1.00  0.00     0.063 C 
ATOM     10  C   UNL A   1      31.475  23.702  24.200  1.00  0.00     0.011 C 
ATOM     11  C   UNL A   1      30.833  23.019  25.397  1.00  0.00     0.008 C 
ATOM     12  C   UNL A   1      31.644  21.746  25.665  1.00  0.00     0.081 C 
BRANCH   9  13
ATOM     13  C   UNL A   1      33.373  23.225  22.548  1.00  0.00     0.022 C 
BRANCH  13  14
ATOM     14  C   UNL A   1      32.916  24.524  21.875  1.00  0.00     0.079 C 
BRANCH  14  15
ATOM     15  S   UNL A   1      33.616  26.041  22.605  1.00  0.00    -0.087 SA
BRANCH  15  16
ATOM     16  C   UNL A   1      32.285  27.125  22.663  1.00  0.00     0.183 A 
ATOM     17  C   UNL A   1      30.238  29.720  23.873  1.00  0.00     0.092 C 
ATOM     18  C   UNL A   1      30.870  28.591  23.159  1.00  0.00     0.148 A 
ATOM     19  N   UNL A   1      30.322  28.013  22.080  1.00  0.00    -0.158 NA
ATOM     20  N   UNL A   1      32.076  28.066  23.549  1.00  0.00    -0.206 NA
ATOM     21  N   UNL A   1      31.270  27.113  21.757  1.00  0.00    -0.254 N 
ATOM     22  H   UNL A   1      31.235  26.525  20.969  1.00  0.00     0.192 HD
ENDBRANCH  15  16
ENDBRANCH  14  15
ENDBRANCH  13  14
ENDBRANCH   9  13
BRANCH   8  23
ATOM     23  N   UNL A   1      33.443  20.541  24.348  1.00  0.00    -0.330 N 
ATOM     24  H   UNL A   1      34.204  20.236  24.954  1.00  0.00     0.347 HD
ATOM     25  H   UNL A   1      33.710  20.705  23.377  1.00  0.00     0.347 HD
BRANCH  23  26
ATOM     26  C   UNL A   1      32.449  19.454  24.298  1.00  0.00     0.176 C 
ATOM     27  C   UNL A   1      32.293  18.830  22.911  1.00  0.00     0.075 C 
ATOM     28  C   UNL A   1      32.910  18.388  25.293  1.00  0.00     0.075 C 
ENDBRANCH  23  26
ENDBRANCH   8  23
ENDBRANCH   6   8
ENDBRANCH   5   6
ENDBRANCH   4   5
ENDBRANCH   3   4
ENDBRANCH   2   3
ENDBRANCH   1   2
BRANCH   1  29
ATOM     29  C   UNL A   1      40.063  21.593  26.140  1.00  0.00     0.188 C 
BRANCH  29  30
ATOM     30  O   UNL A   1      40.389  20.604  27.117  1.00  0.00    -0.376 OA
BRANCH  30  31
ATOM     31  C   UNL A   1      41.788  20.355  27.239  1.00  0.00     0.202 C 
BRANCH  31  32
ATOM     32  C   UNL A   1      42.161  19.146  26.388  1.00  0.00     0.261 C 
BRANCH  32  33
ATOM     33  O   UNL A   1      42.699  19.522  25.120  1.00  0.00    -0.460 OA
BRANCH  33  34
ATOM     34  C   UNL A   1      44.039  19.461  24.978  1.00  0.00     0.338 C 
ATOM     35  O   UNL A   1      44.736  18.466  25.011  1.00  0.00    -0.246 OA
BRANCH  34  36
ATOM     36  C   UNL A   1      44.536  20.841  24.828  1.00  0.00     0.060 A 
ATOM     37  C   UNL A   1      45.700  21.165  25.521  1.00  0.00     0.016 A 
ATOM     38  C   UNL A   1      43.715  21.829  24.257  1.00  0.00     0.016 A 
ATOM     39  C   UNL A   1      45.871  22.474  25.914  1.00  0.00     0.010 A 
ATOM     40  C   UNL A   1      43.885  23.135  24.645  1.00  0.00     0.010 A 
ATOM     41  C   UNL A   1      44.879  23.402  25.580  1.00  0.00    -0.014 A 
BRANCH  41  42
ATOM     42  C   UNL A   1      44.762  24.569  26.427  1.00  0.00     0.031 A 
ATOM     43  C   UNL A   1      45.900  25.500  26.436  1.00  0.00     0.074 A 
ATOM     44  C   UNL A   1      43.624  24.807  27.109  1.00  0.00     0.049 A 
ATOM     45  N   UNL A   1      46.631  25.840  27.444  1.00  0.00    -0.248 NA
ATOM     46  C   UNL A   1      46.308  26.086  25.153  1.00  0.00     0.031 C 
ATOM     47  C   UNL A   1      42.322  24.146  26.956  1.00  0.00     0.029 A 
ATOM     48  N   UNL A   1      43.369  25.789  28.014  1.00  0.00    -0.354 N 
ATOM     49  C   UNL A   1      47.497  26.811  26.964  1.00  0.00     0.074 A 
ATOM     50  C   UNL A   1      47.337  26.843  25.531  1.00  0.00     0.031 C 
ATOM     51  C   UNL A   1      41.377  24.893  27.568  1.00  0.00     0.029 A 
ATOM     52  C   UNL A   1      42.020  26.008  28.243  1.00  0.00     0.049 A 
ATOM     53  H   UNL A   1      44.079  26.298  28.467  1.00  0.00     0.167 HD
ATOM     54  C   UNL A   1      48.145  27.668  27.796  1.00  0.00     0.037 A 
ATOM     55  C   UNL A   1      41.480  27.087  28.856  1.00  0.00     0.037 A 
ATOM     56  C   UNL A   1      48.171  27.199  29.155  1.00  0.00     0.049 A 
ATOM     57  C   UNL A   1      42.553  27.750  29.642  1.00  0.00     0.074 A 
ATOM     58  C   UNL A   1      48.639  26.054  29.773  1.00  0.00     0.029 A 
ATOM     59  N   UNL A   1      47.359  27.810  30.078  1.00  0.00    -0.354 N 
ATOM     60  N   UNL A   1      43.079  27.267  30.732  1.00  0.00    -0.248 NA
ATOM     61  C   UNL A   1      43.340  28.781  28.977  1.00  0.00     0.031 C 
ATOM     62  C   UNL A   1      47.716  25.794  30.826  1.00  0.00     0.029 A 
ATOM     63  C   UNL A   1      46.757  26.806  30.796  1.00  0.00     0.049 A 
ATOM     64  H   UNL A   1      47.232  28.778  30.202  1.00  0.00     0.167 HD
ATOM     65  C   UNL A   1      44.421  27.614  30.664  1.00  0.00     0.074 A 
ATOM     66  C   UNL A   1      44.499  28.633  29.622  1.00  0.00     0.031 C 
ATOM     67  C   UNL A   1      45.388  26.849  31.251  1.00  0.00     0.037 A 
BRANCH  54  68
ATOM     68  C   UNL A   1      48.491  29.074  27.412  1.00  0.00     0.057 A 
ATOM     69  C   UNL A   1      49.817  29.519  27.504  1.00  0.00     0.134 A 
ATOM     70  C   UNL A   1      47.521  30.075  27.200  1.00  0.00     0.134 A 
ATOM     71  F   UNL A   1      50.816  28.658  27.749  1.00  0.00    -0.206 F 
ATOM     72  C   UNL A   1      50.153  30.876  27.417  1.00  0.00     0.040 A 
ATOM     73  C   UNL A   1      47.850  31.423  27.058  1.00  0.00     0.040 A 
ATOM     74  F   UNL A   1      46.208  29.807  27.217  1.00  0.00    -0.206 F 
ATOM     75  C   UNL A   1      49.168  31.831  27.191  1.00  0.00     0.006 A 
ENDBRANCH  54  68
BRANCH  55  76
ATOM     76  C   UNL A   1      40.177  27.734  28.579  1.00  0.00     0.057 A 
ATOM     77  C   UNL A   1      39.173  27.781  29.554  1.00  0.00     0.134 A 
ATOM     78  C   UNL A   1      39.966  28.535  27.442  1.00  0.00     0.134 A 
ATOM     79  F   UNL A   1      39.300  27.092  30.699  1.00  0.00    -0.206 F 
ATOM     80  C   UNL A   1      38.033  28.584  29.414  1.00  0.00     0.040 A 
ATOM     81  C   UNL A   1      38.826  29.327  27.279  1.00  0.00     0.040 A 
ATOM     82  F   UNL A   1      40.896  28.649  26.484  1.00  0.00    -0.206 F 
ATOM     83  C   UNL A   1      37.859  29.364  28.275  1.00  0.00     0.006 A 
ENDBRANCH  55  76
BRANCH  67  84
ATOM     84  C   UNL A   1      44.957  25.777  32.211  1.00  0.00     0.057 A 
ATOM     85  C   UNL A   1      44.543  24.498  31.813  1.00  0.00     0.134 A 
ATOM     86  C   UNL A   1      45.108  25.995  33.585  1.00  0.00     0.134 A 
ATOM     87  F   UNL A   1      44.479  24.161  30.517  1.00  0.00    -0.206 F 
ATOM     88  C   UNL A   1      44.239  23.500  32.743  1.00  0.00     0.040 A 
ATOM     89  C   UNL A   1      44.841  24.995  34.524  1.00  0.00     0.040 A 
ATOM     90  F   UNL A   1      45.564  27.174  34.038  1.00  0.00    -0.206 F 
ATOM     91  C   UNL A   1      44.391  23.746  34.104  1.00  0.00     0.006 A 
ENDBRANCH  67  84
ENDBRANCH  41  42
ENDBRANCH  34  36
ENDBRANCH  33  34
ENDBRANCH  32  33
ENDBRANCH  31  32
ENDBRANCH  30  31
ENDBRANCH  29  30
ENDBRANCH   1  29
TORSDOF 23
ENDMDL
MODEL 3
REMARK VINA RESULT:      -9.4      2.174      4.045
REMARK SMILES Cc1n[nH]c(SCC[C@@H]2CCC[C@]2([NH2+]C(C)C)C(=O)OCCOCCOCCOC(=O)c2ccc(-c3c4nc(c(-c5c(F)cccc5F)c5ccc([nH]5)c(-c5c(F)cccc5F)c5nc(c(-c6c(F)cccc6F)c6ccc3[nH]6)C=C5)C=C4)cc2)n1
REMARK SMILES IDX 24 1 23 2 22 3 21 4 20 5 18 6 19 7 13 8 9 9 10 10 11 11
REMARK SMILES IDX 12 12 8 13 7 14 6 15 5 16 1 17 2 18 3 19 86 20 4 21 14 23
REMARK SMILES IDX 15 26 16 27 17 28 25 29 26 30 27 31 28 32 29 33 30 34 31 35
REMARK SMILES IDX 32 36 33 37 85 38 34 39 84 40 35 41 36 42 37 43 78 44 38 45
REMARK SMILES IDX 83 46 77 47 79 48 39 49 82 50 76 51 75 52 40 54 66 55 49 56
REMARK SMILES IDX 65 57 50 58 53 59 64 60 80 61 51 62 52 63 63 65 81 66 54 67
REMARK SMILES IDX 41 68 42 69 47 70 43 71 44 72 46 73 48 74 45 75 67 76 68 77
REMARK SMILES IDX 73 78 69 79 70 80 72 81 74 82 71 83 55 84 56 85 61 86 57 87
REMARK SMILES IDX 58 88 60 89 62 90 59 91
REMARK H PARENT 4 22 14 24 14 25 79 53 53 64
REMARK Flexibility Score: inf
ROOT
ATOM      1  C   UNL A   1      37.869  20.233  24.706  1.00  0.00     0.188 C 
ENDROOT
BRANCH   1   2
ATOM      2  O   UNL A   1      36.720  20.722  25.392  1.00  0.00    -0.376 OA
BRANCH   2   3
ATOM      3  C   UNL A   1      35.458  20.192  25.032  1.00  0.00     0.202 C 
BRANCH   3   4
ATOM      4  C   UNL A   1      34.296  21.189  25.182  1.00  0.00     0.261 C 
BRANCH   4   5
ATOM      5  O   UNL A   1      34.365  22.394  24.390  1.00  0.00    -0.459 OA
BRANCH   5   6
ATOM      6  C   UNL A   1      33.931  23.534  24.996  1.00  0.00     0.368 C 
ATOM      7  O   UNL A   1      34.114  23.771  26.186  1.00  0.00    -0.245 OA
BRANCH   6   8
ATOM      8  C   UNL A   1      32.969  24.395  24.100  1.00  0.00     0.197 C 
ATOM      9  C   UNL A   1      32.069  25.497  24.743  1.00  0.00     0.063 C 
ATOM     10  C   UNL A   1      30.936  24.737  25.431  1.00  0.00     0.011 C 
ATOM     11  C   UNL A   1      30.678  23.534  24.539  1.00  0.00     0.008 C 
ATOM     12  C   UNL A   1      31.851  23.453  23.557  1.00  0.00     0.081 C 
BRANCH   9  13
ATOM     13  C   UNL A   1      32.666  26.618  25.610  1.00  0.00     0.022 C 
BRANCH  13  14
ATOM     14  C   UNL A   1      31.826  27.896  25.718  1.00  0.00     0.079 C 
BRANCH  14  15
ATOM     15  S   UNL A   1      32.381  29.258  24.641  1.00  0.00    -0.087 SA
BRANCH  15  16
ATOM     16  C   UNL A   1      31.072  29.486  23.553  1.00  0.00     0.183 A 
ATOM     17  C   UNL A   1      27.748  29.963  22.498  1.00  0.00     0.092 C 
ATOM     18  C   UNL A   1      29.203  29.743  22.638  1.00  0.00     0.148 A 
ATOM     19  N   UNL A   1      30.027  29.627  21.586  1.00  0.00    -0.158 NA
ATOM     20  N   UNL A   1      29.811  29.656  23.864  1.00  0.00    -0.206 NA
ATOM     21  N   UNL A   1      31.219  29.513  22.201  1.00  0.00    -0.254 N 
ATOM     22  H   UNL A   1      32.083  29.457  21.734  1.00  0.00     0.192 HD
ENDBRANCH  15  16
ENDBRANCH  14  15
ENDBRANCH  13  14
ENDBRANCH   9  13
BRANCH   8  23
ATOM     23  N   UNL A   1      33.742  25.047  22.998  1.00  0.00    -0.330 N 
ATOM     24  H   UNL A   1      34.129  24.305  22.414  1.00  0.00     0.347 HD
ATOM     25  H   UNL A   1      34.437  25.627  23.467  1.00  0.00     0.347 HD
BRANCH  23  26
ATOM     26  C   UNL A   1      32.999  25.966  22.119  1.00  0.00     0.176 C 
ATOM     27  C   UNL A   1      33.676  27.325  21.941  1.00  0.00     0.075 C 
ATOM     28  C   UNL A   1      32.872  25.273  20.761  1.00  0.00     0.075 C 
ENDBRANCH  23  26
ENDBRANCH   8  23
ENDBRANCH   6   8
ENDBRANCH   5   6
ENDBRANCH   4   5
ENDBRANCH   3   4
ENDBRANCH   2   3
ENDBRANCH   1   2
BRANCH   1  29
ATOM     29  C   UNL A   1      39.043  19.658  25.505  1.00  0.00     0.188 C 
BRANCH  29  30
ATOM     30  O   UNL A   1      39.840  20.682  26.102  1.00  0.00    -0.376 OA
BRANCH  30  31
ATOM     31  C   UNL A   1      40.811  20.191  27.023  1.00  0.00     0.202 C 
BRANCH  31  32
ATOM     32  C   UNL A   1      41.970  19.570  26.254  1.00  0.00     0.261 C 
BRANCH  32  33
ATOM     33  O   UNL A   1      42.564  20.487  25.335  1.00  0.00    -0.460 OA
BRANCH  33  34
ATOM     34  C   UNL A   1      43.866  20.302  25.037  1.00  0.00     0.338 C 
ATOM     35  O   UNL A   1      44.438  19.243  24.869  1.00  0.00    -0.246 OA
BRANCH  34  36
ATOM     36  C   UNL A   1      44.509  21.629  25.001  1.00  0.00     0.060 A 
ATOM     37  C   UNL A   1      45.518  21.859  25.934  1.00  0.00     0.016 A 
ATOM     38  C   UNL A   1      43.928  22.675  24.264  1.00  0.00     0.016 A 
ATOM     39  C   UNL A   1      45.719  23.155  26.356  1.00  0.00     0.010 A 
ATOM     40  C   UNL A   1      44.129  23.968  24.682  1.00  0.00     0.010 A 
ATOM     41  C   UNL A   1      44.914  24.162  25.813  1.00  0.00    -0.014 A 
BRANCH  41  42
ATOM     42  C   UNL A   1      44.722  25.351  26.615  1.00  0.00     0.031 A 
ATOM     43  C   UNL A   1      45.763  26.387  26.527  1.00  0.00     0.074 A 
ATOM     44  C   UNL A   1      43.600  25.510  27.343  1.00  0.00     0.049 A 
ATOM     45  N   UNL A   1      46.503  26.842  27.480  1.00  0.00    -0.248 NA
ATOM     46  C   UNL A   1      46.051  26.947  25.201  1.00  0.00     0.031 C 
ATOM     47  C   UNL A   1      42.363  24.721  27.284  1.00  0.00     0.029 A 
ATOM     48  N   UNL A   1      43.291  26.504  28.217  1.00  0.00    -0.354 N 
ATOM     49  C   UNL A   1      47.246  27.868  26.916  1.00  0.00     0.074 A 
ATOM     50  C   UNL A   1      47.018  27.816  25.493  1.00  0.00     0.031 C 
ATOM     51  C   UNL A   1      41.378  25.401  27.911  1.00  0.00     0.029 A 
ATOM     52  C   UNL A   1      41.940  26.604  28.504  1.00  0.00     0.049 A 
ATOM     53  H   UNL A   1      43.968  27.101  28.611  1.00  0.00     0.167 HD
ATOM     54  C   UNL A   1      47.845  28.821  27.678  1.00  0.00     0.037 A 
ATOM     55  C   UNL A   1      41.325  27.654  29.098  1.00  0.00     0.037 A 
ATOM     56  C   UNL A   1      47.980  28.422  29.052  1.00  0.00     0.049 A 
ATOM     57  C   UNL A   1      42.363  28.453  29.799  1.00  0.00     0.074 A 
ATOM     58  C   UNL A   1      48.585  27.358  29.693  1.00  0.00     0.029 A 
ATOM     59  N   UNL A   1      47.155  28.995  29.989  1.00  0.00    -0.354 N 
ATOM     60  N   UNL A   1      42.984  28.075  30.881  1.00  0.00    -0.248 NA
ATOM     61  C   UNL A   1      43.013  29.523  29.052  1.00  0.00     0.031 C 
ATOM     62  C   UNL A   1      47.743  27.060  30.802  1.00  0.00     0.029 A 
ATOM     63  C   UNL A   1      46.689  27.973  30.778  1.00  0.00     0.049 A 
ATOM     64  H   UNL A   1      46.940  29.951  30.077  1.00  0.00     0.167 HD
ATOM     65  C   UNL A   1      44.281  28.546  30.731  1.00  0.00     0.074 A 
ATOM     66  C   UNL A   1      44.210  29.517  29.644  1.00  0.00     0.031 C 
ATOM     67  C   UNL A   1      45.344  27.905  31.299  1.00  0.00     0.037 A 
BRANCH  54  68
ATOM     68  C   UNL A   1      48.032  30.234  27.217  1.00  0.00     0.057 A 
ATOM     69  C   UNL A   1      49.301  30.828  27.278  1.00  0.00     0.134 A 
ATOM     70  C   UNL A   1      46.957  31.109  26.956  1.00  0.00     0.134 A 
ATOM     71  F   UNL A   1      50.389  30.098  27.564  1.00  0.00    -0.206 F 
ATOM     72  C   UNL A   1      49.484  32.207  27.118  1.00  0.00     0.040 A 
ATOM     73  C   UNL A   1      47.134  32.476  26.741  1.00  0.00     0.040 A 
ATOM     74  F   UNL A   1      45.682  30.698  26.994  1.00  0.00    -0.206 F 
ATOM     75  C   UNL A   1      48.399  33.034  26.845  1.00  0.00     0.006 A 
ENDBRANCH  54  68
BRANCH  55  76
ATOM     76  C   UNL A   1      39.953  28.159  28.860  1.00  0.00     0.057 A 
ATOM     77  C   UNL A   1      38.991  28.141  29.878  1.00  0.00     0.134 A 
ATOM     78  C   UNL A   1      39.616  28.894  27.709  1.00  0.00     0.134 A 
ATOM     79  F   UNL A   1      39.235  27.510  31.036  1.00  0.00    -0.206 F 
ATOM     80  C   UNL A   1      37.772  28.823  29.764  1.00  0.00     0.040 A 
ATOM     81  C   UNL A   1      38.396  29.564  27.573  1.00  0.00     0.040 A 
ATOM     82  F   UNL A   1      40.489  29.065  26.707  1.00  0.00    -0.206 F 
ATOM     83  C   UNL A   1      37.473  29.541  28.610  1.00  0.00     0.006 A 
ENDBRANCH  55  76
BRANCH  67  84
ATOM     84  C   UNL A   1      45.066  26.844  32.324  1.00  0.00     0.057 A 
ATOM     85  C   UNL A   1      44.782  25.509  32.003  1.00  0.00     0.134 A 
ATOM     86  C   UNL A   1      45.237  27.146  33.680  1.00  0.00     0.134 A 
ATOM     87  F   UNL A   1      44.713  25.101  30.729  1.00  0.00    -0.206 F 
ATOM     88  C   UNL A   1      44.621  24.532  32.990  1.00  0.00     0.040 A 
ATOM     89  C   UNL A   1      45.113  26.172  34.674  1.00  0.00     0.040 A 
ATOM     90  F   UNL A   1      45.575  28.389  34.059  1.00  0.00    -0.206 F 
ATOM     91  C   UNL A   1      44.789  24.862  34.331  1.00  0.00     0.006 A 
ENDBRANCH  67  84
ENDBRANCH  41  42
ENDBRANCH  34  36
ENDBRANCH  33  34
ENDBRANCH  32  33
ENDBRANCH  31  32
ENDBRANCH  30  31
ENDBRANCH  29  30
ENDBRANCH   1  29
TORSDOF 23
ENDMDL
