MODEL 1
REMARK VINA RESULT:     -10.8      0.000      0.000
REMARK SMILES Cc1cc(OC(F)(F)F)cc2c1O[C@H](C(F)(F)F)C(C(=O)OCCOCCOCCOC(=O)c1ccc(-c3c4nc(c(-c5c(F)cccc5F)c5ccc([nH]5)c(-c5c(F)cccc5F)c5nc(c(-c6c(F)cccc6F)c6ccc3[nH]6)C=C5)C=C4)cc1)=C2
REMARK SMILES IDX 26 1 25 2 24 3 23 4 22 5 20 6 21 7 19 8 1 9 2 10 3 11 12 12
REMARK SMILES IDX 4 13 11 14 13 15 10 16 88 17 14 18 5 19 6 20 7 21 8 22 9 23
REMARK SMILES IDX 15 24 16 25 17 26 18 27 27 28 28 29 29 30 30 31 31 32 32 33
REMARK SMILES IDX 33 34 34 35 35 36 87 37 36 38 86 39 37 40 38 41 39 42 80 43
REMARK SMILES IDX 40 44 85 45 79 46 81 47 41 48 84 49 78 50 77 51 42 53 68 54
REMARK SMILES IDX 51 55 67 56 52 57 55 58 66 59 82 60 53 61 54 62 65 64 83 65
REMARK SMILES IDX 56 66 43 67 44 68 49 69 45 70 46 71 48 72 50 73 47 74 69 75
REMARK SMILES IDX 70 76 75 77 71 78 72 79 74 80 76 81 73 82 57 83 58 84 63 85
REMARK SMILES IDX 59 86 60 87 62 88 64 89 61 90
REMARK H PARENT 81 52 55 63
REMARK Flexibility Score: inf
ROOT
ATOM      1  C   UNL A   1      40.167  21.408  26.769  1.00  0.00     0.188 C 
ENDROOT
BRANCH   1   2
ATOM      2  O   UNL A   1      39.333  20.899  25.754  1.00  0.00    -0.376 OA
BRANCH   2   3
ATOM      3  C   UNL A   1      38.021  21.397  25.562  1.00  0.00     0.202 C 
BRANCH   3   4
ATOM      4  C   UNL A   1      37.699  22.798  25.019  1.00  0.00     0.261 C 
BRANCH   4   5
ATOM      5  O   UNL A   1      36.375  23.284  25.255  1.00  0.00    -0.460 OA
BRANCH   5   6
ATOM      6  C   UNL A   1      35.617  23.466  24.145  1.00  0.00     0.338 C 
ATOM      7  O   UNL A   1      35.868  23.070  23.018  1.00  0.00    -0.246 OA
BRANCH   6   8
ATOM      8  C   UNL A   1      34.338  24.101  24.518  1.00  0.00     0.087 C 
ATOM      9  C   UNL A   1      29.560  25.006  26.129  1.00  0.00     0.048 C 
ATOM     10  C   UNL A   1      30.821  25.813  25.973  1.00  0.00    -0.005 A 
ATOM     11  C   UNL A   1      30.868  27.110  26.516  1.00  0.00     0.054 A 
ATOM     12  C   UNL A   1      31.979  25.264  25.401  1.00  0.00     0.131 A 
ATOM     13  C   UNL A   1      32.039  27.866  26.461  1.00  0.00     0.130 A 
ATOM     14  C   UNL A   1      33.165  26.000  25.378  1.00  0.00     0.021 A 
ATOM     15  O   UNL A   1      31.877  24.001  24.891  1.00  0.00    -0.475 OA
ATOM     16  C   UNL A   1      33.180  27.308  25.878  1.00  0.00     0.058 A 
ATOM     17  C   UNL A   1      34.395  25.378  24.917  1.00  0.00     0.027 C 
ATOM     18  C   UNL A   1      33.065  23.305  24.435  1.00  0.00     0.316 C 
BRANCH  13  19
ATOM     19  O   UNL A   1      32.210  29.131  26.947  1.00  0.00    -0.406 OA
BRANCH  19  20
ATOM     20  C   UNL A   1      32.000  30.215  26.056  1.00  0.00     0.573 C 
ATOM     21  F   UNL A   1      31.029  29.926  25.163  1.00  0.00    -0.132 F 
ATOM     22  F   UNL A   1      31.674  31.340  26.727  1.00  0.00    -0.132 F 
ATOM     23  F   UNL A   1      33.143  30.447  25.375  1.00  0.00    -0.132 F 
ENDBRANCH  19  20
ENDBRANCH  13  19
BRANCH  18  24
ATOM     24  C   UNL A   1      33.151  21.973  25.191  1.00  0.00     0.430 C 
ATOM     25  F   UNL A   1      33.879  21.063  24.501  1.00  0.00    -0.167 F 
ATOM     26  F   UNL A   1      33.750  22.114  26.396  1.00  0.00    -0.167 F 
ATOM     27  F   UNL A   1      31.929  21.437  25.407  1.00  0.00    -0.167 F 
ENDBRANCH  18  24
ENDBRANCH   6   8
ENDBRANCH   5   6
ENDBRANCH   4   5
ENDBRANCH   3   4
ENDBRANCH   2   3
ENDBRANCH   1   2
BRANCH   1  28
ATOM     28  C   UNL A   1      41.264  20.516  27.387  1.00  0.00     0.188 C 
BRANCH  28  29
ATOM     29  O   UNL A   1      42.046  19.677  26.568  1.00  0.00    -0.376 OA
BRANCH  29  30
ATOM     30  C   UNL A   1      43.051  20.244  25.743  1.00  0.00     0.202 C 
BRANCH  30  31
ATOM     31  C   UNL A   1      43.624  21.659  25.952  1.00  0.00     0.261 C 
BRANCH  31  32
ATOM     32  O   UNL A   1      42.947  22.731  25.285  1.00  0.00    -0.460 OA
BRANCH  32  33
ATOM     33  C   UNL A   1      43.633  23.901  25.209  1.00  0.00     0.338 C 
ATOM     34  O   UNL A   1      44.547  24.181  24.458  1.00  0.00    -0.246 OA
BRANCH  33  35
ATOM     35  C   UNL A   1      42.976  24.892  26.081  1.00  0.00     0.060 A 
ATOM     36  C   UNL A   1      43.438  26.217  26.080  1.00  0.00     0.016 A 
ATOM     37  C   UNL A   1      41.935  24.502  26.923  1.00  0.00     0.016 A 
ATOM     38  C   UNL A   1      42.847  27.165  26.913  1.00  0.00     0.010 A 
ATOM     39  C   UNL A   1      41.377  25.442  27.793  1.00  0.00     0.010 A 
ATOM     40  C   UNL A   1      41.845  26.768  27.806  1.00  0.00    -0.014 A 
BRANCH  40  41
ATOM     41  C   UNL A   1      41.460  27.668  28.917  1.00  0.00     0.031 A 
ATOM     42  C   UNL A   1      42.235  27.567  30.201  1.00  0.00     0.074 A 
ATOM     43  C   UNL A   1      40.453  28.548  28.799  1.00  0.00     0.049 A 
ATOM     44  N   UNL A   1      42.049  28.185  31.337  1.00  0.00    -0.248 NA
ATOM     45  C   UNL A   1      43.377  26.637  30.196  1.00  0.00     0.031 C 
ATOM     46  C   UNL A   1      39.668  28.785  27.590  1.00  0.00     0.029 A 
ATOM     47  N   UNL A   1      39.913  29.402  29.727  1.00  0.00    -0.354 N 
ATOM     48  C   UNL A   1      43.052  27.725  32.180  1.00  0.00     0.074 A 
ATOM     49  C   UNL A   1      43.821  26.752  31.437  1.00  0.00     0.031 C 
ATOM     50  C   UNL A   1      38.731  29.712  27.858  1.00  0.00     0.029 A 
ATOM     51  C   UNL A   1      38.828  30.103  29.263  1.00  0.00     0.049 A 
ATOM     52  H   UNL A   1      40.270  29.501  30.639  1.00  0.00     0.167 HD
ATOM     53  C   UNL A   1      43.314  28.082  33.460  1.00  0.00     0.037 A 
ATOM     54  C   UNL A   1      37.998  30.941  29.914  1.00  0.00     0.037 A 
ATOM     55  C   UNL A   1      42.519  29.013  34.215  1.00  0.00     0.049 A 
ATOM     56  C   UNL A   1      38.225  31.217  31.381  1.00  0.00     0.074 A 
ATOM     57  C   UNL A   1      42.684  29.429  35.524  1.00  0.00     0.029 A 
ATOM     58  N   UNL A   1      41.389  29.656  33.731  1.00  0.00    -0.354 N 
ATOM     59  N   UNL A   1      39.183  30.792  32.169  1.00  0.00    -0.248 NA
ATOM     60  C   UNL A   1      37.246  32.089  32.046  1.00  0.00     0.031 C 
ATOM     61  C   UNL A   1      41.621  30.278  35.850  1.00  0.00     0.029 A 
ATOM     62  C   UNL A   1      40.829  30.443  34.724  1.00  0.00     0.049 A 
ATOM     63  H   UNL A   1      41.037  29.566  32.816  1.00  0.00     0.167 HD
ATOM     64  C   UNL A   1      38.945  31.375  33.410  1.00  0.00     0.074 A 
ATOM     65  C   UNL A   1      37.757  32.190  33.264  1.00  0.00     0.031 C 
ATOM     66  C   UNL A   1      39.646  31.251  34.564  1.00  0.00     0.037 A 
BRANCH  53  67
ATOM     67  C   UNL A   1      44.482  27.414  34.124  1.00  0.00     0.057 A 
ATOM     68  C   UNL A   1      44.348  26.142  34.696  1.00  0.00     0.134 A 
ATOM     69  C   UNL A   1      45.748  28.015  34.177  1.00  0.00     0.134 A 
ATOM     70  F   UNL A   1      43.165  25.510  34.680  1.00  0.00    -0.206 F 
ATOM     71  C   UNL A   1      45.430  25.490  35.287  1.00  0.00     0.040 A 
ATOM     72  C   UNL A   1      46.845  27.360  34.738  1.00  0.00     0.040 A 
ATOM     73  F   UNL A   1      45.949  29.223  33.630  1.00  0.00    -0.206 F 
ATOM     74  C   UNL A   1      46.686  26.094  35.299  1.00  0.00     0.006 A 
ENDBRANCH  53  67
BRANCH  54  75
ATOM     75  C   UNL A   1      36.856  31.574  29.205  1.00  0.00     0.057 A 
ATOM     76  C   UNL A   1      36.931  32.885  28.720  1.00  0.00     0.134 A 
ATOM     77  C   UNL A   1      35.682  30.858  28.947  1.00  0.00     0.134 A 
ATOM     78  F   UNL A   1      38.031  33.624  28.928  1.00  0.00    -0.206 F 
ATOM     79  C   UNL A   1      35.879  33.462  28.006  1.00  0.00     0.040 A 
ATOM     80  C   UNL A   1      34.633  31.413  28.212  1.00  0.00     0.040 A 
ATOM     81  F   UNL A   1      35.561  29.588  29.361  1.00  0.00    -0.206 F 
ATOM     82  C   UNL A   1      34.729  32.721  27.742  1.00  0.00     0.006 A 
ENDBRANCH  54  75
BRANCH  66  83
ATOM     83  C   UNL A   1      39.177  32.053  35.746  1.00  0.00     0.057 A 
ATOM     84  C   UNL A   1      39.647  33.357  35.952  1.00  0.00     0.134 A 
ATOM     85  C   UNL A   1      38.283  31.535  36.692  1.00  0.00     0.134 A 
ATOM     86  F   UNL A   1      40.513  33.913  35.092  1.00  0.00    -0.206 F 
ATOM     87  C   UNL A   1      39.245  34.115  37.053  1.00  0.00     0.040 A 
ATOM     88  C   UNL A   1      37.849  32.295  37.780  1.00  0.00     0.040 A 
ATOM     89  F   UNL A   1      37.784  30.297  36.551  1.00  0.00    -0.206 F 
ATOM     90  C   UNL A   1      38.335  33.587  37.966  1.00  0.00     0.006 A 
ENDBRANCH  66  83
ENDBRANCH  40  41
ENDBRANCH  33  35
ENDBRANCH  32  33
ENDBRANCH  31  32
ENDBRANCH  30  31
ENDBRANCH  29  30
ENDBRANCH  28  29
ENDBRANCH   1  28
TORSDOF 20
ENDMDL
MODEL 2
REMARK VINA RESULT:     -10.8      1.993      4.456
REMARK SMILES Cc1cc(OC(F)(F)F)cc2c1O[C@H](C(F)(F)F)C(C(=O)OCCOCCOCCOC(=O)c1ccc(-c3c4nc(c(-c5c(F)cccc5F)c5ccc([nH]5)c(-c5c(F)cccc5F)c5nc(c(-c6c(F)cccc6F)c6ccc3[nH]6)C=C5)C=C4)cc1)=C2
REMARK SMILES IDX 26 1 25 2 24 3 23 4 22 5 20 6 21 7 19 8 1 9 2 10 3 11 12 12
REMARK SMILES IDX 4 13 11 14 13 15 10 16 88 17 14 18 5 19 6 20 7 21 8 22 9 23
REMARK SMILES IDX 15 24 16 25 17 26 18 27 27 28 28 29 29 30 30 31 31 32 32 33
REMARK SMILES IDX 33 34 34 35 35 36 87 37 36 38 86 39 37 40 38 41 39 42 80 43
REMARK SMILES IDX 40 44 85 45 79 46 81 47 41 48 84 49 78 50 77 51 42 53 68 54
REMARK SMILES IDX 51 55 67 56 52 57 55 58 66 59 82 60 53 61 54 62 65 64 83 65
REMARK SMILES IDX 56 66 43 67 44 68 49 69 45 70 46 71 48 72 50 73 47 74 69 75
REMARK SMILES IDX 70 76 75 77 71 78 72 79 74 80 76 81 73 82 57 83 58 84 63 85
REMARK SMILES IDX 59 86 60 87 62 88 64 89 61 90
REMARK H PARENT 81 52 55 63
REMARK Flexibility Score: inf
ROOT
ATOM      1  C   UNL A   1      38.470  20.165  25.317  1.00  0.00     0.188 C 
ENDROOT
BRANCH   1   2
ATOM      2  O   UNL A   1      37.469  21.155  25.360  1.00  0.00    -0.376 OA
BRANCH   2   3
ATOM      3  C   UNL A   1      37.796  22.530  25.440  1.00  0.00     0.202 C 
BRANCH   3   4
ATOM      4  C   UNL A   1      36.898  23.597  26.085  1.00  0.00     0.261 C 
BRANCH   4   5
ATOM      5  O   UNL A   1      35.647  23.143  26.611  1.00  0.00    -0.460 OA
BRANCH   5   6
ATOM      6  C   UNL A   1      34.546  23.694  26.043  1.00  0.00     0.338 C 
ATOM      7  O   UNL A   1      34.230  24.873  26.055  1.00  0.00    -0.246 OA
BRANCH   6   8
ATOM      8  C   UNL A   1      33.831  22.670  25.256  1.00  0.00     0.087 C 
ATOM      9  C   UNL A   1      31.796  19.879  21.474  1.00  0.00     0.048 C 
ATOM     10  C   UNL A   1      32.187  19.638  22.907  1.00  0.00    -0.005 A 
ATOM     11  C   UNL A   1      32.185  18.319  23.398  1.00  0.00     0.054 A 
ATOM     12  C   UNL A   1      32.656  20.677  23.725  1.00  0.00     0.131 A 
ATOM     13  C   UNL A   1      32.610  18.040  24.696  1.00  0.00     0.130 A 
ATOM     14  C   UNL A   1      33.120  20.398  25.012  1.00  0.00     0.021 A 
ATOM     15  O   UNL A   1      32.637  21.936  23.196  1.00  0.00    -0.475 OA
ATOM     16  C   UNL A   1      33.065  19.088  25.502  1.00  0.00     0.058 A 
ATOM     17  C   UNL A   1      33.738  21.450  25.802  1.00  0.00     0.027 C 
ATOM     18  C   UNL A   1      33.256  23.033  23.916  1.00  0.00     0.316 C 
BRANCH  13  19
ATOM     19  O   UNL A   1      32.653  16.809  25.287  1.00  0.00    -0.406 OA
BRANCH  19  20
ATOM     20  C   UNL A   1      33.733  15.953  24.951  1.00  0.00     0.573 C 
ATOM     21  F   UNL A   1      33.547  14.717  25.462  1.00  0.00    -0.132 F 
ATOM     22  F   UNL A   1      33.889  15.868  23.613  1.00  0.00    -0.132 F 
ATOM     23  F   UNL A   1      34.870  16.459  25.475  1.00  0.00    -0.132 F 
ENDBRANCH  19  20
ENDBRANCH  13  19
BRANCH  18  24
ATOM     24  C   UNL A   1      34.290  23.682  22.987  1.00  0.00     0.430 C 
ATOM     25  F   UNL A   1      33.993  23.453  21.685  1.00  0.00    -0.167 F 
ATOM     26  F   UNL A   1      34.338  25.025  23.142  1.00  0.00    -0.167 F 
ATOM     27  F   UNL A   1      35.536  23.205  23.209  1.00  0.00    -0.167 F 
ENDBRANCH  18  24
ENDBRANCH   6   8
ENDBRANCH   5   6
ENDBRANCH   4   5
ENDBRANCH   3   4
ENDBRANCH   2   3
ENDBRANCH   1   2
BRANCH   1  28
ATOM     28  C   UNL A   1      39.812  20.391  26.044  1.00  0.00     0.188 C 
BRANCH  28  29
ATOM     29  O   UNL A   1      40.966  19.683  25.649  1.00  0.00    -0.376 OA
BRANCH  29  30
ATOM     30  C   UNL A   1      42.220  20.015  26.224  1.00  0.00     0.202 C 
BRANCH  30  31
ATOM     31  C   UNL A   1      43.149  21.110  25.665  1.00  0.00     0.261 C 
BRANCH  31  32
ATOM     32  O   UNL A   1      42.517  22.299  25.175  1.00  0.00    -0.460 OA
BRANCH  32  33
ATOM     33  C   UNL A   1      43.318  23.393  25.085  1.00  0.00     0.338 C 
ATOM     34  O   UNL A   1      44.265  23.564  24.342  1.00  0.00    -0.246 OA
BRANCH  33  35
ATOM     35  C   UNL A   1      42.751  24.464  25.927  1.00  0.00     0.060 A 
ATOM     36  C   UNL A   1      43.390  25.712  25.966  1.00  0.00     0.016 A 
ATOM     37  C   UNL A   1      41.618  24.219  26.701  1.00  0.00     0.016 A 
ATOM     38  C   UNL A   1      42.887  26.731  26.773  1.00  0.00     0.010 A 
ATOM     39  C   UNL A   1      41.143  25.225  27.546  1.00  0.00     0.010 A 
ATOM     40  C   UNL A   1      41.788  26.475  27.600  1.00  0.00    -0.014 A 
BRANCH  40  41
ATOM     41  C   UNL A   1      41.464  27.416  28.695  1.00  0.00     0.031 A 
ATOM     42  C   UNL A   1      42.279  27.333  29.955  1.00  0.00     0.074 A 
ATOM     43  C   UNL A   1      40.476  28.319  28.584  1.00  0.00     0.049 A 
ATOM     44  N   UNL A   1      42.148  27.989  31.078  1.00  0.00    -0.248 NA
ATOM     45  C   UNL A   1      43.396  26.374  29.940  1.00  0.00     0.031 C 
ATOM     46  C   UNL A   1      39.656  28.541  27.395  1.00  0.00     0.029 A 
ATOM     47  N   UNL A   1      39.990  29.214  29.504  1.00  0.00    -0.354 N 
ATOM     48  C   UNL A   1      43.167  27.528  31.900  1.00  0.00     0.074 A 
ATOM     49  C   UNL A   1      43.885  26.514  31.162  1.00  0.00     0.031 C 
ATOM     50  C   UNL A   1      38.752  29.499  27.666  1.00  0.00     0.029 A 
ATOM     51  C   UNL A   1      38.907  29.929  29.054  1.00  0.00     0.049 A 
ATOM     52  H   UNL A   1      40.380  29.331  30.400  1.00  0.00     0.167 HD
ATOM     53  C   UNL A   1      43.481  27.917  33.159  1.00  0.00     0.037 A 
ATOM     54  C   UNL A   1      38.121  30.807  29.707  1.00  0.00     0.037 A 
ATOM     55  C   UNL A   1      42.736  28.890  33.911  1.00  0.00     0.049 A 
ATOM     56  C   UNL A   1      38.405  31.120  31.156  1.00  0.00     0.074 A 
ATOM     57  C   UNL A   1      42.957  29.340  35.200  1.00  0.00     0.029 A 
ATOM     58  N   UNL A   1      41.607  29.548  33.446  1.00  0.00    -0.354 N 
ATOM     59  N   UNL A   1      39.379  30.694  31.925  1.00  0.00    -0.248 NA
ATOM     60  C   UNL A   1      37.472  32.037  31.827  1.00  0.00     0.031 C 
ATOM     61  C   UNL A   1      41.927  30.226  35.536  1.00  0.00     0.029 A 
ATOM     62  C   UNL A   1      41.101  30.378  34.433  1.00  0.00     0.049 A 
ATOM     63  H   UNL A   1      41.222  29.440  32.546  1.00  0.00     0.167 HD
ATOM     64  C   UNL A   1      39.198  31.321  33.154  1.00  0.00     0.074 A 
ATOM     65  C   UNL A   1      38.026  32.161  33.024  1.00  0.00     0.031 C 
ATOM     66  C   UNL A   1      39.935  31.212  34.288  1.00  0.00     0.037 A 
BRANCH  53  67
ATOM     67  C   UNL A   1      44.654  27.238  33.804  1.00  0.00     0.057 A 
ATOM     68  C   UNL A   1      44.489  26.035  34.502  1.00  0.00     0.134 A 
ATOM     69  C   UNL A   1      45.953  27.759  33.714  1.00  0.00     0.134 A 
ATOM     70  F   UNL A   1      43.274  25.481  34.626  1.00  0.00    -0.206 F 
ATOM     71  C   UNL A   1      45.572  25.372  35.079  1.00  0.00     0.040 A 
ATOM     72  C   UNL A   1      47.048  27.089  34.260  1.00  0.00     0.040 A 
ATOM     73  F   UNL A   1      46.183  28.896  33.042  1.00  0.00    -0.206 F 
ATOM     74  C   UNL A   1      46.858  25.892  34.949  1.00  0.00     0.006 A 
ENDBRANCH  53  67
BRANCH  54  75
ATOM     75  C   UNL A   1      36.972  31.449  29.017  1.00  0.00     0.057 A 
ATOM     76  C   UNL A   1      35.768  30.767  28.809  1.00  0.00     0.134 A 
ATOM     77  C   UNL A   1      37.037  32.783  28.600  1.00  0.00     0.134 A 
ATOM     78  F   UNL A   1      35.638  29.488  29.191  1.00  0.00    -0.206 F 
ATOM     79  C   UNL A   1      34.670  31.387  28.210  1.00  0.00     0.040 A 
ATOM     80  C   UNL A   1      35.939  33.424  28.024  1.00  0.00     0.040 A 
ATOM     81  F   UNL A   1      38.154  33.499  28.797  1.00  0.00    -0.206 F 
ATOM     82  C   UNL A   1      34.751  32.723  27.825  1.00  0.00     0.006 A 
ENDBRANCH  54  75
BRANCH  66  83
ATOM     83  C   UNL A   1      39.526  32.061  35.460  1.00  0.00     0.057 A 
ATOM     84  C   UNL A   1      38.598  31.582  36.394  1.00  0.00     0.134 A 
ATOM     85  C   UNL A   1      40.028  33.354  35.656  1.00  0.00     0.134 A 
ATOM     86  F   UNL A   1      38.069  30.356  36.263  1.00  0.00    -0.206 F 
ATOM     87  C   UNL A   1      38.185  32.357  37.479  1.00  0.00     0.040 A 
ATOM     88  C   UNL A   1      39.646  34.126  36.755  1.00  0.00     0.040 A 
ATOM     89  F   UNL A   1      40.929  33.871  34.806  1.00  0.00    -0.206 F 
ATOM     90  C   UNL A   1      38.717  33.630  37.667  1.00  0.00     0.006 A 
ENDBRANCH  66  83
ENDBRANCH  40  41
ENDBRANCH  33  35
ENDBRANCH  32  33
ENDBRANCH  31  32
ENDBRANCH  30  31
ENDBRANCH  29  30
ENDBRANCH  28  29
ENDBRANCH   1  28
TORSDOF 20
ENDMDL
MODEL 3
REMARK VINA RESULT:     -10.6      1.296      6.033
REMARK SMILES Cc1cc(OC(F)(F)F)cc2c1O[C@H](C(F)(F)F)C(C(=O)OCCOCCOCCOC(=O)c1ccc(-c3c4nc(c(-c5c(F)cccc5F)c5ccc([nH]5)c(-c5c(F)cccc5F)c5nc(c(-c6c(F)cccc6F)c6ccc3[nH]6)C=C5)C=C4)cc1)=C2
REMARK SMILES IDX 26 1 25 2 24 3 23 4 22 5 20 6 21 7 19 8 1 9 2 10 3 11 12 12
REMARK SMILES IDX 4 13 11 14 13 15 10 16 88 17 14 18 5 19 6 20 7 21 8 22 9 23
REMARK SMILES IDX 15 24 16 25 17 26 18 27 27 28 28 29 29 30 30 31 31 32 32 33
REMARK SMILES IDX 33 34 34 35 35 36 87 37 36 38 86 39 37 40 38 41 39 42 80 43
REMARK SMILES IDX 40 44 85 45 79 46 81 47 41 48 84 49 78 50 77 51 42 53 68 54
REMARK SMILES IDX 51 55 67 56 52 57 55 58 66 59 82 60 53 61 54 62 65 64 83 65
REMARK SMILES IDX 56 66 43 67 44 68 49 69 45 70 46 71 48 72 50 73 47 74 69 75
REMARK SMILES IDX 70 76 75 77 71 78 72 79 74 80 76 81 73 82 57 83 58 84 63 85
REMARK SMILES IDX 59 86 60 87 62 88 64 89 61 90
REMARK H PARENT 81 52 55 63
REMARK Flexibility Score: inf
ROOT
ATOM      1  C   UNL A   1      40.837  22.205  26.717  1.00  0.00     0.188 C 
ENDROOT
BRANCH   1   2
ATOM      2  O   UNL A   1      39.746  21.462  26.223  1.00  0.00    -0.376 OA
BRANCH   2   3
ATOM      3  C   UNL A   1      38.539  22.094  25.838  1.00  0.00     0.202 C 
BRANCH   3   4
ATOM      4  C   UNL A   1      37.242  21.345  25.495  1.00  0.00     0.261 C 
BRANCH   4   5
ATOM      5  O   UNL A   1      36.294  22.050  24.688  1.00  0.00    -0.460 OA
BRANCH   5   6
ATOM      6  C   UNL A   1      35.244  22.584  25.361  1.00  0.00     0.338 C 
ATOM      7  O   UNL A   1      34.906  22.330  26.505  1.00  0.00    -0.246 OA
BRANCH   6   8
ATOM      8  C   UNL A   1      34.633  23.656  24.551  1.00  0.00     0.087 C 
ATOM      9  C   UNL A   1      31.774  26.325  21.242  1.00  0.00     0.048 C 
ATOM     10  C   UNL A   1      32.558  26.633  22.490  1.00  0.00    -0.005 A 
ATOM     11  C   UNL A   1      32.422  27.903  23.080  1.00  0.00     0.054 A 
ATOM     12  C   UNL A   1      33.329  25.653  23.133  1.00  0.00     0.131 A 
ATOM     13  C   UNL A   1      33.071  28.208  24.276  1.00  0.00     0.130 A 
ATOM     14  C   UNL A   1      33.949  25.940  24.351  1.00  0.00     0.021 A 
ATOM     15  O   UNL A   1      33.425  24.439  22.517  1.00  0.00    -0.475 OA
ATOM     16  C   UNL A   1      33.843  27.224  24.900  1.00  0.00     0.058 A 
ATOM     17  C   UNL A   1      34.625  24.884  25.086  1.00  0.00     0.027 C 
ATOM     18  C   UNL A   1      34.064  23.329  23.198  1.00  0.00     0.316 C 
BRANCH  13  19
ATOM     19  O   UNL A   1      33.020  29.399  24.944  1.00  0.00    -0.406 OA
BRANCH  19  20
ATOM     20  C   UNL A   1      31.809  29.735  25.603  1.00  0.00     0.573 C 
ATOM     21  F   UNL A   1      30.837  30.021  24.712  1.00  0.00    -0.132 F 
ATOM     22  F   UNL A   1      31.400  28.733  26.410  1.00  0.00    -0.132 F 
ATOM     23  F   UNL A   1      32.018  30.830  26.365  1.00  0.00    -0.132 F 
ENDBRANCH  19  20
ENDBRANCH  13  19
BRANCH  18  24
ATOM     24  C   UNL A   1      33.064  22.166  23.245  1.00  0.00     0.430 C 
ATOM     25  F   UNL A   1      32.033  22.438  24.079  1.00  0.00    -0.167 F 
ATOM     26  F   UNL A   1      32.524  21.916  22.030  1.00  0.00    -0.167 F 
ATOM     27  F   UNL A   1      33.643  21.021  23.673  1.00  0.00    -0.167 F 
ENDBRANCH  18  24
ENDBRANCH   6   8
ENDBRANCH   5   6
ENDBRANCH   4   5
ENDBRANCH   3   4
ENDBRANCH   2   3
ENDBRANCH   1   2
BRANCH   1  28
ATOM     28  C   UNL A   1      42.127  21.484  27.160  1.00  0.00     0.188 C 
BRANCH  28  29
ATOM     29  O   UNL A   1      42.862  20.709  26.240  1.00  0.00    -0.376 OA
BRANCH  29  30
ATOM     30  C   UNL A   1      43.702  21.355  25.297  1.00  0.00     0.202 C 
BRANCH  30  31
ATOM     31  C   UNL A   1      44.388  22.709  25.556  1.00  0.00     0.261 C 
BRANCH  31  32
ATOM     32  O   UNL A   1      43.689  23.879  25.112  1.00  0.00    -0.460 OA
BRANCH  32  33
ATOM     33  C   UNL A   1      44.325  25.060  25.329  1.00  0.00     0.338 C 
ATOM     34  O   UNL A   1      45.274  25.516  24.722  1.00  0.00    -0.246 OA
BRANCH  33  35
ATOM     35  C   UNL A   1      43.566  25.828  26.334  1.00  0.00     0.060 A 
ATOM     36  C   UNL A   1      43.934  27.156  26.598  1.00  0.00     0.016 A 
ATOM     37  C   UNL A   1      42.525  25.224  27.035  1.00  0.00     0.016 A 
ATOM     38  C   UNL A   1      43.246  27.893  27.560  1.00  0.00     0.010 A 
ATOM     39  C   UNL A   1      41.869  25.948  28.033  1.00  0.00     0.010 A 
ATOM     40  C   UNL A   1      42.241  27.276  28.313  1.00  0.00    -0.014 A 
BRANCH  40  41
ATOM     41  C   UNL A   1      41.751  27.927  29.548  1.00  0.00     0.031 A 
ATOM     42  C   UNL A   1      40.534  28.802  29.444  1.00  0.00     0.074 A 
ATOM     43  C   UNL A   1      42.363  27.754  30.731  1.00  0.00     0.049 A 
ATOM     44  N   UNL A   1      39.954  29.537  30.356  1.00  0.00    -0.248 NA
ATOM     45  C   UNL A   1      39.884  28.851  28.123  1.00  0.00     0.031 C 
ATOM     46  C   UNL A   1      43.511  26.885  30.975  1.00  0.00     0.029 A 
ATOM     47  N   UNL A   1      42.102  28.322  31.952  1.00  0.00    -0.354 N 
ATOM     48  C   UNL A   1      38.870  30.131  29.724  1.00  0.00     0.074 A 
ATOM     49  C   UNL A   1      38.892  29.699  28.344  1.00  0.00     0.031 C 
ATOM     50  C   UNL A   1      43.869  26.993  32.268  1.00  0.00     0.029 A 
ATOM     51  C   UNL A   1      42.999  27.964  32.928  1.00  0.00     0.049 A 
ATOM     52  H   UNL A   1      41.343  28.929  32.113  1.00  0.00     0.167 HD
ATOM     53  C   UNL A   1      37.935  30.961  30.245  1.00  0.00     0.037 A 
ATOM     54  C   UNL A   1      43.112  28.399  34.198  1.00  0.00     0.037 A 
ATOM     55  C   UNL A   1      37.942  31.429  31.604  1.00  0.00     0.049 A 
ATOM     56  C   UNL A   1      42.142  29.432  34.717  1.00  0.00     0.074 A 
ATOM     57  C   UNL A   1      37.054  32.287  32.227  1.00  0.00     0.029 A 
ATOM     58  N   UNL A   1      38.903  31.095  32.546  1.00  0.00    -0.354 N 
ATOM     59  N   UNL A   1      41.110  29.978  34.121  1.00  0.00    -0.248 NA
ATOM     60  C   UNL A   1      42.362  29.910  36.090  1.00  0.00     0.031 C 
ATOM     61  C   UNL A   1      37.511  32.519  33.530  1.00  0.00     0.029 A 
ATOM     62  C   UNL A   1      38.648  31.753  33.738  1.00  0.00     0.049 A 
ATOM     63  H   UNL A   1      39.656  30.480  32.391  1.00  0.00     0.167 HD
ATOM     64  C   UNL A   1      40.535  30.833  35.057  1.00  0.00     0.074 A 
ATOM     65  C   UNL A   1      41.330  30.724  36.262  1.00  0.00     0.031 C 
ATOM     66  C   UNL A   1      39.447  31.633  34.932  1.00  0.00     0.037 A 
BRANCH  53  67
ATOM     67  C   UNL A   1      36.864  31.445  29.311  1.00  0.00     0.057 A 
ATOM     68  C   UNL A   1      35.813  30.601  28.930  1.00  0.00     0.134 A 
ATOM     69  C   UNL A   1      36.858  32.753  28.806  1.00  0.00     0.134 A 
ATOM     70  F   UNL A   1      35.757  29.338  29.377  1.00  0.00    -0.206 F 
ATOM     71  C   UNL A   1      34.791  31.043  28.090  1.00  0.00     0.040 A 
ATOM     72  C   UNL A   1      35.824  33.215  27.990  1.00  0.00     0.040 A 
ATOM     73  F   UNL A   1      37.824  33.618  29.148  1.00  0.00    -0.206 F 
ATOM     74  C   UNL A   1      34.788  32.357  27.627  1.00  0.00     0.006 A 
ENDBRANCH  53  67
BRANCH  54  75
ATOM     75  C   UNL A   1      44.194  27.884  35.078  1.00  0.00     0.057 A 
ATOM     76  C   UNL A   1      45.433  28.528  35.170  1.00  0.00     0.134 A 
ATOM     77  C   UNL A   1      43.989  26.763  35.890  1.00  0.00     0.134 A 
ATOM     78  F   UNL A   1      45.692  29.611  34.423  1.00  0.00    -0.206 F 
ATOM     79  C   UNL A   1      46.429  28.076  36.037  1.00  0.00     0.040 A 
ATOM     80  C   UNL A   1      44.966  26.316  36.780  1.00  0.00     0.040 A 
ATOM     81  F   UNL A   1      42.812  26.119  35.867  1.00  0.00    -0.206 F 
ATOM     82  C   UNL A   1      46.193  26.972  36.853  1.00  0.00     0.006 A 
ENDBRANCH  54  75
BRANCH  66  83
ATOM     83  C   UNL A   1      39.023  32.414  36.145  1.00  0.00     0.057 A 
ATOM     84  C   UNL A   1      39.482  33.724  36.342  1.00  0.00     0.134 A 
ATOM     85  C   UNL A   1      38.183  31.872  37.126  1.00  0.00     0.134 A 
ATOM     86  F   UNL A   1      40.297  34.303  35.448  1.00  0.00    -0.206 F 
ATOM     87  C   UNL A   1      39.121  34.463  37.470  1.00  0.00     0.040 A 
ATOM     88  C   UNL A   1      37.790  32.613  38.242  1.00  0.00     0.040 A 
ATOM     89  F   UNL A   1      37.697  30.628  36.995  1.00  0.00    -0.206 F 
ATOM     90  C   UNL A   1      38.264  33.911  38.419  1.00  0.00     0.006 A 
ENDBRANCH  66  83
ENDBRANCH  40  41
ENDBRANCH  33  35
ENDBRANCH  32  33
ENDBRANCH  31  32
ENDBRANCH  30  31
ENDBRANCH  29  30
ENDBRANCH  28  29
ENDBRANCH   1  28
TORSDOF 20
ENDMDL
