MODEL 1
REMARK VINA RESULT:     -10.8      0.000      0.000
REMARK SMILES O=C(OCCOCCOCCOC(=O)[C@@H]1CCCN(C(=O)Nc2ccccc2)C1)c1ccc(-c2c3nc(c(-c4c(F)cccc4F)c4ccc([nH]4)c(-c4c(F)cccc4F)c4nc(c(-c5c(F)cccc5F)c5ccc2[nH]5)C=C4)C=C3)cc1
REMARK SMILES IDX 7 1 6 2 5 3 4 4 3 5 2 6 1 7 30 8 31 9 83 10 32 11 82 12
REMARK SMILES IDX 33 13 34 14 35 15 76 16 36 17 81 18 75 19 77 20 37 21 80 22
REMARK SMILES IDX 74 23 73 24 38 26 64 27 47 28 63 29 48 30 51 31 62 32 78 33
REMARK SMILES IDX 49 34 50 35 61 37 79 38 52 39 39 40 40 41 45 42 41 43 42 44
REMARK SMILES IDX 44 45 46 46 43 47 65 48 66 49 71 50 67 51 68 52 70 53 72 54
REMARK SMILES IDX 69 55 53 56 54 57 59 58 55 59 56 60 58 61 60 62 57 63 8 64
REMARK SMILES IDX 9 65 10 66 11 67 12 68 13 69 14 70 15 71 16 72 29 73 17 74
REMARK SMILES IDX 19 75 18 76 20 77 21 78 22 79 23 81 24 82 28 83 25 84 27 85
REMARK SMILES IDX 26 86
REMARK H PARENT 77 25 51 36 22 80
REMARK Flexibility Score: inf
ROOT
ATOM      1  C   UNL A   1      40.909  21.504  26.738  1.00  0.00     0.188 C 
ENDROOT
BRANCH   1   2
ATOM      2  O   UNL A   1      41.781  21.377  25.614  1.00  0.00    -0.376 OA
BRANCH   2   3
ATOM      3  C   UNL A   1      43.170  21.544  25.930  1.00  0.00     0.202 C 
BRANCH   3   4
ATOM      4  C   UNL A   1      44.062  22.184  24.849  1.00  0.00     0.261 C 
BRANCH   4   5
ATOM      5  O   UNL A   1      43.721  23.540  24.515  1.00  0.00    -0.460 OA
BRANCH   5   6
ATOM      6  C   UNL A   1      44.169  24.702  25.047  1.00  0.00     0.338 C 
ATOM      7  O   UNL A   1      45.304  25.074  24.747  1.00  0.00    -0.246 OA
BRANCH   6   8
ATOM      8  C   UNL A   1      43.382  25.566  25.984  1.00  0.00     0.060 A 
ATOM      9  C   UNL A   1      43.713  26.867  26.354  1.00  0.00     0.016 A 
ATOM     10  C   UNL A   1      42.196  25.020  26.516  1.00  0.00     0.016 A 
ATOM     11  C   UNL A   1      42.972  27.565  27.293  1.00  0.00     0.010 A 
ATOM     12  C   UNL A   1      41.424  25.723  27.450  1.00  0.00     0.010 A 
ATOM     13  C   UNL A   1      41.852  26.981  27.877  1.00  0.00    -0.014 A 
BRANCH  13  14
ATOM     14  C   UNL A   1      41.324  27.651  29.077  1.00  0.00     0.031 A 
ATOM     15  C   UNL A   1      42.161  27.601  30.315  1.00  0.00     0.074 A 
ATOM     16  C   UNL A   1      40.256  28.459  28.975  1.00  0.00     0.049 A 
ATOM     17  N   UNL A   1      41.998  28.227  31.448  1.00  0.00    -0.248 NA
ATOM     18  C   UNL A   1      43.357  26.742  30.264  1.00  0.00     0.031 C 
ATOM     19  C   UNL A   1      39.466  28.626  27.761  1.00  0.00     0.029 A 
ATOM     20  N   UNL A   1      39.689  29.329  29.865  1.00  0.00    -0.354 N 
ATOM     21  C   UNL A   1      43.049  27.813  32.253  1.00  0.00     0.074 A 
ATOM     22  C   UNL A   1      43.848  26.889  31.483  1.00  0.00     0.031 C 
ATOM     23  C   UNL A   1      38.551  29.587  27.956  1.00  0.00     0.029 A 
ATOM     24  C   UNL A   1      38.666  30.073  29.325  1.00  0.00     0.049 A 
ATOM     25  H   UNL A   1      39.984  29.413  30.800  1.00  0.00     0.167 HD
ATOM     26  C   UNL A   1      43.301  28.164  33.533  1.00  0.00     0.037 A 
ATOM     27  C   UNL A   1      37.917  31.039  29.889  1.00  0.00     0.037 A 
ATOM     28  C   UNL A   1      42.473  29.076  34.271  1.00  0.00     0.049 A 
ATOM     29  C   UNL A   1      38.193  31.370  31.331  1.00  0.00     0.074 A 
ATOM     30  C   UNL A   1      42.565  29.454  35.597  1.00  0.00     0.029 A 
ATOM     31  N   UNL A   1      41.383  29.752  33.733  1.00  0.00    -0.354 N 
ATOM     32  N   UNL A   1      39.150  30.929  32.114  1.00  0.00    -0.248 NA
ATOM     33  C   UNL A   1      37.271  32.310  31.981  1.00  0.00     0.031 C 
ATOM     34  C   UNL A   1      41.497  30.314  35.875  1.00  0.00     0.029 A 
ATOM     35  C   UNL A   1      40.780  30.528  34.707  1.00  0.00     0.049 A 
ATOM     36  H   UNL A   1      41.085  29.688  32.797  1.00  0.00     0.167 HD
ATOM     37  C   UNL A   1      38.952  31.539  33.342  1.00  0.00     0.074 A 
ATOM     38  C   UNL A   1      37.806  32.414  33.188  1.00  0.00     0.031 C 
ATOM     39  C   UNL A   1      39.639  31.386  34.502  1.00  0.00     0.037 A 
BRANCH  26  40
ATOM     40  C   UNL A   1      44.438  27.461  34.211  1.00  0.00     0.057 A 
ATOM     41  C   UNL A   1      44.288  26.223  34.850  1.00  0.00     0.134 A 
ATOM     42  C   UNL A   1      45.692  28.079  34.290  1.00  0.00     0.134 A 
ATOM     43  F   UNL A   1      43.103  25.593  34.847  1.00  0.00    -0.206 F 
ATOM     44  C   UNL A   1      45.335  25.644  35.573  1.00  0.00     0.040 A 
ATOM     45  C   UNL A   1      46.753  27.499  34.985  1.00  0.00     0.040 A 
ATOM     46  F   UNL A   1      45.900  29.272  33.712  1.00  0.00    -0.206 F 
ATOM     47  C   UNL A   1      46.572  26.283  35.639  1.00  0.00     0.006 A 
ENDBRANCH  26  40
BRANCH  27  48
ATOM     48  C   UNL A   1      36.832  31.727  29.138  1.00  0.00     0.057 A 
ATOM     49  C   UNL A   1      36.956  33.063  28.735  1.00  0.00     0.134 A 
ATOM     50  C   UNL A   1      35.616  31.089  28.857  1.00  0.00     0.134 A 
ATOM     51  F   UNL A   1      38.090  33.738  28.975  1.00  0.00    -0.206 F 
ATOM     52  C   UNL A   1      35.904  33.748  28.122  1.00  0.00     0.040 A 
ATOM     53  C   UNL A   1      34.568  31.750  28.213  1.00  0.00     0.040 A 
ATOM     54  F   UNL A   1      35.425  29.807  29.201  1.00  0.00    -0.206 F 
ATOM     55  C   UNL A   1      34.703  33.091  27.864  1.00  0.00     0.006 A 
ENDBRANCH  27  48
BRANCH  39  56
ATOM     56  C   UNL A   1      39.177  32.205  35.669  1.00  0.00     0.057 A 
ATOM     57  C   UNL A   1      38.312  31.690  36.641  1.00  0.00     0.134 A 
ATOM     58  C   UNL A   1      39.631  33.520  35.832  1.00  0.00     0.134 A 
ATOM     59  F   UNL A   1      37.832  30.441  36.532  1.00  0.00    -0.206 F 
ATOM     60  C   UNL A   1      37.890  32.464  37.721  1.00  0.00     0.040 A 
ATOM     61  C   UNL A   1      39.243  34.292  36.924  1.00  0.00     0.040 A 
ATOM     62  F   UNL A   1      40.469  34.068  34.938  1.00  0.00    -0.206 F 
ATOM     63  C   UNL A   1      38.363  33.767  37.868  1.00  0.00     0.006 A 
ENDBRANCH  39  56
ENDBRANCH  13  14
ENDBRANCH   6   8
ENDBRANCH   5   6
ENDBRANCH   4   5
ENDBRANCH   3   4
ENDBRANCH   2   3
ENDBRANCH   1   2
BRANCH   1  64
ATOM     64  C   UNL A   1      39.607  22.272  26.500  1.00  0.00     0.188 C 
BRANCH  64  65
ATOM     65  O   UNL A   1      38.472  21.570  26.013  1.00  0.00    -0.376 OA
BRANCH  65  66
ATOM     66  C   UNL A   1      37.377  22.314  25.496  1.00  0.00     0.202 C 
BRANCH  66  67
ATOM     67  C   UNL A   1      36.007  21.639  25.349  1.00  0.00     0.261 C 
BRANCH  67  68
ATOM     68  O   UNL A   1      34.897  22.535  25.429  1.00  0.00    -0.463 OA
BRANCH  68  69
ATOM     69  C   UNL A   1      34.200  22.701  24.275  1.00  0.00     0.310 C 
ATOM     70  O   UNL A   1      34.514  23.475  23.381  1.00  0.00    -0.252 OA
BRANCH  69  71
ATOM     71  C   UNL A   1      33.030  21.732  24.158  1.00  0.00     0.119 C 
ATOM     72  C   UNL A   1      32.290  21.975  22.843  1.00  0.00     0.019 C 
ATOM     73  C   UNL A   1      32.026  21.844  25.299  1.00  0.00     0.136 C 
ATOM     74  C   UNL A   1      31.699  23.372  22.849  1.00  0.00     0.023 C 
ATOM     75  N   UNL A   1      31.406  23.169  25.378  1.00  0.00    -0.324 N 
ATOM     76  C   UNL A   1      30.891  23.688  24.105  1.00  0.00     0.121 C 
BRANCH  75  77
ATOM     77  C   UNL A   1      31.301  23.724  26.641  1.00  0.00     0.321 C 
ATOM     78  O   UNL A   1      30.919  23.058  27.612  1.00  0.00    -0.248 OA
ATOM     79  N   UNL A   1      31.728  24.976  26.947  1.00  0.00    -0.308 N 
ATOM     80  H   UNL A   1      31.771  25.145  27.916  1.00  0.00     0.171 HD
BRANCH  79  81
ATOM     81  C   UNL A   1      32.119  26.071  26.181  1.00  0.00     0.042 A 
ATOM     82  C   UNL A   1      33.405  26.057  25.643  1.00  0.00     0.026 A 
ATOM     83  C   UNL A   1      31.252  27.121  25.886  1.00  0.00     0.026 A 
ATOM     84  C   UNL A   1      33.760  26.999  24.678  1.00  0.00     0.002 A 
ATOM     85  C   UNL A   1      31.603  28.054  24.912  1.00  0.00     0.002 A 
ATOM     86  C   UNL A   1      32.848  27.979  24.291  1.00  0.00     0.000 A 
ENDBRANCH  79  81
ENDBRANCH  75  77
ENDBRANCH  69  71
ENDBRANCH  68  69
ENDBRANCH  67  68
ENDBRANCH  66  67
ENDBRANCH  65  66
ENDBRANCH  64  65
ENDBRANCH   1  64
TORSDOF 19
ENDMDL
MODEL 2
REMARK VINA RESULT:     -10.7      2.556      8.024
REMARK SMILES O=C(OCCOCCOCCOC(=O)[C@@H]1CCCN(C(=O)Nc2ccccc2)C1)c1ccc(-c2c3nc(c(-c4c(F)cccc4F)c4ccc([nH]4)c(-c4c(F)cccc4F)c4nc(c(-c5c(F)cccc5F)c5ccc2[nH]5)C=C4)C=C3)cc1
REMARK SMILES IDX 7 1 6 2 5 3 4 4 3 5 2 6 1 7 30 8 31 9 83 10 32 11 82 12
REMARK SMILES IDX 33 13 34 14 35 15 76 16 36 17 81 18 75 19 77 20 37 21 80 22
REMARK SMILES IDX 74 23 73 24 38 26 64 27 47 28 63 29 48 30 51 31 62 32 78 33
REMARK SMILES IDX 49 34 50 35 61 37 79 38 52 39 39 40 40 41 45 42 41 43 42 44
REMARK SMILES IDX 44 45 46 46 43 47 65 48 66 49 71 50 67 51 68 52 70 53 72 54
REMARK SMILES IDX 69 55 53 56 54 57 59 58 55 59 56 60 58 61 60 62 57 63 8 64
REMARK SMILES IDX 9 65 10 66 11 67 12 68 13 69 14 70 15 71 16 72 29 73 17 74
REMARK SMILES IDX 19 75 18 76 20 77 21 78 22 79 23 81 24 82 28 83 25 84 27 85
REMARK SMILES IDX 26 86
REMARK H PARENT 77 25 51 36 22 80
REMARK Flexibility Score: inf
ROOT
ATOM      1  C   UNL A   1      30.424  28.186  23.514  1.00  0.00     0.188 C 
ENDROOT
BRANCH   1   2
ATOM      2  O   UNL A   1      31.020  29.386  24.009  1.00  0.00    -0.376 OA
BRANCH   2   3
ATOM      3  C   UNL A   1      31.457  29.302  25.372  1.00  0.00     0.202 C 
BRANCH   3   4
ATOM      4  C   UNL A   1      32.716  30.106  25.753  1.00  0.00     0.261 C 
BRANCH   4   5
ATOM      5  O   UNL A   1      32.557  30.966  26.894  1.00  0.00    -0.460 OA
BRANCH   5   6
ATOM      6  C   UNL A   1      33.467  31.746  27.524  1.00  0.00     0.338 C 
ATOM      7  O   UNL A   1      33.145  32.903  27.795  1.00  0.00    -0.246 OA
BRANCH   6   8
ATOM      8  C   UNL A   1      34.845  31.302  27.908  1.00  0.00     0.060 A 
ATOM      9  C   UNL A   1      35.220  29.993  28.200  1.00  0.00     0.016 A 
ATOM     10  C   UNL A   1      35.848  32.292  27.955  1.00  0.00     0.016 A 
ATOM     11  C   UNL A   1      36.501  29.684  28.628  1.00  0.00     0.010 A 
ATOM     12  C   UNL A   1      37.152  31.990  28.364  1.00  0.00     0.010 A 
ATOM     13  C   UNL A   1      37.458  30.685  28.754  1.00  0.00    -0.014 A 
BRANCH  13  14
ATOM     14  C   UNL A   1      38.671  30.329  29.511  1.00  0.00     0.031 A 
ATOM     15  C   UNL A   1      38.732  30.746  30.945  1.00  0.00     0.074 A 
ATOM     16  C   UNL A   1      39.557  29.470  28.983  1.00  0.00     0.049 A 
ATOM     17  N   UNL A   1      39.608  30.433  31.859  1.00  0.00    -0.248 NA
ATOM     18  C   UNL A   1      37.645  31.620  31.421  1.00  0.00     0.031 C 
ATOM     19  C   UNL A   1      39.487  28.949  27.623  1.00  0.00     0.029 A 
ATOM     20  N   UNL A   1      40.641  28.837  29.527  1.00  0.00    -0.354 N 
ATOM     21  C   UNL A   1      39.198  31.097  33.006  1.00  0.00     0.074 A 
ATOM     22  C   UNL A   1      37.994  31.825  32.680  1.00  0.00     0.031 C 
ATOM     23  C   UNL A   1      40.448  28.029  27.451  1.00  0.00     0.029 A 
ATOM     24  C   UNL A   1      41.225  27.926  28.679  1.00  0.00     0.049 A 
ATOM     25  H   UNL A   1      40.971  29.017  30.438  1.00  0.00     0.167 HD
ATOM     26  C   UNL A   1      39.797  31.109  34.217  1.00  0.00     0.037 A 
ATOM     27  C   UNL A   1      42.272  27.107  28.889  1.00  0.00     0.037 A 
ATOM     28  C   UNL A   1      41.004  30.382  34.499  1.00  0.00     0.049 A 
ATOM     29  C   UNL A   1      42.947  27.181  30.232  1.00  0.00     0.074 A 
ATOM     30  C   UNL A   1      41.762  30.373  35.654  1.00  0.00     0.029 A 
ATOM     31  N   UNL A   1      41.635  29.534  33.594  1.00  0.00    -0.354 N 
ATOM     32  N   UNL A   1      42.595  27.861  31.299  1.00  0.00    -0.248 NA
ATOM     33  C   UNL A   1      44.179  26.401  30.396  1.00  0.00     0.031 C 
ATOM     34  C   UNL A   1      42.880  29.563  35.428  1.00  0.00     0.029 A 
ATOM     35  C   UNL A   1      42.785  29.013  34.158  1.00  0.00     0.049 A 
ATOM     36  H   UNL A   1      41.309  29.334  32.687  1.00  0.00     0.167 HD
ATOM     37  C   UNL A   1      43.554  27.587  32.261  1.00  0.00     0.074 A 
ATOM     38  C   UNL A   1      44.481  26.646  31.663  1.00  0.00     0.031 C 
ATOM     39  C   UNL A   1      43.675  28.075  33.521  1.00  0.00     0.037 A 
BRANCH  26  40
ATOM     40  C   UNL A   1      39.209  32.022  35.249  1.00  0.00     0.057 A 
ATOM     41  C   UNL A   1      39.533  33.383  35.326  1.00  0.00     0.134 A 
ATOM     42  C   UNL A   1      38.360  31.505  36.234  1.00  0.00     0.134 A 
ATOM     43  F   UNL A   1      40.372  33.936  34.437  1.00  0.00    -0.206 F 
ATOM     44  C   UNL A   1      39.060  34.187  36.367  1.00  0.00     0.040 A 
ATOM     45  C   UNL A   1      37.859  32.303  37.263  1.00  0.00     0.040 A 
ATOM     46  F   UNL A   1      38.021  30.207  36.228  1.00  0.00    -0.206 F 
ATOM     47  C   UNL A   1      38.219  33.646  37.338  1.00  0.00     0.006 A 
ENDBRANCH  26  40
BRANCH  27  48
ATOM     48  C   UNL A   1      42.774  26.191  27.828  1.00  0.00     0.057 A 
ATOM     49  C   UNL A   1      43.700  26.623  26.868  1.00  0.00     0.134 A 
ATOM     50  C   UNL A   1      42.297  24.879  27.705  1.00  0.00     0.134 A 
ATOM     51  F   UNL A   1      44.195  27.868  26.921  1.00  0.00    -0.206 F 
ATOM     52  C   UNL A   1      44.097  25.804  25.809  1.00  0.00     0.040 A 
ATOM     53  C   UNL A   1      42.713  24.037  26.671  1.00  0.00     0.040 A 
ATOM     54  F   UNL A   1      41.419  24.389  28.592  1.00  0.00    -0.206 F 
ATOM     55  C   UNL A   1      43.599  24.507  25.706  1.00  0.00     0.006 A 
ENDBRANCH  27  48
BRANCH  39  56
ATOM     56  C   UNL A   1      44.834  27.569  34.327  1.00  0.00     0.057 A 
ATOM     57  C   UNL A   1      46.068  28.229  34.347  1.00  0.00     0.134 A 
ATOM     58  C   UNL A   1      44.695  26.421  35.117  1.00  0.00     0.134 A 
ATOM     59  F   UNL A   1      46.266  29.326  33.600  1.00  0.00    -0.206 F 
ATOM     60  C   UNL A   1      47.137  27.747  35.102  1.00  0.00     0.040 A 
ATOM     61  C   UNL A   1      45.746  25.949  35.901  1.00  0.00     0.040 A 
ATOM     62  F   UNL A   1      43.534  25.750  35.148  1.00  0.00    -0.206 F 
ATOM     63  C   UNL A   1      46.973  26.607  35.888  1.00  0.00     0.006 A 
ENDBRANCH  39  56
ENDBRANCH  13  14
ENDBRANCH   6   8
ENDBRANCH   5   6
ENDBRANCH   4   5
ENDBRANCH   3   4
ENDBRANCH   2   3
ENDBRANCH   1   2
BRANCH   1  64
ATOM     64  C   UNL A   1      31.350  26.975  23.381  1.00  0.00     0.188 C 
BRANCH  64  65
ATOM     65  O   UNL A   1      31.989  26.729  22.137  1.00  0.00    -0.376 OA
BRANCH  65  66
ATOM     66  C   UNL A   1      32.853  25.607  22.021  1.00  0.00     0.202 C 
BRANCH  66  67
ATOM     67  C   UNL A   1      32.477  24.289  22.710  1.00  0.00     0.261 C 
BRANCH  67  68
ATOM     68  O   UNL A   1      33.273  23.974  23.855  1.00  0.00    -0.463 OA
BRANCH  68  69
ATOM     69  C   UNL A   1      34.568  23.655  23.593  1.00  0.00     0.310 C 
ATOM     70  O   UNL A   1      34.971  23.219  22.524  1.00  0.00    -0.252 OA
BRANCH  69  71
ATOM     71  C   UNL A   1      35.498  24.005  24.749  1.00  0.00     0.119 C 
ATOM     72  C   UNL A   1      36.852  23.329  24.542  1.00  0.00     0.019 C 
ATOM     73  C   UNL A   1      34.961  23.591  26.114  1.00  0.00     0.136 C 
ATOM     74  C   UNL A   1      36.673  21.823  24.568  1.00  0.00     0.023 C 
ATOM     75  N   UNL A   1      34.755  22.145  26.224  1.00  0.00    -0.324 N 
ATOM     76  C   UNL A   1      35.886  21.323  25.778  1.00  0.00     0.121 C 
BRANCH  75  77
ATOM     77  C   UNL A   1      33.572  21.735  26.813  1.00  0.00     0.321 C 
ATOM     78  O   UNL A   1      33.212  22.170  27.915  1.00  0.00    -0.248 OA
ATOM     79  N   UNL A   1      32.658  20.948  26.190  1.00  0.00    -0.308 N 
ATOM     80  H   UNL A   1      31.792  20.915  26.657  1.00  0.00     0.171 HD
BRANCH  79  81
ATOM     81  C   UNL A   1      32.686  20.177  25.031  1.00  0.00     0.042 A 
ATOM     82  C   UNL A   1      32.946  18.814  25.169  1.00  0.00     0.026 A 
ATOM     83  C   UNL A   1      32.395  20.708  23.776  1.00  0.00     0.026 A 
ATOM     84  C   UNL A   1      32.745  17.961  24.084  1.00  0.00     0.002 A 
ATOM     85  C   UNL A   1      32.183  19.853  22.697  1.00  0.00     0.002 A 
ATOM     86  C   UNL A   1      32.334  18.478  22.856  1.00  0.00     0.000 A 
ENDBRANCH  79  81
ENDBRANCH  75  77
ENDBRANCH  69  71
ENDBRANCH  68  69
ENDBRANCH  67  68
ENDBRANCH  66  67
ENDBRANCH  65  66
ENDBRANCH  64  65
ENDBRANCH   1  64
TORSDOF 19
ENDMDL
MODEL 3
REMARK VINA RESULT:     -10.7      2.890      8.209
REMARK SMILES O=C(OCCOCCOCCOC(=O)[C@@H]1CCCN(C(=O)Nc2ccccc2)C1)c1ccc(-c2c3nc(c(-c4c(F)cccc4F)c4ccc([nH]4)c(-c4c(F)cccc4F)c4nc(c(-c5c(F)cccc5F)c5ccc2[nH]5)C=C4)C=C3)cc1
REMARK SMILES IDX 7 1 6 2 5 3 4 4 3 5 2 6 1 7 30 8 31 9 83 10 32 11 82 12
REMARK SMILES IDX 33 13 34 14 35 15 76 16 36 17 81 18 75 19 77 20 37 21 80 22
REMARK SMILES IDX 74 23 73 24 38 26 64 27 47 28 63 29 48 30 51 31 62 32 78 33
REMARK SMILES IDX 49 34 50 35 61 37 79 38 52 39 39 40 40 41 45 42 41 43 42 44
REMARK SMILES IDX 44 45 46 46 43 47 65 48 66 49 71 50 67 51 68 52 70 53 72 54
REMARK SMILES IDX 69 55 53 56 54 57 59 58 55 59 56 60 58 61 60 62 57 63 8 64
REMARK SMILES IDX 9 65 10 66 11 67 12 68 13 69 14 70 15 71 16 72 29 73 17 74
REMARK SMILES IDX 19 75 18 76 20 77 21 78 22 79 23 81 24 82 28 83 25 84 27 85
REMARK SMILES IDX 26 86
REMARK H PARENT 77 25 51 36 22 80
REMARK Flexibility Score: inf
ROOT
ATOM      1  C   UNL A   1      32.629  28.590  26.175  1.00  0.00     0.188 C 
ENDROOT
BRANCH   1   2
ATOM      2  O   UNL A   1      32.457  29.981  25.901  1.00  0.00    -0.376 OA
BRANCH   2   3
ATOM      3  C   UNL A   1      32.575  30.823  27.055  1.00  0.00     0.202 C 
BRANCH   3   4
ATOM      4  C   UNL A   1      31.795  32.152  27.034  1.00  0.00     0.261 C 
BRANCH   4   5
ATOM      5  O   UNL A   1      32.616  33.331  27.099  1.00  0.00    -0.460 OA
BRANCH   5   6
ATOM      6  C   UNL A   1      33.070  34.012  28.177  1.00  0.00     0.338 C 
ATOM      7  O   UNL A   1      32.434  35.000  28.545  1.00  0.00    -0.246 OA
BRANCH   6   8
ATOM      8  C   UNL A   1      34.301  33.653  28.951  1.00  0.00     0.060 A 
ATOM      9  C   UNL A   1      35.558  34.229  28.782  1.00  0.00     0.016 A 
ATOM     10  C   UNL A   1      34.167  32.664  29.947  1.00  0.00     0.016 A 
ATOM     11  C   UNL A   1      36.663  33.777  29.485  1.00  0.00     0.010 A 
ATOM     12  C   UNL A   1      35.271  32.213  30.680  1.00  0.00     0.010 A 
ATOM     13  C   UNL A   1      36.534  32.740  30.403  1.00  0.00    -0.014 A 
BRANCH  13  14
ATOM     14  C   UNL A   1      37.788  32.115  30.855  1.00  0.00     0.031 A 
ATOM     15  C   UNL A   1      38.202  32.352  32.272  1.00  0.00     0.074 A 
ATOM     16  C   UNL A   1      38.388  31.192  30.085  1.00  0.00     0.049 A 
ATOM     17  N   UNL A   1      39.171  31.804  32.952  1.00  0.00    -0.248 NA
ATOM     18  C   UNL A   1      37.402  33.327  33.034  1.00  0.00     0.031 C 
ATOM     19  C   UNL A   1      37.962  30.847  28.735  1.00  0.00     0.029 A 
ATOM     20  N   UNL A   1      39.429  30.340  30.336  1.00  0.00    -0.354 N 
ATOM     21  C   UNL A   1      39.118  32.391  34.208  1.00  0.00     0.074 A 
ATOM     22  C   UNL A   1      38.021  33.330  34.203  1.00  0.00     0.031 C 
ATOM     23  C   UNL A   1      38.692  29.812  28.292  1.00  0.00     0.029 A 
ATOM     24  C   UNL A   1      39.665  29.451  29.314  1.00  0.00     0.049 A 
ATOM     25  H   UNL A   1      39.957  30.362  31.167  1.00  0.00     0.167 HD
ATOM     26  C   UNL A   1      39.935  32.171  35.261  1.00  0.00     0.037 A 
ATOM     27  C   UNL A   1      40.571  28.459  29.233  1.00  0.00     0.037 A 
ATOM     28  C   UNL A   1      41.026  31.237  35.223  1.00  0.00     0.049 A 
ATOM     29  C   UNL A   1      41.498  28.274  30.404  1.00  0.00     0.074 A 
ATOM     30  C   UNL A   1      41.981  30.979  36.186  1.00  0.00     0.029 A 
ATOM     31  N   UNL A   1      41.307  30.409  34.141  1.00  0.00    -0.354 N 
ATOM     32  N   UNL A   1      41.488  28.876  31.571  1.00  0.00    -0.248 NA
ATOM     33  C   UNL A   1      42.581  27.297  30.241  1.00  0.00     0.031 C 
ATOM     34  C   UNL A   1      42.873  30.035  35.666  1.00  0.00     0.029 A 
ATOM     35  C   UNL A   1      42.435  29.653  34.406  1.00  0.00     0.049 A 
ATOM     36  H   UNL A   1      40.780  30.366  33.311  1.00  0.00     0.167 HD
ATOM     37  C   UNL A   1      42.553  28.347  32.283  1.00  0.00     0.074 A 
ATOM     38  C   UNL A   1      43.164  27.347  31.430  1.00  0.00     0.031 C 
ATOM     39  C   UNL A   1      43.003  28.665  33.523  1.00  0.00     0.037 A 
BRANCH  26  40
ATOM     40  C   UNL A   1      39.731  33.043  36.463  1.00  0.00     0.057 A 
ATOM     41  C   UNL A   1      38.816  32.732  37.477  1.00  0.00     0.134 A 
ATOM     42  C   UNL A   1      40.415  34.262  36.563  1.00  0.00     0.134 A 
ATOM     43  F   UNL A   1      38.099  31.599  37.424  1.00  0.00    -0.206 F 
ATOM     44  C   UNL A   1      38.562  33.618  38.527  1.00  0.00     0.040 A 
ATOM     45  C   UNL A   1      40.191  35.143  37.621  1.00  0.00     0.040 A 
ATOM     46  F   UNL A   1      41.295  34.628  35.619  1.00  0.00    -0.206 F 
ATOM     47  C   UNL A   1      39.253  34.827  38.601  1.00  0.00     0.006 A 
ENDBRANCH  26  40
BRANCH  27  48
ATOM     48  C   UNL A   1      40.686  27.602  28.021  1.00  0.00     0.057 A 
ATOM     49  C   UNL A   1      40.071  26.344  27.956  1.00  0.00     0.134 A 
ATOM     50  C   UNL A   1      41.463  27.987  26.920  1.00  0.00     0.134 A 
ATOM     51  F   UNL A   1      39.316  25.908  28.974  1.00  0.00    -0.206 F 
ATOM     52  C   UNL A   1      40.259  25.490  26.866  1.00  0.00     0.040 A 
ATOM     53  C   UNL A   1      41.630  27.158  25.809  1.00  0.00     0.040 A 
ATOM     54  F   UNL A   1      42.073  29.181  26.903  1.00  0.00    -0.206 F 
ATOM     55  C   UNL A   1      41.045  25.896  25.790  1.00  0.00     0.006 A 
ENDBRANCH  27  48
BRANCH  39  56
ATOM     56  C   UNL A   1      44.189  27.896  34.022  1.00  0.00     0.057 A 
ATOM     57  C   UNL A   1      44.053  26.670  34.685  1.00  0.00     0.134 A 
ATOM     58  C   UNL A   1      45.485  28.381  33.808  1.00  0.00     0.134 A 
ATOM     59  F   UNL A   1      42.836  26.162  34.932  1.00  0.00    -0.206 F 
ATOM     60  C   UNL A   1      45.166  25.966  35.144  1.00  0.00     0.040 A 
ATOM     61  C   UNL A   1      46.605  27.670  34.233  1.00  0.00     0.040 A 
ATOM     62  F   UNL A   1      45.681  29.545  33.170  1.00  0.00    -0.206 F 
ATOM     63  C   UNL A   1      46.447  26.464  34.911  1.00  0.00     0.006 A 
ENDBRANCH  39  56
ENDBRANCH  13  14
ENDBRANCH   6   8
ENDBRANCH   5   6
ENDBRANCH   4   5
ENDBRANCH   3   4
ENDBRANCH   2   3
ENDBRANCH   1   2
BRANCH   1  64
ATOM     64  C   UNL A   1      31.492  27.904  26.935  1.00  0.00     0.188 C 
BRANCH  64  65
ATOM     65  O   UNL A   1      31.407  26.486  26.915  1.00  0.00    -0.376 OA
BRANCH  65  66
ATOM     66  C   UNL A   1      30.867  25.848  25.765  1.00  0.00     0.202 C 
BRANCH  66  67
ATOM     67  C   UNL A   1      31.763  25.613  24.542  1.00  0.00     0.261 C 
BRANCH  67  68
ATOM     68  O   UNL A   1      32.328  24.302  24.469  1.00  0.00    -0.463 OA
BRANCH  68  69
ATOM     69  C   UNL A   1      33.462  24.117  25.195  1.00  0.00     0.310 C 
ATOM     70  O   UNL A   1      34.479  24.785  25.074  1.00  0.00    -0.252 OA
BRANCH  69  71
ATOM     71  C   UNL A   1      33.295  23.047  26.268  1.00  0.00     0.119 C 
ATOM     72  C   UNL A   1      34.667  22.628  26.794  1.00  0.00     0.019 C 
ATOM     73  C   UNL A   1      32.568  21.799  25.780  1.00  0.00     0.136 C 
ATOM     74  C   UNL A   1      35.466  21.997  25.669  1.00  0.00     0.023 C 
ATOM     75  N   UNL A   1      33.275  21.126  24.688  1.00  0.00    -0.324 N 
ATOM     76  C   UNL A   1      34.707  20.904  24.921  1.00  0.00     0.121 C 
BRANCH  75  77
ATOM     77  C   UNL A   1      32.499  20.704  23.622  1.00  0.00     0.321 C 
ATOM     78  O   UNL A   1      31.950  21.511  22.862  1.00  0.00    -0.248 OA
ATOM     79  N   UNL A   1      32.388  19.404  23.245  1.00  0.00    -0.308 N 
ATOM     80  H   UNL A   1      31.971  19.292  22.360  1.00  0.00     0.171 HD
BRANCH  79  81
ATOM     81  C   UNL A   1      32.739  18.198  23.843  1.00  0.00     0.042 A 
ATOM     82  C   UNL A   1      33.576  17.342  23.128  1.00  0.00     0.026 A 
ATOM     83  C   UNL A   1      32.343  17.864  25.137  1.00  0.00     0.026 A 
ATOM     84  C   UNL A   1      34.152  16.245  23.770  1.00  0.00     0.002 A 
ATOM     85  C   UNL A   1      32.929  16.776  25.780  1.00  0.00     0.002 A 
ATOM     86  C   UNL A   1      33.851  15.980  25.104  1.00  0.00     0.000 A 
ENDBRANCH  79  81
ENDBRANCH  75  77
ENDBRANCH  69  71
ENDBRANCH  68  69
ENDBRANCH  67  68
ENDBRANCH  66  67
ENDBRANCH  65  66
ENDBRANCH  64  65
ENDBRANCH   1  64
TORSDOF 19
ENDMDL
