MODEL 1
REMARK VINA RESULT:     -11.3      0.000      0.000
REMARK SMILES Cc1ccc(NC(=O)C[N@H+]2CCC[C@@H](C(=O)OCCOCCOCCOC(=O)c3ccc(-c4c5nc(c(-c6c(F)cccc6F)c6ccc([nH]6)c(-c6c(F)cccc6F)c6nc(c(-c7c(F)cccc7F)c7ccc4[nH]7)C=C6)C=C5)cc3)C2)cc1F
REMARK SMILES IDX 21 1 20 2 19 3 18 4 17 5 15 6 16 7 14 8 10 9 11 10 83 11
REMARK SMILES IDX 12 13 13 14 9 15 7 16 6 17 8 19 5 20 1 21 2 22 3 23 85 24
REMARK SMILES IDX 4 25 84 26 86 27 22 28 23 29 24 30 25 31 26 32 27 33 28 34
REMARK SMILES IDX 29 35 30 36 82 37 31 38 81 39 32 40 33 41 34 42 75 43 35 44
REMARK SMILES IDX 80 45 74 46 76 47 36 48 79 49 73 50 72 51 37 53 63 54 46 55
REMARK SMILES IDX 62 56 47 57 50 58 61 59 77 60 48 61 49 62 60 64 78 65 51 66
REMARK SMILES IDX 38 67 39 68 44 69 40 70 41 71 43 72 45 73 42 74 64 75 65 76
REMARK SMILES IDX 70 77 66 78 67 79 69 80 71 81 68 82 52 83 53 84 58 85 54 86
REMARK SMILES IDX 55 87 57 88 59 89 56 90
REMARK H PARENT 10 12 6 18 76 52 50 63
REMARK Flexibility Score: inf
ROOT
ATOM      1  C   UNL A   1      33.566  34.809  29.445  1.00  0.00     0.188 C 
ENDROOT
BRANCH   1   2
ATOM      2  O   UNL A   1      34.721  34.491  28.686  1.00  0.00    -0.376 OA
BRANCH   2   3
ATOM      3  C   UNL A   1      34.686  33.314  27.895  1.00  0.00     0.202 C 
BRANCH   3   4
ATOM      4  C   UNL A   1      33.688  32.197  28.258  1.00  0.00     0.261 C 
BRANCH   4   5
ATOM      5  O   UNL A   1      33.450  31.214  27.241  1.00  0.00    -0.463 OA
BRANCH   5   6
ATOM      6  C   UNL A   1      32.169  31.087  26.769  1.00  0.00     0.314 C 
ATOM      7  O   UNL A   1      31.357  31.993  26.676  1.00  0.00    -0.252 OA
BRANCH   6   8
ATOM      8  C   UNL A   1      31.930  29.639  26.341  1.00  0.00     0.154 C 
ATOM      9  N   UNL A   1      32.874  28.084  24.768  1.00  0.00    -0.326 N 
ATOM     10  C   UNL A   1      32.935  26.992  25.764  1.00  0.00     0.262 C 
ATOM     11  C   UNL A   1      33.115  29.337  25.472  1.00  0.00     0.278 C 
ATOM     12  H   UNL A   1      31.949  28.108  24.339  1.00  0.00     0.348 HD
ATOM     13  C   UNL A   1      31.846  27.162  26.839  1.00  0.00     0.062 C 
ATOM     14  C   UNL A   1      31.789  28.578  27.437  1.00  0.00     0.027 C 
BRANCH   9  15
ATOM     15  C   UNL A   1      33.790  27.869  23.621  1.00  0.00     0.363 C 
BRANCH  15  16
ATOM     16  C   UNL A   1      33.201  27.054  22.449  1.00  0.00     0.279 C 
ATOM     17  N   UNL A   1      31.913  27.176  21.985  1.00  0.00    -0.321 N 
ATOM     18  H   UNL A   1      31.698  26.568  21.241  1.00  0.00     0.170 HD
ATOM     19  O   UNL A   1      33.952  26.313  21.796  1.00  0.00    -0.268 OA
BRANCH  17  20
ATOM     20  C   UNL A   1      30.842  28.004  22.375  1.00  0.00     0.044 A 
ATOM     21  C   UNL A   1      27.217  30.201  23.211  1.00  0.00     0.047 C 
ATOM     22  C   UNL A   1      28.483  29.435  22.984  1.00  0.00    -0.015 A 
ATOM     23  C   UNL A   1      28.608  28.097  23.362  1.00  0.00     0.008 A 
ATOM     24  C   UNL A   1      29.568  30.048  22.354  1.00  0.00     0.128 A 
ATOM     25  C   UNL A   1      29.787  27.395  23.078  1.00  0.00     0.026 A 
ATOM     26  C   UNL A   1      30.735  29.349  22.046  1.00  0.00     0.065 A 
ATOM     27  F   UNL A   1      29.487  31.343  22.013  1.00  0.00    -0.207 F 
ENDBRANCH  17  20
ENDBRANCH  15  16
ENDBRANCH   9  15
ENDBRANCH   6   8
ENDBRANCH   5   6
ENDBRANCH   4   5
ENDBRANCH   3   4
ENDBRANCH   2   3
ENDBRANCH   1   2
BRANCH   1  28
ATOM     28  C   UNL A   1      33.664  35.089  30.962  1.00  0.00     0.188 C 
BRANCH  28  29
ATOM     29  O   UNL A   1      34.741  34.410  31.571  1.00  0.00    -0.376 OA
BRANCH  29  30
ATOM     30  C   UNL A   1      34.682  33.012  31.746  1.00  0.00     0.202 C 
BRANCH  30  31
ATOM     31  C   UNL A   1      35.918  32.111  31.648  1.00  0.00     0.261 C 
BRANCH  31  32
ATOM     32  O   UNL A   1      35.933  31.119  30.634  1.00  0.00    -0.460 OA
BRANCH  32  33
ATOM     33  C   UNL A   1      37.045  31.158  29.882  1.00  0.00     0.338 C 
ATOM     34  O   UNL A   1      37.769  32.140  29.704  1.00  0.00    -0.246 OA
BRANCH  33  35
ATOM     35  C   UNL A   1      37.366  29.879  29.242  1.00  0.00     0.060 A 
ATOM     36  C   UNL A   1      37.445  28.812  30.157  1.00  0.00     0.016 A 
ATOM     37  C   UNL A   1      38.184  29.998  28.129  1.00  0.00     0.016 A 
ATOM     38  C   UNL A   1      38.643  28.159  30.247  1.00  0.00     0.010 A 
ATOM     39  C   UNL A   1      39.378  29.350  28.219  1.00  0.00     0.010 A 
ATOM     40  C   UNL A   1      39.623  28.549  29.342  1.00  0.00    -0.014 A 
BRANCH  40  41
ATOM     41  C   UNL A   1      40.975  28.098  29.469  1.00  0.00     0.031 A 
ATOM     42  C   UNL A   1      41.266  26.813  28.840  1.00  0.00     0.074 A 
ATOM     43  C   UNL A   1      41.862  28.882  30.111  1.00  0.00     0.049 A 
ATOM     44  N   UNL A   1      42.170  26.005  29.249  1.00  0.00    -0.248 NA
ATOM     45  C   UNL A   1      40.437  26.277  27.757  1.00  0.00     0.031 C 
ATOM     46  C   UNL A   1      43.308  28.811  30.054  1.00  0.00     0.029 A 
ATOM     47  N   UNL A   1      41.601  29.856  31.071  1.00  0.00    -0.354 N 
ATOM     48  C   UNL A   1      42.277  25.032  28.284  1.00  0.00     0.074 A 
ATOM     49  C   UNL A   1      41.084  25.142  27.481  1.00  0.00     0.031 C 
ATOM     50  C   UNL A   1      43.819  29.537  31.064  1.00  0.00     0.029 A 
ATOM     51  C   UNL A   1      42.721  29.968  31.914  1.00  0.00     0.049 A 
ATOM     52  H   UNL A   1      40.770  30.379  31.149  1.00  0.00     0.167 HD
ATOM     53  C   UNL A   1      43.467  24.388  28.151  1.00  0.00     0.037 A 
ATOM     54  C   UNL A   1      42.613  29.654  33.245  1.00  0.00     0.037 A 
ATOM     55  C   UNL A   1      44.421  24.885  29.141  1.00  0.00     0.049 A 
ATOM     56  C   UNL A   1      43.215  28.323  33.609  1.00  0.00     0.074 A 
ATOM     57  C   UNL A   1      45.331  25.930  29.126  1.00  0.00     0.029 A 
ATOM     58  N   UNL A   1      44.213  24.582  30.470  1.00  0.00    -0.354 N 
ATOM     59  N   UNL A   1      43.780  27.521  32.753  1.00  0.00    -0.248 NA
ATOM     60  C   UNL A   1      43.139  27.757  34.955  1.00  0.00     0.031 C 
ATOM     61  C   UNL A   1      45.629  26.276  30.477  1.00  0.00     0.029 A 
ATOM     62  C   UNL A   1      44.917  25.427  31.307  1.00  0.00     0.049 A 
ATOM     63  H   UNL A   1      43.634  23.851  30.786  1.00  0.00     0.167 HD
ATOM     64  C   UNL A   1      44.112  26.359  33.382  1.00  0.00     0.074 A 
ATOM     65  C   UNL A   1      43.676  26.543  34.757  1.00  0.00     0.031 C 
ATOM     66  C   UNL A   1      44.708  25.317  32.740  1.00  0.00     0.037 A 
BRANCH  53  67
ATOM     67  C   UNL A   1      43.843  23.582  26.943  1.00  0.00     0.057 A 
ATOM     68  C   UNL A   1      44.637  24.158  25.937  1.00  0.00     0.134 A 
ATOM     69  C   UNL A   1      43.440  22.258  26.693  1.00  0.00     0.134 A 
ATOM     70  F   UNL A   1      45.153  25.388  26.064  1.00  0.00    -0.206 F 
ATOM     71  C   UNL A   1      44.941  23.501  24.741  1.00  0.00     0.040 A 
ATOM     72  C   UNL A   1      43.695  21.606  25.478  1.00  0.00     0.040 A 
ATOM     73  F   UNL A   1      42.826  21.520  27.627  1.00  0.00    -0.206 F 
ATOM     74  C   UNL A   1      44.445  22.232  24.493  1.00  0.00     0.006 A 
ENDBRANCH  53  67
BRANCH  54  75
ATOM     75  C   UNL A   1      41.361  30.179  33.847  1.00  0.00     0.057 A 
ATOM     76  C   UNL A   1      41.351  31.554  34.127  1.00  0.00     0.134 A 
ATOM     77  C   UNL A   1      40.150  29.544  33.555  1.00  0.00     0.134 A 
ATOM     78  F   UNL A   1      42.478  32.182  34.493  1.00  0.00    -0.206 F 
ATOM     79  C   UNL A   1      40.232  32.324  33.847  1.00  0.00     0.040 A 
ATOM     80  C   UNL A   1      39.021  30.305  33.283  1.00  0.00     0.040 A 
ATOM     81  F   UNL A   1      40.092  28.219  33.365  1.00  0.00    -0.206 F 
ATOM     82  C   UNL A   1      39.085  31.698  33.380  1.00  0.00     0.006 A 
ENDBRANCH  54  75
BRANCH  66  83
ATOM     83  C   UNL A   1      45.149  24.099  33.483  1.00  0.00     0.057 A 
ATOM     84  C   UNL A   1      44.257  23.054  33.761  1.00  0.00     0.134 A 
ATOM     85  C   UNL A   1      46.438  23.975  34.028  1.00  0.00     0.134 A 
ATOM     86  F   UNL A   1      42.977  23.112  33.362  1.00  0.00    -0.206 F 
ATOM     87  C   UNL A   1      44.647  21.917  34.467  1.00  0.00     0.040 A 
ATOM     88  C   UNL A   1      46.819  22.874  34.793  1.00  0.00     0.040 A 
ATOM     89  F   UNL A   1      47.389  24.897  33.820  1.00  0.00    -0.206 F 
ATOM     90  C   UNL A   1      45.931  21.828  34.994  1.00  0.00     0.006 A 
ENDBRANCH  66  83
ENDBRANCH  40  41
ENDBRANCH  33  35
ENDBRANCH  32  33
ENDBRANCH  31  32
ENDBRANCH  30  31
ENDBRANCH  29  30
ENDBRANCH  28  29
ENDBRANCH   1  28
TORSDOF 20
ENDMDL
MODEL 2
REMARK VINA RESULT:     -11.2      2.403      3.792
REMARK SMILES Cc1ccc(NC(=O)C[N@H+]2CCC[C@@H](C(=O)OCCOCCOCCOC(=O)c3ccc(-c4c5nc(c(-c6c(F)cccc6F)c6ccc([nH]6)c(-c6c(F)cccc6F)c6nc(c(-c7c(F)cccc7F)c7ccc4[nH]7)C=C6)C=C5)cc3)C2)cc1F
REMARK SMILES IDX 21 1 20 2 19 3 18 4 17 5 15 6 16 7 14 8 10 9 11 10 83 11
REMARK SMILES IDX 12 13 13 14 9 15 7 16 6 17 8 19 5 20 1 21 2 22 3 23 85 24
REMARK SMILES IDX 4 25 84 26 86 27 22 28 23 29 24 30 25 31 26 32 27 33 28 34
REMARK SMILES IDX 29 35 30 36 82 37 31 38 81 39 32 40 33 41 34 42 75 43 35 44
REMARK SMILES IDX 80 45 74 46 76 47 36 48 79 49 73 50 72 51 37 53 63 54 46 55
REMARK SMILES IDX 62 56 47 57 50 58 61 59 77 60 48 61 49 62 60 64 78 65 51 66
REMARK SMILES IDX 38 67 39 68 44 69 40 70 41 71 43 72 45 73 42 74 64 75 65 76
REMARK SMILES IDX 70 77 66 78 67 79 69 80 71 81 68 82 52 83 53 84 58 85 54 86
REMARK SMILES IDX 55 87 57 88 59 89 56 90
REMARK H PARENT 10 12 6 18 76 52 50 63
REMARK Flexibility Score: inf
ROOT
ATOM      1  C   UNL A   1      34.228  32.996  28.257  1.00  0.00     0.188 C 
ENDROOT
BRANCH   1   2
ATOM      2  O   UNL A   1      34.010  31.601  28.389  1.00  0.00    -0.376 OA
BRANCH   2   3
ATOM      3  C   UNL A   1      34.417  30.766  27.315  1.00  0.00     0.202 C 
BRANCH   3   4
ATOM      4  C   UNL A   1      33.385  29.826  26.663  1.00  0.00     0.261 C 
BRANCH   4   5
ATOM      5  O   UNL A   1      33.395  28.468  27.121  1.00  0.00    -0.463 OA
BRANCH   5   6
ATOM      6  C   UNL A   1      32.238  27.745  26.990  1.00  0.00     0.314 C 
ATOM      7  O   UNL A   1      31.270  27.822  27.730  1.00  0.00    -0.252 OA
BRANCH   6   8
ATOM      8  C   UNL A   1      32.334  26.858  25.750  1.00  0.00     0.154 C 
ATOM      9  N   UNL A   1      31.419  24.763  25.001  1.00  0.00    -0.326 N 
ATOM     10  C   UNL A   1      31.066  25.301  23.671  1.00  0.00     0.262 C 
ATOM     11  C   UNL A   1      31.255  25.838  25.971  1.00  0.00     0.278 C 
ATOM     12  H   UNL A   1      32.391  24.452  25.000  1.00  0.00     0.348 HD
ATOM     13  C   UNL A   1      32.002  26.459  23.275  1.00  0.00     0.062 C 
ATOM     14  C   UNL A   1      32.167  27.518  24.377  1.00  0.00     0.027 C 
BRANCH   9  15
ATOM     15  C   UNL A   1      30.657  23.538  25.348  1.00  0.00     0.363 C 
BRANCH  15  16
ATOM     16  C   UNL A   1      30.964  22.940  26.739  1.00  0.00     0.279 C 
ATOM     17  N   UNL A   1      32.190  22.454  27.124  1.00  0.00    -0.321 N 
ATOM     18  H   UNL A   1      32.206  22.094  28.040  1.00  0.00     0.170 HD
ATOM     19  O   UNL A   1      30.093  22.991  27.620  1.00  0.00    -0.268 OA
BRANCH  17  20
ATOM     20  C   UNL A   1      33.428  22.371  26.456  1.00  0.00     0.044 A 
ATOM     21  C   UNL A   1      37.382  21.728  24.835  1.00  0.00     0.047 C 
ATOM     22  C   UNL A   1      35.987  21.940  25.340  1.00  0.00    -0.015 A 
ATOM     23  C   UNL A   1      35.061  20.897  25.391  1.00  0.00     0.008 A 
ATOM     24  C   UNL A   1      35.593  23.198  25.799  1.00  0.00     0.128 A 
ATOM     25  C   UNL A   1      33.785  21.118  25.926  1.00  0.00     0.026 A 
ATOM     26  C   UNL A   1      34.333  23.420  26.355  1.00  0.00     0.065 A 
ATOM     27  F   UNL A   1      36.452  24.226  25.726  1.00  0.00    -0.207 F 
ENDBRANCH  17  20
ENDBRANCH  15  16
ENDBRANCH   9  15
ENDBRANCH   6   8
ENDBRANCH   5   6
ENDBRANCH   4   5
ENDBRANCH   3   4
ENDBRANCH   2   3
ENDBRANCH   1   2
BRANCH   1  28
ATOM     28  C   UNL A   1      34.211  33.923  29.493  1.00  0.00     0.188 C 
BRANCH  28  29
ATOM     29  O   UNL A   1      34.271  33.208  30.708  1.00  0.00    -0.376 OA
BRANCH  29  30
ATOM     30  C   UNL A   1      35.446  33.243  31.487  1.00  0.00     0.202 C 
BRANCH  30  31
ATOM     31  C   UNL A   1      36.494  32.125  31.457  1.00  0.00     0.261 C 
BRANCH  31  32
ATOM     32  O   UNL A   1      36.336  31.097  30.492  1.00  0.00    -0.460 OA
BRANCH  32  33
ATOM     33  C   UNL A   1      37.365  31.026  29.632  1.00  0.00     0.338 C 
ATOM     34  O   UNL A   1      38.134  31.944  29.340  1.00  0.00    -0.246 OA
BRANCH  33  35
ATOM     35  C   UNL A   1      37.527  29.704  29.020  1.00  0.00     0.060 A 
ATOM     36  C   UNL A   1      37.536  28.659  29.964  1.00  0.00     0.016 A 
ATOM     37  C   UNL A   1      38.306  29.709  27.873  1.00  0.00     0.016 A 
ATOM     38  C   UNL A   1      38.665  27.890  30.026  1.00  0.00     0.010 A 
ATOM     39  C   UNL A   1      39.431  28.945  27.935  1.00  0.00     0.010 A 
ATOM     40  C   UNL A   1      39.641  28.153  29.073  1.00  0.00    -0.014 A 
BRANCH  40  41
ATOM     41  C   UNL A   1      40.944  27.569  29.160  1.00  0.00     0.031 A 
ATOM     42  C   UNL A   1      41.032  26.174  28.742  1.00  0.00     0.074 A 
ATOM     43  C   UNL A   1      41.970  28.335  29.577  1.00  0.00     0.049 A 
ATOM     44  N   UNL A   1      41.885  25.340  29.207  1.00  0.00    -0.248 NA
ATOM     45  C   UNL A   1      40.044  25.571  27.844  1.00  0.00     0.031 C 
ATOM     46  C   UNL A   1      43.387  28.082  29.411  1.00  0.00     0.029 A 
ATOM     47  N   UNL A   1      41.914  29.477  30.372  1.00  0.00    -0.354 N 
ATOM     48  C   UNL A   1      41.789  24.217  28.420  1.00  0.00     0.074 A 
ATOM     49  C   UNL A   1      40.536  24.337  27.715  1.00  0.00     0.031 C 
ATOM     50  C   UNL A   1      44.074  28.896  30.232  1.00  0.00     0.029 A 
ATOM     51  C   UNL A   1      43.122  29.590  31.084  1.00  0.00     0.049 A 
ATOM     52  H   UNL A   1      41.155  30.102  30.428  1.00  0.00     0.167 HD
ATOM     53  C   UNL A   1      42.885  23.422  28.301  1.00  0.00     0.037 A 
ATOM     54  C   UNL A   1      43.121  29.513  32.454  1.00  0.00     0.037 A 
ATOM     55  C   UNL A   1      43.984  23.954  29.104  1.00  0.00     0.049 A 
ATOM     56  C   UNL A   1      43.616  28.196  32.991  1.00  0.00     0.074 A 
ATOM     57  C   UNL A   1      44.991  24.866  28.829  1.00  0.00     0.029 A 
ATOM     58  N   UNL A   1      43.885  23.900  30.479  1.00  0.00    -0.354 N 
ATOM     59  N   UNL A   1      44.002  27.203  32.243  1.00  0.00    -0.248 NA
ATOM     60  C   UNL A   1      43.622  27.871  34.417  1.00  0.00     0.031 C 
ATOM     61  C   UNL A   1      45.462  25.390  30.069  1.00  0.00     0.029 A 
ATOM     62  C   UNL A   1      44.757  24.780  31.092  1.00  0.00     0.049 A 
ATOM     63  H   UNL A   1      43.269  23.306  30.965  1.00  0.00     0.167 HD
ATOM     64  C   UNL A   1      44.275  26.128  33.034  1.00  0.00     0.074 A 
ATOM     65  C   UNL A   1      44.006  26.586  34.388  1.00  0.00     0.031 C 
ATOM     66  C   UNL A   1      44.689  24.931  32.535  1.00  0.00     0.037 A 
BRANCH  53  67
ATOM     67  C   UNL A   1      43.046  22.389  27.224  1.00  0.00     0.057 A 
ATOM     68  C   UNL A   1      42.271  21.217  27.257  1.00  0.00     0.134 A 
ATOM     69  C   UNL A   1      43.953  22.469  26.152  1.00  0.00     0.134 A 
ATOM     70  F   UNL A   1      41.317  21.029  28.177  1.00  0.00    -0.206 F 
ATOM     71  C   UNL A   1      42.440  20.171  26.345  1.00  0.00     0.040 A 
ATOM     72  C   UNL A   1      44.167  21.408  25.261  1.00  0.00     0.040 A 
ATOM     73  F   UNL A   1      44.636  23.591  25.889  1.00  0.00    -0.206 F 
ATOM     74  C   UNL A   1      43.411  20.249  25.360  1.00  0.00     0.006 A 
ENDBRANCH  53  67
BRANCH  54  75
ATOM     75  C   UNL A   1      42.000  30.275  33.059  1.00  0.00     0.057 A 
ATOM     76  C   UNL A   1      42.153  31.671  33.076  1.00  0.00     0.134 A 
ATOM     77  C   UNL A   1      40.708  29.743  33.005  1.00  0.00     0.134 A 
ATOM     78  F   UNL A   1      43.369  32.220  33.212  1.00  0.00    -0.206 F 
ATOM     79  C   UNL A   1      41.089  32.502  32.761  1.00  0.00     0.040 A 
ATOM     80  C   UNL A   1      39.635  30.568  32.700  1.00  0.00     0.040 A 
ATOM     81  F   UNL A   1      40.503  28.420  33.073  1.00  0.00    -0.206 F 
ATOM     82  C   UNL A   1      39.842  31.940  32.528  1.00  0.00     0.006 A 
ENDBRANCH  54  75
BRANCH  66  83
ATOM     83  C   UNL A   1      45.075  23.807  33.439  1.00  0.00     0.057 A 
ATOM     84  C   UNL A   1      44.128  22.881  33.893  1.00  0.00     0.134 A 
ATOM     85  C   UNL A   1      46.373  23.672  33.959  1.00  0.00     0.134 A 
ATOM     86  F   UNL A   1      42.840  22.971  33.525  1.00  0.00    -0.206 F 
ATOM     87  C   UNL A   1      44.467  21.834  34.750  1.00  0.00     0.040 A 
ATOM     88  C   UNL A   1      46.709  22.672  34.869  1.00  0.00     0.040 A 
ATOM     89  F   UNL A   1      47.374  24.484  33.590  1.00  0.00    -0.206 F 
ATOM     90  C   UNL A   1      45.761  21.732  35.248  1.00  0.00     0.006 A 
ENDBRANCH  66  83
ENDBRANCH  40  41
ENDBRANCH  33  35
ENDBRANCH  32  33
ENDBRANCH  31  32
ENDBRANCH  30  31
ENDBRANCH  29  30
ENDBRANCH  28  29
ENDBRANCH   1  28
TORSDOF 20
ENDMDL
MODEL 3
REMARK VINA RESULT:     -10.9      2.221      3.451
REMARK SMILES Cc1ccc(NC(=O)C[N@H+]2CCC[C@@H](C(=O)OCCOCCOCCOC(=O)c3ccc(-c4c5nc(c(-c6c(F)cccc6F)c6ccc([nH]6)c(-c6c(F)cccc6F)c6nc(c(-c7c(F)cccc7F)c7ccc4[nH]7)C=C6)C=C5)cc3)C2)cc1F
REMARK SMILES IDX 21 1 20 2 19 3 18 4 17 5 15 6 16 7 14 8 10 9 11 10 83 11
REMARK SMILES IDX 12 13 13 14 9 15 7 16 6 17 8 19 5 20 1 21 2 22 3 23 85 24
REMARK SMILES IDX 4 25 84 26 86 27 22 28 23 29 24 30 25 31 26 32 27 33 28 34
REMARK SMILES IDX 29 35 30 36 82 37 31 38 81 39 32 40 33 41 34 42 75 43 35 44
REMARK SMILES IDX 80 45 74 46 76 47 36 48 79 49 73 50 72 51 37 53 63 54 46 55
REMARK SMILES IDX 62 56 47 57 50 58 61 59 77 60 48 61 49 62 60 64 78 65 51 66
REMARK SMILES IDX 38 67 39 68 44 69 40 70 41 71 43 72 45 73 42 74 64 75 65 76
REMARK SMILES IDX 70 77 66 78 67 79 69 80 71 81 68 82 52 83 53 84 58 85 54 86
REMARK SMILES IDX 55 87 57 88 59 89 56 90
REMARK H PARENT 10 12 6 18 76 52 50 63
REMARK Flexibility Score: inf
ROOT
ATOM      1  C   UNL A   1      33.196  37.036  31.718  1.00  0.00     0.188 C 
ENDROOT
BRANCH   1   2
ATOM      2  O   UNL A   1      32.508  36.609  30.555  1.00  0.00    -0.376 OA
BRANCH   2   3
ATOM      3  C   UNL A   1      33.286  36.141  29.464  1.00  0.00     0.202 C 
BRANCH   3   4
ATOM      4  C   UNL A   1      33.069  34.705  28.949  1.00  0.00     0.261 C 
BRANCH   4   5
ATOM      5  O   UNL A   1      34.054  33.741  29.345  1.00  0.00    -0.463 OA
BRANCH   5   6
ATOM      6  C   UNL A   1      34.868  33.227  28.369  1.00  0.00     0.314 C 
ATOM      7  O   UNL A   1      35.555  33.885  27.604  1.00  0.00    -0.252 OA
BRANCH   6   8
ATOM      8  C   UNL A   1      34.811  31.701  28.415  1.00  0.00     0.154 C 
ATOM      9  N   UNL A   1      33.332  29.964  27.652  1.00  0.00    -0.326 N 
ATOM     10  C   UNL A   1      34.438  29.160  27.089  1.00  0.00     0.262 C 
ATOM     11  C   UNL A   1      33.680  31.370  27.486  1.00  0.00     0.278 C 
ATOM     12  H   UNL A   1      33.224  29.756  28.644  1.00  0.00     0.348 HD
ATOM     13  C   UNL A   1      35.755  29.426  27.843  1.00  0.00     0.062 C 
ATOM     14  C   UNL A   1      36.069  30.921  28.020  1.00  0.00     0.027 C 
BRANCH   9  15
ATOM     15  C   UNL A   1      32.012  29.614  27.072  1.00  0.00     0.363 C 
BRANCH  15  16
ATOM     16  C   UNL A   1      31.586  30.449  25.845  1.00  0.00     0.279 C 
ATOM     17  N   UNL A   1      31.591  29.989  24.550  1.00  0.00    -0.321 N 
ATOM     18  H   UNL A   1      31.305  30.659  23.888  1.00  0.00     0.170 HD
ATOM     19  O   UNL A   1      31.099  31.575  26.026  1.00  0.00    -0.268 OA
BRANCH  17  20
ATOM     20  C   UNL A   1      31.931  28.742  23.990  1.00  0.00     0.044 A 
ATOM     21  C   UNL A   1      32.968  25.199  21.744  1.00  0.00     0.047 C 
ATOM     22  C   UNL A   1      32.657  26.416  22.562  1.00  0.00    -0.015 A 
ATOM     23  C   UNL A   1      33.525  27.508  22.609  1.00  0.00     0.008 A 
ATOM     24  C   UNL A   1      31.462  26.489  23.280  1.00  0.00     0.128 A 
ATOM     25  C   UNL A   1      33.173  28.653  23.334  1.00  0.00     0.026 A 
ATOM     26  C   UNL A   1      31.094  27.634  23.985  1.00  0.00     0.065 A 
ATOM     27  F   UNL A   1      30.629  25.438  23.281  1.00  0.00    -0.207 F 
ENDBRANCH  17  20
ENDBRANCH  15  16
ENDBRANCH   9  15
ENDBRANCH   6   8
ENDBRANCH   5   6
ENDBRANCH   4   5
ENDBRANCH   3   4
ENDBRANCH   2   3
ENDBRANCH   1   2
BRANCH   1  28
ATOM     28  C   UNL A   1      33.657  36.019  32.788  1.00  0.00     0.188 C 
BRANCH  28  29
ATOM     29  O   UNL A   1      33.080  34.745  32.609  1.00  0.00    -0.376 OA
BRANCH  29  30
ATOM     30  C   UNL A   1      33.759  33.595  33.063  1.00  0.00     0.202 C 
BRANCH  30  31
ATOM     31  C   UNL A   1      34.985  33.664  33.979  1.00  0.00     0.261 C 
BRANCH  31  32
ATOM     32  O   UNL A   1      36.158  32.983  33.566  1.00  0.00    -0.460 OA
BRANCH  32  33
ATOM     33  C   UNL A   1      36.729  33.537  32.483  1.00  0.00     0.338 C 
ATOM     34  O   UNL A   1      37.050  34.721  32.355  1.00  0.00    -0.246 OA
BRANCH  33  35
ATOM     35  C   UNL A   1      36.961  32.588  31.391  1.00  0.00     0.060 A 
ATOM     36  C   UNL A   1      36.864  31.244  31.802  1.00  0.00     0.016 A 
ATOM     37  C   UNL A   1      37.864  33.036  30.440  1.00  0.00     0.016 A 
ATOM     38  C   UNL A   1      37.978  30.467  31.650  1.00  0.00     0.010 A 
ATOM     39  C   UNL A   1      38.975  32.264  30.289  1.00  0.00     0.010 A 
ATOM     40  C   UNL A   1      39.056  31.059  31.002  1.00  0.00    -0.014 A 
BRANCH  40  41
ATOM     41  C   UNL A   1      40.341  30.432  30.969  1.00  0.00     0.031 A 
ATOM     42  C   UNL A   1      40.426  29.226  30.150  1.00  0.00     0.074 A 
ATOM     43  C   UNL A   1      41.357  31.000  31.646  1.00  0.00     0.049 A 
ATOM     44  N   UNL A   1      41.237  28.262  30.380  1.00  0.00    -0.248 NA
ATOM     45  C   UNL A   1      39.477  28.958  29.067  1.00  0.00     0.031 C 
ATOM     46  C   UNL A   1      42.776  30.762  31.476  1.00  0.00     0.029 A 
ATOM     47  N   UNL A   1      41.279  31.850  32.746  1.00  0.00    -0.354 N 
ATOM     48  C   UNL A   1      41.163  27.433  29.286  1.00  0.00     0.074 A 
ATOM     49  C   UNL A   1      39.953  27.804  28.593  1.00  0.00     0.031 C 
ATOM     50  C   UNL A   1      43.432  31.265  32.537  1.00  0.00     0.029 A 
ATOM     51  C   UNL A   1      42.447  31.701  33.514  1.00  0.00     0.049 A 
ATOM     52  H   UNL A   1      40.529  32.455  32.954  1.00  0.00     0.167 HD
ATOM     53  C   UNL A   1      42.249  26.675  28.982  1.00  0.00     0.037 A 
ATOM     54  C   UNL A   1      42.370  31.214  34.794  1.00  0.00     0.037 A 
ATOM     55  C   UNL A   1      43.312  26.902  29.959  1.00  0.00     0.049 A 
ATOM     56  C   UNL A   1      42.810  29.780  34.928  1.00  0.00     0.074 A 
ATOM     57  C   UNL A   1      44.350  27.819  30.021  1.00  0.00     0.029 A 
ATOM     58  N   UNL A   1      43.137  26.438  31.246  1.00  0.00    -0.354 N 
ATOM     59  N   UNL A   1      43.218  29.047  33.933  1.00  0.00    -0.248 NA
ATOM     60  C   UNL A   1      42.733  29.039  36.187  1.00  0.00     0.031 C 
ATOM     61  C   UNL A   1      44.762  27.926  31.381  1.00  0.00     0.029 A 
ATOM     62  C   UNL A   1      43.990  27.061  32.137  1.00  0.00     0.049 A 
ATOM     63  H   UNL A   1      42.484  25.746  31.499  1.00  0.00     0.167 HD
ATOM     64  C   UNL A   1      43.427  27.774  34.372  1.00  0.00     0.074 A 
ATOM     65  C   UNL A   1      43.094  27.811  35.787  1.00  0.00     0.031 C 
ATOM     66  C   UNL A   1      43.846  26.771  33.553  1.00  0.00     0.037 A 
BRANCH  53  67
ATOM     67  C   UNL A   1      42.449  26.011  27.650  1.00  0.00     0.057 A 
ATOM     68  C   UNL A   1      42.134  24.651  27.492  1.00  0.00     0.134 A 
ATOM     69  C   UNL A   1      42.969  26.636  26.503  1.00  0.00     0.134 A 
ATOM     70  F   UNL A   1      41.566  23.940  28.475  1.00  0.00    -0.206 F 
ATOM     71  C   UNL A   1      42.388  23.945  26.312  1.00  0.00     0.040 A 
ATOM     72  C   UNL A   1      43.276  25.929  25.331  1.00  0.00     0.040 A 
ATOM     73  F   UNL A   1      43.159  27.960  26.446  1.00  0.00    -0.206 F 
ATOM     74  C   UNL A   1      42.990  24.576  25.235  1.00  0.00     0.006 A 
ENDBRANCH  53  67
BRANCH  54  75
ATOM     75  C   UNL A   1      41.232  31.795  35.550  1.00  0.00     0.057 A 
ATOM     76  C   UNL A   1      41.391  33.130  35.957  1.00  0.00     0.134 A 
ATOM     77  C   UNL A   1      39.941  31.317  35.309  1.00  0.00     0.134 A 
ATOM     78  F   UNL A   1      42.604  33.602  36.279  1.00  0.00    -0.206 F 
ATOM     79  C   UNL A   1      40.343  34.030  35.849  1.00  0.00     0.040 A 
ATOM     80  C   UNL A   1      38.883  32.209  35.208  1.00  0.00     0.040 A 
ATOM     81  F   UNL A   1      39.727  30.030  35.001  1.00  0.00    -0.206 F 
ATOM     82  C   UNL A   1      39.103  33.572  35.429  1.00  0.00     0.006 A 
ENDBRANCH  54  75
BRANCH  66  83
ATOM     83  C   UNL A   1      44.162  25.413  34.090  1.00  0.00     0.057 A 
ATOM     84  C   UNL A   1      45.449  24.871  33.983  1.00  0.00     0.134 A 
ATOM     85  C   UNL A   1      43.177  24.572  34.634  1.00  0.00     0.134 A 
ATOM     86  F   UNL A   1      46.444  25.558  33.401  1.00  0.00    -0.206 F 
ATOM     87  C   UNL A   1      45.757  23.599  34.464  1.00  0.00     0.040 A 
ATOM     88  C   UNL A   1      43.458  23.274  35.055  1.00  0.00     0.040 A 
ATOM     89  F   UNL A   1      41.911  24.978  34.805  1.00  0.00    -0.206 F 
ATOM     90  C   UNL A   1      44.758  22.791  34.995  1.00  0.00     0.006 A 
ENDBRANCH  66  83
ENDBRANCH  40  41
ENDBRANCH  33  35
ENDBRANCH  32  33
ENDBRANCH  31  32
ENDBRANCH  30  31
ENDBRANCH  29  30
ENDBRANCH  28  29
ENDBRANCH   1  28
TORSDOF 20
ENDMDL
