MODEL 1
REMARK VINA RESULT:     -11.3      0.000      0.000
REMARK SMILES CC(C)C[C@H](NC(=O)[C@H]1N2C(=O)c3ccccc3[C@@H]2SC1(C)C)C(=O)N[C@@H](C)C(=O)OCCOCCOCCOC(=O)c1ccc(-c2c3nc(c(-c4c(F)cccc4F)c4ccc([nH]4)c(-c4c(F)cccc4F)c4nc(c(-c5c(F)cccc5F)c5ccc2[nH]5)C=C4)C=C3)cc1
REMARK SMILES IDX 35 1 34 2 33 3 32 4 31 5 29 6 30 7 27 8 28 9 26 10 24 11
REMARK SMILES IDX 25 12 5 14 4 15 2 16 1 17 3 18 6 19 7 20 8 22 9 23 10 24
REMARK SMILES IDX 21 25 11 26 19 27 20 28 22 29 23 30 12 31 13 32 18 33 14 34
REMARK SMILES IDX 17 35 15 36 16 37 36 38 37 39 38 40 39 41 40 42 41 43 42 44
REMARK SMILES IDX 43 45 44 46 96 47 45 48 95 49 46 50 47 51 48 52 89 53 49 54
REMARK SMILES IDX 94 55 88 56 90 57 50 58 93 59 87 60 86 61 51 63 77 64 60 65
REMARK SMILES IDX 76 66 61 67 64 68 75 69 91 70 62 71 63 72 74 74 92 75 65 76
REMARK SMILES IDX 52 77 53 78 58 79 54 80 55 81 57 82 59 83 56 84 78 85 79 86
REMARK SMILES IDX 84 87 80 88 81 89 83 90 85 91 82 92 66 93 67 94 72 95 68 96
REMARK SMILES IDX 69 97 71 98 73 99 70 100
REMARK H PARENT 26 13 6 21 90 62 64 73
REMARK Flexibility Score: inf
ROOT
ATOM      1  C   UNL A   1      35.591  32.657  31.229  1.00  0.00     0.188 C 
ENDROOT
BRANCH   1   2
ATOM      2  O   UNL A   1      36.413  33.440  30.402  1.00  0.00    -0.376 OA
BRANCH   2   3
ATOM      3  C   UNL A   1      36.782  32.876  29.156  1.00  0.00     0.202 C 
BRANCH   3   4
ATOM      4  C   UNL A   1      35.667  32.598  28.132  1.00  0.00     0.261 C 
BRANCH   4   5
ATOM      5  O   UNL A   1      34.903  31.370  28.352  1.00  0.00    -0.462 OA
BRANCH   5   6
ATOM      6  C   UNL A   1      33.750  31.253  27.626  1.00  0.00     0.328 C 
ATOM      7  O   UNL A   1      32.899  32.138  27.575  1.00  0.00    -0.250 OA
BRANCH   6   8
ATOM      8  C   UNL A   1      33.566  29.916  26.814  1.00  0.00     0.189 C 
ATOM      9  C   UNL A   1      34.665  29.004  27.371  1.00  0.00     0.043 C 
BRANCH   8  10
ATOM     10  N   UNL A   1      33.665  29.883  25.340  1.00  0.00    -0.341 N 
ATOM     11  C   UNL A   1      33.033  29.207  24.326  1.00  0.00     0.243 C 
ATOM     12  O   UNL A   1      33.646  29.218  23.247  1.00  0.00    -0.273 OA
ATOM     13  H   UNL A   1      34.354  30.498  25.000  1.00  0.00     0.164 HD
BRANCH  11  14
ATOM     14  C   UNL A   1      31.562  28.596  24.327  1.00  0.00     0.171 C 
BRANCH  14  15
ATOM     15  C   UNL A   1      30.582  29.816  24.482  1.00  0.00     0.038 C 
BRANCH  15  16
ATOM     16  C   UNL A   1      29.386  29.999  23.428  1.00  0.00    -0.015 C 
ATOM     17  C   UNL A   1      28.636  31.329  23.309  1.00  0.00     0.007 C 
ATOM     18  C   UNL A   1      29.787  29.619  21.991  1.00  0.00     0.007 C 
ENDBRANCH  15  16
ENDBRANCH  14  15
BRANCH  14  19
ATOM     19  N   UNL A   1      31.248  27.428  25.247  1.00  0.00    -0.342 N 
ATOM     20  C   UNL A   1      31.622  26.111  25.489  1.00  0.00     0.244 C 
ATOM     21  H   UNL A   1      30.545  27.691  25.883  1.00  0.00     0.164 HD
ATOM     22  O   UNL A   1      30.975  25.621  26.434  1.00  0.00    -0.273 OA
BRANCH  20  23
ATOM     23  C   UNL A   1      32.780  25.155  24.818  1.00  0.00     0.191 C 
ATOM     24  N   UNL A   1      32.911  23.750  25.412  1.00  0.00    -0.309 N 
ATOM     25  C   UNL A   1      32.649  24.856  23.306  1.00  0.00     0.042 C 
ATOM     26  C   UNL A   1      34.135  23.134  25.788  1.00  0.00     0.256 C 
ATOM     27  C   UNL A   1      32.178  22.753  24.682  1.00  0.00     0.176 C 
ATOM     28  S   UNL A   1      32.891  23.096  22.999  1.00  0.00    -0.123 SA
ATOM     29  C   UNL A   1      31.212  24.833  22.907  1.00  0.00     0.026 C 
ATOM     30  C   UNL A   1      33.585  25.690  22.445  1.00  0.00     0.026 C 
ATOM     31  O   UNL A   1      35.173  23.692  26.112  1.00  0.00    -0.269 OA
ATOM     32  C   UNL A   1      34.007  21.650  25.518  1.00  0.00     0.046 A 
ATOM     33  C   UNL A   1      32.716  21.433  25.049  1.00  0.00    -0.002 A 
ATOM     34  C   UNL A   1      34.957  20.671  25.287  1.00  0.00     0.014 A 
ATOM     35  C   UNL A   1      32.256  20.226  24.530  1.00  0.00     0.007 A 
ATOM     36  C   UNL A   1      34.543  19.465  24.674  1.00  0.00     0.001 A 
ATOM     37  C   UNL A   1      33.197  19.231  24.333  1.00  0.00     0.000 A 
ENDBRANCH  20  23
ENDBRANCH  14  19
ENDBRANCH  11  14
ENDBRANCH   8  10
ENDBRANCH   6   8
ENDBRANCH   5   6
ENDBRANCH   4   5
ENDBRANCH   3   4
ENDBRANCH   2   3
ENDBRANCH   1   2
BRANCH   1  38
ATOM     38  C   UNL A   1      34.499  33.339  32.065  1.00  0.00     0.188 C 
BRANCH  38  39
ATOM     39  O   UNL A   1      34.694  33.580  33.439  1.00  0.00    -0.376 OA
BRANCH  39  40
ATOM     40  C   UNL A   1      35.980  34.059  33.822  1.00  0.00     0.202 C 
BRANCH  40  41
ATOM     41  C   UNL A   1      36.531  33.599  35.183  1.00  0.00     0.261 C 
BRANCH  41  42
ATOM     42  O   UNL A   1      37.904  33.123  35.124  1.00  0.00    -0.460 OA
BRANCH  42  43
ATOM     43  C   UNL A   1      38.033  31.800  35.432  1.00  0.00     0.338 C 
ATOM     44  O   UNL A   1      37.654  31.293  36.478  1.00  0.00    -0.246 OA
BRANCH  43  45
ATOM     45  C   UNL A   1      38.556  30.954  34.304  1.00  0.00     0.060 A 
ATOM     46  C   UNL A   1      38.044  31.128  33.015  1.00  0.00     0.016 A 
ATOM     47  C   UNL A   1      39.756  30.264  34.413  1.00  0.00     0.016 A 
ATOM     48  C   UNL A   1      38.749  30.660  31.877  1.00  0.00     0.010 A 
ATOM     49  C   UNL A   1      40.490  29.874  33.277  1.00  0.00     0.010 A 
ATOM     50  C   UNL A   1      40.032  30.078  31.972  1.00  0.00    -0.014 A 
BRANCH  50  51
ATOM     51  C   UNL A   1      40.888  29.790  30.749  1.00  0.00     0.031 A 
ATOM     52  C   UNL A   1      41.900  30.785  30.185  1.00  0.00     0.074 A 
ATOM     53  C   UNL A   1      40.724  28.657  30.018  1.00  0.00     0.049 A 
ATOM     54  N   UNL A   1      42.802  30.602  29.242  1.00  0.00    -0.248 NA
ATOM     55  C   UNL A   1      41.840  32.179  30.648  1.00  0.00     0.031 C 
ATOM     56  C   UNL A   1      39.638  27.683  30.158  1.00  0.00     0.029 A 
ATOM     57  N   UNL A   1      41.497  28.119  29.003  1.00  0.00    -0.354 N 
ATOM     58  C   UNL A   1      43.393  31.844  29.030  1.00  0.00     0.074 A 
ATOM     59  C   UNL A   1      42.617  32.801  29.776  1.00  0.00     0.031 C 
ATOM     60  C   UNL A   1      39.872  26.630  29.355  1.00  0.00     0.029 A 
ATOM     61  C   UNL A   1      41.124  26.842  28.636  1.00  0.00     0.049 A 
ATOM     62  H   UNL A   1      42.244  28.603  28.582  1.00  0.00     0.167 HD
ATOM     63  C   UNL A   1      44.548  32.170  28.397  1.00  0.00     0.037 A 
ATOM     64  C   UNL A   1      41.742  25.923  27.861  1.00  0.00     0.037 A 
ATOM     65  C   UNL A   1      45.378  31.238  27.691  1.00  0.00     0.049 A 
ATOM     66  C   UNL A   1      43.075  26.241  27.224  1.00  0.00     0.074 A 
ATOM     67  C   UNL A   1      46.633  31.431  27.140  1.00  0.00     0.029 A 
ATOM     68  N   UNL A   1      45.025  29.926  27.434  1.00  0.00    -0.354 N 
ATOM     69  N   UNL A   1      43.766  27.353  27.257  1.00  0.00    -0.248 NA
ATOM     70  C   UNL A   1      43.723  25.162  26.457  1.00  0.00     0.031 C 
ATOM     71  C   UNL A   1      47.027  30.238  26.524  1.00  0.00     0.029 A 
ATOM     72  C   UNL A   1      46.032  29.297  26.726  1.00  0.00     0.049 A 
ATOM     73  H   UNL A   1      44.181  29.502  27.714  1.00  0.00     0.167 HD
ATOM     74  C   UNL A   1      44.943  27.091  26.560  1.00  0.00     0.074 A 
ATOM     75  C   UNL A   1      44.879  25.715  26.124  1.00  0.00     0.031 C 
ATOM     76  C   UNL A   1      45.984  27.922  26.307  1.00  0.00     0.037 A 
BRANCH  63  77
ATOM     77  C   UNL A   1      45.030  33.588  28.558  1.00  0.00     0.057 A 
ATOM     78  C   UNL A   1      44.733  34.583  27.622  1.00  0.00     0.134 A 
ATOM     79  C   UNL A   1      45.794  33.965  29.677  1.00  0.00     0.134 A 
ATOM     80  F   UNL A   1      44.035  34.295  26.515  1.00  0.00    -0.206 F 
ATOM     81  C   UNL A   1      45.145  35.906  27.811  1.00  0.00     0.040 A 
ATOM     82  C   UNL A   1      46.174  35.287  29.897  1.00  0.00     0.040 A 
ATOM     83  F   UNL A   1      46.118  33.060  30.614  1.00  0.00    -0.206 F 
ATOM     84  C   UNL A   1      45.850  36.264  28.961  1.00  0.00     0.006 A 
ENDBRANCH  63  77
BRANCH  64  85
ATOM     85  C   UNL A   1      41.188  24.546  27.711  1.00  0.00     0.057 A 
ATOM     86  C   UNL A   1      40.172  24.253  26.797  1.00  0.00     0.134 A 
ATOM     87  C   UNL A   1      41.742  23.470  28.421  1.00  0.00     0.134 A 
ATOM     88  F   UNL A   1      39.601  25.233  26.083  1.00  0.00    -0.206 F 
ATOM     89  C   UNL A   1      39.740  22.940  26.580  1.00  0.00     0.040 A 
ATOM     90  C   UNL A   1      41.341  22.152  28.193  1.00  0.00     0.040 A 
ATOM     91  F   UNL A   1      42.741  23.681  29.290  1.00  0.00    -0.206 F 
ATOM     92  C   UNL A   1      40.336  21.884  27.268  1.00  0.00     0.006 A 
ENDBRANCH  64  85
BRANCH  76  93
ATOM     93  C   UNL A   1      47.164  27.370  25.562  1.00  0.00     0.057 A 
ATOM     94  C   UNL A   1      48.185  26.697  26.247  1.00  0.00     0.134 A 
ATOM     95  C   UNL A   1      47.323  27.550  24.183  1.00  0.00     0.134 A 
ATOM     96  F   UNL A   1      48.103  26.499  27.571  1.00  0.00    -0.206 F 
ATOM     97  C   UNL A   1      49.323  26.230  25.588  1.00  0.00     0.040 A 
ATOM     98  C   UNL A   1      48.444  27.062  23.507  1.00  0.00     0.040 A 
ATOM     99  F   UNL A   1      46.378  28.175  23.465  1.00  0.00    -0.206 F 
ATOM    100  C   UNL A   1      49.452  26.408  24.212  1.00  0.00     0.006 A 
ENDBRANCH  76  93
ENDBRANCH  50  51
ENDBRANCH  43  45
ENDBRANCH  42  43
ENDBRANCH  41  42
ENDBRANCH  40  41
ENDBRANCH  39  40
ENDBRANCH  38  39
ENDBRANCH   1  38
TORSDOF 23
ENDMDL
MODEL 2
REMARK VINA RESULT:     -10.7      4.822     10.253
REMARK SMILES CC(C)C[C@H](NC(=O)[C@H]1N2C(=O)c3ccccc3[C@@H]2SC1(C)C)C(=O)N[C@@H](C)C(=O)OCCOCCOCCOC(=O)c1ccc(-c2c3nc(c(-c4c(F)cccc4F)c4ccc([nH]4)c(-c4c(F)cccc4F)c4nc(c(-c5c(F)cccc5F)c5ccc2[nH]5)C=C4)C=C3)cc1
REMARK SMILES IDX 35 1 34 2 33 3 32 4 31 5 29 6 30 7 27 8 28 9 26 10 24 11
REMARK SMILES IDX 25 12 5 14 4 15 2 16 1 17 3 18 6 19 7 20 8 22 9 23 10 24
REMARK SMILES IDX 21 25 11 26 19 27 20 28 22 29 23 30 12 31 13 32 18 33 14 34
REMARK SMILES IDX 17 35 15 36 16 37 36 38 37 39 38 40 39 41 40 42 41 43 42 44
REMARK SMILES IDX 43 45 44 46 96 47 45 48 95 49 46 50 47 51 48 52 89 53 49 54
REMARK SMILES IDX 94 55 88 56 90 57 50 58 93 59 87 60 86 61 51 63 77 64 60 65
REMARK SMILES IDX 76 66 61 67 64 68 75 69 91 70 62 71 63 72 74 74 92 75 65 76
REMARK SMILES IDX 52 77 53 78 58 79 54 80 55 81 57 82 59 83 56 84 78 85 79 86
REMARK SMILES IDX 84 87 80 88 81 89 83 90 85 91 82 92 66 93 67 94 72 95 68 96
REMARK SMILES IDX 69 97 71 98 73 99 70 100
REMARK H PARENT 26 13 6 21 90 62 64 73
REMARK Flexibility Score: inf
ROOT
ATOM      1  C   UNL A   1      39.668  22.253  26.761  1.00  0.00     0.188 C 
ENDROOT
BRANCH   1   2
ATOM      2  O   UNL A   1      38.616  22.301  25.832  1.00  0.00    -0.376 OA
BRANCH   2   3
ATOM      3  C   UNL A   1      38.124  21.058  25.362  1.00  0.00     0.202 C 
BRANCH   3   4
ATOM      4  C   UNL A   1      36.629  20.960  25.011  1.00  0.00     0.261 C 
BRANCH   4   5
ATOM      5  O   UNL A   1      35.707  21.389  26.062  1.00  0.00    -0.462 OA
BRANCH   5   6
ATOM      6  C   UNL A   1      35.095  22.595  25.857  1.00  0.00     0.328 C 
ATOM      7  O   UNL A   1      35.460  23.391  24.994  1.00  0.00    -0.250 OA
BRANCH   6   8
ATOM      8  C   UNL A   1      33.855  22.917  26.772  1.00  0.00     0.189 C 
ATOM      9  C   UNL A   1      34.351  22.575  28.181  1.00  0.00     0.043 C 
BRANCH   8  10
ATOM     10  N   UNL A   1      32.553  22.244  26.583  1.00  0.00    -0.341 N 
ATOM     11  C   UNL A   1      31.840  21.763  25.514  1.00  0.00     0.243 C 
ATOM     12  O   UNL A   1      30.636  21.574  25.749  1.00  0.00    -0.273 OA
ATOM     13  H   UNL A   1      32.079  22.107  27.435  1.00  0.00     0.164 HD
BRANCH  11  14
ATOM     14  C   UNL A   1      32.402  21.254  24.114  1.00  0.00     0.171 C 
BRANCH  14  15
ATOM     15  C   UNL A   1      33.208  19.938  24.418  1.00  0.00     0.038 C 
BRANCH  15  16
ATOM     16  C   UNL A   1      32.524  18.516  24.127  1.00  0.00    -0.015 C 
ATOM     17  C   UNL A   1      32.893  17.703  22.883  1.00  0.00     0.007 C 
ATOM     18  C   UNL A   1      32.643  17.539  25.311  1.00  0.00     0.007 C 
ENDBRANCH  15  16
ENDBRANCH  14  15
BRANCH  14  19
ATOM     19  N   UNL A   1      33.133  22.234  23.211  1.00  0.00    -0.342 N 
ATOM     20  C   UNL A   1      33.123  23.574  22.836  1.00  0.00     0.244 C 
ATOM     21  H   UNL A   1      33.853  21.765  22.732  1.00  0.00     0.164 HD
ATOM     22  O   UNL A   1      34.017  23.818  22.003  1.00  0.00    -0.273 OA
BRANCH  20  23
ATOM     23  C   UNL A   1      32.219  24.851  23.341  1.00  0.00     0.191 C 
ATOM     24  N   UNL A   1      32.532  25.375  24.745  1.00  0.00    -0.309 N 
ATOM     25  C   UNL A   1      32.296  26.141  22.490  1.00  0.00     0.042 C 
ATOM     26  C   UNL A   1      31.563  25.667  25.741  1.00  0.00     0.256 C 
ATOM     27  C   UNL A   1      33.445  26.484  24.748  1.00  0.00     0.176 C 
ATOM     28  S   UNL A   1      32.522  27.575  23.558  1.00  0.00    -0.123 SA
ATOM     29  C   UNL A   1      33.643  26.266  21.863  1.00  0.00     0.026 C 
ATOM     30  C   UNL A   1      31.095  26.330  21.575  1.00  0.00     0.026 C 
ATOM     31  O   UNL A   1      30.443  25.188  25.845  1.00  0.00    -0.269 OA
ATOM     32  C   UNL A   1      32.070  26.843  26.548  1.00  0.00     0.046 A 
ATOM     33  C   UNL A   1      33.325  27.169  26.046  1.00  0.00    -0.002 A 
ATOM     34  C   UNL A   1      31.410  27.789  27.313  1.00  0.00     0.014 A 
ATOM     35  C   UNL A   1      34.053  28.299  26.407  1.00  0.00     0.007 A 
ATOM     36  C   UNL A   1      32.085  28.993  27.622  1.00  0.00     0.001 A 
ATOM     37  C   UNL A   1      33.409  29.229  27.204  1.00  0.00     0.000 A 
ENDBRANCH  20  23
ENDBRANCH  14  19
ENDBRANCH  11  14
ENDBRANCH   8  10
ENDBRANCH   6   8
ENDBRANCH   5   6
ENDBRANCH   4   5
ENDBRANCH   3   4
ENDBRANCH   2   3
ENDBRANCH   1   2
BRANCH   1  38
ATOM     38  C   UNL A   1      40.705  21.126  26.663  1.00  0.00     0.188 C 
BRANCH  38  39
ATOM     39  O   UNL A   1      42.015  21.313  27.149  1.00  0.00    -0.376 OA
BRANCH  39  40
ATOM     40  C   UNL A   1      43.033  21.500  26.170  1.00  0.00     0.202 C 
BRANCH  40  41
ATOM     41  C   UNL A   1      43.216  22.917  25.600  1.00  0.00     0.261 C 
BRANCH  41  42
ATOM     42  O   UNL A   1      43.549  23.912  26.607  1.00  0.00    -0.460 OA
BRANCH  42  43
ATOM     43  C   UNL A   1      43.559  25.189  26.126  1.00  0.00     0.338 C 
ATOM     44  O   UNL A   1      44.117  25.536  25.095  1.00  0.00    -0.246 OA
BRANCH  43  45
ATOM     45  C   UNL A   1      42.686  26.142  26.895  1.00  0.00     0.060 A 
ATOM     46  C   UNL A   1      41.643  25.644  27.681  1.00  0.00     0.016 A 
ATOM     47  C   UNL A   1      43.083  27.451  27.137  1.00  0.00     0.016 A 
ATOM     48  C   UNL A   1      41.058  26.429  28.706  1.00  0.00     0.010 A 
ATOM     49  C   UNL A   1      42.554  28.196  28.208  1.00  0.00     0.010 A 
ATOM     50  C   UNL A   1      41.546  27.710  29.046  1.00  0.00    -0.014 A 
BRANCH  50  51
ATOM     51  C   UNL A   1      41.081  28.456  30.286  1.00  0.00     0.031 A 
ATOM     52  C   UNL A   1      41.747  28.301  31.652  1.00  0.00     0.074 A 
ATOM     53  C   UNL A   1      39.967  29.233  30.272  1.00  0.00     0.049 A 
ATOM     54  N   UNL A   1      41.545  28.996  32.754  1.00  0.00    -0.248 NA
ATOM     55  C   UNL A   1      42.673  27.177  31.854  1.00  0.00     0.031 C 
ATOM     56  C   UNL A   1      38.984  29.320  29.189  1.00  0.00     0.029 A 
ATOM     57  N   UNL A   1      39.478  30.124  31.211  1.00  0.00    -0.354 N 
ATOM     58  C   UNL A   1      42.321  28.391  33.737  1.00  0.00     0.074 A 
ATOM     59  C   UNL A   1      42.823  27.166  33.169  1.00  0.00     0.031 C 
ATOM     60  C   UNL A   1      38.087  30.282  29.473  1.00  0.00     0.029 A 
ATOM     61  C   UNL A   1      38.421  30.888  30.757  1.00  0.00     0.049 A 
ATOM     62  H   UNL A   1      39.849  30.206  32.120  1.00  0.00     0.167 HD
ATOM     63  C   UNL A   1      42.711  28.848  34.953  1.00  0.00     0.037 A 
ATOM     64  C   UNL A   1      37.827  31.984  31.279  1.00  0.00     0.037 A 
ATOM     65  C   UNL A   1      42.278  30.087  35.532  1.00  0.00     0.049 A 
ATOM     66  C   UNL A   1      38.312  32.559  32.590  1.00  0.00     0.074 A 
ATOM     67  C   UNL A   1      42.719  30.711  36.686  1.00  0.00     0.029 A 
ATOM     68  N   UNL A   1      41.291  30.891  34.993  1.00  0.00    -0.354 N 
ATOM     69  N   UNL A   1      39.250  32.119  33.391  1.00  0.00    -0.248 NA
ATOM     70  C   UNL A   1      37.666  33.798  33.055  1.00  0.00     0.031 C 
ATOM     71  C   UNL A   1      41.975  31.884  36.858  1.00  0.00     0.029 A 
ATOM     72  C   UNL A   1      41.101  32.003  35.792  1.00  0.00     0.049 A 
ATOM     73  H   UNL A   1      40.797  30.700  34.162  1.00  0.00     0.167 HD
ATOM     74  C   UNL A   1      39.335  33.050  34.425  1.00  0.00     0.074 A 
ATOM     75  C   UNL A   1      38.365  34.082  34.145  1.00  0.00     0.031 C 
ATOM     76  C   UNL A   1      40.151  33.045  35.508  1.00  0.00     0.037 A 
BRANCH  63  77
ATOM     77  C   UNL A   1      43.757  28.040  35.677  1.00  0.00     0.057 A 
ATOM     78  C   UNL A   1      43.420  27.074  36.630  1.00  0.00     0.134 A 
ATOM     79  C   UNL A   1      45.123  28.224  35.402  1.00  0.00     0.134 A 
ATOM     80  F   UNL A   1      42.140  26.862  36.966  1.00  0.00    -0.206 F 
ATOM     81  C   UNL A   1      44.400  26.297  37.255  1.00  0.00     0.040 A 
ATOM     82  C   UNL A   1      46.105  27.428  35.987  1.00  0.00     0.040 A 
ATOM     83  F   UNL A   1      45.518  29.136  34.500  1.00  0.00    -0.206 F 
ATOM     84  C   UNL A   1      45.744  26.459  36.919  1.00  0.00     0.006 A 
ENDBRANCH  63  77
BRANCH  64  85
ATOM     85  C   UNL A   1      36.766  32.715  30.527  1.00  0.00     0.057 A 
ATOM     86  C   UNL A   1      37.071  33.607  29.495  1.00  0.00     0.134 A 
ATOM     87  C   UNL A   1      35.408  32.455  30.770  1.00  0.00     0.134 A 
ATOM     88  F   UNL A   1      38.347  33.897  29.208  1.00  0.00    -0.206 F 
ATOM     89  C   UNL A   1      36.068  34.198  28.720  1.00  0.00     0.040 A 
ATOM     90  C   UNL A   1      34.399  33.015  29.985  1.00  0.00     0.040 A 
ATOM     91  F   UNL A   1      35.050  31.585  31.726  1.00  0.00    -0.206 F 
ATOM     92  C   UNL A   1      34.728  33.891  28.954  1.00  0.00     0.006 A 
ENDBRANCH  64  85
BRANCH  76  93
ATOM     93  C   UNL A   1      40.070  34.204  36.458  1.00  0.00     0.057 A 
ATOM     94  C   UNL A   1      39.174  34.179  37.535  1.00  0.00     0.134 A 
ATOM     95  C   UNL A   1      40.832  35.365  36.279  1.00  0.00     0.134 A 
ATOM     96  F   UNL A   1      38.407  33.102  37.759  1.00  0.00    -0.206 F 
ATOM     97  C   UNL A   1      39.035  35.270  38.395  1.00  0.00     0.040 A 
ATOM     98  C   UNL A   1      40.721  36.452  37.150  1.00  0.00     0.040 A 
ATOM     99  F   UNL A   1      41.717  35.450  35.275  1.00  0.00    -0.206 F 
ATOM    100  C   UNL A   1      39.814  36.409  38.206  1.00  0.00     0.006 A 
ENDBRANCH  76  93
ENDBRANCH  50  51
ENDBRANCH  43  45
ENDBRANCH  42  43
ENDBRANCH  41  42
ENDBRANCH  40  41
ENDBRANCH  39  40
ENDBRANCH  38  39
ENDBRANCH   1  38
TORSDOF 23
ENDMDL
MODEL 3
REMARK VINA RESULT:     -10.7      4.494     10.151
REMARK SMILES CC(C)C[C@H](NC(=O)[C@H]1N2C(=O)c3ccccc3[C@@H]2SC1(C)C)C(=O)N[C@@H](C)C(=O)OCCOCCOCCOC(=O)c1ccc(-c2c3nc(c(-c4c(F)cccc4F)c4ccc([nH]4)c(-c4c(F)cccc4F)c4nc(c(-c5c(F)cccc5F)c5ccc2[nH]5)C=C4)C=C3)cc1
REMARK SMILES IDX 35 1 34 2 33 3 32 4 31 5 29 6 30 7 27 8 28 9 26 10 24 11
REMARK SMILES IDX 25 12 5 14 4 15 2 16 1 17 3 18 6 19 7 20 8 22 9 23 10 24
REMARK SMILES IDX 21 25 11 26 19 27 20 28 22 29 23 30 12 31 13 32 18 33 14 34
REMARK SMILES IDX 17 35 15 36 16 37 36 38 37 39 38 40 39 41 40 42 41 43 42 44
REMARK SMILES IDX 43 45 44 46 96 47 45 48 95 49 46 50 47 51 48 52 89 53 49 54
REMARK SMILES IDX 94 55 88 56 90 57 50 58 93 59 87 60 86 61 51 63 77 64 60 65
REMARK SMILES IDX 76 66 61 67 64 68 75 69 91 70 62 71 63 72 74 74 92 75 65 76
REMARK SMILES IDX 52 77 53 78 58 79 54 80 55 81 57 82 59 83 56 84 78 85 79 86
REMARK SMILES IDX 84 87 80 88 81 89 83 90 85 91 82 92 66 93 67 94 72 95 68 96
REMARK SMILES IDX 69 97 71 98 73 99 70 100
REMARK H PARENT 26 13 6 21 90 62 64 73
REMARK Flexibility Score: inf
ROOT
ATOM      1  C   UNL A   1      39.952  21.950  26.166  1.00  0.00     0.188 C 
ENDROOT
BRANCH   1   2
ATOM      2  O   UNL A   1      38.775  21.190  26.074  1.00  0.00    -0.376 OA
BRANCH   2   3
ATOM      3  C   UNL A   1      37.825  21.603  25.107  1.00  0.00     0.202 C 
BRANCH   3   4
ATOM      4  C   UNL A   1      36.732  22.592  25.547  1.00  0.00     0.261 C 
BRANCH   4   5
ATOM      5  O   UNL A   1      35.359  22.188  25.242  1.00  0.00    -0.462 OA
BRANCH   5   6
ATOM      6  C   UNL A   1      34.541  22.009  26.324  1.00  0.00     0.328 C 
ATOM      7  O   UNL A   1      34.645  22.669  27.357  1.00  0.00    -0.250 OA
BRANCH   6   8
ATOM      8  C   UNL A   1      33.417  20.916  26.181  1.00  0.00     0.189 C 
ATOM      9  C   UNL A   1      33.787  20.190  24.883  1.00  0.00     0.043 C 
BRANCH   8  10
ATOM     10  N   UNL A   1      31.987  21.279  26.096  1.00  0.00    -0.341 N 
ATOM     11  C   UNL A   1      31.275  22.429  25.865  1.00  0.00     0.243 C 
ATOM     12  O   UNL A   1      30.086  22.370  26.214  1.00  0.00    -0.273 OA
ATOM     13  H   UNL A   1      31.399  20.503  26.242  1.00  0.00     0.164 HD
BRANCH  11  14
ATOM     14  C   UNL A   1      31.737  23.717  25.051  1.00  0.00     0.171 C 
BRANCH  14  15
ATOM     15  C   UNL A   1      31.454  23.403  23.537  1.00  0.00     0.038 C 
BRANCH  15  16
ATOM     16  C   UNL A   1      32.464  22.450  22.732  1.00  0.00    -0.015 C 
ATOM     17  C   UNL A   1      31.957  21.208  21.993  1.00  0.00     0.007 C 
ATOM     18  C   UNL A   1      33.329  23.214  21.713  1.00  0.00     0.007 C 
ENDBRANCH  15  16
ENDBRANCH  14  15
BRANCH  14  19
ATOM     19  N   UNL A   1      33.114  24.304  25.316  1.00  0.00    -0.342 N 
ATOM     20  C   UNL A   1      33.807  25.508  25.257  1.00  0.00     0.244 C 
ATOM     21  H   UNL A   1      33.716  23.595  25.637  1.00  0.00     0.164 HD
ATOM     22  O   UNL A   1      34.990  25.370  25.620  1.00  0.00    -0.273 OA
BRANCH  20  23
ATOM     23  C   UNL A   1      33.328  27.036  24.879  1.00  0.00     0.191 C 
ATOM     24  N   UNL A   1      32.241  27.147  23.806  1.00  0.00    -0.309 N 
ATOM     25  C   UNL A   1      32.737  27.887  26.027  1.00  0.00     0.042 C 
ATOM     26  C   UNL A   1      32.279  28.032  22.696  1.00  0.00     0.256 C 
ATOM     27  C   UNL A   1      30.915  27.254  24.349  1.00  0.00     0.176 C 
ATOM     28  S   UNL A   1      31.222  28.696  25.482  1.00  0.00    -0.123 SA
ATOM     29  C   UNL A   1      32.038  27.012  27.012  1.00  0.00     0.026 C 
ATOM     30  C   UNL A   1      33.721  28.901  26.591  1.00  0.00     0.026 C 
ATOM     31  O   UNL A   1      33.271  28.507  22.164  1.00  0.00    -0.269 OA
ATOM     32  C   UNL A   1      30.859  28.464  22.401  1.00  0.00     0.046 A 
ATOM     33  C   UNL A   1      30.036  27.792  23.298  1.00  0.00    -0.002 A 
ATOM     34  C   UNL A   1      30.350  29.581  21.762  1.00  0.00     0.014 A 
ATOM     35  C   UNL A   1      28.676  28.041  23.464  1.00  0.00     0.007 A 
ATOM     36  C   UNL A   1      28.994  29.920  21.981  1.00  0.00     0.001 A 
ATOM     37  C   UNL A   1      28.155  29.135  22.796  1.00  0.00     0.000 A 
ENDBRANCH  20  23
ENDBRANCH  14  19
ENDBRANCH  11  14
ENDBRANCH   8  10
ENDBRANCH   6   8
ENDBRANCH   5   6
ENDBRANCH   4   5
ENDBRANCH   3   4
ENDBRANCH   2   3
ENDBRANCH   1   2
BRANCH   1  38
ATOM     38  C   UNL A   1      41.305  21.231  26.259  1.00  0.00     0.188 C 
BRANCH  38  39
ATOM     39  O   UNL A   1      42.455  21.922  26.690  1.00  0.00    -0.376 OA
BRANCH  39  40
ATOM     40  C   UNL A   1      43.352  22.357  25.672  1.00  0.00     0.202 C 
BRANCH  40  41
ATOM     41  C   UNL A   1      43.201  23.801  25.163  1.00  0.00     0.261 C 
BRANCH  41  42
ATOM     42  O   UNL A   1      44.410  24.596  25.298  1.00  0.00    -0.460 OA
BRANCH  42  43
ATOM     43  C   UNL A   1      44.735  24.875  26.594  1.00  0.00     0.338 C 
ATOM     44  O   UNL A   1      45.746  24.475  27.155  1.00  0.00    -0.246 OA
BRANCH  43  45
ATOM     45  C   UNL A   1      43.813  25.857  27.262  1.00  0.00     0.060 A 
ATOM     46  C   UNL A   1      42.645  25.400  27.877  1.00  0.00     0.016 A 
ATOM     47  C   UNL A   1      44.240  27.136  27.599  1.00  0.00     0.016 A 
ATOM     48  C   UNL A   1      41.962  26.193  28.834  1.00  0.00     0.010 A 
ATOM     49  C   UNL A   1      43.604  27.884  28.608  1.00  0.00     0.010 A 
ATOM     50  C   UNL A   1      42.463  27.435  29.280  1.00  0.00    -0.014 A 
BRANCH  50  51
ATOM     51  C   UNL A   1      41.866  28.177  30.465  1.00  0.00     0.031 A 
ATOM     52  C   UNL A   1      42.454  28.109  31.874  1.00  0.00     0.074 A 
ATOM     53  C   UNL A   1      40.702  28.868  30.359  1.00  0.00     0.049 A 
ATOM     54  N   UNL A   1      42.131  28.815  32.939  1.00  0.00    -0.248 NA
ATOM     55  C   UNL A   1      43.445  27.063  32.167  1.00  0.00     0.031 C 
ATOM     56  C   UNL A   1      39.786  28.853  29.214  1.00  0.00     0.029 A 
ATOM     57  N   UNL A   1      40.089  29.744  31.237  1.00  0.00    -0.354 N 
ATOM     58  C   UNL A   1      42.885  28.296  33.986  1.00  0.00     0.074 A 
ATOM     59  C   UNL A   1      43.510  27.097  33.488  1.00  0.00     0.031 C 
ATOM     60  C   UNL A   1      38.805  29.751  29.412  1.00  0.00     0.029 A 
ATOM     61  C   UNL A   1      39.011  30.414  30.695  1.00  0.00     0.049 A 
ATOM     62  H   UNL A   1      40.395  29.878  32.164  1.00  0.00     0.167 HD
ATOM     63  C   UNL A   1      43.162  28.812  35.210  1.00  0.00     0.037 A 
ATOM     64  C   UNL A   1      38.306  31.476  31.146  1.00  0.00     0.037 A 
ATOM     65  C   UNL A   1      42.604  30.031  35.722  1.00  0.00     0.049 A 
ATOM     66  C   UNL A   1      38.664  32.120  32.465  1.00  0.00     0.074 A 
ATOM     67  C   UNL A   1      42.923  30.716  36.881  1.00  0.00     0.029 A 
ATOM     68  N   UNL A   1      41.597  30.744  35.098  1.00  0.00    -0.354 N 
ATOM     69  N   UNL A   1      39.578  31.773  33.337  1.00  0.00    -0.248 NA
ATOM     70  C   UNL A   1      37.900  33.319  32.851  1.00  0.00     0.031 C 
ATOM     71  C   UNL A   1      42.086  31.834  36.971  1.00  0.00     0.029 A 
ATOM     72  C   UNL A   1      41.275  31.859  35.849  1.00  0.00     0.049 A 
ATOM     73  H   UNL A   1      41.173  30.495  34.244  1.00  0.00     0.167 HD
ATOM     74  C   UNL A   1      39.529  32.734  34.344  1.00  0.00     0.074 A 
ATOM     75  C   UNL A   1      38.505  33.683  33.972  1.00  0.00     0.031 C 
ATOM     76  C   UNL A   1      40.271  32.819  35.475  1.00  0.00     0.037 A 
BRANCH  63  77
ATOM     77  C   UNL A   1      44.216  28.104  36.021  1.00  0.00     0.057 A 
ATOM     78  C   UNL A   1      43.892  27.126  36.966  1.00  0.00     0.134 A 
ATOM     79  C   UNL A   1      45.579  28.400  35.841  1.00  0.00     0.134 A 
ATOM     80  F   UNL A   1      42.613  26.811  37.214  1.00  0.00    -0.206 F 
ATOM     81  C   UNL A   1      44.884  26.442  37.674  1.00  0.00     0.040 A 
ATOM     82  C   UNL A   1      46.578  27.696  36.510  1.00  0.00     0.040 A 
ATOM     83  F   UNL A   1      45.960  29.330  34.953  1.00  0.00    -0.206 F 
ATOM     84  C   UNL A   1      46.232  26.713  37.432  1.00  0.00     0.006 A 
ENDBRANCH  63  77
BRANCH  64  85
ATOM     85  C   UNL A   1      37.245  32.105  30.307  1.00  0.00     0.057 A 
ATOM     86  C   UNL A   1      37.535  33.100  29.369  1.00  0.00     0.134 A 
ATOM     87  C   UNL A   1      35.920  31.645  30.365  1.00  0.00     0.134 A 
ATOM     88  F   UNL A   1      38.780  33.582  29.259  1.00  0.00    -0.206 F 
ATOM     89  C   UNL A   1      36.554  33.601  28.508  1.00  0.00     0.040 A 
ATOM     90  C   UNL A   1      34.938  32.115  29.491  1.00  0.00     0.040 A 
ATOM     91  F   UNL A   1      35.584  30.670  31.223  1.00  0.00    -0.206 F 
ATOM     92  C   UNL A   1      35.254  33.098  28.557  1.00  0.00     0.006 A 
ENDBRANCH  64  85
BRANCH  76  93
ATOM     93  C   UNL A   1      40.046  33.994  36.382  1.00  0.00     0.057 A 
ATOM     94  C   UNL A   1      40.729  35.199  36.167  1.00  0.00     0.134 A 
ATOM     95  C   UNL A   1      39.202  33.921  37.497  1.00  0.00     0.134 A 
ATOM     96  F   UNL A   1      41.561  35.334  35.123  1.00  0.00    -0.206 F 
ATOM     97  C   UNL A   1      40.586  36.284  37.032  1.00  0.00     0.040 A 
ATOM     98  C   UNL A   1      39.029  35.010  38.354  1.00  0.00     0.040 A 
ATOM     99  F   UNL A   1      38.510  32.801  37.754  1.00  0.00    -0.206 F 
ATOM    100  C   UNL A   1      39.729  36.192  38.127  1.00  0.00     0.006 A 
ENDBRANCH  76  93
ENDBRANCH  50  51
ENDBRANCH  43  45
ENDBRANCH  42  43
ENDBRANCH  41  42
ENDBRANCH  40  41
ENDBRANCH  39  40
ENDBRANCH  38  39
ENDBRANCH   1  38
TORSDOF 23
ENDMDL
