MODEL 1
REMARK VINA RESULT:     -10.9      0.000      0.000
REMARK SMILES O=C(OCCOCCOCCOC(=O)c1[nH]ncc1C[NH+]1CCC([N@H+]2CCC[C@@H](C(=O)N3CCCC3)C2)CC1)c1ccc(-c2c3nc(c(-c4c(F)cccc4F)c4ccc([nH]4)c(-c4c(F)cccc4F)c4nc(c(-c5c(F)cccc5F)c5ccc2[nH]5)C=C4)C=C3)cc1
REMARK SMILES IDX 8 1 7 2 6 3 5 4 4 5 3 6 2 7 1 8 40 9 41 10 93 11 42 12 92 13
REMARK SMILES IDX 43 14 44 15 45 16 86 17 46 18 91 19 85 20 87 21 47 22 90 23
REMARK SMILES IDX 84 24 83 25 48 27 74 28 57 29 73 30 58 31 61 32 72 33 88 34
REMARK SMILES IDX 59 35 60 36 71 38 89 39 62 40 49 41 50 42 55 43 51 44 52 45
REMARK SMILES IDX 54 46 56 47 53 48 75 49 76 50 81 51 77 52 78 53 80 54 82 55
REMARK SMILES IDX 79 56 63 57 64 58 69 59 65 60 66 61 68 62 70 63 67 64 9 65
REMARK SMILES IDX 10 66 11 67 12 68 13 69 14 70 15 71 16 72 19 73 17 74 18 76
REMARK SMILES IDX 20 77 21 78 22 79 39 80 23 82 38 83 24 84 25 85 26 86 37 87
REMARK SMILES IDX 27 89 29 90 28 91 30 92 31 93 32 94 33 95 36 96 34 97 35 98
REMARK H PARENT 87 26 61 37 16 75 21 81 25 88
REMARK Flexibility Score: inf
ROOT
ATOM      1  C   UNL A   1      34.447  35.734  33.633  1.00  0.00     0.188 C 
ENDROOT
BRANCH   1   2
ATOM      2  C   UNL A   1      34.342  34.212  33.688  1.00  0.00     0.188 C 
BRANCH   2   3
ATOM      3  O   UNL A   1      35.086  33.699  34.809  1.00  0.00    -0.376 OA
BRANCH   3   4
ATOM      4  C   UNL A   1      36.439  34.169  34.796  1.00  0.00     0.202 C 
BRANCH   4   5
ATOM      5  C   UNL A   1      37.380  33.132  34.174  1.00  0.00     0.261 C 
BRANCH   5   6
ATOM      6  O   UNL A   1      36.673  31.904  33.895  1.00  0.00    -0.460 OA
BRANCH   6   7
ATOM      7  C   UNL A   1      36.514  31.428  32.633  1.00  0.00     0.338 C 
ATOM      8  O   UNL A   1      35.458  31.532  32.020  1.00  0.00    -0.246 OA
BRANCH   7   9
ATOM      9  C   UNL A   1      37.729  30.988  31.920  1.00  0.00     0.060 A 
ATOM     10  C   UNL A   1      38.753  30.301  32.574  1.00  0.00     0.016 A 
ATOM     11  C   UNL A   1      37.789  31.192  30.537  1.00  0.00     0.016 A 
ATOM     12  C   UNL A   1      39.888  29.913  31.860  1.00  0.00     0.010 A 
ATOM     13  C   UNL A   1      38.900  30.750  29.814  1.00  0.00     0.010 A 
ATOM     14  C   UNL A   1      39.973  30.132  30.474  1.00  0.00    -0.014 A 
BRANCH  14  15
ATOM     15  C   UNL A   1      41.173  29.690  29.717  1.00  0.00     0.031 A 
ATOM     16  C   UNL A   1      41.273  28.291  29.181  1.00  0.00     0.074 A 
ATOM     17  C   UNL A   1      42.182  30.554  29.497  1.00  0.00     0.049 A 
ATOM     18  N   UNL A   1      42.241  27.741  28.493  1.00  0.00    -0.248 NA
ATOM     19  C   UNL A   1      40.139  27.395  29.449  1.00  0.00     0.031 C 
ATOM     20  C   UNL A   1      42.214  31.938  29.963  1.00  0.00     0.029 A 
ATOM     21  N   UNL A   1      43.366  30.400  28.823  1.00  0.00    -0.354 N 
ATOM     22  C   UNL A   1      41.838  26.438  28.248  1.00  0.00     0.074 A 
ATOM     23  C   UNL A   1      40.546  26.270  28.880  1.00  0.00     0.031 C 
ATOM     24  C   UNL A   1      43.352  32.516  29.547  1.00  0.00     0.029 A 
ATOM     25  C   UNL A   1      44.134  31.537  28.800  1.00  0.00     0.049 A 
ATOM     26  H   UNL A   1      43.638  29.555  28.396  1.00  0.00     0.167 HD
ATOM     27  C   UNL A   1      42.476  25.470  27.547  1.00  0.00     0.037 A 
ATOM     28  C   UNL A   1      45.334  31.772  28.238  1.00  0.00     0.037 A 
ATOM     29  C   UNL A   1      43.748  25.625  26.897  1.00  0.00     0.049 A 
ATOM     30  C   UNL A   1      46.030  30.681  27.486  1.00  0.00     0.074 A 
ATOM     31  C   UNL A   1      44.456  24.700  26.147  1.00  0.00     0.029 A 
ATOM     32  N   UNL A   1      44.504  26.786  26.915  1.00  0.00    -0.354 N 
ATOM     33  N   UNL A   1      45.628  29.456  27.255  1.00  0.00    -0.248 NA
ATOM     34  C   UNL A   1      47.346  31.003  26.916  1.00  0.00     0.031 C 
ATOM     35  C   UNL A   1      45.644  25.302  25.714  1.00  0.00     0.029 A 
ATOM     36  C   UNL A   1      45.672  26.602  26.192  1.00  0.00     0.049 A 
ATOM     37  H   UNL A   1      44.251  27.619  27.375  1.00  0.00     0.167 HD
ATOM     38  C   UNL A   1      46.631  28.865  26.503  1.00  0.00     0.074 A 
ATOM     39  C   UNL A   1      47.663  29.863  26.317  1.00  0.00     0.031 C 
ATOM     40  C   UNL A   1      46.686  27.605  26.008  1.00  0.00     0.037 A 
BRANCH  27  41
ATOM     41  C   UNL A   1      41.780  24.151  27.442  1.00  0.00     0.057 A 
ATOM     42  C   UNL A   1      40.703  23.970  26.568  1.00  0.00     0.134 A 
ATOM     43  C   UNL A   1      42.186  23.061  28.219  1.00  0.00     0.134 A 
ATOM     44  F   UNL A   1      40.261  24.987  25.814  1.00  0.00    -0.206 F 
ATOM     45  C   UNL A   1      40.042  22.745  26.478  1.00  0.00     0.040 A 
ATOM     46  C   UNL A   1      41.536  21.829  28.132  1.00  0.00     0.040 A 
ATOM     47  F   UNL A   1      43.208  23.180  29.079  1.00  0.00    -0.206 F 
ATOM     48  C   UNL A   1      40.459  21.670  27.261  1.00  0.00     0.006 A 
ENDBRANCH  27  41
BRANCH  28  49
ATOM     49  C   UNL A   1      45.936  33.118  28.349  1.00  0.00     0.057 A 
ATOM     50  C   UNL A   1      45.796  34.052  27.316  1.00  0.00     0.134 A 
ATOM     51  C   UNL A   1      46.634  33.510  29.495  1.00  0.00     0.134 A 
ATOM     52  F   UNL A   1      45.145  33.721  26.192  1.00  0.00    -0.206 F 
ATOM     53  C   UNL A   1      46.333  35.334  27.421  1.00  0.00     0.040 A 
ATOM     54  C   UNL A   1      47.170  34.792  29.616  1.00  0.00     0.040 A 
ATOM     55  F   UNL A   1      46.794  32.655  30.514  1.00  0.00    -0.206 F 
ATOM     56  C   UNL A   1      47.019  35.709  28.575  1.00  0.00     0.006 A 
ENDBRANCH  28  49
BRANCH  40  57
ATOM     57  C   UNL A   1      47.894  27.249  25.204  1.00  0.00     0.057 A 
ATOM     58  C   UNL A   1      47.944  27.483  23.827  1.00  0.00     0.134 A 
ATOM     59  C   UNL A   1      49.018  26.683  25.815  1.00  0.00     0.134 A 
ATOM     60  F   UNL A   1      46.890  28.011  23.188  1.00  0.00    -0.206 F 
ATOM     61  C   UNL A   1      49.076  27.160  23.077  1.00  0.00     0.040 A 
ATOM     62  C   UNL A   1      50.158  26.361  25.077  1.00  0.00     0.040 A 
ATOM     63  F   UNL A   1      49.023  26.431  27.132  1.00  0.00    -0.206 F 
ATOM     64  C   UNL A   1      50.189  26.599  23.704  1.00  0.00     0.006 A 
ENDBRANCH  40  57
ENDBRANCH  14  15
ENDBRANCH   7   9
ENDBRANCH   6   7
ENDBRANCH   5   6
ENDBRANCH   4   5
ENDBRANCH   3   4
ENDBRANCH   2   3
ENDBRANCH   1   2
BRANCH   1  65
ATOM     65  O   UNL A   1      34.616  36.195  32.290  1.00  0.00    -0.376 OA
BRANCH  65  66
ATOM     66  C   UNL A   1      33.503  36.912  31.760  1.00  0.00     0.202 C 
BRANCH  66  67
ATOM     67  C   UNL A   1      32.441  35.952  31.215  1.00  0.00     0.261 C 
BRANCH  67  68
ATOM     68  O   UNL A   1      33.038  34.840  30.522  1.00  0.00    -0.459 OA
BRANCH  68  69
ATOM     69  C   UNL A   1      33.219  34.986  29.184  1.00  0.00     0.356 C 
ATOM     70  O   UNL A   1      32.621  35.767  28.461  1.00  0.00    -0.244 OA
BRANCH  69  71
ATOM     71  C   UNL A   1      34.273  34.123  28.739  1.00  0.00     0.152 A 
ATOM     72  N   UNL A   1      35.559  34.576  28.613  1.00  0.00    -0.271 N 
ATOM     73  C   UNL A   1      34.289  32.806  28.290  1.00  0.00     0.059 A 
ATOM     74  N   UNL A   1      36.420  33.647  28.174  1.00  0.00    -0.183 NA
ATOM     75  H   UNL A   1      35.826  35.500  28.827  1.00  0.00     0.190 HD
ATOM     76  C   UNL A   1      35.646  32.584  27.956  1.00  0.00     0.145 A 
BRANCH  73  77
ATOM     77  C   UNL A   1      33.153  31.839  28.141  1.00  0.00     0.303 C 
BRANCH  77  78
ATOM     78  N   UNL A   1      33.366  30.828  27.087  1.00  0.00    -0.331 N 
ATOM     79  C   UNL A   1      33.945  29.582  27.602  1.00  0.00     0.268 C 
ATOM     80  C   UNL A   1      32.184  30.623  26.239  1.00  0.00     0.268 C 
ATOM     81  H   UNL A   1      34.073  31.215  26.463  1.00  0.00     0.348 HD
ATOM     82  C   UNL A   1      34.205  28.553  26.505  1.00  0.00     0.126 C 
ATOM     83  C   UNL A   1      32.425  29.595  25.124  1.00  0.00     0.126 C 
ATOM     84  C   UNL A   1      32.898  28.277  25.749  1.00  0.00     0.195 C 
BRANCH  84  85
ATOM     85  N   UNL A   1      32.927  27.167  24.772  1.00  0.00    -0.331 N 
ATOM     86  C   UNL A   1      33.377  27.544  23.426  1.00  0.00     0.262 C 
ATOM     87  C   UNL A   1      33.750  26.059  25.302  1.00  0.00     0.275 C 
ATOM     88  H   UNL A   1      31.958  26.870  24.654  1.00  0.00     0.348 HD
ATOM     89  C   UNL A   1      33.311  26.347  22.469  1.00  0.00     0.062 C 
ATOM     90  C   UNL A   1      33.655  24.809  24.418  1.00  0.00     0.134 C 
ATOM     91  C   UNL A   1      34.099  25.148  22.996  1.00  0.00     0.025 C 
BRANCH  90  92
ATOM     92  C   UNL A   1      34.501  23.701  25.039  1.00  0.00     0.231 C 
ATOM     93  O   UNL A   1      35.478  23.962  25.744  1.00  0.00    -0.274 OA
ATOM     94  N   UNL A   1      34.128  22.397  24.805  1.00  0.00    -0.342 N 
ATOM     95  C   UNL A   1      33.061  21.898  23.953  1.00  0.00     0.119 C 
ATOM     96  C   UNL A   1      34.799  21.308  25.497  1.00  0.00     0.119 C 
ATOM     97  C   UNL A   1      32.829  20.476  24.442  1.00  0.00     0.023 C 
ATOM     98  C   UNL A   1      34.217  20.040  24.892  1.00  0.00     0.023 C 
ENDBRANCH  90  92
ENDBRANCH  84  85
ENDBRANCH  77  78
ENDBRANCH  73  77
ENDBRANCH  69  71
ENDBRANCH  68  69
ENDBRANCH  67  68
ENDBRANCH  66  67
ENDBRANCH  65  66
ENDBRANCH   1  65
TORSDOF 21
ENDMDL
MODEL 2
REMARK VINA RESULT:     -10.5      1.312      2.009
REMARK SMILES O=C(OCCOCCOCCOC(=O)c1[nH]ncc1C[NH+]1CCC([N@H+]2CCC[C@@H](C(=O)N3CCCC3)C2)CC1)c1ccc(-c2c3nc(c(-c4c(F)cccc4F)c4ccc([nH]4)c(-c4c(F)cccc4F)c4nc(c(-c5c(F)cccc5F)c5ccc2[nH]5)C=C4)C=C3)cc1
REMARK SMILES IDX 8 1 7 2 6 3 5 4 4 5 3 6 2 7 1 8 40 9 41 10 93 11 42 12 92 13
REMARK SMILES IDX 43 14 44 15 45 16 86 17 46 18 91 19 85 20 87 21 47 22 90 23
REMARK SMILES IDX 84 24 83 25 48 27 74 28 57 29 73 30 58 31 61 32 72 33 88 34
REMARK SMILES IDX 59 35 60 36 71 38 89 39 62 40 49 41 50 42 55 43 51 44 52 45
REMARK SMILES IDX 54 46 56 47 53 48 75 49 76 50 81 51 77 52 78 53 80 54 82 55
REMARK SMILES IDX 79 56 63 57 64 58 69 59 65 60 66 61 68 62 70 63 67 64 9 65
REMARK SMILES IDX 10 66 11 67 12 68 13 69 14 70 15 71 16 72 19 73 17 74 18 76
REMARK SMILES IDX 20 77 21 78 22 79 39 80 23 82 38 83 24 84 25 85 26 86 37 87
REMARK SMILES IDX 27 89 29 90 28 91 30 92 31 93 32 94 33 95 36 96 34 97 35 98
REMARK H PARENT 87 26 61 37 16 75 21 81 25 88
REMARK Flexibility Score: inf
ROOT
ATOM      1  C   UNL A   1      35.151  35.312  33.749  1.00  0.00     0.188 C 
ENDROOT
BRANCH   1   2
ATOM      2  C   UNL A   1      36.400  34.658  33.163  1.00  0.00     0.188 C 
BRANCH   2   3
ATOM      3  O   UNL A   1      37.044  33.832  34.152  1.00  0.00    -0.376 OA
BRANCH   3   4
ATOM      4  C   UNL A   1      37.824  32.800  33.540  1.00  0.00     0.202 C 
BRANCH   4   5
ATOM      5  C   UNL A   1      36.979  31.550  33.274  1.00  0.00     0.261 C 
BRANCH   5   6
ATOM      6  O   UNL A   1      36.799  31.348  31.855  1.00  0.00    -0.460 OA
BRANCH   6   7
ATOM      7  C   UNL A   1      36.885  30.121  31.278  1.00  0.00     0.338 C 
ATOM      8  O   UNL A   1      35.899  29.427  31.063  1.00  0.00    -0.246 OA
BRANCH   7   9
ATOM      9  C   UNL A   1      38.186  29.741  30.693  1.00  0.00     0.060 A 
ATOM     10  C   UNL A   1      38.473  29.961  29.345  1.00  0.00     0.016 A 
ATOM     11  C   UNL A   1      39.170  29.239  31.551  1.00  0.00     0.016 A 
ATOM     12  C   UNL A   1      39.713  29.576  28.833  1.00  0.00     0.010 A 
ATOM     13  C   UNL A   1      40.431  28.910  31.048  1.00  0.00     0.010 A 
ATOM     14  C   UNL A   1      40.705  29.048  29.678  1.00  0.00    -0.014 A 
BRANCH  14  15
ATOM     15  C   UNL A   1      42.033  28.667  29.131  1.00  0.00     0.031 A 
ATOM     16  C   UNL A   1      42.281  27.282  28.607  1.00  0.00     0.074 A 
ATOM     17  C   UNL A   1      43.027  29.574  29.094  1.00  0.00     0.049 A 
ATOM     18  N   UNL A   1      43.374  26.783  28.088  1.00  0.00    -0.248 NA
ATOM     19  C   UNL A   1      41.157  26.337  28.671  1.00  0.00     0.031 C 
ATOM     20  C   UNL A   1      42.922  30.950  29.572  1.00  0.00     0.029 A 
ATOM     21  N   UNL A   1      44.313  29.479  28.628  1.00  0.00    -0.354 N 
ATOM     22  C   UNL A   1      43.074  25.469  27.766  1.00  0.00     0.074 A 
ATOM     23  C   UNL A   1      41.701  25.238  28.168  1.00  0.00     0.031 C 
ATOM     24  C   UNL A   1      44.088  31.580  29.360  1.00  0.00     0.029 A 
ATOM     25  C   UNL A   1      45.026  30.646  28.747  1.00  0.00     0.049 A 
ATOM     26  H   UNL A   1      44.689  28.653  28.246  1.00  0.00     0.167 HD
ATOM     27  C   UNL A   1      43.861  24.539  27.173  1.00  0.00     0.037 A 
ATOM     28  C   UNL A   1      46.292  30.938  28.398  1.00  0.00     0.037 A 
ATOM     29  C   UNL A   1      45.217  24.755  26.750  1.00  0.00     0.049 A 
ATOM     30  C   UNL A   1      47.151  29.888  27.765  1.00  0.00     0.074 A 
ATOM     31  C   UNL A   1      46.079  23.872  26.122  1.00  0.00     0.029 A 
ATOM     32  N   UNL A   1      45.910  25.945  26.907  1.00  0.00    -0.354 N 
ATOM     33  N   UNL A   1      46.845  28.652  27.458  1.00  0.00    -0.248 NA
ATOM     34  C   UNL A   1      48.530  30.273  27.429  1.00  0.00     0.031 C 
ATOM     35  C   UNL A   1      47.298  24.528  25.903  1.00  0.00     0.029 A 
ATOM     36  C   UNL A   1      47.189  25.820  26.390  1.00  0.00     0.049 A 
ATOM     37  H   UNL A   1      45.547  26.759  27.325  1.00  0.00     0.167 HD
ATOM     38  C   UNL A   1      47.985  28.114  26.881  1.00  0.00     0.074 A 
ATOM     39  C   UNL A   1      48.991  29.156  26.881  1.00  0.00     0.031 C 
ATOM     40  C   UNL A   1      48.176  26.866  26.391  1.00  0.00     0.037 A 
BRANCH  27  41
ATOM     41  C   UNL A   1      43.249  23.195  26.940  1.00  0.00     0.057 A 
ATOM     42  C   UNL A   1      42.817  22.809  25.666  1.00  0.00     0.134 A 
ATOM     43  C   UNL A   1      43.089  22.286  27.991  1.00  0.00     0.134 A 
ATOM     44  F   UNL A   1      42.931  23.649  24.627  1.00  0.00    -0.206 F 
ATOM     45  C   UNL A   1      42.233  21.562  25.447  1.00  0.00     0.040 A 
ATOM     46  C   UNL A   1      42.511  21.032  27.782  1.00  0.00     0.040 A 
ATOM     47  F   UNL A   1      43.478  22.606  29.234  1.00  0.00    -0.206 F 
ATOM     48  C   UNL A   1      42.080  20.669  26.506  1.00  0.00     0.006 A 
ENDBRANCH  27  41
BRANCH  28  49
ATOM     49  C   UNL A   1      46.809  32.306  28.622  1.00  0.00     0.057 A 
ATOM     50  C   UNL A   1      47.496  32.627  29.797  1.00  0.00     0.134 A 
ATOM     51  C   UNL A   1      46.657  33.307  27.658  1.00  0.00     0.134 A 
ATOM     52  F   UNL A   1      47.659  31.705  30.756  1.00  0.00    -0.206 F 
ATOM     53  C   UNL A   1      48.015  33.904  30.007  1.00  0.00     0.040 A 
ATOM     54  C   UNL A   1      47.177  34.586  27.852  1.00  0.00     0.040 A 
ATOM     55  F   UNL A   1      46.009  33.050  26.513  1.00  0.00    -0.206 F 
ATOM     56  C   UNL A   1      47.860  34.887  29.031  1.00  0.00     0.006 A 
ENDBRANCH  28  49
BRANCH  40  57
ATOM     57  C   UNL A   1      49.517  26.572  25.800  1.00  0.00     0.057 A 
ATOM     58  C   UNL A   1      50.489  25.870  26.518  1.00  0.00     0.134 A 
ATOM     59  C   UNL A   1      49.831  26.983  24.500  1.00  0.00     0.134 A 
ATOM     60  F   UNL A   1      50.246  25.464  27.774  1.00  0.00    -0.206 F 
ATOM     61  C   UNL A   1      51.737  25.587  25.963  1.00  0.00     0.040 A 
ATOM     62  C   UNL A   1      51.073  26.701  23.932  1.00  0.00     0.040 A 
ATOM     63  F   UNL A   1      48.939  27.666  23.767  1.00  0.00    -0.206 F 
ATOM     64  C   UNL A   1      52.031  26.002  24.664  1.00  0.00     0.006 A 
ENDBRANCH  40  57
ENDBRANCH  14  15
ENDBRANCH   7   9
ENDBRANCH   6   7
ENDBRANCH   5   6
ENDBRANCH   4   5
ENDBRANCH   3   4
ENDBRANCH   2   3
ENDBRANCH   1   2
BRANCH   1  65
ATOM     65  O   UNL A   1      34.740  36.439  32.969  1.00  0.00    -0.376 OA
BRANCH  65  66
ATOM     66  C   UNL A   1      33.430  36.333  32.412  1.00  0.00     0.202 C 
BRANCH  66  67
ATOM     67  C   UNL A   1      33.368  35.218  31.365  1.00  0.00     0.261 C 
BRANCH  67  68
ATOM     68  O   UNL A   1      33.454  35.743  30.027  1.00  0.00    -0.459 OA
BRANCH  68  69
ATOM     69  C   UNL A   1      33.452  34.835  29.017  1.00  0.00     0.356 C 
ATOM     70  O   UNL A   1      32.528  34.619  28.249  1.00  0.00    -0.244 OA
BRANCH  69  71
ATOM     71  C   UNL A   1      34.732  34.193  28.937  1.00  0.00     0.152 A 
ATOM     72  N   UNL A   1      35.879  34.916  28.750  1.00  0.00    -0.271 N 
ATOM     73  C   UNL A   1      35.119  32.857  28.937  1.00  0.00     0.059 A 
ATOM     74  N   UNL A   1      36.988  34.164  28.685  1.00  0.00    -0.183 NA
ATOM     75  H   UNL A   1      35.889  35.898  28.671  1.00  0.00     0.190 HD
ATOM     76  C   UNL A   1      36.524  32.918  28.774  1.00  0.00     0.145 A 
BRANCH  73  77
ATOM     77  C   UNL A   1      34.275  31.622  29.038  1.00  0.00     0.303 C 
BRANCH  77  78
ATOM     78  N   UNL A   1      34.174  30.864  27.777  1.00  0.00    -0.331 N 
ATOM     79  C   UNL A   1      34.823  29.550  27.848  1.00  0.00     0.268 C 
ATOM     80  C   UNL A   1      32.808  30.819  27.240  1.00  0.00     0.268 C 
ATOM     81  H   UNL A   1      34.709  31.391  27.087  1.00  0.00     0.348 HD
ATOM     82  C   UNL A   1      34.756  28.784  26.530  1.00  0.00     0.126 C 
ATOM     83  C   UNL A   1      32.717  30.058  25.910  1.00  0.00     0.126 C 
ATOM     84  C   UNL A   1      33.290  28.647  26.097  1.00  0.00     0.195 C 
BRANCH  84  85
ATOM     85  N   UNL A   1      33.027  27.772  24.935  1.00  0.00    -0.331 N 
ATOM     86  C   UNL A   1      33.243  28.404  23.627  1.00  0.00     0.262 C 
ATOM     87  C   UNL A   1      33.831  26.536  25.051  1.00  0.00     0.275 C 
ATOM     88  H   UNL A   1      32.031  27.556  24.964  1.00  0.00     0.348 HD
ATOM     89  C   UNL A   1      32.884  27.445  22.486  1.00  0.00     0.062 C 
ATOM     90  C   UNL A   1      33.453  25.510  23.974  1.00  0.00     0.134 C 
ATOM     91  C   UNL A   1      33.645  26.123  22.588  1.00  0.00     0.025 C 
BRANCH  90  92
ATOM     92  C   UNL A   1      34.297  24.254  24.174  1.00  0.00     0.231 C 
ATOM     93  O   UNL A   1      35.526  24.314  24.243  1.00  0.00    -0.274 OA
ATOM     94  N   UNL A   1      33.641  23.050  24.293  1.00  0.00    -0.342 N 
ATOM     95  C   UNL A   1      32.219  22.775  24.168  1.00  0.00     0.119 C 
ATOM     96  C   UNL A   1      34.379  21.846  24.641  1.00  0.00     0.119 C 
ATOM     97  C   UNL A   1      32.041  21.422  24.842  1.00  0.00     0.023 C 
ATOM     98  C   UNL A   1      33.360  20.720  24.551  1.00  0.00     0.023 C 
ENDBRANCH  90  92
ENDBRANCH  84  85
ENDBRANCH  77  78
ENDBRANCH  73  77
ENDBRANCH  69  71
ENDBRANCH  68  69
ENDBRANCH  67  68
ENDBRANCH  66  67
ENDBRANCH  65  66
ENDBRANCH   1  65
TORSDOF 21
ENDMDL
MODEL 3
REMARK VINA RESULT:     -10.4      4.191      6.876
REMARK SMILES O=C(OCCOCCOCCOC(=O)c1[nH]ncc1C[NH+]1CCC([N@H+]2CCC[C@@H](C(=O)N3CCCC3)C2)CC1)c1ccc(-c2c3nc(c(-c4c(F)cccc4F)c4ccc([nH]4)c(-c4c(F)cccc4F)c4nc(c(-c5c(F)cccc5F)c5ccc2[nH]5)C=C4)C=C3)cc1
REMARK SMILES IDX 8 1 7 2 6 3 5 4 4 5 3 6 2 7 1 8 40 9 41 10 93 11 42 12 92 13
REMARK SMILES IDX 43 14 44 15 45 16 86 17 46 18 91 19 85 20 87 21 47 22 90 23
REMARK SMILES IDX 84 24 83 25 48 27 74 28 57 29 73 30 58 31 61 32 72 33 88 34
REMARK SMILES IDX 59 35 60 36 71 38 89 39 62 40 49 41 50 42 55 43 51 44 52 45
REMARK SMILES IDX 54 46 56 47 53 48 75 49 76 50 81 51 77 52 78 53 80 54 82 55
REMARK SMILES IDX 79 56 63 57 64 58 69 59 65 60 66 61 68 62 70 63 67 64 9 65
REMARK SMILES IDX 10 66 11 67 12 68 13 69 14 70 15 71 16 72 19 73 17 74 18 76
REMARK SMILES IDX 20 77 21 78 22 79 39 80 23 82 38 83 24 84 25 85 26 86 37 87
REMARK SMILES IDX 27 89 29 90 28 91 30 92 31 93 32 94 33 95 36 96 34 97 35 98
REMARK H PARENT 87 26 61 37 16 75 21 81 25 88
REMARK Flexibility Score: inf
ROOT
ATOM      1  C   UNL A   1      32.990  28.200  27.147  1.00  0.00     0.188 C 
ENDROOT
BRANCH   1   2
ATOM      2  C   UNL A   1      31.763  29.066  27.417  1.00  0.00     0.188 C 
BRANCH   2   3
ATOM      3  O   UNL A   1      31.728  30.182  26.508  1.00  0.00    -0.376 OA
BRANCH   3   4
ATOM      4  C   UNL A   1      32.580  31.244  26.954  1.00  0.00     0.202 C 
BRANCH   4   5
ATOM      5  C   UNL A   1      31.764  32.478  27.353  1.00  0.00     0.261 C 
BRANCH   5   6
ATOM      6  O   UNL A   1      32.571  33.672  27.267  1.00  0.00    -0.460 OA
BRANCH   6   7
ATOM      7  C   UNL A   1      33.111  34.266  28.364  1.00  0.00     0.338 C 
ATOM      8  O   UNL A   1      32.506  35.105  29.021  1.00  0.00    -0.246 OA
BRANCH   7   9
ATOM      9  C   UNL A   1      34.366  33.696  28.890  1.00  0.00     0.060 A 
ATOM     10  C   UNL A   1      34.372  32.815  29.973  1.00  0.00     0.016 A 
ATOM     11  C   UNL A   1      35.554  33.985  28.210  1.00  0.00     0.016 A 
ATOM     12  C   UNL A   1      35.585  32.308  30.442  1.00  0.00     0.010 A 
ATOM     13  C   UNL A   1      36.760  33.429  28.646  1.00  0.00     0.010 A 
ATOM     14  C   UNL A   1      36.791  32.609  29.784  1.00  0.00    -0.014 A 
BRANCH  14  15
ATOM     15  C   UNL A   1      38.074  32.042  30.272  1.00  0.00     0.031 A 
ATOM     16  C   UNL A   1      38.616  30.762  29.706  1.00  0.00     0.074 A 
ATOM     17  C   UNL A   1      38.769  32.685  31.229  1.00  0.00     0.049 A 
ATOM     18  N   UNL A   1      39.722  30.130  30.009  1.00  0.00    -0.248 NA
ATOM     19  C   UNL A   1      37.815  30.107  28.661  1.00  0.00     0.031 C 
ATOM     20  C   UNL A   1      38.357  33.933  31.866  1.00  0.00     0.029 A 
ATOM     21  N   UNL A   1      39.967  32.386  31.825  1.00  0.00    -0.354 N 
ATOM     22  C   UNL A   1      39.751  29.006  29.199  1.00  0.00     0.074 A 
ATOM     23  C   UNL A   1      38.539  29.027  28.405  1.00  0.00     0.031 C 
ATOM     24  C   UNL A   1      39.293  34.306  32.753  1.00  0.00     0.029 A 
ATOM     25  C   UNL A   1      40.362  33.313  32.757  1.00  0.00     0.049 A 
ATOM     26  H   UNL A   1      40.493  31.582  31.606  1.00  0.00     0.167 HD
ATOM     27  C   UNL A   1      40.705  28.049  29.110  1.00  0.00     0.037 A 
ATOM     28  C   UNL A   1      41.463  33.365  33.528  1.00  0.00     0.037 A 
ATOM     29  C   UNL A   1      41.921  28.022  29.875  1.00  0.00     0.049 A 
ATOM     30  C   UNL A   1      42.495  32.284  33.427  1.00  0.00     0.074 A 
ATOM     31  C   UNL A   1      42.951  27.098  29.831  1.00  0.00     0.029 A 
ATOM     32  N   UNL A   1      42.274  28.968  30.823  1.00  0.00    -0.354 N 
ATOM     33  N   UNL A   1      42.509  31.233  32.647  1.00  0.00    -0.248 NA
ATOM     34  C   UNL A   1      43.662  32.396  34.315  1.00  0.00     0.031 C 
ATOM     35  C   UNL A   1      43.928  27.485  30.758  1.00  0.00     0.029 A 
ATOM     36  C   UNL A   1      43.505  28.651  31.373  1.00  0.00     0.049 A 
ATOM     37  H   UNL A   1      41.730  29.751  31.071  1.00  0.00     0.167 HD
ATOM     38  C   UNL A   1      43.689  30.565  32.936  1.00  0.00     0.074 A 
ATOM     39  C   UNL A   1      44.365  31.328  33.965  1.00  0.00     0.031 C 
ATOM     40  C   UNL A   1      44.169  29.422  32.390  1.00  0.00     0.037 A 
BRANCH  27  41
ATOM     41  C   UNL A   1      40.461  26.951  28.125  1.00  0.00     0.057 A 
ATOM     42  C   UNL A   1      41.047  26.975  26.855  1.00  0.00     0.134 A 
ATOM     43  C   UNL A   1      39.635  25.868  28.445  1.00  0.00     0.134 A 
ATOM     44  F   UNL A   1      41.833  27.999  26.490  1.00  0.00    -0.206 F 
ATOM     45  C   UNL A   1      40.811  25.961  25.928  1.00  0.00     0.040 A 
ATOM     46  C   UNL A   1      39.396  24.844  27.528  1.00  0.00     0.040 A 
ATOM     47  F   UNL A   1      39.039  25.797  29.645  1.00  0.00    -0.206 F 
ATOM     48  C   UNL A   1      39.984  24.890  26.264  1.00  0.00     0.006 A 
ENDBRANCH  27  41
BRANCH  28  49
ATOM     49  C   UNL A   1      41.653  34.509  34.446  1.00  0.00     0.057 A 
ATOM     50  C   UNL A   1      42.226  35.702  33.995  1.00  0.00     0.134 A 
ATOM     51  C   UNL A   1      41.238  34.446  35.780  1.00  0.00     0.134 A 
ATOM     52  F   UNL A   1      42.649  35.809  32.727  1.00  0.00    -0.206 F 
ATOM     53  C   UNL A   1      42.383  36.798  34.842  1.00  0.00     0.040 A 
ATOM     54  C   UNL A   1      41.382  35.537  36.637  1.00  0.00     0.040 A 
ATOM     55  F   UNL A   1      40.680  33.327  36.262  1.00  0.00    -0.206 F 
ATOM     56  C   UNL A   1      41.956  36.719  36.167  1.00  0.00     0.006 A 
ENDBRANCH  28  49
BRANCH  40  57
ATOM     57  C   UNL A   1      45.495  28.944  32.886  1.00  0.00     0.057 A 
ATOM     58  C   UNL A   1      45.590  28.056  33.962  1.00  0.00     0.134 A 
ATOM     59  C   UNL A   1      46.681  29.363  32.275  1.00  0.00     0.134 A 
ATOM     60  F   UNL A   1      44.485  27.632  34.595  1.00  0.00    -0.206 F 
ATOM     61  C   UNL A   1      46.828  27.602  34.420  1.00  0.00     0.040 A 
ATOM     62  C   UNL A   1      47.924  28.911  32.719  1.00  0.00     0.040 A 
ATOM     63  F   UNL A   1      46.649  30.219  31.243  1.00  0.00    -0.206 F 
ATOM     64  C   UNL A   1      48.000  28.028  33.795  1.00  0.00     0.006 A 
ENDBRANCH  40  57
ENDBRANCH  14  15
ENDBRANCH   7   9
ENDBRANCH   6   7
ENDBRANCH   5   6
ENDBRANCH   4   5
ENDBRANCH   3   4
ENDBRANCH   2   3
ENDBRANCH   1   2
BRANCH   1  65
ATOM     65  O   UNL A   1      33.042  27.783  25.780  1.00  0.00    -0.376 OA
BRANCH  65  66
ATOM     66  C   UNL A   1      34.260  28.094  25.106  1.00  0.00     0.202 C 
BRANCH  66  67
ATOM     67  C   UNL A   1      33.989  28.857  23.806  1.00  0.00     0.261 C 
BRANCH  67  68
ATOM     68  O   UNL A   1      32.579  29.066  23.599  1.00  0.00    -0.459 OA
BRANCH  68  69
ATOM     69  C   UNL A   1      31.968  28.244  22.707  1.00  0.00     0.356 C 
ATOM     70  O   UNL A   1      32.435  27.215  22.245  1.00  0.00    -0.244 OA
BRANCH  69  71
ATOM     71  C   UNL A   1      30.649  28.727  22.424  1.00  0.00     0.152 A 
ATOM     72  N   UNL A   1      30.448  29.818  21.622  1.00  0.00    -0.271 N 
ATOM     73  C   UNL A   1      29.388  28.348  22.874  1.00  0.00     0.059 A 
ATOM     74  N   UNL A   1      29.156  30.146  21.468  1.00  0.00    -0.183 NA
ATOM     75  H   UNL A   1      31.184  30.316  21.197  1.00  0.00     0.190 HD
ATOM     76  C   UNL A   1      28.519  29.271  22.246  1.00  0.00     0.145 A 
BRANCH  73  77
ATOM     77  C   UNL A   1      29.008  27.259  23.831  1.00  0.00     0.303 C 
BRANCH  77  78
ATOM     78  N   UNL A   1      30.061  26.245  24.030  1.00  0.00    -0.331 N 
ATOM     79  C   UNL A   1      30.224  25.861  25.437  1.00  0.00     0.268 C 
ATOM     80  C   UNL A   1      29.940  25.101  23.117  1.00  0.00     0.268 C 
ATOM     81  H   UNL A   1      30.939  26.695  23.771  1.00  0.00     0.348 HD
ATOM     82  C   UNL A   1      31.344  24.846  25.648  1.00  0.00     0.126 C 
ATOM     83  C   UNL A   1      31.059  24.068  23.308  1.00  0.00     0.126 C 
ATOM     84  C   UNL A   1      31.081  23.613  24.772  1.00  0.00     0.195 C 
BRANCH  84  85
ATOM     85  N   UNL A   1      31.969  22.451  24.990  1.00  0.00    -0.331 N 
ATOM     86  C   UNL A   1      31.910  21.427  23.939  1.00  0.00     0.262 C 
ATOM     87  C   UNL A   1      33.359  22.916  25.182  1.00  0.00     0.275 C 
ATOM     88  H   UNL A   1      31.626  21.987  25.831  1.00  0.00     0.348 HD
ATOM     89  C   UNL A   1      32.812  20.234  24.282  1.00  0.00     0.062 C 
ATOM     90  C   UNL A   1      34.288  21.770  25.603  1.00  0.00     0.134 C 
ATOM     91  C   UNL A   1      34.255  20.665  24.549  1.00  0.00     0.025 C 
BRANCH  90  92
ATOM     92  C   UNL A   1      35.694  22.328  25.812  1.00  0.00     0.231 C 
ATOM     93  O   UNL A   1      35.871  23.471  26.237  1.00  0.00    -0.274 OA
ATOM     94  N   UNL A   1      36.761  21.506  25.531  1.00  0.00    -0.342 N 
ATOM     95  C   UNL A   1      36.750  20.168  24.962  1.00  0.00     0.119 C 
ATOM     96  C   UNL A   1      38.114  21.925  25.860  1.00  0.00     0.119 C 
ATOM     97  C   UNL A   1      38.120  19.604  25.312  1.00  0.00     0.023 C 
ATOM     98  C   UNL A   1      39.012  20.838  25.290  1.00  0.00     0.023 C 
ENDBRANCH  90  92
ENDBRANCH  84  85
ENDBRANCH  77  78
ENDBRANCH  73  77
ENDBRANCH  69  71
ENDBRANCH  68  69
ENDBRANCH  67  68
ENDBRANCH  66  67
ENDBRANCH  65  66
ENDBRANCH   1  65
TORSDOF 21
ENDMDL
