MODEL 1
REMARK VINA RESULT:      -9.4      0.000      0.000
REMARK SMILES CC[C@@](C)(Nc1nccn(C2CC2)c1=O)C(=O)OCCOCCOCCOC(=O)c1ccc(-c2c3nc(c(-c4c(F)cccc4F)c4ccc([nH]4)c(-c4c(F)cccc4F)c4nc(c(-c5c(F)cccc5F)c5ccc2[nH]5)C=C4)C=C3)cc1
REMARK SMILES IDX 22 1 21 2 20 3 19 4 18 5 16 6 17 7 3 8 4 9 2 10 1 11 5 12
REMARK SMILES IDX 6 14 7 15 14 16 8 17 10 18 15 19 9 20 11 21 12 22 13 23
REMARK SMILES IDX 23 24 24 25 25 26 26 27 27 28 28 29 29 30 30 31 31 32 83 33
REMARK SMILES IDX 32 34 82 35 33 36 34 37 35 38 76 39 36 40 81 41 75 42 77 43
REMARK SMILES IDX 37 44 80 45 74 46 73 47 38 49 64 50 47 51 63 52 48 53 51 54
REMARK SMILES IDX 62 55 78 56 49 57 50 58 61 60 79 61 52 62 39 63 40 64 45 65
REMARK SMILES IDX 41 66 42 67 44 68 46 69 43 70 65 71 66 72 71 73 67 74 68 75
REMARK SMILES IDX 70 76 72 77 69 78 53 79 54 80 59 81 55 82 56 83 58 84 60 85
REMARK SMILES IDX 57 86
REMARK H PARENT 5 13 77 48 51 59
REMARK Flexibility Score: inf
ROOT
ATOM      1  C   UNL A   1      33.384  29.355  27.097  1.00  0.00     0.188 C 
ENDROOT
BRANCH   1   2
ATOM      2  O   UNL A   1      33.616  28.677  25.869  1.00  0.00    -0.376 OA
BRANCH   2   3
ATOM      3  C   UNL A   1      33.896  27.273  25.970  1.00  0.00     0.202 C 
BRANCH   3   4
ATOM      4  C   UNL A   1      32.676  26.372  26.167  1.00  0.00     0.261 C 
BRANCH   4   5
ATOM      5  O   UNL A   1      33.059  24.986  26.052  1.00  0.00    -0.462 OA
BRANCH   5   6
ATOM      6  C   UNL A   1      32.354  24.267  25.152  1.00  0.00     0.331 C 
ATOM      7  O   UNL A   1      31.168  23.980  25.322  1.00  0.00    -0.249 OA
BRANCH   6   8
ATOM      8  C   UNL A   1      33.090  23.936  23.833  1.00  0.00     0.134 C 
ATOM      9  C   UNL A   1      34.577  23.778  24.207  1.00  0.00     0.047 C 
BRANCH   8  10
ATOM     10  C   UNL A   1      32.537  22.607  23.226  1.00  0.00     0.037 C 
ATOM     11  C   UNL A   1      32.954  21.295  23.870  1.00  0.00     0.007 C 
ENDBRANCH   8  10
BRANCH   8  12
ATOM     12  N   UNL A   1      33.046  24.872  22.707  1.00  0.00    -0.350 N 
ATOM     13  H   UNL A   1      33.033  24.409  21.838  1.00  0.00     0.163 HD
BRANCH  12  14
ATOM     14  C   UNL A   1      33.021  26.244  22.567  1.00  0.00     0.193 A 
ATOM     15  N   UNL A   1      34.053  27.013  22.392  1.00  0.00    -0.233 NA
ATOM     16  C   UNL A   1      31.564  26.826  22.577  1.00  0.00     0.293 A 
ATOM     17  C   UNL A   1      33.822  28.365  22.338  1.00  0.00     0.131 A 
ATOM     18  N   UNL A   1      31.470  28.211  22.506  1.00  0.00    -0.308 N 
ATOM     19  O   UNL A   1      30.642  26.011  22.597  1.00  0.00    -0.265 OA
ATOM     20  C   UNL A   1      32.622  28.956  22.402  1.00  0.00     0.110 A 
BRANCH  18  21
ATOM     21  C   UNL A   1      30.198  28.893  22.406  1.00  0.00     0.090 C 
ATOM     22  C   UNL A   1      28.978  28.510  23.208  1.00  0.00     0.028 C 
ATOM     23  C   UNL A   1      29.674  29.806  23.490  1.00  0.00     0.028 C 
ENDBRANCH  18  21
ENDBRANCH  12  14
ENDBRANCH   8  12
ENDBRANCH   6   8
ENDBRANCH   5   6
ENDBRANCH   4   5
ENDBRANCH   3   4
ENDBRANCH   2   3
ENDBRANCH   1   2
BRANCH   1  24
ATOM     24  C   UNL A   1      32.032  30.054  27.244  1.00  0.00     0.188 C 
BRANCH  24  25
ATOM     25  O   UNL A   1      31.639  30.903  26.171  1.00  0.00    -0.376 OA
BRANCH  25  26
ATOM     26  C   UNL A   1      31.402  32.258  26.563  1.00  0.00     0.202 C 
BRANCH  26  27
ATOM     27  C   UNL A   1      32.654  32.917  27.151  1.00  0.00     0.261 C 
BRANCH  27  28
ATOM     28  O   UNL A   1      32.296  34.022  27.998  1.00  0.00    -0.460 OA
BRANCH  28  29
ATOM     29  C   UNL A   1      33.341  34.792  28.388  1.00  0.00     0.338 C 
ATOM     30  O   UNL A   1      33.365  36.008  28.446  1.00  0.00    -0.246 OA
BRANCH  29  31
ATOM     31  C   UNL A   1      34.428  33.964  28.952  1.00  0.00     0.060 A 
ATOM     32  C   UNL A   1      35.775  34.217  28.677  1.00  0.00     0.016 A 
ATOM     33  C   UNL A   1      34.056  32.844  29.713  1.00  0.00     0.016 A 
ATOM     34  C   UNL A   1      36.747  33.355  29.176  1.00  0.00     0.010 A 
ATOM     35  C   UNL A   1      35.029  31.994  30.226  1.00  0.00     0.010 A 
ATOM     36  C   UNL A   1      36.379  32.253  29.968  1.00  0.00    -0.014 A 
BRANCH  36  37
ATOM     37  C   UNL A   1      37.427  31.477  30.655  1.00  0.00     0.031 A 
ATOM     38  C   UNL A   1      38.232  30.441  29.940  1.00  0.00     0.074 A 
ATOM     39  C   UNL A   1      37.630  31.740  31.958  1.00  0.00     0.049 A 
ATOM     40  N   UNL A   1      39.286  29.792  30.359  1.00  0.00    -0.248 NA
ATOM     41  C   UNL A   1      37.793  30.079  28.585  1.00  0.00     0.031 C 
ATOM     42  C   UNL A   1      36.848  32.693  32.752  1.00  0.00     0.029 A 
ATOM     43  N   UNL A   1      38.557  31.253  32.837  1.00  0.00    -0.354 N 
ATOM     44  C   UNL A   1      39.657  28.959  29.313  1.00  0.00     0.074 A 
ATOM     45  C   UNL A   1      38.682  29.147  28.259  1.00  0.00     0.031 C 
ATOM     46  C   UNL A   1      37.357  32.752  33.990  1.00  0.00     0.029 A 
ATOM     47  C   UNL A   1      38.487  31.836  34.077  1.00  0.00     0.049 A 
ATOM     48  H   UNL A   1      39.210  30.554  32.603  1.00  0.00     0.167 HD
ATOM     49  C   UNL A   1      40.726  28.129  29.244  1.00  0.00     0.037 A 
ATOM     50  C   UNL A   1      39.270  31.664  35.156  1.00  0.00     0.037 A 
ATOM     51  C   UNL A   1      41.663  27.934  30.322  1.00  0.00     0.049 A 
ATOM     52  C   UNL A   1      40.437  30.727  35.053  1.00  0.00     0.074 A 
ATOM     53  C   UNL A   1      42.806  27.152  30.348  1.00  0.00     0.029 A 
ATOM     54  N   UNL A   1      41.550  28.517  31.578  1.00  0.00    -0.354 N 
ATOM     55  N   UNL A   1      40.847  30.028  34.023  1.00  0.00    -0.248 NA
ATOM     56  C   UNL A   1      41.256  30.570  36.260  1.00  0.00     0.031 C 
ATOM     57  C   UNL A   1      43.357  27.228  31.634  1.00  0.00     0.029 A 
ATOM     58  C   UNL A   1      42.585  28.090  32.396  1.00  0.00     0.049 A 
ATOM     59  H   UNL A   1      40.839  29.141  31.848  1.00  0.00     0.167 HD
ATOM     60  C   UNL A   1      41.986  29.361  34.448  1.00  0.00     0.074 A 
ATOM     61  C   UNL A   1      42.212  29.762  35.824  1.00  0.00     0.031 C 
ATOM     62  C   UNL A   1      42.776  28.494  33.766  1.00  0.00     0.037 A 
BRANCH  49  63
ATOM     63  C   UNL A   1      40.929  27.373  27.962  1.00  0.00     0.057 A 
ATOM     64  C   UNL A   1      41.755  27.879  26.951  1.00  0.00     0.134 A 
ATOM     65  C   UNL A   1      40.288  26.150  27.720  1.00  0.00     0.134 A 
ATOM     66  F   UNL A   1      42.395  29.046  27.113  1.00  0.00    -0.206 F 
ATOM     67  C   UNL A   1      41.940  27.192  25.748  1.00  0.00     0.040 A 
ATOM     68  C   UNL A   1      40.483  25.444  26.531  1.00  0.00     0.040 A 
ATOM     69  F   UNL A   1      39.491  25.606  28.651  1.00  0.00    -0.206 F 
ATOM     70  C   UNL A   1      41.307  25.968  25.539  1.00  0.00     0.006 A 
ENDBRANCH  49  63
BRANCH  50  71
ATOM     71  C   UNL A   1      39.011  32.443  36.389  1.00  0.00     0.057 A 
ATOM     72  C   UNL A   1      38.179  31.953  37.403  1.00  0.00     0.134 A 
ATOM     73  C   UNL A   1      39.584  33.704  36.576  1.00  0.00     0.134 A 
ATOM     74  F   UNL A   1      37.589  30.756  37.275  1.00  0.00    -0.206 F 
ATOM     75  C   UNL A   1      37.925  32.692  38.559  1.00  0.00     0.040 A 
ATOM     76  C   UNL A   1      39.358  34.445  37.736  1.00  0.00     0.040 A 
ATOM     77  F   UNL A   1      40.396  34.222  35.641  1.00  0.00    -0.206 F 
ATOM     78  C   UNL A   1      38.523  33.940  38.731  1.00  0.00     0.006 A 
ENDBRANCH  50  71
BRANCH  62  79
ATOM     79  C   UNL A   1      43.955  27.944  34.512  1.00  0.00     0.057 A 
ATOM     80  C   UNL A   1      45.185  28.612  34.496  1.00  0.00     0.134 A 
ATOM     81  C   UNL A   1      43.866  26.764  35.262  1.00  0.00     0.134 A 
ATOM     82  F   UNL A   1      45.337  29.745  33.795  1.00  0.00    -0.206 F 
ATOM     83  C   UNL A   1      46.284  28.130  35.207  1.00  0.00     0.040 A 
ATOM     84  C   UNL A   1      44.950  26.286  35.999  1.00  0.00     0.040 A 
ATOM     85  F   UNL A   1      42.709  26.089  35.333  1.00  0.00    -0.206 F 
ATOM     86  C   UNL A   1      46.165  26.970  35.970  1.00  0.00     0.006 A 
ENDBRANCH  62  79
ENDBRANCH  36  37
ENDBRANCH  29  31
ENDBRANCH  28  29
ENDBRANCH  27  28
ENDBRANCH  26  27
ENDBRANCH  25  26
ENDBRANCH  24  25
ENDBRANCH   1  24
TORSDOF 21
ENDMDL
MODEL 2
REMARK VINA RESULT:      -9.1      8.599     14.917
REMARK SMILES CC[C@@](C)(Nc1nccn(C2CC2)c1=O)C(=O)OCCOCCOCCOC(=O)c1ccc(-c2c3nc(c(-c4c(F)cccc4F)c4ccc([nH]4)c(-c4c(F)cccc4F)c4nc(c(-c5c(F)cccc5F)c5ccc2[nH]5)C=C4)C=C3)cc1
REMARK SMILES IDX 22 1 21 2 20 3 19 4 18 5 16 6 17 7 3 8 4 9 2 10 1 11 5 12
REMARK SMILES IDX 6 14 7 15 14 16 8 17 10 18 15 19 9 20 11 21 12 22 13 23
REMARK SMILES IDX 23 24 24 25 25 26 26 27 27 28 28 29 29 30 30 31 31 32 83 33
REMARK SMILES IDX 32 34 82 35 33 36 34 37 35 38 76 39 36 40 81 41 75 42 77 43
REMARK SMILES IDX 37 44 80 45 74 46 73 47 38 49 64 50 47 51 63 52 48 53 51 54
REMARK SMILES IDX 62 55 78 56 49 57 50 58 61 60 79 61 52 62 39 63 40 64 45 65
REMARK SMILES IDX 41 66 42 67 44 68 46 69 43 70 65 71 66 72 71 73 67 74 68 75
REMARK SMILES IDX 70 76 72 77 69 78 53 79 54 80 59 81 55 82 56 83 58 84 60 85
REMARK SMILES IDX 57 86
REMARK H PARENT 5 13 77 48 51 59
REMARK Flexibility Score: inf
ROOT
ATOM      1  C   UNL A   1      48.591  19.979  37.781  1.00  0.00     0.188 C 
ENDROOT
BRANCH   1   2
ATOM      2  O   UNL A   1      47.959  20.572  38.909  1.00  0.00    -0.376 OA
BRANCH   2   3
ATOM      3  C   UNL A   1      47.132  19.701  39.694  1.00  0.00     0.202 C 
BRANCH   3   4
ATOM      4  C   UNL A   1      46.481  18.548  38.930  1.00  0.00     0.261 C 
BRANCH   4   5
ATOM      5  O   UNL A   1      46.151  17.475  39.835  1.00  0.00    -0.462 OA
BRANCH   5   6
ATOM      6  C   UNL A   1      44.833  17.304  40.070  1.00  0.00     0.331 C 
ATOM      7  O   UNL A   1      44.005  17.232  39.159  1.00  0.00    -0.249 OA
BRANCH   6   8
ATOM      8  C   UNL A   1      44.439  17.072  41.547  1.00  0.00     0.134 C 
ATOM      9  C   UNL A   1      45.556  16.199  42.151  1.00  0.00     0.047 C 
BRANCH   8  10
ATOM     10  C   UNL A   1      44.347  18.438  42.301  1.00  0.00     0.037 C 
ATOM     11  C   UNL A   1      43.657  18.466  43.655  1.00  0.00     0.007 C 
ENDBRANCH   8  10
BRANCH   8  12
ATOM     12  N   UNL A   1      43.174  16.411  41.880  1.00  0.00    -0.350 N 
ATOM     13  H   UNL A   1      42.584  16.986  42.420  1.00  0.00     0.163 HD
BRANCH  12  14
ATOM     14  C   UNL A   1      42.610  15.179  41.624  1.00  0.00     0.193 A 
ATOM     15  N   UNL A   1      42.178  14.761  40.472  1.00  0.00    -0.233 NA
ATOM     16  C   UNL A   1      42.582  14.252  42.889  1.00  0.00     0.293 A 
ATOM     17  C   UNL A   1      41.590  13.522  40.439  1.00  0.00     0.131 A 
ATOM     18  N   UNL A   1      41.965  13.018  42.717  1.00  0.00    -0.308 N 
ATOM     19  O   UNL A   1      43.146  14.675  43.898  1.00  0.00    -0.265 OA
ATOM     20  C   UNL A   1      41.464  12.688  41.479  1.00  0.00     0.110 A 
BRANCH  18  21
ATOM     21  C   UNL A   1      41.946  12.014  43.758  1.00  0.00     0.090 C 
ATOM     22  C   UNL A   1      42.011  10.531  43.489  1.00  0.00     0.028 C 
ATOM     23  C   UNL A   1      43.170  11.217  44.144  1.00  0.00     0.028 C 
ENDBRANCH  18  21
ENDBRANCH  12  14
ENDBRANCH   8  12
ENDBRANCH   6   8
ENDBRANCH   5   6
ENDBRANCH   4   5
ENDBRANCH   3   4
ENDBRANCH   2   3
ENDBRANCH   1   2
BRANCH   1  24
ATOM     24  C   UNL A   1      48.697  20.845  36.526  1.00  0.00     0.188 C 
BRANCH  24  25
ATOM     25  O   UNL A   1      47.473  21.336  35.990  1.00  0.00    -0.376 OA
BRANCH  25  26
ATOM     26  C   UNL A   1      47.643  22.314  34.961  1.00  0.00     0.202 C 
BRANCH  26  27
ATOM     27  C   UNL A   1      47.633  23.743  35.514  1.00  0.00     0.261 C 
BRANCH  27  28
ATOM     28  O   UNL A   1      46.434  23.988  36.267  1.00  0.00    -0.460 OA
BRANCH  28  29
ATOM     29  C   UNL A   1      46.315  25.254  36.739  1.00  0.00     0.338 C 
ATOM     30  O   UNL A   1      47.013  25.781  37.586  1.00  0.00    -0.246 OA
BRANCH  29  31
ATOM     31  C   UNL A   1      45.338  26.026  35.942  1.00  0.00     0.060 A 
ATOM     32  C   UNL A   1      43.988  25.672  35.872  1.00  0.00     0.016 A 
ATOM     33  C   UNL A   1      45.833  27.093  35.176  1.00  0.00     0.016 A 
ATOM     34  C   UNL A   1      43.134  26.394  35.044  1.00  0.00     0.010 A 
ATOM     35  C   UNL A   1      44.975  27.826  34.363  1.00  0.00     0.010 A 
ATOM     36  C   UNL A   1      43.620  27.485  34.303  1.00  0.00    -0.014 A 
BRANCH  36  37
ATOM     37  C   UNL A   1      42.666  28.360  33.599  1.00  0.00     0.031 A 
ATOM     38  C   UNL A   1      42.325  28.151  32.160  1.00  0.00     0.074 A 
ATOM     39  C   UNL A   1      42.112  29.360  34.308  1.00  0.00     0.049 A 
ATOM     40  N   UNL A   1      41.396  28.731  31.446  1.00  0.00    -0.248 NA
ATOM     41  C   UNL A   1      43.137  27.174  31.421  1.00  0.00     0.031 C 
ATOM     42  C   UNL A   1      42.435  29.675  35.703  1.00  0.00     0.029 A 
ATOM     43  N   UNL A   1      41.158  30.278  33.968  1.00  0.00    -0.354 N 
ATOM     44  C   UNL A   1      41.490  28.175  30.179  1.00  0.00     0.074 A 
ATOM     45  C   UNL A   1      42.603  27.248  30.207  1.00  0.00     0.031 C 
ATOM     46  C   UNL A   1      41.658  30.688  36.112  1.00  0.00     0.029 A 
ATOM     47  C   UNL A   1      40.798  31.095  35.009  1.00  0.00     0.049 A 
ATOM     48  H   UNL A   1      40.768  30.345  33.066  1.00  0.00     0.167 HD
ATOM     49  C   UNL A   1      40.702  28.411  29.102  1.00  0.00     0.037 A 
ATOM     50  C   UNL A   1      39.856  32.052  35.068  1.00  0.00     0.037 A 
ATOM     51  C   UNL A   1      39.620  29.364  29.090  1.00  0.00     0.049 A 
ATOM     52  C   UNL A   1      39.010  32.301  33.854  1.00  0.00     0.074 A 
ATOM     53  C   UNL A   1      38.730  29.654  28.071  1.00  0.00     0.029 A 
ATOM     54  N   UNL A   1      39.297  30.199  30.152  1.00  0.00    -0.354 N 
ATOM     55  N   UNL A   1      39.030  31.692  32.693  1.00  0.00    -0.248 NA
ATOM     56  C   UNL A   1      38.001  33.359  33.967  1.00  0.00     0.031 C 
ATOM     57  C   UNL A   1      37.898  30.697  28.501  1.00  0.00     0.029 A 
ATOM     58  C   UNL A   1      38.240  31.026  29.803  1.00  0.00     0.049 A 
ATOM     59  H   UNL A   1      39.752  30.204  31.025  1.00  0.00     0.167 HD
ATOM     60  C   UNL A   1      38.023  32.278  31.941  1.00  0.00     0.074 A 
ATOM     61  C   UNL A   1      37.398  33.274  32.790  1.00  0.00     0.031 C 
ATOM     62  C   UNL A   1      37.648  32.019  30.663  1.00  0.00     0.037 A 
BRANCH  49  63
ATOM     63  C   UNL A   1      40.989  27.625  27.854  1.00  0.00     0.057 A 
ATOM     64  C   UNL A   1      41.800  28.153  26.841  1.00  0.00     0.134 A 
ATOM     65  C   UNL A   1      40.444  26.351  27.646  1.00  0.00     0.134 A 
ATOM     66  F   UNL A   1      42.350  29.368  26.972  1.00  0.00    -0.206 F 
ATOM     67  C   UNL A   1      42.062  27.438  25.670  1.00  0.00     0.040 A 
ATOM     68  C   UNL A   1      40.717  25.618  26.489  1.00  0.00     0.040 A 
ATOM     69  F   UNL A   1      39.667  25.784  28.581  1.00  0.00    -0.206 F 
ATOM     70  C   UNL A   1      41.525  26.164  25.495  1.00  0.00     0.006 A 
ENDBRANCH  49  63
BRANCH  50  71
ATOM     71  C   UNL A   1      39.627  32.789  36.332  1.00  0.00     0.057 A 
ATOM     72  C   UNL A   1      40.374  33.925  36.663  1.00  0.00     0.134 A 
ATOM     73  C   UNL A   1      38.658  32.363  37.246  1.00  0.00     0.134 A 
ATOM     74  F   UNL A   1      41.328  34.373  35.835  1.00  0.00    -0.206 F 
ATOM     75  C   UNL A   1      40.167  34.611  37.861  1.00  0.00     0.040 A 
ATOM     76  C   UNL A   1      38.424  33.051  38.437  1.00  0.00     0.040 A 
ATOM     77  F   UNL A   1      37.906  31.284  36.979  1.00  0.00    -0.206 F 
ATOM     78  C   UNL A   1      39.183  34.178  38.748  1.00  0.00     0.006 A 
ENDBRANCH  50  71
BRANCH  62  79
ATOM     79  C   UNL A   1      36.501  32.827  30.133  1.00  0.00     0.057 A 
ATOM     80  C   UNL A   1      36.717  33.841  29.193  1.00  0.00     0.134 A 
ATOM     81  C   UNL A   1      35.182  32.588  30.541  1.00  0.00     0.134 A 
ATOM     82  F   UNL A   1      37.956  34.122  28.765  1.00  0.00    -0.206 F 
ATOM     83  C   UNL A   1      35.658  34.583  28.668  1.00  0.00     0.040 A 
ATOM     84  C   UNL A   1      34.113  33.305  30.003  1.00  0.00     0.040 A 
ATOM     85  F   UNL A   1      34.909  31.616  31.424  1.00  0.00    -0.206 F 
ATOM     86  C   UNL A   1      34.351  34.309  29.065  1.00  0.00     0.006 A 
ENDBRANCH  62  79
ENDBRANCH  36  37
ENDBRANCH  29  31
ENDBRANCH  28  29
ENDBRANCH  27  28
ENDBRANCH  26  27
ENDBRANCH  25  26
ENDBRANCH  24  25
ENDBRANCH   1  24
TORSDOF 21
ENDMDL
MODEL 3
REMARK VINA RESULT:      -9.0      1.259      6.192
REMARK SMILES CC[C@@](C)(Nc1nccn(C2CC2)c1=O)C(=O)OCCOCCOCCOC(=O)c1ccc(-c2c3nc(c(-c4c(F)cccc4F)c4ccc([nH]4)c(-c4c(F)cccc4F)c4nc(c(-c5c(F)cccc5F)c5ccc2[nH]5)C=C4)C=C3)cc1
REMARK SMILES IDX 22 1 21 2 20 3 19 4 18 5 16 6 17 7 3 8 4 9 2 10 1 11 5 12
REMARK SMILES IDX 6 14 7 15 14 16 8 17 10 18 15 19 9 20 11 21 12 22 13 23
REMARK SMILES IDX 23 24 24 25 25 26 26 27 27 28 28 29 29 30 30 31 31 32 83 33
REMARK SMILES IDX 32 34 82 35 33 36 34 37 35 38 76 39 36 40 81 41 75 42 77 43
REMARK SMILES IDX 37 44 80 45 74 46 73 47 38 49 64 50 47 51 63 52 48 53 51 54
REMARK SMILES IDX 62 55 78 56 49 57 50 58 61 60 79 61 52 62 39 63 40 64 45 65
REMARK SMILES IDX 41 66 42 67 44 68 46 69 43 70 65 71 66 72 71 73 67 74 68 75
REMARK SMILES IDX 70 76 72 77 69 78 53 79 54 80 59 81 55 82 56 83 58 84 60 85
REMARK SMILES IDX 57 86
REMARK H PARENT 5 13 77 48 51 59
REMARK Flexibility Score: inf
ROOT
ATOM      1  C   UNL A   1      33.367  29.271  27.118  1.00  0.00     0.188 C 
ENDROOT
BRANCH   1   2
ATOM      2  O   UNL A   1      33.711  28.748  25.841  1.00  0.00    -0.376 OA
BRANCH   2   3
ATOM      3  C   UNL A   1      34.073  27.359  25.809  1.00  0.00     0.202 C 
BRANCH   3   4
ATOM      4  C   UNL A   1      32.950  26.380  26.152  1.00  0.00     0.261 C 
BRANCH   4   5
ATOM      5  O   UNL A   1      33.434  25.024  26.081  1.00  0.00    -0.462 OA
BRANCH   5   6
ATOM      6  C   UNL A   1      32.733  24.203  25.271  1.00  0.00     0.331 C 
ATOM      7  O   UNL A   1      31.580  23.852  25.527  1.00  0.00    -0.249 OA
BRANCH   6   8
ATOM      8  C   UNL A   1      33.417  23.834  23.934  1.00  0.00     0.134 C 
ATOM      9  C   UNL A   1      34.928  23.783  24.233  1.00  0.00     0.047 C 
BRANCH   8  10
ATOM     10  C   UNL A   1      32.913  22.441  23.436  1.00  0.00     0.037 C 
ATOM     11  C   UNL A   1      33.460  21.195  24.113  1.00  0.00     0.007 C 
ENDBRANCH   8  10
BRANCH   8  12
ATOM     12  N   UNL A   1      33.259  24.696  22.760  1.00  0.00    -0.350 N 
ATOM     13  H   UNL A   1      33.246  24.182  21.920  1.00  0.00     0.163 HD
BRANCH  12  14
ATOM     14  C   UNL A   1      33.126  26.051  22.544  1.00  0.00     0.193 A 
ATOM     15  N   UNL A   1      34.089  26.879  22.269  1.00  0.00    -0.233 NA
ATOM     16  C   UNL A   1      31.632  26.529  22.601  1.00  0.00     0.293 A 
ATOM     17  C   UNL A   1      33.756  28.205  22.151  1.00  0.00     0.131 A 
ATOM     18  N   UNL A   1      31.433  27.897  22.458  1.00  0.00    -0.308 N 
ATOM     19  O   UNL A   1      30.775  25.654  22.719  1.00  0.00    -0.265 OA
ATOM     20  C   UNL A   1      32.521  28.713  22.248  1.00  0.00     0.110 A 
BRANCH  18  21
ATOM     21  C   UNL A   1      30.111  28.481  22.389  1.00  0.00     0.090 C 
ATOM     22  C   UNL A   1      29.001  28.153  23.357  1.00  0.00     0.028 C 
ATOM     23  C   UNL A   1      29.624  29.515  23.377  1.00  0.00     0.028 C 
ENDBRANCH  18  21
ENDBRANCH  12  14
ENDBRANCH   8  12
ENDBRANCH   6   8
ENDBRANCH   5   6
ENDBRANCH   4   5
ENDBRANCH   3   4
ENDBRANCH   2   3
ENDBRANCH   1   2
BRANCH   1  24
ATOM     24  C   UNL A   1      31.978  29.897  27.246  1.00  0.00     0.188 C 
BRANCH  24  25
ATOM     25  O   UNL A   1      31.566  30.747  26.181  1.00  0.00    -0.376 OA
BRANCH  25  26
ATOM     26  C   UNL A   1      31.546  32.136  26.524  1.00  0.00     0.202 C 
BRANCH  26  27
ATOM     27  C   UNL A   1      32.679  32.511  27.485  1.00  0.00     0.261 C 
BRANCH  27  28
ATOM     28  O   UNL A   1      32.231  33.485  28.442  1.00  0.00    -0.460 OA
BRANCH  28  29
ATOM     29  C   UNL A   1      33.119  34.481  28.686  1.00  0.00     0.338 C 
ATOM     30  O   UNL A   1      32.906  35.678  28.608  1.00  0.00    -0.246 OA
BRANCH  29  31
ATOM     31  C   UNL A   1      34.365  33.948  29.276  1.00  0.00     0.060 A 
ATOM     32  C   UNL A   1      34.358  33.085  30.376  1.00  0.00     0.016 A 
ATOM     33  C   UNL A   1      35.579  34.410  28.743  1.00  0.00     0.016 A 
ATOM     34  C   UNL A   1      35.567  32.679  30.933  1.00  0.00     0.010 A 
ATOM     35  C   UNL A   1      36.786  33.989  29.288  1.00  0.00     0.010 A 
ATOM     36  C   UNL A   1      36.783  33.113  30.379  1.00  0.00    -0.014 A 
BRANCH  36  37
ATOM     37  C   UNL A   1      38.045  32.510  30.848  1.00  0.00     0.031 A 
ATOM     38  C   UNL A   1      38.784  33.056  32.025  1.00  0.00     0.074 A 
ATOM     39  C   UNL A   1      38.505  31.444  30.168  1.00  0.00     0.049 A 
ATOM     40  N   UNL A   1      39.812  32.548  32.652  1.00  0.00    -0.248 NA
ATOM     41  C   UNL A   1      38.318  34.341  32.564  1.00  0.00     0.031 C 
ATOM     42  C   UNL A   1      37.879  30.882  28.968  1.00  0.00     0.029 A 
ATOM     43  N   UNL A   1      39.585  30.636  30.394  1.00  0.00    -0.354 N 
ATOM     44  C   UNL A   1      40.106  33.436  33.678  1.00  0.00     0.074 A 
ATOM     45  C   UNL A   1      39.179  34.542  33.555  1.00  0.00     0.031 C 
ATOM     46  C   UNL A   1      38.562  29.794  28.588  1.00  0.00     0.029 A 
ATOM     47  C   UNL A   1      39.674  29.592  29.509  1.00  0.00     0.049 A 
ATOM     48  H   UNL A   1      40.232  30.789  31.120  1.00  0.00     0.167 HD
ATOM     49  C   UNL A   1      41.055  33.319  34.638  1.00  0.00     0.037 A 
ATOM     50  C   UNL A   1      40.546  28.571  29.464  1.00  0.00     0.037 A 
ATOM     51  C   UNL A   1      41.988  32.223  34.718  1.00  0.00     0.049 A 
ATOM     52  C   UNL A   1      41.595  28.478  30.533  1.00  0.00     0.074 A 
ATOM     53  C   UNL A   1      42.963  31.980  35.670  1.00  0.00     0.029 A 
ATOM     54  N   UNL A   1      42.074  31.194  33.788  1.00  0.00    -0.354 N 
ATOM     55  N   UNL A   1      41.796  29.261  31.565  1.00  0.00    -0.248 NA
ATOM     56  C   UNL A   1      42.527  27.349  30.437  1.00  0.00     0.031 C 
ATOM     57  C   UNL A   1      43.666  30.828  35.292  1.00  0.00     0.029 A 
ATOM     58  C   UNL A   1      43.102  30.329  34.129  1.00  0.00     0.049 A 
ATOM     59  H   UNL A   1      41.490  31.094  33.002  1.00  0.00     0.167 HD
ATOM     60  C   UNL A   1      42.865  28.710  32.256  1.00  0.00     0.074 A 
ATOM     61  C   UNL A   1      43.251  27.513  31.535  1.00  0.00     0.031 C 
ATOM     62  C   UNL A   1      43.474  29.153  33.384  1.00  0.00     0.037 A 
BRANCH  49  63
ATOM     63  C   UNL A   1      41.125  34.407  35.671  1.00  0.00     0.057 A 
ATOM     64  C   UNL A   1      40.423  34.302  36.878  1.00  0.00     0.134 A 
ATOM     65  C   UNL A   1      41.876  35.573  35.461  1.00  0.00     0.134 A 
ATOM     66  F   UNL A   1      39.681  33.217  37.142  1.00  0.00    -0.206 F 
ATOM     67  C   UNL A   1      40.469  35.313  37.840  1.00  0.00     0.040 A 
ATOM     68  C   UNL A   1      41.947  36.581  36.425  1.00  0.00     0.040 A 
ATOM     69  F   UNL A   1      42.580  35.733  34.331  1.00  0.00    -0.206 F 
ATOM     70  C   UNL A   1      41.238  36.454  37.617  1.00  0.00     0.006 A 
ENDBRANCH  49  63
BRANCH  50  71
ATOM     71  C   UNL A   1      40.418  27.533  28.416  1.00  0.00     0.057 A 
ATOM     72  C   UNL A   1      41.056  27.662  27.176  1.00  0.00     0.134 A 
ATOM     73  C   UNL A   1      39.642  26.389  28.628  1.00  0.00     0.134 A 
ATOM     74  F   UNL A   1      41.802  28.743  26.907  1.00  0.00    -0.206 F 
ATOM     75  C   UNL A   1      40.925  26.690  26.184  1.00  0.00     0.040 A 
ATOM     76  C   UNL A   1      39.520  25.398  27.655  1.00  0.00     0.040 A 
ATOM     77  F   UNL A   1      39.014  26.208  29.800  1.00  0.00    -0.206 F 
ATOM     78  C   UNL A   1      40.160  25.549  26.426  1.00  0.00     0.006 A 
ENDBRANCH  50  71
BRANCH  62  79
ATOM     79  C   UNL A   1      44.610  28.317  33.894  1.00  0.00     0.057 A 
ATOM     80  C   UNL A   1      45.926  28.580  33.496  1.00  0.00     0.134 A 
ATOM     81  C   UNL A   1      44.402  27.264  34.795  1.00  0.00     0.134 A 
ATOM     82  F   UNL A   1      46.192  29.572  32.633  1.00  0.00    -0.206 F 
ATOM     83  C   UNL A   1      46.997  27.830  33.983  1.00  0.00     0.040 A 
ATOM     84  C   UNL A   1      45.467  26.525  35.310  1.00  0.00     0.040 A 
ATOM     85  F   UNL A   1      43.166  26.976  35.230  1.00  0.00    -0.206 F 
ATOM     86  C   UNL A   1      46.770  26.806  34.901  1.00  0.00     0.006 A 
ENDBRANCH  62  79
ENDBRANCH  36  37
ENDBRANCH  29  31
ENDBRANCH  28  29
ENDBRANCH  27  28
ENDBRANCH  26  27
ENDBRANCH  25  26
ENDBRANCH  24  25
ENDBRANCH   1  24
TORSDOF 21
ENDMDL
