MODEL 1
REMARK VINA RESULT:      -9.9      0.000      0.000
REMARK SMILES COc1ccc(NC(=O)c2cccn2CC(=O)OCCOCCOCCOC(=O)c2ccc(-c3c4nc(c(-c5c(F)cccc5F)c5ccc([nH]5)c(-c5c(F)cccc5F)c5nc(c(-c6c(F)cccc6F)c6ccc3[nH]6)C=C5)C=C4)cc2)cc1F
REMARK SMILES IDX 22 1 21 2 20 3 19 4 18 5 16 6 17 7 15 8 14 9 10 10 11 11
REMARK SMILES IDX 12 12 13 13 8 14 7 15 9 17 6 18 3 19 4 20 85 21 5 22 84 23
REMARK SMILES IDX 86 24 2 25 1 26 23 27 24 28 25 29 26 30 27 31 28 32 29 33
REMARK SMILES IDX 30 34 31 35 83 36 32 37 82 38 33 39 34 40 35 41 76 42 36 43
REMARK SMILES IDX 81 44 75 45 77 46 37 47 80 48 74 49 73 50 38 52 64 53 47 54
REMARK SMILES IDX 63 55 48 56 51 57 62 58 78 59 49 60 50 61 61 63 79 64 52 65
REMARK SMILES IDX 39 66 40 67 45 68 41 69 42 70 44 71 46 72 43 73 65 74 66 75
REMARK SMILES IDX 71 76 67 77 68 78 70 79 72 80 69 81 53 82 54 83 59 84 55 85
REMARK SMILES IDX 56 86 58 87 60 88 57 89
REMARK H PARENT 7 16 77 51 51 62
REMARK Flexibility Score: inf
ROOT
ATOM      1  C   UNL A   1      33.424  27.756  25.837  1.00  0.00     0.188 C 
ENDROOT
BRANCH   1   2
ATOM      2  O   UNL A   1      32.793  26.483  25.953  1.00  0.00    -0.376 OA
BRANCH   2   3
ATOM      3  C   UNL A   1      31.675  26.342  26.811  1.00  0.00     0.202 C 
BRANCH   3   4
ATOM      4  C   UNL A   1      30.375  25.860  26.146  1.00  0.00     0.261 C 
BRANCH   4   5
ATOM      5  O   UNL A   1      30.409  24.510  25.623  1.00  0.00    -0.462 OA
BRANCH   5   6
ATOM      6  C   UNL A   1      30.272  23.501  26.517  1.00  0.00     0.326 C 
ATOM      7  O   UNL A   1      29.470  23.530  27.448  1.00  0.00    -0.250 OA
BRANCH   6   8
ATOM      8  C   UNL A   1      31.133  22.276  26.293  1.00  0.00     0.244 C 
BRANCH   8   9
ATOM      9  N   UNL A   1      32.576  22.401  26.051  1.00  0.00    -0.332 N 
ATOM     10  C   UNL A   1      33.223  22.357  24.823  1.00  0.00     0.107 A 
ATOM     11  C   UNL A   1      34.515  22.829  25.039  1.00  0.00     0.033 A 
ATOM     12  C   UNL A   1      34.679  23.086  26.416  1.00  0.00     0.020 A 
ATOM     13  C   UNL A   1      33.465  22.844  27.012  1.00  0.00     0.087 A 
BRANCH  10  14
ATOM     14  C   UNL A   1      32.592  22.010  23.565  1.00  0.00     0.272 C 
ATOM     15  N   UNL A   1      32.074  22.967  22.724  1.00  0.00    -0.321 N 
ATOM     16  H   UNL A   1      31.430  22.604  22.074  1.00  0.00     0.170 HD
ATOM     17  O   UNL A   1      32.434  20.834  23.227  1.00  0.00    -0.267 OA
BRANCH  15  18
ATOM     18  C   UNL A   1      32.267  24.353  22.596  1.00  0.00     0.044 A 
ATOM     19  C   UNL A   1      32.464  27.161  22.457  1.00  0.00     0.154 A 
ATOM     20  C   UNL A   1      33.602  26.367  22.328  1.00  0.00     0.052 A 
ATOM     21  C   UNL A   1      31.221  26.540  22.566  1.00  0.00     0.167 A 
ATOM     22  C   UNL A   1      33.502  24.971  22.385  1.00  0.00     0.030 A 
ATOM     23  C   UNL A   1      31.119  25.152  22.635  1.00  0.00     0.069 A 
ATOM     24  F   UNL A   1      30.089  27.259  22.599  1.00  0.00    -0.203 F 
BRANCH  19  25
ATOM     25  O   UNL A   1      32.669  28.513  22.418  1.00  0.00    -0.494 OA
ATOM     26  C   UNL A   1      34.047  28.882  22.403  1.00  0.00     0.278 C 
ENDBRANCH  19  25
ENDBRANCH  15  18
ENDBRANCH  10  14
ENDBRANCH   8   9
ENDBRANCH   6   8
ENDBRANCH   5   6
ENDBRANCH   4   5
ENDBRANCH   3   4
ENDBRANCH   2   3
ENDBRANCH   1   2
BRANCH   1  27
ATOM     27  C   UNL A   1      32.612  29.070  25.825  1.00  0.00     0.188 C 
BRANCH  27  28
ATOM     28  O   UNL A   1      32.452  29.669  27.101  1.00  0.00    -0.376 OA
BRANCH  28  29
ATOM     29  C   UNL A   1      32.408  31.083  27.141  1.00  0.00     0.202 C 
BRANCH  29  30
ATOM     30  C   UNL A   1      33.709  31.648  27.701  1.00  0.00     0.261 C 
BRANCH  30  31
ATOM     31  O   UNL A   1      33.931  33.011  27.342  1.00  0.00    -0.460 OA
BRANCH  31  32
ATOM     32  C   UNL A   1      33.479  33.889  28.257  1.00  0.00     0.338 C 
ATOM     33  O   UNL A   1      32.435  34.512  28.263  1.00  0.00    -0.246 OA
BRANCH  32  34
ATOM     34  C   UNL A   1      34.508  34.103  29.257  1.00  0.00     0.060 A 
ATOM     35  C   UNL A   1      35.791  34.387  28.778  1.00  0.00     0.016 A 
ATOM     36  C   UNL A   1      34.253  33.510  30.495  1.00  0.00     0.016 A 
ATOM     37  C   UNL A   1      36.858  33.862  29.464  1.00  0.00     0.010 A 
ATOM     38  C   UNL A   1      35.310  32.926  31.138  1.00  0.00     0.010 A 
ATOM     39  C   UNL A   1      36.590  33.067  30.584  1.00  0.00    -0.014 A 
BRANCH  39  40
ATOM     40  C   UNL A   1      37.703  32.427  31.272  1.00  0.00     0.031 A 
ATOM     41  C   UNL A   1      38.069  31.114  30.581  1.00  0.00     0.074 A 
ATOM     42  C   UNL A   1      38.195  33.128  32.337  1.00  0.00     0.049 A 
ATOM     43  N   UNL A   1      38.826  30.149  30.991  1.00  0.00    -0.248 NA
ATOM     44  C   UNL A   1      37.485  30.803  29.240  1.00  0.00     0.031 C 
ATOM     45  C   UNL A   1      37.660  34.424  32.825  1.00  0.00     0.029 A 
ATOM     46  N   UNL A   1      39.228  32.917  33.221  1.00  0.00    -0.354 N 
ATOM     47  C   UNL A   1      38.985  29.258  29.914  1.00  0.00     0.074 A 
ATOM     48  C   UNL A   1      38.068  29.658  28.895  1.00  0.00     0.031 C 
ATOM     49  C   UNL A   1      38.301  34.819  33.945  1.00  0.00     0.029 A 
ATOM     50  C   UNL A   1      39.336  33.861  34.276  1.00  0.00     0.049 A 
ATOM     51  H   UNL A   1      39.851  32.161  33.128  1.00  0.00     0.167 HD
ATOM     52  C   UNL A   1      39.957  28.308  29.883  1.00  0.00     0.037 A 
ATOM     53  C   UNL A   1      40.179  33.839  35.355  1.00  0.00     0.037 A 
ATOM     54  C   UNL A   1      40.657  28.281  31.122  1.00  0.00     0.049 A 
ATOM     55  C   UNL A   1      41.110  32.731  35.083  1.00  0.00     0.074 A 
ATOM     56  C   UNL A   1      40.276  27.853  32.366  1.00  0.00     0.029 A 
ATOM     57  N   UNL A   1      41.748  29.105  31.242  1.00  0.00    -0.354 N 
ATOM     58  N   UNL A   1      42.049  32.749  34.183  1.00  0.00    -0.248 NA
ATOM     59  C   UNL A   1      40.903  31.460  35.786  1.00  0.00     0.031 C 
ATOM     60  C   UNL A   1      40.865  28.792  33.237  1.00  0.00     0.029 A 
ATOM     61  C   UNL A   1      41.730  29.623  32.515  1.00  0.00     0.049 A 
ATOM     62  H   UNL A   1      42.418  29.293  30.545  1.00  0.00     0.167 HD
ATOM     63  C   UNL A   1      42.300  31.411  33.995  1.00  0.00     0.074 A 
ATOM     64  C   UNL A   1      41.832  30.729  35.180  1.00  0.00     0.031 C 
ATOM     65  C   UNL A   1      42.365  30.901  32.739  1.00  0.00     0.037 A 
BRANCH  52  66
ATOM     66  C   UNL A   1      40.484  27.493  28.750  1.00  0.00     0.057 A 
ATOM     67  C   UNL A   1      39.977  26.237  28.399  1.00  0.00     0.134 A 
ATOM     68  C   UNL A   1      41.289  28.132  27.785  1.00  0.00     0.134 A 
ATOM     69  F   UNL A   1      39.177  25.549  29.226  1.00  0.00    -0.206 F 
ATOM     70  C   UNL A   1      40.200  25.682  27.133  1.00  0.00     0.040 A 
ATOM     71  C   UNL A   1      41.482  27.608  26.506  1.00  0.00     0.040 A 
ATOM     72  F   UNL A   1      41.855  29.323  28.037  1.00  0.00    -0.206 F 
ATOM     73  C   UNL A   1      40.920  26.385  26.170  1.00  0.00     0.006 A 
ENDBRANCH  52  66
BRANCH  53  74
ATOM     74  C   UNL A   1      40.317  34.535  36.692  1.00  0.00     0.057 A 
ATOM     75  C   UNL A   1      39.268  34.444  37.651  1.00  0.00     0.134 A 
ATOM     76  C   UNL A   1      41.357  35.380  37.088  1.00  0.00     0.134 A 
ATOM     77  F   UNL A   1      38.259  33.571  37.519  1.00  0.00    -0.206 F 
ATOM     78  C   UNL A   1      39.175  35.241  38.796  1.00  0.00     0.040 A 
ATOM     79  C   UNL A   1      41.301  36.158  38.264  1.00  0.00     0.040 A 
ATOM     80  F   UNL A   1      42.482  35.490  36.373  1.00  0.00    -0.206 F 
ATOM     81  C   UNL A   1      40.189  36.124  39.099  1.00  0.00     0.006 A 
ENDBRANCH  53  74
BRANCH  65  82
ATOM     82  C   UNL A   1      42.761  31.890  31.667  1.00  0.00     0.057 A 
ATOM     83  C   UNL A   1      41.874  32.436  30.726  1.00  0.00     0.134 A 
ATOM     84  C   UNL A   1      44.071  32.376  31.617  1.00  0.00     0.134 A 
ATOM     85  F   UNL A   1      40.598  32.061  30.693  1.00  0.00    -0.206 F 
ATOM     86  C   UNL A   1      42.260  33.395  29.781  1.00  0.00     0.040 A 
ATOM     87  C   UNL A   1      44.475  33.340  30.683  1.00  0.00     0.040 A 
ATOM     88  F   UNL A   1      44.993  31.911  32.473  1.00  0.00    -0.206 F 
ATOM     89  C   UNL A   1      43.569  33.853  29.758  1.00  0.00     0.006 A 
ENDBRANCH  65  82
ENDBRANCH  39  40
ENDBRANCH  32  34
ENDBRANCH  31  32
ENDBRANCH  30  31
ENDBRANCH  29  30
ENDBRANCH  28  29
ENDBRANCH  27  28
ENDBRANCH   1  27
TORSDOF 21
ENDMDL
MODEL 2
REMARK VINA RESULT:      -9.9      2.854      7.819
REMARK SMILES COc1ccc(NC(=O)c2cccn2CC(=O)OCCOCCOCCOC(=O)c2ccc(-c3c4nc(c(-c5c(F)cccc5F)c5ccc([nH]5)c(-c5c(F)cccc5F)c5nc(c(-c6c(F)cccc6F)c6ccc3[nH]6)C=C5)C=C4)cc2)cc1F
REMARK SMILES IDX 22 1 21 2 20 3 19 4 18 5 16 6 17 7 15 8 14 9 10 10 11 11
REMARK SMILES IDX 12 12 13 13 8 14 7 15 9 17 6 18 3 19 4 20 85 21 5 22 84 23
REMARK SMILES IDX 86 24 2 25 1 26 23 27 24 28 25 29 26 30 27 31 28 32 29 33
REMARK SMILES IDX 30 34 31 35 83 36 32 37 82 38 33 39 34 40 35 41 76 42 36 43
REMARK SMILES IDX 81 44 75 45 77 46 37 47 80 48 74 49 73 50 38 52 64 53 47 54
REMARK SMILES IDX 63 55 48 56 51 57 62 58 78 59 49 60 50 61 61 63 79 64 52 65
REMARK SMILES IDX 39 66 40 67 45 68 41 69 42 70 44 71 46 72 43 73 65 74 66 75
REMARK SMILES IDX 71 76 67 77 68 78 70 79 72 80 69 81 53 82 54 83 59 84 55 85
REMARK SMILES IDX 56 86 58 87 60 88 57 89
REMARK H PARENT 7 16 77 51 51 62
REMARK Flexibility Score: inf
ROOT
ATOM      1  C   UNL A   1      30.698  29.378  24.101  1.00  0.00     0.188 C 
ENDROOT
BRANCH   1   2
ATOM      2  O   UNL A   1      30.638  28.474  23.000  1.00  0.00    -0.376 OA
BRANCH   2   3
ATOM      3  C   UNL A   1      29.426  27.794  22.730  1.00  0.00     0.202 C 
BRANCH   3   4
ATOM      4  C   UNL A   1      28.882  26.914  23.869  1.00  0.00     0.261 C 
BRANCH   4   5
ATOM      5  O   UNL A   1      29.643  25.712  24.141  1.00  0.00    -0.462 OA
BRANCH   5   6
ATOM      6  C   UNL A   1      30.291  25.650  25.329  1.00  0.00     0.326 C 
ATOM      7  O   UNL A   1      29.709  25.598  26.412  1.00  0.00    -0.250 OA
BRANCH   6   8
ATOM      8  C   UNL A   1      31.802  25.596  25.276  1.00  0.00     0.244 C 
BRANCH   8   9
ATOM      9  N   UNL A   1      32.497  25.013  24.121  1.00  0.00    -0.332 N 
ATOM     10  C   UNL A   1      32.672  23.663  23.846  1.00  0.00     0.107 A 
ATOM     11  C   UNL A   1      33.092  23.580  22.521  1.00  0.00     0.033 A 
ATOM     12  C   UNL A   1      33.249  24.887  22.013  1.00  0.00     0.020 A 
ATOM     13  C   UNL A   1      32.848  25.749  23.004  1.00  0.00     0.087 A 
BRANCH  10  14
ATOM     14  C   UNL A   1      32.339  22.582  24.751  1.00  0.00     0.272 C 
ATOM     15  N   UNL A   1      33.295  21.718  25.232  1.00  0.00    -0.321 N 
ATOM     16  H   UNL A   1      32.917  20.879  25.582  1.00  0.00     0.170 HD
ATOM     17  O   UNL A   1      31.172  22.350  25.075  1.00  0.00    -0.267 OA
BRANCH  15  18
ATOM     18  C   UNL A   1      34.695  21.777  25.331  1.00  0.00     0.044 A 
ATOM     19  C   UNL A   1      37.513  21.737  25.370  1.00  0.00     0.154 A 
ATOM     20  C   UNL A   1      36.818  22.869  25.790  1.00  0.00     0.052 A 
ATOM     21  C   UNL A   1      36.791  20.599  25.016  1.00  0.00     0.167 A 
ATOM     22  C   UNL A   1      35.417  22.884  25.782  1.00  0.00     0.030 A 
ATOM     23  C   UNL A   1      35.398  20.615  24.996  1.00  0.00     0.069 A 
ATOM     24  F   UNL A   1      37.414  19.456  24.695  1.00  0.00    -0.203 F 
BRANCH  19  25
ATOM     25  O   UNL A   1      38.878  21.830  25.386  1.00  0.00    -0.494 OA
ATOM     26  C   UNL A   1      39.386  22.578  26.491  1.00  0.00     0.278 C 
ENDBRANCH  19  25
ENDBRANCH  15  18
ENDBRANCH  10  14
ENDBRANCH   8   9
ENDBRANCH   6   8
ENDBRANCH   5   6
ENDBRANCH   4   5
ENDBRANCH   3   4
ENDBRANCH   2   3
ENDBRANCH   1   2
BRANCH   1  27
ATOM     27  C   UNL A   1      32.036  29.755  24.774  1.00  0.00     0.188 C 
BRANCH  27  28
ATOM     28  O   UNL A   1      32.354  28.978  25.918  1.00  0.00    -0.376 OA
BRANCH  28  29
ATOM     29  C   UNL A   1      32.078  29.558  27.179  1.00  0.00     0.202 C 
BRANCH  29  30
ATOM     30  C   UNL A   1      32.604  30.989  27.241  1.00  0.00     0.261 C 
BRANCH  30  31
ATOM     31  O   UNL A   1      34.027  31.068  27.167  1.00  0.00    -0.460 OA
BRANCH  31  32
ATOM     32  C   UNL A   1      34.623  31.183  28.369  1.00  0.00     0.338 C 
ATOM     33  O   UNL A   1      34.464  32.038  29.219  1.00  0.00    -0.246 OA
BRANCH  32  34
ATOM     34  C   UNL A   1      35.633  30.149  28.497  1.00  0.00     0.060 A 
ATOM     35  C   UNL A   1      36.006  29.804  29.801  1.00  0.00     0.016 A 
ATOM     36  C   UNL A   1      36.462  29.998  27.384  1.00  0.00     0.016 A 
ATOM     37  C   UNL A   1      37.327  29.505  30.026  1.00  0.00     0.010 A 
ATOM     38  C   UNL A   1      37.790  29.772  27.621  1.00  0.00     0.010 A 
ATOM     39  C   UNL A   1      38.210  29.580  28.944  1.00  0.00    -0.014 A 
BRANCH  39  40
ATOM     40  C   UNL A   1      39.630  29.355  29.180  1.00  0.00     0.031 A 
ATOM     41  C   UNL A   1      40.280  30.616  29.746  1.00  0.00     0.074 A 
ATOM     42  C   UNL A   1      40.064  28.092  28.889  1.00  0.00     0.049 A 
ATOM     43  N   UNL A   1      41.532  30.911  29.878  1.00  0.00    -0.248 NA
ATOM     44  C   UNL A   1      39.414  31.742  30.213  1.00  0.00     0.031 C 
ATOM     45  C   UNL A   1      39.216  27.005  28.339  1.00  0.00     0.029 A 
ATOM     46  N   UNL A   1      41.280  27.455  28.989  1.00  0.00    -0.354 N 
ATOM     47  C   UNL A   1      41.603  32.106  30.617  1.00  0.00     0.074 A 
ATOM     48  C   UNL A   1      40.275  32.621  30.717  1.00  0.00     0.031 C 
ATOM     49  C   UNL A   1      39.952  25.904  28.077  1.00  0.00     0.029 A 
ATOM     50  C   UNL A   1      41.329  26.138  28.462  1.00  0.00     0.049 A 
ATOM     51  H   UNL A   1      42.064  27.886  29.399  1.00  0.00     0.167 HD
ATOM     52  C   UNL A   1      42.749  32.538  31.208  1.00  0.00     0.037 A 
ATOM     53  C   UNL A   1      42.417  25.319  28.317  1.00  0.00     0.037 A 
ATOM     54  C   UNL A   1      43.836  31.692  30.851  1.00  0.00     0.049 A 
ATOM     55  C   UNL A   1      43.507  26.012  29.024  1.00  0.00     0.074 A 
ATOM     56  C   UNL A   1      44.505  31.532  29.666  1.00  0.00     0.029 A 
ATOM     57  N   UNL A   1      44.071  30.604  31.653  1.00  0.00    -0.354 N 
ATOM     58  N   UNL A   1      43.602  26.130  30.316  1.00  0.00    -0.248 NA
ATOM     59  C   UNL A   1      44.506  26.733  28.226  1.00  0.00     0.031 C 
ATOM     60  C   UNL A   1      44.755  30.145  29.609  1.00  0.00     0.029 A 
ATOM     61  C   UNL A   1      44.411  29.556  30.831  1.00  0.00     0.049 A 
ATOM     62  H   UNL A   1      44.006  30.577  32.635  1.00  0.00     0.167 HD
ATOM     63  C   UNL A   1      44.458  27.197  30.451  1.00  0.00     0.074 A 
ATOM     64  C   UNL A   1      45.195  27.297  29.212  1.00  0.00     0.031 C 
ATOM     65  C   UNL A   1      44.151  28.213  31.296  1.00  0.00     0.037 A 
BRANCH  52  66
ATOM     66  C   UNL A   1      42.970  33.575  32.258  1.00  0.00     0.057 A 
ATOM     67  C   UNL A   1      43.289  34.908  31.976  1.00  0.00     0.134 A 
ATOM     68  C   UNL A   1      42.521  33.306  33.568  1.00  0.00     0.134 A 
ATOM     69  F   UNL A   1      43.699  35.285  30.757  1.00  0.00    -0.206 F 
ATOM     70  C   UNL A   1      43.103  35.924  32.920  1.00  0.00     0.040 A 
ATOM     71  C   UNL A   1      42.291  34.316  34.502  1.00  0.00     0.040 A 
ATOM     72  F   UNL A   1      42.225  32.053  33.953  1.00  0.00    -0.206 F 
ATOM     73  C   UNL A   1      42.565  35.635  34.172  1.00  0.00     0.006 A 
ENDBRANCH  52  66
BRANCH  53  74
ATOM     74  C   UNL A   1      42.778  24.045  27.585  1.00  0.00     0.057 A 
ATOM     75  C   UNL A   1      42.947  24.063  26.171  1.00  0.00     0.134 A 
ATOM     76  C   UNL A   1      42.878  22.765  28.139  1.00  0.00     0.134 A 
ATOM     77  F   UNL A   1      43.034  25.208  25.481  1.00  0.00    -0.206 F 
ATOM     78  C   UNL A   1      43.028  22.917  25.372  1.00  0.00     0.040 A 
ATOM     79  C   UNL A   1      43.007  21.602  27.350  1.00  0.00     0.040 A 
ATOM     80  F   UNL A   1      42.872  22.572  29.462  1.00  0.00    -0.206 F 
ATOM     81  C   UNL A   1      43.037  21.672  25.962  1.00  0.00     0.006 A 
ENDBRANCH  53  74
BRANCH  65  82
ATOM     82  C   UNL A   1      43.244  27.838  32.446  1.00  0.00     0.057 A 
ATOM     83  C   UNL A   1      41.905  28.241  32.563  1.00  0.00     0.134 A 
ATOM     84  C   UNL A   1      43.706  26.974  33.443  1.00  0.00     0.134 A 
ATOM     85  F   UNL A   1      41.353  29.048  31.661  1.00  0.00    -0.206 F 
ATOM     86  C   UNL A   1      41.074  27.828  33.612  1.00  0.00     0.040 A 
ATOM     87  C   UNL A   1      42.888  26.544  34.497  1.00  0.00     0.040 A 
ATOM     88  F   UNL A   1      44.974  26.536  33.419  1.00  0.00    -0.206 F 
ATOM     89  C   UNL A   1      41.566  26.971  34.586  1.00  0.00     0.006 A 
ENDBRANCH  65  82
ENDBRANCH  39  40
ENDBRANCH  32  34
ENDBRANCH  31  32
ENDBRANCH  30  31
ENDBRANCH  29  30
ENDBRANCH  28  29
ENDBRANCH  27  28
ENDBRANCH   1  27
TORSDOF 21
ENDMDL
MODEL 3
REMARK VINA RESULT:      -9.8      1.901      3.282
REMARK SMILES COc1ccc(NC(=O)c2cccn2CC(=O)OCCOCCOCCOC(=O)c2ccc(-c3c4nc(c(-c5c(F)cccc5F)c5ccc([nH]5)c(-c5c(F)cccc5F)c5nc(c(-c6c(F)cccc6F)c6ccc3[nH]6)C=C5)C=C4)cc2)cc1F
REMARK SMILES IDX 22 1 21 2 20 3 19 4 18 5 16 6 17 7 15 8 14 9 10 10 11 11
REMARK SMILES IDX 12 12 13 13 8 14 7 15 9 17 6 18 3 19 4 20 85 21 5 22 84 23
REMARK SMILES IDX 86 24 2 25 1 26 23 27 24 28 25 29 26 30 27 31 28 32 29 33
REMARK SMILES IDX 30 34 31 35 83 36 32 37 82 38 33 39 34 40 35 41 76 42 36 43
REMARK SMILES IDX 81 44 75 45 77 46 37 47 80 48 74 49 73 50 38 52 64 53 47 54
REMARK SMILES IDX 63 55 48 56 51 57 62 58 78 59 49 60 50 61 61 63 79 64 52 65
REMARK SMILES IDX 39 66 40 67 45 68 41 69 42 70 44 71 46 72 43 73 65 74 66 75
REMARK SMILES IDX 71 76 67 77 68 78 70 79 72 80 69 81 53 82 54 83 59 84 55 85
REMARK SMILES IDX 56 86 58 87 60 88 57 89
REMARK H PARENT 7 16 77 51 51 62
REMARK Flexibility Score: inf
ROOT
ATOM      1  C   UNL A   1      31.025  29.253  23.653  1.00  0.00     0.188 C 
ENDROOT
BRANCH   1   2
ATOM      2  O   UNL A   1      29.954  28.312  23.607  1.00  0.00    -0.376 OA
BRANCH   2   3
ATOM      3  C   UNL A   1      30.179  26.988  24.056  1.00  0.00     0.202 C 
BRANCH   3   4
ATOM      4  C   UNL A   1      31.413  26.782  24.951  1.00  0.00     0.261 C 
BRANCH   4   5
ATOM      5  O   UNL A   1      31.835  25.407  25.120  1.00  0.00    -0.462 OA
BRANCH   5   6
ATOM      6  C   UNL A   1      33.153  25.193  25.349  1.00  0.00     0.326 C 
ATOM      7  O   UNL A   1      34.030  25.996  25.039  1.00  0.00    -0.250 OA
BRANCH   6   8
ATOM      8  C   UNL A   1      33.516  23.911  26.068  1.00  0.00     0.244 C 
BRANCH   8   9
ATOM      9  N   UNL A   1      33.276  22.602  25.447  1.00  0.00    -0.332 N 
ATOM     10  C   UNL A   1      33.788  22.144  24.241  1.00  0.00     0.107 A 
ATOM     11  C   UNL A   1      33.562  20.770  24.211  1.00  0.00     0.033 A 
ATOM     12  C   UNL A   1      32.841  20.404  25.366  1.00  0.00     0.020 A 
ATOM     13  C   UNL A   1      32.703  21.542  26.125  1.00  0.00     0.087 A 
BRANCH  10  14
ATOM     14  C   UNL A   1      34.526  22.953  23.292  1.00  0.00     0.272 C 
ATOM     15  N   UNL A   1      35.794  23.413  23.562  1.00  0.00    -0.321 N 
ATOM     16  H   UNL A   1      36.060  24.171  22.993  1.00  0.00     0.170 HD
ATOM     17  O   UNL A   1      34.020  23.321  22.228  1.00  0.00    -0.267 OA
BRANCH  15  18
ATOM     18  C   UNL A   1      36.790  23.031  24.476  1.00  0.00     0.044 A 
ATOM     19  C   UNL A   1      38.853  22.109  26.160  1.00  0.00     0.154 A 
ATOM     20  C   UNL A   1      38.375  23.411  26.280  1.00  0.00     0.052 A 
ATOM     21  C   UNL A   1      38.234  21.247  25.256  1.00  0.00     0.167 A 
ATOM     22  C   UNL A   1      37.341  23.866  25.451  1.00  0.00     0.030 A 
ATOM     23  C   UNL A   1      37.214  21.699  24.422  1.00  0.00     0.069 A 
ATOM     24  F   UNL A   1      38.596  19.958  25.170  1.00  0.00    -0.203 F 
BRANCH  19  25
ATOM     25  O   UNL A   1      39.883  21.768  26.994  1.00  0.00    -0.494 OA
ATOM     26  C   UNL A   1      41.170  22.105  26.477  1.00  0.00     0.278 C 
ENDBRANCH  19  25
ENDBRANCH  15  18
ENDBRANCH  10  14
ENDBRANCH   8   9
ENDBRANCH   6   8
ENDBRANCH   5   6
ENDBRANCH   4   5
ENDBRANCH   3   4
ENDBRANCH   2   3
ENDBRANCH   1   2
BRANCH   1  27
ATOM     27  C   UNL A   1      31.406  29.991  24.955  1.00  0.00     0.188 C 
BRANCH  27  28
ATOM     28  O   UNL A   1      32.786  29.934  25.277  1.00  0.00    -0.376 OA
BRANCH  28  29
ATOM     29  C   UNL A   1      33.125  30.015  26.649  1.00  0.00     0.202 C 
BRANCH  29  30
ATOM     30  C   UNL A   1      32.604  31.314  27.257  1.00  0.00     0.261 C 
BRANCH  30  31
ATOM     31  O   UNL A   1      33.537  32.389  27.170  1.00  0.00    -0.460 OA
BRANCH  31  32
ATOM     32  C   UNL A   1      33.143  33.499  27.822  1.00  0.00     0.338 C 
ATOM     33  O   UNL A   1      32.200  34.228  27.582  1.00  0.00    -0.246 OA
BRANCH  32  34
ATOM     34  C   UNL A   1      34.109  33.806  28.860  1.00  0.00     0.060 A 
ATOM     35  C   UNL A   1      35.374  34.220  28.428  1.00  0.00     0.016 A 
ATOM     36  C   UNL A   1      33.871  33.183  30.086  1.00  0.00     0.016 A 
ATOM     37  C   UNL A   1      36.462  33.799  29.151  1.00  0.00     0.010 A 
ATOM     38  C   UNL A   1      34.957  32.703  30.764  1.00  0.00     0.010 A 
ATOM     39  C   UNL A   1      36.235  32.974  30.258  1.00  0.00    -0.014 A 
BRANCH  39  40
ATOM     40  C   UNL A   1      37.381  32.442  30.984  1.00  0.00     0.031 A 
ATOM     41  C   UNL A   1      37.927  31.202  30.279  1.00  0.00     0.074 A 
ATOM     42  C   UNL A   1      37.739  33.161  32.090  1.00  0.00     0.049 A 
ATOM     43  N   UNL A   1      38.769  30.316  30.701  1.00  0.00    -0.248 NA
ATOM     44  C   UNL A   1      37.446  30.869  28.903  1.00  0.00     0.031 C 
ATOM     45  C   UNL A   1      37.036  34.371  32.584  1.00  0.00     0.029 A 
ATOM     46  N   UNL A   1      38.747  33.041  33.019  1.00  0.00    -0.354 N 
ATOM     47  C   UNL A   1      39.079  29.483  29.610  1.00  0.00     0.074 A 
ATOM     48  C   UNL A   1      38.171  29.809  28.557  1.00  0.00     0.031 C 
ATOM     49  C   UNL A   1      37.575  34.802  33.745  1.00  0.00     0.029 A 
ATOM     50  C   UNL A   1      38.697  33.957  34.102  1.00  0.00     0.049 A 
ATOM     51  H   UNL A   1      39.456  32.363  32.937  1.00  0.00     0.167 HD
ATOM     52  C   UNL A   1      40.154  28.651  29.603  1.00  0.00     0.037 A 
ATOM     53  C   UNL A   1      39.485  33.996  35.221  1.00  0.00     0.037 A 
ATOM     54  C   UNL A   1      40.794  28.664  30.874  1.00  0.00     0.049 A 
ATOM     55  C   UNL A   1      40.549  33.010  34.967  1.00  0.00     0.074 A 
ATOM     56  C   UNL A   1      40.407  28.157  32.086  1.00  0.00     0.029 A 
ATOM     57  N   UNL A   1      41.776  29.602  31.070  1.00  0.00    -0.354 N 
ATOM     58  N   UNL A   1      41.520  33.163  34.116  1.00  0.00    -0.248 NA
ATOM     59  C   UNL A   1      40.456  31.702  35.626  1.00  0.00     0.031 C 
ATOM     60  C   UNL A   1      40.844  29.129  33.009  1.00  0.00     0.029 A 
ATOM     61  C   UNL A   1      41.640  30.074  32.353  1.00  0.00     0.049 A 
ATOM     62  H   UNL A   1      42.452  29.886  30.412  1.00  0.00     0.167 HD
ATOM     63  C   UNL A   1      41.932  31.868  33.906  1.00  0.00     0.074 A 
ATOM     64  C   UNL A   1      41.490  31.101  35.048  1.00  0.00     0.031 C 
ATOM     65  C   UNL A   1      42.114  31.408  32.642  1.00  0.00     0.037 A 
BRANCH  52  66
ATOM     66  C   UNL A   1      40.823  27.936  28.477  1.00  0.00     0.057 A 
ATOM     67  C   UNL A   1      40.406  26.691  27.993  1.00  0.00     0.134 A 
ATOM     68  C   UNL A   1      41.693  28.670  27.643  1.00  0.00     0.134 A 
ATOM     69  F   UNL A   1      39.558  25.920  28.687  1.00  0.00    -0.206 F 
ATOM     70  C   UNL A   1      40.776  26.236  26.722  1.00  0.00     0.040 A 
ATOM     71  C   UNL A   1      42.032  28.245  26.358  1.00  0.00     0.040 A 
ATOM     72  F   UNL A   1      42.181  29.859  28.031  1.00  0.00    -0.206 F 
ATOM     73  C   UNL A   1      41.557  27.030  25.886  1.00  0.00     0.006 A 
ENDBRANCH  52  66
BRANCH  53  74
ATOM     74  C   UNL A   1      39.480  34.661  36.580  1.00  0.00     0.057 A 
ATOM     75  C   UNL A   1      40.070  35.947  36.743  1.00  0.00     0.134 A 
ATOM     76  C   UNL A   1      39.030  34.102  37.780  1.00  0.00     0.134 A 
ATOM     77  F   UNL A   1      40.423  36.704  35.695  1.00  0.00    -0.206 F 
ATOM     78  C   UNL A   1      40.347  36.537  37.981  1.00  0.00     0.040 A 
ATOM     79  C   UNL A   1      39.260  34.706  39.035  1.00  0.00     0.040 A 
ATOM     80  F   UNL A   1      38.337  32.960  37.804  1.00  0.00    -0.206 F 
ATOM     81  C   UNL A   1      39.959  35.903  39.142  1.00  0.00     0.006 A 
ENDBRANCH  53  74
BRANCH  65  82
ATOM     82  C   UNL A   1      42.443  32.469  31.617  1.00  0.00     0.057 A 
ATOM     83  C   UNL A   1      41.553  32.921  30.630  1.00  0.00     0.134 A 
ATOM     84  C   UNL A   1      43.679  33.122  31.662  1.00  0.00     0.134 A 
ATOM     85  F   UNL A   1      40.341  32.385  30.506  1.00  0.00    -0.206 F 
ATOM     86  C   UNL A   1      41.868  33.947  29.731  1.00  0.00     0.040 A 
ATOM     87  C   UNL A   1      44.011  34.155  30.775  1.00  0.00     0.040 A 
ATOM     88  F   UNL A   1      44.598  32.758  32.569  1.00  0.00    -0.206 F 
ATOM     89  C   UNL A   1      43.105  34.572  29.803  1.00  0.00     0.006 A 
ENDBRANCH  65  82
ENDBRANCH  39  40
ENDBRANCH  32  34
ENDBRANCH  31  32
ENDBRANCH  30  31
ENDBRANCH  29  30
ENDBRANCH  28  29
ENDBRANCH  27  28
ENDBRANCH   1  27
TORSDOF 21
ENDMDL
