MODEL 1
REMARK VINA RESULT:     -11.0      0.000      0.000
REMARK SMILES CC1(C)NC(=O)N(CCC(=O)N2CCC[C@H]2C(=O)OCCOCCOCCOC(=O)c2ccc(-c3c4nc(c(-c5c(F)cccc5F)c5ccc([nH]5)c(-c5c(F)cccc5F)c5nc(c(-c6c(F)cccc6F)c6ccc3[nH]6)C=C5)C=C4)cc2)C1=O
REMARK SMILES IDX 23 1 22 2 21 3 20 4 19 5 17 6 18 7 16 8 12 9 13 10 14 11
REMARK SMILES IDX 15 12 10 13 11 14 9 15 8 16 7 17 1 18 2 19 3 20 4 21 85 22
REMARK SMILES IDX 5 23 86 25 6 26 24 27 25 28 26 29 27 30 28 31 29 32 30 33
REMARK SMILES IDX 31 34 32 35 84 36 33 37 83 38 34 39 35 40 36 41 77 42 37 43
REMARK SMILES IDX 82 44 76 45 78 46 38 47 81 48 75 49 74 50 39 52 65 53 48 54
REMARK SMILES IDX 64 55 49 56 52 57 63 58 79 59 50 60 51 61 62 63 80 64 53 65
REMARK SMILES IDX 40 66 41 67 46 68 42 69 43 70 45 71 47 72 44 73 66 74 67 75
REMARK SMILES IDX 72 76 68 77 69 78 71 79 73 80 70 81 54 82 55 83 60 84 56 85
REMARK SMILES IDX 57 86 59 87 61 88 58 89
REMARK H PARENT 4 24 78 51 52 62
REMARK Flexibility Score: inf
ROOT
ATOM      1  C   UNL A   1      39.859  21.216  26.498  1.00  0.00     0.188 C 
ENDROOT
BRANCH   1   2
ATOM      2  O   UNL A   1      38.988  21.487  25.405  1.00  0.00    -0.376 OA
BRANCH   2   3
ATOM      3  C   UNL A   1      37.665  21.886  25.747  1.00  0.00     0.202 C 
BRANCH   3   4
ATOM      4  C   UNL A   1      37.333  23.305  25.293  1.00  0.00     0.261 C 
BRANCH   4   5
ATOM      5  O   UNL A   1      36.210  23.856  26.009  1.00  0.00    -0.462 OA
BRANCH   5   6
ATOM      6  C   UNL A   1      35.034  23.192  25.900  1.00  0.00     0.328 C 
ATOM      7  O   UNL A   1      34.524  22.546  26.810  1.00  0.00    -0.250 OA
BRANCH   6   8
ATOM      8  C   UNL A   1      34.362  23.388  24.527  1.00  0.00     0.195 C 
ATOM      9  N   UNL A   1      33.073  22.745  24.283  1.00  0.00    -0.329 N 
ATOM     10  C   UNL A   1      32.066  23.632  24.860  1.00  0.00     0.120 C 
ATOM     11  C   UNL A   1      32.525  24.994  24.365  1.00  0.00     0.024 C 
ATOM     12  C   UNL A   1      34.053  24.886  24.336  1.00  0.00     0.039 C 
BRANCH   9  13
ATOM     13  C   UNL A   1      32.702  22.006  23.184  1.00  0.00     0.225 C 
ATOM     14  O   UNL A   1      32.900  22.489  22.055  1.00  0.00    -0.275 OA
BRANCH  13  15
ATOM     15  C   UNL A   1      32.041  20.628  23.157  1.00  0.00     0.122 C 
BRANCH  15  16
ATOM     16  C   UNL A   1      32.539  19.209  22.951  1.00  0.00     0.140 C 
BRANCH  16  17
ATOM     17  N   UNL A   1      32.916  18.334  24.033  1.00  0.00    -0.262 N 
ATOM     18  C   UNL A   1      35.132  15.901  25.309  1.00  0.00     0.045 C 
ATOM     19  C   UNL A   1      33.709  16.396  25.132  1.00  0.00     0.115 C 
ATOM     20  C   UNL A   1      32.697  15.262  25.220  1.00  0.00     0.045 C 
ATOM     21  N   UNL A   1      33.397  17.486  26.026  1.00  0.00    -0.324 N 
ATOM     22  C   UNL A   1      33.506  17.116  23.796  1.00  0.00     0.255 C 
ATOM     23  C   UNL A   1      33.008  18.625  25.356  1.00  0.00     0.325 C 
ATOM     24  H   UNL A   1      33.455  17.423  27.006  1.00  0.00     0.166 HD
ATOM     25  O   UNL A   1      33.780  16.655  22.696  1.00  0.00    -0.272 OA
ATOM     26  O   UNL A   1      32.746  19.686  25.904  1.00  0.00    -0.248 OA
ENDBRANCH  16  17
ENDBRANCH  15  16
ENDBRANCH  13  15
ENDBRANCH   9  13
ENDBRANCH   6   8
ENDBRANCH   5   6
ENDBRANCH   4   5
ENDBRANCH   3   4
ENDBRANCH   2   3
ENDBRANCH   1   2
BRANCH   1  27
ATOM     27  C   UNL A   1      40.794  20.016  26.267  1.00  0.00     0.188 C 
BRANCH  27  28
ATOM     28  O   UNL A   1      42.137  20.133  26.726  1.00  0.00    -0.376 OA
BRANCH  28  29
ATOM     29  C   UNL A   1      43.166  20.120  25.741  1.00  0.00     0.202 C 
BRANCH  29  30
ATOM     30  C   UNL A   1      43.838  21.468  25.497  1.00  0.00     0.261 C 
BRANCH  30  31
ATOM     31  O   UNL A   1      42.874  22.531  25.375  1.00  0.00    -0.460 OA
BRANCH  31  32
ATOM     32  C   UNL A   1      43.415  23.744  25.131  1.00  0.00     0.338 C 
ATOM     33  O   UNL A   1      44.356  24.010  24.395  1.00  0.00    -0.246 OA
BRANCH  32  34
ATOM     34  C   UNL A   1      42.693  24.785  25.870  1.00  0.00     0.060 A 
ATOM     35  C   UNL A   1      43.134  26.108  25.789  1.00  0.00     0.016 A 
ATOM     36  C   UNL A   1      41.721  24.413  26.800  1.00  0.00     0.016 A 
ATOM     37  C   UNL A   1      42.623  27.065  26.669  1.00  0.00     0.010 A 
ATOM     38  C   UNL A   1      41.213  25.370  27.682  1.00  0.00     0.010 A 
ATOM     39  C   UNL A   1      41.688  26.694  27.645  1.00  0.00    -0.014 A 
BRANCH  39  40
ATOM     40  C   UNL A   1      41.358  27.626  28.752  1.00  0.00     0.031 A 
ATOM     41  C   UNL A   1      42.214  27.611  29.989  1.00  0.00     0.074 A 
ATOM     42  C   UNL A   1      40.339  28.498  28.658  1.00  0.00     0.049 A 
ATOM     43  N   UNL A   1      42.041  28.227  31.130  1.00  0.00    -0.248 NA
ATOM     44  C   UNL A   1      43.436  26.794  29.923  1.00  0.00     0.031 C 
ATOM     45  C   UNL A   1      39.492  28.692  27.484  1.00  0.00     0.029 A 
ATOM     46  N   UNL A   1      39.850  29.390  29.581  1.00  0.00    -0.354 N 
ATOM     47  C   UNL A   1      43.112  27.847  31.929  1.00  0.00     0.074 A 
ATOM     48  C   UNL A   1      43.932  26.952  31.140  1.00  0.00     0.031 C 
ATOM     49  C   UNL A   1      38.588  29.649  27.756  1.00  0.00     0.029 A 
ATOM     50  C   UNL A   1      38.756  30.091  29.140  1.00  0.00     0.049 A 
ATOM     51  H   UNL A   1      40.247  29.513  30.474  1.00  0.00     0.167 HD
ATOM     52  C   UNL A   1      43.385  28.201  33.207  1.00  0.00     0.037 A 
ATOM     53  C   UNL A   1      37.963  30.963  29.794  1.00  0.00     0.037 A 
ATOM     54  C   UNL A   1      42.581  29.100  33.991  1.00  0.00     0.049 A 
ATOM     55  C   UNL A   1      38.223  31.264  31.248  1.00  0.00     0.074 A 
ATOM     56  C   UNL A   1      42.763  29.503  35.302  1.00  0.00     0.029 A 
ATOM     57  N   UNL A   1      41.439  29.735  33.531  1.00  0.00    -0.354 N 
ATOM     58  N   UNL A   1      39.203  30.856  32.017  1.00  0.00    -0.248 NA
ATOM     59  C   UNL A   1      37.248  32.130  31.930  1.00  0.00     0.031 C 
ATOM     60  C   UNL A   1      41.708  30.357  35.647  1.00  0.00     0.029 A 
ATOM     61  C   UNL A   1      40.892  30.512  34.538  1.00  0.00     0.049 A 
ATOM     62  H   UNL A   1      41.071  29.648  32.622  1.00  0.00     0.167 HD
ATOM     63  C   UNL A   1      38.973  31.427  33.264  1.00  0.00     0.074 A 
ATOM     64  C   UNL A   1      37.768  32.219  33.147  1.00  0.00     0.031 C 
ATOM     65  C   UNL A   1      39.695  31.303  34.405  1.00  0.00     0.037 A 
BRANCH  52  66
ATOM     66  C   UNL A   1      44.576  27.559  33.849  1.00  0.00     0.057 A 
ATOM     67  C   UNL A   1      45.847  28.147  33.819  1.00  0.00     0.134 A 
ATOM     68  C   UNL A   1      44.449  26.322  34.493  1.00  0.00     0.134 A 
ATOM     69  F   UNL A   1      46.037  29.322  33.201  1.00  0.00    -0.206 F 
ATOM     70  C   UNL A   1      46.954  27.512  34.384  1.00  0.00     0.040 A 
ATOM     71  C   UNL A   1      45.545  25.688  35.079  1.00  0.00     0.040 A 
ATOM     72  F   UNL A   1      43.258  25.706  34.556  1.00  0.00    -0.206 F 
ATOM     73  C   UNL A   1      46.805  26.279  35.018  1.00  0.00     0.006 A 
ENDBRANCH  52  66
BRANCH  53  74
ATOM     74  C   UNL A   1      36.810  31.589  29.099  1.00  0.00     0.057 A 
ATOM     75  C   UNL A   1      35.645  30.860  28.835  1.00  0.00     0.134 A 
ATOM     76  C   UNL A   1      36.856  32.916  28.655  1.00  0.00     0.134 A 
ATOM     77  F   UNL A   1      35.553  29.575  29.209  1.00  0.00    -0.206 F 
ATOM     78  C   UNL A   1      34.570  31.425  28.146  1.00  0.00     0.040 A 
ATOM     79  C   UNL A   1      35.781  33.500  27.986  1.00  0.00     0.040 A 
ATOM     80  F   UNL A   1      37.948  33.665  28.869  1.00  0.00    -0.206 F 
ATOM     81  C   UNL A   1      34.635  32.752  27.724  1.00  0.00     0.006 A 
ENDBRANCH  53  74
BRANCH  65  82
ATOM     82  C   UNL A   1      39.222  32.062  35.608  1.00  0.00     0.057 A 
ATOM     83  C   UNL A   1      38.380  31.479  36.563  1.00  0.00     0.134 A 
ATOM     84  C   UNL A   1      39.650  33.376  35.839  1.00  0.00     0.134 A 
ATOM     85  F   UNL A   1      37.925  30.228  36.394  1.00  0.00    -0.206 F 
ATOM     86  C   UNL A   1      37.971  32.180  37.699  1.00  0.00     0.040 A 
ATOM     87  C   UNL A   1      39.263  34.080  36.979  1.00  0.00     0.040 A 
ATOM     88  F   UNL A   1      40.462  33.990  34.965  1.00  0.00    -0.206 F 
ATOM     89  C   UNL A   1      38.417  33.483  37.912  1.00  0.00     0.006 A 
ENDBRANCH  65  82
ENDBRANCH  39  40
ENDBRANCH  32  34
ENDBRANCH  31  32
ENDBRANCH  30  31
ENDBRANCH  29  30
ENDBRANCH  28  29
ENDBRANCH  27  28
ENDBRANCH   1  27
TORSDOF 21
ENDMDL
MODEL 2
REMARK VINA RESULT:     -10.8      1.805      3.815
REMARK SMILES CC1(C)NC(=O)N(CCC(=O)N2CCC[C@H]2C(=O)OCCOCCOCCOC(=O)c2ccc(-c3c4nc(c(-c5c(F)cccc5F)c5ccc([nH]5)c(-c5c(F)cccc5F)c5nc(c(-c6c(F)cccc6F)c6ccc3[nH]6)C=C5)C=C4)cc2)C1=O
REMARK SMILES IDX 23 1 22 2 21 3 20 4 19 5 17 6 18 7 16 8 12 9 13 10 14 11
REMARK SMILES IDX 15 12 10 13 11 14 9 15 8 16 7 17 1 18 2 19 3 20 4 21 85 22
REMARK SMILES IDX 5 23 86 25 6 26 24 27 25 28 26 29 27 30 28 31 29 32 30 33
REMARK SMILES IDX 31 34 32 35 84 36 33 37 83 38 34 39 35 40 36 41 77 42 37 43
REMARK SMILES IDX 82 44 76 45 78 46 38 47 81 48 75 49 74 50 39 52 65 53 48 54
REMARK SMILES IDX 64 55 49 56 52 57 63 58 79 59 50 60 51 61 62 63 80 64 53 65
REMARK SMILES IDX 40 66 41 67 46 68 42 69 43 70 45 71 47 72 44 73 66 74 67 75
REMARK SMILES IDX 72 76 68 77 69 78 71 79 73 80 70 81 54 82 55 83 60 84 56 85
REMARK SMILES IDX 57 86 59 87 61 88 58 89
REMARK H PARENT 4 24 78 51 52 62
REMARK Flexibility Score: inf
ROOT
ATOM      1  C   UNL A   1      39.794  21.289  26.295  1.00  0.00     0.188 C 
ENDROOT
BRANCH   1   2
ATOM      2  O   UNL A   1      38.721  21.225  25.360  1.00  0.00    -0.376 OA
BRANCH   2   3
ATOM      3  C   UNL A   1      37.515  21.873  25.750  1.00  0.00     0.202 C 
BRANCH   3   4
ATOM      4  C   UNL A   1      37.406  23.300  25.221  1.00  0.00     0.261 C 
BRANCH   4   5
ATOM      5  O   UNL A   1      36.271  23.999  25.772  1.00  0.00    -0.462 OA
BRANCH   5   6
ATOM      6  C   UNL A   1      35.124  23.959  25.053  1.00  0.00     0.328 C 
ATOM      7  O   UNL A   1      35.069  24.137  23.840  1.00  0.00    -0.250 OA
BRANCH   6   8
ATOM      8  C   UNL A   1      33.894  23.598  25.909  1.00  0.00     0.195 C 
ATOM      9  N   UNL A   1      32.962  22.594  25.401  1.00  0.00    -0.329 N 
ATOM     10  C   UNL A   1      33.538  21.298  25.750  1.00  0.00     0.120 C 
ATOM     11  C   UNL A   1      33.960  21.519  27.194  1.00  0.00     0.024 C 
ATOM     12  C   UNL A   1      34.378  22.992  27.240  1.00  0.00     0.039 C 
BRANCH   9  13
ATOM     13  C   UNL A   1      31.590  22.678  25.350  1.00  0.00     0.225 C 
ATOM     14  O   UNL A   1      30.925  21.697  25.731  1.00  0.00    -0.275 OA
BRANCH  13  15
ATOM     15  C   UNL A   1      30.736  23.845  24.857  1.00  0.00     0.122 C 
BRANCH  15  16
ATOM     16  C   UNL A   1      30.499  25.268  25.330  1.00  0.00     0.140 C 
BRANCH  16  17
ATOM     17  N   UNL A   1      31.454  26.334  25.156  1.00  0.00    -0.262 N 
ATOM     18  C   UNL A   1      34.031  28.324  26.518  1.00  0.00     0.045 C 
ATOM     19  C   UNL A   1      32.770  28.228  25.680  1.00  0.00     0.115 C 
ATOM     20  C   UNL A   1      32.021  29.552  25.623  1.00  0.00     0.045 C 
ATOM     21  N   UNL A   1      33.029  27.682  24.368  1.00  0.00    -0.324 N 
ATOM     22  C   UNL A   1      31.808  27.155  26.198  1.00  0.00     0.255 C 
ATOM     23  C   UNL A   1      32.305  26.539  24.117  1.00  0.00     0.325 C 
ATOM     24  H   UNL A   1      33.655  28.085  23.724  1.00  0.00     0.166 HD
ATOM     25  O   UNL A   1      31.387  27.079  27.346  1.00  0.00    -0.272 OA
ATOM     26  O   UNL A   1      32.401  25.878  23.094  1.00  0.00    -0.248 OA
ENDBRANCH  16  17
ENDBRANCH  15  16
ENDBRANCH  13  15
ENDBRANCH   9  13
ENDBRANCH   6   8
ENDBRANCH   5   6
ENDBRANCH   4   5
ENDBRANCH   3   4
ENDBRANCH   2   3
ENDBRANCH   1   2
BRANCH   1  27
ATOM     27  C   UNL A   1      40.675  20.028  26.320  1.00  0.00     0.188 C 
BRANCH  27  28
ATOM     28  O   UNL A   1      42.027  20.181  26.738  1.00  0.00    -0.376 OA
BRANCH  28  29
ATOM     29  C   UNL A   1      43.030  20.151  25.725  1.00  0.00     0.202 C 
BRANCH  29  30
ATOM     30  C   UNL A   1      43.691  21.496  25.438  1.00  0.00     0.261 C 
BRANCH  30  31
ATOM     31  O   UNL A   1      42.796  22.596  25.686  1.00  0.00    -0.460 OA
BRANCH  31  32
ATOM     32  C   UNL A   1      43.299  23.804  25.355  1.00  0.00     0.338 C 
ATOM     33  O   UNL A   1      44.197  24.050  24.560  1.00  0.00    -0.246 OA
BRANCH  32  34
ATOM     34  C   UNL A   1      42.592  24.868  26.075  1.00  0.00     0.060 A 
ATOM     35  C   UNL A   1      43.099  26.170  26.039  1.00  0.00     0.016 A 
ATOM     36  C   UNL A   1      41.557  24.530  26.949  1.00  0.00     0.016 A 
ATOM     37  C   UNL A   1      42.591  27.137  26.909  1.00  0.00     0.010 A 
ATOM     38  C   UNL A   1      41.052  25.498  27.821  1.00  0.00     0.010 A 
ATOM     39  C   UNL A   1      41.591  26.797  27.831  1.00  0.00    -0.014 A 
BRANCH  39  40
ATOM     40  C   UNL A   1      41.251  27.728  28.937  1.00  0.00     0.031 A 
ATOM     41  C   UNL A   1      42.080  27.694  30.190  1.00  0.00     0.074 A 
ATOM     42  C   UNL A   1      40.246  28.615  28.826  1.00  0.00     0.049 A 
ATOM     43  N   UNL A   1      41.892  28.306  31.331  1.00  0.00    -0.248 NA
ATOM     44  C   UNL A   1      43.292  26.861  30.145  1.00  0.00     0.031 C 
ATOM     45  C   UNL A   1      39.427  28.827  27.635  1.00  0.00     0.029 A 
ATOM     46  N   UNL A   1      39.751  29.508  29.744  1.00  0.00    -0.354 N 
ATOM     47  C   UNL A   1      42.941  27.907  32.150  1.00  0.00     0.074 A 
ATOM     48  C   UNL A   1      43.765  27.005  31.373  1.00  0.00     0.031 C 
ATOM     49  C   UNL A   1      38.531  29.795  27.895  1.00  0.00     0.029 A 
ATOM     50  C   UNL A   1      38.676  30.227  29.285  1.00  0.00     0.049 A 
ATOM     51  H   UNL A   1      40.130  29.621  30.645  1.00  0.00     0.167 HD
ATOM     52  C   UNL A   1      43.192  28.250  33.436  1.00  0.00     0.037 A 
ATOM     53  C   UNL A   1      37.881  31.106  29.927  1.00  0.00     0.037 A 
ATOM     54  C   UNL A   1      42.384  29.155  34.208  1.00  0.00     0.049 A 
ATOM     55  C   UNL A   1      38.115  31.396  31.388  1.00  0.00     0.074 A 
ATOM     56  C   UNL A   1      42.545  29.549  35.525  1.00  0.00     0.029 A 
ATOM     57  N   UNL A   1      41.261  29.809  33.728  1.00  0.00    -0.354 N 
ATOM     58  N   UNL A   1      39.073  30.970  32.175  1.00  0.00    -0.248 NA
ATOM     59  C   UNL A   1      37.139  32.271  32.054  1.00  0.00     0.031 C 
ATOM     60  C   UNL A   1      41.495  30.416  35.853  1.00  0.00     0.029 A 
ATOM     61  C   UNL A   1      40.704  30.588  34.728  1.00  0.00     0.049 A 
ATOM     62  H   UNL A   1      40.911  29.733  32.811  1.00  0.00     0.167 HD
ATOM     63  C   UNL A   1      38.826  31.537  33.419  1.00  0.00     0.074 A 
ATOM     64  C   UNL A   1      37.634  32.347  33.282  1.00  0.00     0.031 C 
ATOM     65  C   UNL A   1      39.522  31.396  34.574  1.00  0.00     0.037 A 
BRANCH  52  66
ATOM     66  C   UNL A   1      44.361  27.587  34.099  1.00  0.00     0.057 A 
ATOM     67  C   UNL A   1      45.641  28.154  34.092  1.00  0.00     0.134 A 
ATOM     68  C   UNL A   1      44.201  26.352  34.740  1.00  0.00     0.134 A 
ATOM     69  F   UNL A   1      45.862  29.326  33.478  1.00  0.00    -0.206 F 
ATOM     70  C   UNL A   1      46.728  27.500  34.676  1.00  0.00     0.040 A 
ATOM     71  C   UNL A   1      45.276  25.700  35.344  1.00  0.00     0.040 A 
ATOM     72  F   UNL A   1      43.000  25.757  34.781  1.00  0.00    -0.206 F 
ATOM     73  C   UNL A   1      46.547  26.270  35.306  1.00  0.00     0.006 A 
ENDBRANCH  52  66
BRANCH  53  74
ATOM     74  C   UNL A   1      36.753  31.752  29.211  1.00  0.00     0.057 A 
ATOM     75  C   UNL A   1      35.591  31.035  28.901  1.00  0.00     0.134 A 
ATOM     76  C   UNL A   1      36.818  33.087  28.794  1.00  0.00     0.134 A 
ATOM     77  F   UNL A   1      35.482  29.744  29.247  1.00  0.00    -0.206 F 
ATOM     78  C   UNL A   1      34.539  31.620  28.193  1.00  0.00     0.040 A 
ATOM     79  C   UNL A   1      35.765  33.690  28.107  1.00  0.00     0.040 A 
ATOM     80  F   UNL A   1      37.908  33.825  29.053  1.00  0.00    -0.206 F 
ATOM     81  C   UNL A   1      34.623  32.954  27.798  1.00  0.00     0.006 A 
ENDBRANCH  53  74
BRANCH  65  82
ATOM     82  C   UNL A   1      39.034  32.156  35.772  1.00  0.00     0.057 A 
ATOM     83  C   UNL A   1      39.340  33.508  35.961  1.00  0.00     0.134 A 
ATOM     84  C   UNL A   1      38.209  31.539  36.722  1.00  0.00     0.134 A 
ATOM     85  F   UNL A   1      40.135  34.154  35.094  1.00  0.00    -0.206 F 
ATOM     86  C   UNL A   1      38.854  34.219  37.061  1.00  0.00     0.040 A 
ATOM     87  C   UNL A   1      37.702  32.243  37.815  1.00  0.00     0.040 A 
ATOM     88  F   UNL A   1      37.873  30.246  36.595  1.00  0.00    -0.206 F 
ATOM     89  C   UNL A   1      38.027  33.587  37.988  1.00  0.00     0.006 A 
ENDBRANCH  65  82
ENDBRANCH  39  40
ENDBRANCH  32  34
ENDBRANCH  31  32
ENDBRANCH  30  31
ENDBRANCH  29  30
ENDBRANCH  28  29
ENDBRANCH  27  28
ENDBRANCH   1  27
TORSDOF 21
ENDMDL
MODEL 3
REMARK VINA RESULT:     -10.7      4.435      9.301
REMARK SMILES CC1(C)NC(=O)N(CCC(=O)N2CCC[C@H]2C(=O)OCCOCCOCCOC(=O)c2ccc(-c3c4nc(c(-c5c(F)cccc5F)c5ccc([nH]5)c(-c5c(F)cccc5F)c5nc(c(-c6c(F)cccc6F)c6ccc3[nH]6)C=C5)C=C4)cc2)C1=O
REMARK SMILES IDX 23 1 22 2 21 3 20 4 19 5 17 6 18 7 16 8 12 9 13 10 14 11
REMARK SMILES IDX 15 12 10 13 11 14 9 15 8 16 7 17 1 18 2 19 3 20 4 21 85 22
REMARK SMILES IDX 5 23 86 25 6 26 24 27 25 28 26 29 27 30 28 31 29 32 30 33
REMARK SMILES IDX 31 34 32 35 84 36 33 37 83 38 34 39 35 40 36 41 77 42 37 43
REMARK SMILES IDX 82 44 76 45 78 46 38 47 81 48 75 49 74 50 39 52 65 53 48 54
REMARK SMILES IDX 64 55 49 56 52 57 63 58 79 59 50 60 51 61 62 63 80 64 53 65
REMARK SMILES IDX 40 66 41 67 46 68 42 69 43 70 45 71 47 72 44 73 66 74 67 75
REMARK SMILES IDX 72 76 68 77 69 78 71 79 73 80 70 81 54 82 55 83 60 84 56 85
REMARK SMILES IDX 57 86 59 87 61 88 58 89
REMARK H PARENT 4 24 78 51 52 62
REMARK Flexibility Score: inf
ROOT
ATOM      1  C   UNL A   1      31.470  29.134  25.014  1.00  0.00     0.188 C 
ENDROOT
BRANCH   1   2
ATOM      2  O   UNL A   1      31.260  27.772  24.655  1.00  0.00    -0.376 OA
BRANCH   2   3
ATOM      3  C   UNL A   1      30.393  27.545  23.550  1.00  0.00     0.202 C 
BRANCH   3   4
ATOM      4  C   UNL A   1      31.140  27.160  22.275  1.00  0.00     0.261 C 
BRANCH   4   5
ATOM      5  O   UNL A   1      31.428  25.748  22.219  1.00  0.00    -0.462 OA
BRANCH   5   6
ATOM      6  C   UNL A   1      32.723  25.398  22.031  1.00  0.00     0.328 C 
ATOM      7  O   UNL A   1      33.456  25.910  21.192  1.00  0.00    -0.250 OA
BRANCH   6   8
ATOM      8  C   UNL A   1      33.205  24.329  23.031  1.00  0.00     0.195 C 
ATOM      9  N   UNL A   1      34.513  24.499  23.658  1.00  0.00    -0.329 N 
ATOM     10  C   UNL A   1      34.304  25.405  24.784  1.00  0.00     0.120 C 
ATOM     11  C   UNL A   1      33.045  24.834  25.419  1.00  0.00     0.024 C 
ATOM     12  C   UNL A   1      32.237  24.302  24.231  1.00  0.00     0.039 C 
BRANCH   9  13
ATOM     13  C   UNL A   1      35.508  23.558  23.786  1.00  0.00     0.225 C 
ATOM     14  O   UNL A   1      36.107  23.191  22.759  1.00  0.00    -0.275 OA
BRANCH  13  15
ATOM     15  C   UNL A   1      35.986  22.861  25.059  1.00  0.00     0.122 C 
BRANCH  15  16
ATOM     16  C   UNL A   1      35.706  21.519  25.710  1.00  0.00     0.140 C 
BRANCH  16  17
ATOM     17  N   UNL A   1      34.458  20.811  25.569  1.00  0.00    -0.262 N 
ATOM     18  C   UNL A   1      32.724  17.737  25.523  1.00  0.00     0.045 C 
ATOM     19  C   UNL A   1      32.942  19.114  24.925  1.00  0.00     0.115 C 
ATOM     20  C   UNL A   1      32.505  19.178  23.467  1.00  0.00     0.045 C 
ATOM     21  N   UNL A   1      32.344  20.156  25.727  1.00  0.00    -0.324 N 
ATOM     22  C   UNL A   1      34.404  19.559  25.006  1.00  0.00     0.255 C 
ATOM     23  C   UNL A   1      33.262  21.091  26.149  1.00  0.00     0.325 C 
ATOM     24  H   UNL A   1      31.386  20.195  25.947  1.00  0.00     0.166 HD
ATOM     25  O   UNL A   1      35.361  18.919  24.589  1.00  0.00    -0.272 OA
ATOM     26  O   UNL A   1      32.995  22.032  26.881  1.00  0.00    -0.248 OA
ENDBRANCH  16  17
ENDBRANCH  15  16
ENDBRANCH  13  15
ENDBRANCH   9  13
ENDBRANCH   6   8
ENDBRANCH   5   6
ENDBRANCH   4   5
ENDBRANCH   3   4
ENDBRANCH   2   3
ENDBRANCH   1   2
BRANCH   1  27
ATOM     27  C   UNL A   1      32.947  29.564  24.992  1.00  0.00     0.188 C 
BRANCH  27  28
ATOM     28  O   UNL A   1      33.602  29.724  26.247  1.00  0.00    -0.376 OA
BRANCH  28  29
ATOM     29  C   UNL A   1      32.906  30.448  27.257  1.00  0.00     0.202 C 
BRANCH  29  30
ATOM     30  C   UNL A   1      33.704  31.578  27.901  1.00  0.00     0.261 C 
BRANCH  30  31
ATOM     31  O   UNL A   1      35.122  31.355  27.802  1.00  0.00    -0.460 OA
BRANCH  31  32
ATOM     32  C   UNL A   1      35.726  31.091  28.981  1.00  0.00     0.338 C 
ATOM     33  O   UNL A   1      35.429  31.521  30.087  1.00  0.00    -0.246 OA
BRANCH  32  34
ATOM     34  C   UNL A   1      36.833  30.149  28.790  1.00  0.00     0.060 A 
ATOM     35  C   UNL A   1      37.425  29.557  29.909  1.00  0.00     0.016 A 
ATOM     36  C   UNL A   1      37.413  30.023  27.526  1.00  0.00     0.016 A 
ATOM     37  C   UNL A   1      38.627  28.860  29.770  1.00  0.00     0.010 A 
ATOM     38  C   UNL A   1      38.617  29.328  27.390  1.00  0.00     0.010 A 
ATOM     39  C   UNL A   1      39.250  28.773  28.517  1.00  0.00    -0.014 A 
BRANCH  39  40
ATOM     40  C   UNL A   1      40.649  28.288  28.413  1.00  0.00     0.031 A 
ATOM     41  C   UNL A   1      41.771  29.261  28.650  1.00  0.00     0.074 A 
ATOM     42  C   UNL A   1      40.930  27.001  28.146  1.00  0.00     0.049 A 
ATOM     43  N   UNL A   1      43.059  29.107  28.481  1.00  0.00    -0.248 NA
ATOM     44  C   UNL A   1      41.384  30.588  29.157  1.00  0.00     0.031 C 
ATOM     45  C   UNL A   1      39.947  25.930  27.993  1.00  0.00     0.029 A 
ATOM     46  N   UNL A   1      42.140  26.380  27.959  1.00  0.00    -0.354 N 
ATOM     47  C   UNL A   1      43.632  30.324  28.827  1.00  0.00     0.074 A 
ATOM     48  C   UNL A   1      42.554  31.204  29.221  1.00  0.00     0.031 C 
ATOM     49  C   UNL A   1      40.596  24.781  27.739  1.00  0.00     0.029 A 
ATOM     50  C   UNL A   1      42.032  25.046  27.654  1.00  0.00     0.049 A 
ATOM     51  H   UNL A   1      43.003  26.848  28.035  1.00  0.00     0.167 HD
ATOM     52  C   UNL A   1      44.938  30.682  28.808  1.00  0.00     0.037 A 
ATOM     53  C   UNL A   1      42.982  24.154  27.312  1.00  0.00     0.037 A 
ATOM     54  C   UNL A   1      46.016  29.807  28.429  1.00  0.00     0.049 A 
ATOM     55  C   UNL A   1      44.418  24.599  27.196  1.00  0.00     0.074 A 
ATOM     56  C   UNL A   1      47.370  30.084  28.358  1.00  0.00     0.029 A 
ATOM     57  N   UNL A   1      45.858  28.482  28.058  1.00  0.00    -0.354 N 
ATOM     58  N   UNL A   1      44.948  25.767  27.467  1.00  0.00    -0.248 NA
ATOM     59  C   UNL A   1      45.383  23.604  26.703  1.00  0.00     0.031 C 
ATOM     60  C   UNL A   1      48.028  28.933  27.908  1.00  0.00     0.029 A 
ATOM     61  C   UNL A   1      47.086  27.931  27.736  1.00  0.00     0.049 A 
ATOM     62  H   UNL A   1      44.999  28.002  28.029  1.00  0.00     0.167 HD
ATOM     63  C   UNL A   1      46.306  25.642  27.194  1.00  0.00     0.074 A 
ATOM     64  C   UNL A   1      46.521  24.283  26.747  1.00  0.00     0.031 C 
ATOM     65  C   UNL A   1      47.286  26.573  27.300  1.00  0.00     0.037 A 
BRANCH  52  66
ATOM     66  C   UNL A   1      45.256  32.104  29.153  1.00  0.00     0.057 A 
ATOM     67  C   UNL A   1      45.203  33.132  28.202  1.00  0.00     0.134 A 
ATOM     68  C   UNL A   1      45.638  32.446  30.456  1.00  0.00     0.134 A 
ATOM     69  F   UNL A   1      44.863  32.866  26.933  1.00  0.00    -0.206 F 
ATOM     70  C   UNL A   1      45.547  34.444  28.532  1.00  0.00     0.040 A 
ATOM     71  C   UNL A   1      45.964  33.757  30.801  1.00  0.00     0.040 A 
ATOM     72  F   UNL A   1      45.709  31.507  31.412  1.00  0.00    -0.206 F 
ATOM     73  C   UNL A   1      45.928  34.761  29.835  1.00  0.00     0.006 A 
ENDBRANCH  52  66
BRANCH  53  74
ATOM     74  C   UNL A   1      42.611  22.750  27.006  1.00  0.00     0.057 A 
ATOM     75  C   UNL A   1      42.557  22.290  25.684  1.00  0.00     0.134 A 
ATOM     76  C   UNL A   1      42.273  21.845  28.018  1.00  0.00     0.134 A 
ATOM     77  F   UNL A   1      42.841  23.119  24.669  1.00  0.00    -0.206 F 
ATOM     78  C   UNL A   1      42.171  20.983  25.381  1.00  0.00     0.040 A 
ATOM     79  C   UNL A   1      41.908  20.529  27.731  1.00  0.00     0.040 A 
ATOM     80  F   UNL A   1      42.296  22.226  29.304  1.00  0.00    -0.206 F 
ATOM     81  C   UNL A   1      41.850  20.097  26.407  1.00  0.00     0.006 A 
ENDBRANCH  53  74
BRANCH  65  82
ATOM     82  C   UNL A   1      48.683  26.147  26.959  1.00  0.00     0.057 A 
ATOM     83  C   UNL A   1      49.231  26.370  25.690  1.00  0.00     0.134 A 
ATOM     84  C   UNL A   1      49.505  25.550  27.924  1.00  0.00     0.134 A 
ATOM     85  F   UNL A   1      48.493  26.926  24.718  1.00  0.00    -0.206 F 
ATOM     86  C   UNL A   1      50.544  26.002  25.389  1.00  0.00     0.040 A 
ATOM     87  C   UNL A   1      50.824  25.195  27.641  1.00  0.00     0.040 A 
ATOM     88  F   UNL A   1      49.041  25.314  29.161  1.00  0.00    -0.206 F 
ATOM     89  C   UNL A   1      51.346  25.418  26.368  1.00  0.00     0.006 A 
ENDBRANCH  65  82
ENDBRANCH  39  40
ENDBRANCH  32  34
ENDBRANCH  31  32
ENDBRANCH  30  31
ENDBRANCH  29  30
ENDBRANCH  28  29
ENDBRANCH  27  28
ENDBRANCH   1  27
TORSDOF 21
ENDMDL
