MODEL 1
REMARK VINA RESULT:      -9.4      0.000      0.000
REMARK SMILES C=CCOc1ccccc1C(=O)N[C@H](C(=O)OCCOCCOCCOC(=O)c1ccc(-c2c3nc(c(-c4c(F)cccc4F)c4ccc([nH]4)c(-c4c(F)cccc4F)c4nc(c(-c5c(F)cccc5F)c5ccc2[nH]5)C=C4)C=C3)cc1)[C@@H](C)O
REMARK SMILES IDX 20 1 19 2 18 3 17 4 15 5 16 6 14 7 13 8 11 9 12 10 10 12
REMARK SMILES IDX 5 13 6 14 7 15 9 16 8 17 4 18 3 19 2 20 1 21 83 22 84 23
REMARK SMILES IDX 85 24 21 26 22 27 23 28 24 29 25 30 26 31 27 32 28 33 29 34
REMARK SMILES IDX 30 35 82 36 31 37 81 38 32 39 33 40 34 41 75 42 35 43 80 44
REMARK SMILES IDX 74 45 76 46 36 47 79 48 73 49 72 50 37 52 63 53 46 54 62 55
REMARK SMILES IDX 47 56 50 57 61 58 77 59 48 60 49 61 60 63 78 64 51 65 38 66
REMARK SMILES IDX 39 67 44 68 40 69 41 70 43 71 45 72 42 73 64 74 65 75 70 76
REMARK SMILES IDX 66 77 67 78 69 79 71 80 68 81 52 82 53 83 58 84 54 85 55 86
REMARK SMILES IDX 57 87 59 88 56 89
REMARK H PARENT 13 11 85 25 76 51 50 62
REMARK Flexibility Score: inf
ROOT
ATOM      1  O   UNL A   1      35.180  32.108  27.489  1.00  0.00    -0.376 OA
ENDROOT
BRANCH   1   2
ATOM      2  C   UNL A   1      34.783  30.767  27.768  1.00  0.00     0.202 C 
BRANCH   2   3
ATOM      3  C   UNL A   1      33.481  30.296  27.108  1.00  0.00     0.261 C 
BRANCH   3   4
ATOM      4  O   UNL A   1      33.548  28.887  26.827  1.00  0.00    -0.462 OA
BRANCH   4   5
ATOM      5  C   UNL A   1      32.403  28.163  26.851  1.00  0.00     0.331 C 
ATOM      6  O   UNL A   1      31.457  28.405  27.595  1.00  0.00    -0.250 OA
BRANCH   5   7
ATOM      7  C   UNL A   1      32.289  27.192  25.646  1.00  0.00     0.221 C 
BRANCH   7   8
ATOM      8  N   UNL A   1      31.651  25.996  26.325  1.00  0.00    -0.336 N 
ATOM      9  C   UNL A   1      31.817  24.651  26.518  1.00  0.00     0.255 C 
ATOM     10  O   UNL A   1      31.005  24.083  27.251  1.00  0.00    -0.269 OA
ATOM     11  H   UNL A   1      30.834  26.289  26.789  1.00  0.00     0.164 HD
BRANCH   9  12
ATOM     12  C   UNL A   1      32.793  23.829  25.787  1.00  0.00     0.081 A 
ATOM     13  C   UNL A   1      32.467  23.090  24.668  1.00  0.00     0.132 A 
ATOM     14  C   UNL A   1      33.266  21.993  24.339  1.00  0.00     0.047 A 
ATOM     15  C   UNL A   1      34.458  21.741  25.033  1.00  0.00     0.004 A 
ATOM     16  C   UNL A   1      34.079  23.708  26.334  1.00  0.00     0.018 A 
ATOM     17  C   UNL A   1      34.903  22.643  25.988  1.00  0.00     0.001 A 
BRANCH  13  18
ATOM     18  O   UNL A   1      31.303  23.303  23.991  1.00  0.00    -0.489 OA
BRANCH  18  19
ATOM     19  C   UNL A   1      31.338  24.371  23.049  1.00  0.00     0.257 C 
BRANCH  19  20
ATOM     20  C   UNL A   1      32.689  24.450  22.405  1.00  0.00     0.006 C 
ATOM     21  C   UNL A   1      33.277  25.595  22.035  1.00  0.00     0.007 C 
ENDBRANCH  19  20
ENDBRANCH  18  19
ENDBRANCH  13  18
ENDBRANCH   9  12
ENDBRANCH   7   8
BRANCH   7  22
ATOM     22  C   UNL A   1      31.720  27.844  24.321  1.00  0.00     0.145 C 
ATOM     23  C   UNL A   1      30.205  27.770  24.116  1.00  0.00     0.041 C 
BRANCH  22  24
ATOM     24  O   UNL A   1      31.882  29.278  24.264  1.00  0.00    -0.391 OA
ATOM     25  H   UNL A   1      32.672  29.494  23.743  1.00  0.00     0.211 HD
ENDBRANCH  22  24
ENDBRANCH   7  22
ENDBRANCH   5   7
ENDBRANCH   4   5
ENDBRANCH   3   4
ENDBRANCH   2   3
ENDBRANCH   1   2
BRANCH   1  26
ATOM     26  C   UNL A   1      35.865  32.835  28.501  1.00  0.00     0.188 C 
BRANCH  26  27
ATOM     27  C   UNL A   1      35.053  33.784  29.395  1.00  0.00     0.188 C 
BRANCH  27  28
ATOM     28  O   UNL A   1      33.801  34.200  28.878  1.00  0.00    -0.376 OA
BRANCH  28  29
ATOM     29  C   UNL A   1      33.746  35.593  28.576  1.00  0.00     0.202 C 
BRANCH  29  30
ATOM     30  C   UNL A   1      32.916  36.379  29.597  1.00  0.00     0.261 C 
BRANCH  30  31
ATOM     31  O   UNL A   1      32.356  35.547  30.636  1.00  0.00    -0.460 OA
BRANCH  31  32
ATOM     32  C   UNL A   1      32.461  35.991  31.910  1.00  0.00     0.338 C 
ATOM     33  O   UNL A   1      31.763  36.828  32.453  1.00  0.00    -0.246 OA
BRANCH  32  34
ATOM     34  C   UNL A   1      33.536  35.240  32.601  1.00  0.00     0.060 A 
ATOM     35  C   UNL A   1      34.794  35.816  32.742  1.00  0.00     0.016 A 
ATOM     36  C   UNL A   1      33.350  33.923  33.007  1.00  0.00     0.016 A 
ATOM     37  C   UNL A   1      35.870  35.085  33.239  1.00  0.00     0.010 A 
ATOM     38  C   UNL A   1      34.436  33.188  33.527  1.00  0.00     0.010 A 
ATOM     39  C   UNL A   1      35.725  33.750  33.606  1.00  0.00    -0.014 A 
BRANCH  39  40
ATOM     40  C   UNL A   1      36.950  32.937  33.889  1.00  0.00     0.031 A 
ATOM     41  C   UNL A   1      37.639  33.082  35.224  1.00  0.00     0.074 A 
ATOM     42  C   UNL A   1      37.388  31.969  33.054  1.00  0.00     0.049 A 
ATOM     43  N   UNL A   1      38.811  32.644  35.611  1.00  0.00    -0.248 NA
ATOM     44  C   UNL A   1      36.898  33.808  36.269  1.00  0.00     0.031 C 
ATOM     45  C   UNL A   1      36.746  31.558  31.805  1.00  0.00     0.029 A 
ATOM     46  N   UNL A   1      38.474  31.128  33.156  1.00  0.00    -0.354 N 
ATOM     47  C   UNL A   1      38.980  33.109  36.910  1.00  0.00     0.074 A 
ATOM     48  C   UNL A   1      37.783  33.844  37.255  1.00  0.00     0.031 C 
ATOM     49  C   UNL A   1      37.425  30.526  31.279  1.00  0.00     0.029 A 
ATOM     50  C   UNL A   1      38.616  30.278  32.085  1.00  0.00     0.049 A 
ATOM     51  H   UNL A   1      39.092  31.136  33.922  1.00  0.00     0.167 HD
ATOM     52  C   UNL A   1      40.042  32.946  37.734  1.00  0.00     0.037 A 
ATOM     53  C   UNL A   1      39.616  29.440  31.747  1.00  0.00     0.037 A 
ATOM     54  C   UNL A   1      41.200  32.149  37.424  1.00  0.00     0.049 A 
ATOM     55  C   UNL A   1      40.836  29.355  32.622  1.00  0.00     0.074 A 
ATOM     56  C   UNL A   1      42.342  31.953  38.184  1.00  0.00     0.029 A 
ATOM     57  N   UNL A   1      41.353  31.393  36.273  1.00  0.00    -0.354 N 
ATOM     58  N   UNL A   1      41.067  29.923  33.780  1.00  0.00    -0.248 NA
ATOM     59  C   UNL A   1      41.953  28.538  32.123  1.00  0.00     0.031 C 
ATOM     60  C   UNL A   1      43.202  31.109  37.474  1.00  0.00     0.029 A 
ATOM     61  C   UNL A   1      42.576  30.743  36.294  1.00  0.00     0.049 A 
ATOM     62  H   UNL A   1      40.690  31.328  35.549  1.00  0.00     0.167 HD
ATOM     63  C   UNL A   1      42.345  29.527  34.151  1.00  0.00     0.074 A 
ATOM     64  C   UNL A   1      42.832  28.650  33.108  1.00  0.00     0.031 C 
ATOM     65  C   UNL A   1      43.055  29.869  35.254  1.00  0.00     0.037 A 
BRANCH  52  66
ATOM     66  C   UNL A   1      40.036  33.709  39.027  1.00  0.00     0.057 A 
ATOM     67  C   UNL A   1      40.689  34.937  39.184  1.00  0.00     0.134 A 
ATOM     68  C   UNL A   1      39.332  33.205  40.129  1.00  0.00     0.134 A 
ATOM     69  F   UNL A   1      41.398  35.465  38.175  1.00  0.00    -0.206 F 
ATOM     70  C   UNL A   1      40.657  35.627  40.398  1.00  0.00     0.040 A 
ATOM     71  C   UNL A   1      39.270  33.897  41.338  1.00  0.00     0.040 A 
ATOM     72  F   UNL A   1      38.682  32.034  40.042  1.00  0.00    -0.206 F 
ATOM     73  C   UNL A   1      39.940  35.110  41.477  1.00  0.00     0.006 A 
ENDBRANCH  52  66
BRANCH  53  74
ATOM     74  C   UNL A   1      39.558  28.687  30.466  1.00  0.00     0.057 A 
ATOM     75  C   UNL A   1      40.021  29.242  29.268  1.00  0.00     0.134 A 
ATOM     76  C   UNL A   1      39.003  27.401  30.406  1.00  0.00     0.134 A 
ATOM     77  F   UNL A   1      40.527  30.485  29.248  1.00  0.00    -0.206 F 
ATOM     78  C   UNL A   1      39.927  28.552  28.057  1.00  0.00     0.040 A 
ATOM     79  C   UNL A   1      38.934  26.687  29.209  1.00  0.00     0.040 A 
ATOM     80  F   UNL A   1      38.526  26.816  31.514  1.00  0.00    -0.206 F 
ATOM     81  C   UNL A   1      39.390  27.265  28.029  1.00  0.00     0.006 A 
ENDBRANCH  53  74
BRANCH  65  82
ATOM     82  C   UNL A   1      44.422  29.270  35.404  1.00  0.00     0.057 A 
ATOM     83  C   UNL A   1      45.569  29.917  34.925  1.00  0.00     0.134 A 
ATOM     84  C   UNL A   1      44.597  28.042  36.056  1.00  0.00     0.134 A 
ATOM     85  F   UNL A   1      45.468  31.089  34.280  1.00  0.00    -0.206 F 
ATOM     86  C   UNL A   1      46.837  29.351  35.067  1.00  0.00     0.040 A 
ATOM     87  C   UNL A   1      45.862  27.480  36.226  1.00  0.00     0.040 A 
ATOM     88  F   UNL A   1      43.542  27.374  36.545  1.00  0.00    -0.206 F 
ATOM     89  C   UNL A   1      46.988  28.132  35.724  1.00  0.00     0.006 A 
ENDBRANCH  65  82
ENDBRANCH  39  40
ENDBRANCH  32  34
ENDBRANCH  31  32
ENDBRANCH  30  31
ENDBRANCH  29  30
ENDBRANCH  28  29
ENDBRANCH  27  28
ENDBRANCH  26  27
ENDBRANCH   1  26
TORSDOF 24
ENDMDL
MODEL 2
REMARK VINA RESULT:      -9.4      2.359      4.285
REMARK SMILES C=CCOc1ccccc1C(=O)N[C@H](C(=O)OCCOCCOCCOC(=O)c1ccc(-c2c3nc(c(-c4c(F)cccc4F)c4ccc([nH]4)c(-c4c(F)cccc4F)c4nc(c(-c5c(F)cccc5F)c5ccc2[nH]5)C=C4)C=C3)cc1)[C@@H](C)O
REMARK SMILES IDX 20 1 19 2 18 3 17 4 15 5 16 6 14 7 13 8 11 9 12 10 10 12
REMARK SMILES IDX 5 13 6 14 7 15 9 16 8 17 4 18 3 19 2 20 1 21 83 22 84 23
REMARK SMILES IDX 85 24 21 26 22 27 23 28 24 29 25 30 26 31 27 32 28 33 29 34
REMARK SMILES IDX 30 35 82 36 31 37 81 38 32 39 33 40 34 41 75 42 35 43 80 44
REMARK SMILES IDX 74 45 76 46 36 47 79 48 73 49 72 50 37 52 63 53 46 54 62 55
REMARK SMILES IDX 47 56 50 57 61 58 77 59 48 60 49 61 60 63 78 64 51 65 38 66
REMARK SMILES IDX 39 67 44 68 40 69 41 70 43 71 45 72 42 73 64 74 65 75 70 76
REMARK SMILES IDX 66 77 67 78 69 79 71 80 68 81 52 82 53 83 58 84 54 85 55 86
REMARK SMILES IDX 57 87 59 88 56 89
REMARK H PARENT 13 11 85 25 76 51 50 62
REMARK Flexibility Score: inf
ROOT
ATOM      1  O   UNL A   1      32.930  27.657  25.244  1.00  0.00    -0.376 OA
ENDROOT
BRANCH   1   2
ATOM      2  C   UNL A   1      32.759  28.087  23.894  1.00  0.00     0.202 C 
BRANCH   2   3
ATOM      3  C   UNL A   1      33.011  27.032  22.811  1.00  0.00     0.261 C 
BRANCH   3   4
ATOM      4  O   UNL A   1      31.761  26.519  22.317  1.00  0.00    -0.462 OA
BRANCH   4   5
ATOM      5  C   UNL A   1      30.798  26.181  23.207  1.00  0.00     0.331 C 
ATOM      6  O   UNL A   1      29.757  26.813  23.360  1.00  0.00    -0.250 OA
BRANCH   5   7
ATOM      7  C   UNL A   1      31.005  24.760  23.796  1.00  0.00     0.221 C 
BRANCH   7   8
ATOM      8  N   UNL A   1      32.162  24.282  22.940  1.00  0.00    -0.336 N 
ATOM      9  C   UNL A   1      32.922  23.174  22.676  1.00  0.00     0.255 C 
ATOM     10  O   UNL A   1      33.770  23.272  21.787  1.00  0.00    -0.269 OA
ATOM     11  H   UNL A   1      32.474  25.027  22.378  1.00  0.00     0.164 HD
BRANCH   9  12
ATOM     12  C   UNL A   1      32.897  21.948  23.487  1.00  0.00     0.081 A 
ATOM     13  C   UNL A   1      33.656  21.782  24.627  1.00  0.00     0.132 A 
ATOM     14  C   UNL A   1      33.960  20.484  25.043  1.00  0.00     0.047 A 
ATOM     15  C   UNL A   1      33.377  19.376  24.411  1.00  0.00     0.004 A 
ATOM     16  C   UNL A   1      32.152  20.863  23.000  1.00  0.00     0.018 A 
ATOM     17  C   UNL A   1      32.414  19.568  23.431  1.00  0.00     0.001 A 
BRANCH  13  18
ATOM     18  O   UNL A   1      34.251  22.843  25.244  1.00  0.00    -0.489 OA
BRANCH  18  19
ATOM     19  C   UNL A   1      35.635  22.675  25.536  1.00  0.00     0.257 C 
BRANCH  19  20
ATOM     20  C   UNL A   1      36.471  23.320  24.472  1.00  0.00     0.006 C 
ATOM     21  C   UNL A   1      36.739  22.759  23.286  1.00  0.00     0.007 C 
ENDBRANCH  19  20
ENDBRANCH  18  19
ENDBRANCH  13  18
ENDBRANCH   9  12
ENDBRANCH   7   8
BRANCH   7  22
ATOM     22  C   UNL A   1      31.009  24.692  25.377  1.00  0.00     0.145 C 
ATOM     23  C   UNL A   1      30.591  23.362  26.008  1.00  0.00     0.041 C 
BRANCH  22  24
ATOM     24  O   UNL A   1      32.325  24.812  25.960  1.00  0.00    -0.391 OA
ATOM     25  H   UNL A   1      32.249  25.169  26.859  1.00  0.00     0.211 HD
ENDBRANCH  22  24
ENDBRANCH   7  22
ENDBRANCH   5   7
ENDBRANCH   4   5
ENDBRANCH   3   4
ENDBRANCH   2   3
ENDBRANCH   1   2
BRANCH   1  26
ATOM     26  C   UNL A   1      33.572  28.537  26.158  1.00  0.00     0.188 C 
BRANCH  26  27
ATOM     27  C   UNL A   1      32.715  29.232  27.227  1.00  0.00     0.188 C 
BRANCH  27  28
ATOM     28  O   UNL A   1      31.505  29.807  26.770  1.00  0.00    -0.376 OA
BRANCH  28  29
ATOM     29  C   UNL A   1      31.684  31.060  26.112  1.00  0.00     0.202 C 
BRANCH  29  30
ATOM     30  C   UNL A   1      31.516  32.249  27.065  1.00  0.00     0.261 C 
BRANCH  30  31
ATOM     31  O   UNL A   1      32.524  33.268  26.884  1.00  0.00    -0.460 OA
BRANCH  31  32
ATOM     32  C   UNL A   1      33.069  33.805  28.000  1.00  0.00     0.338 C 
ATOM     33  O   UNL A   1      32.582  34.666  28.712  1.00  0.00    -0.246 OA
BRANCH  32  34
ATOM     34  C   UNL A   1      34.355  33.127  28.290  1.00  0.00     0.060 A 
ATOM     35  C   UNL A   1      34.384  31.745  28.435  1.00  0.00     0.016 A 
ATOM     36  C   UNL A   1      35.514  33.855  28.538  1.00  0.00     0.016 A 
ATOM     37  C   UNL A   1      35.535  31.089  28.864  1.00  0.00     0.010 A 
ATOM     38  C   UNL A   1      36.686  33.189  28.955  1.00  0.00     0.010 A 
ATOM     39  C   UNL A   1      36.696  31.796  29.168  1.00  0.00    -0.014 A 
BRANCH  39  40
ATOM     40  C   UNL A   1      37.816  31.088  29.864  1.00  0.00     0.031 A 
ATOM     41  C   UNL A   1      38.016  31.303  31.345  1.00  0.00     0.074 A 
ATOM     42  C   UNL A   1      38.571  30.149  29.254  1.00  0.00     0.049 A 
ATOM     43  N   UNL A   1      39.026  30.965  32.108  1.00  0.00    -0.248 NA
ATOM     44  C   UNL A   1      36.924  31.979  32.063  1.00  0.00     0.031 C 
ATOM     45  C   UNL A   1      38.406  29.673  27.880  1.00  0.00     0.029 A 
ATOM     46  N   UNL A   1      39.622  29.399  29.735  1.00  0.00    -0.354 N 
ATOM     47  C   UNL A   1      38.726  31.457  33.373  1.00  0.00     0.074 A 
ATOM     48  C   UNL A   1      37.432  32.097  33.281  1.00  0.00     0.031 C 
ATOM     49  C   UNL A   1      39.293  28.693  27.643  1.00  0.00     0.029 A 
ATOM     50  C   UNL A   1      40.168  28.551  28.801  1.00  0.00     0.049 A 
ATOM     51  H   UNL A   1      39.952  29.465  30.660  1.00  0.00     0.167 HD
ATOM     52  C   UNL A   1      39.468  31.389  34.504  1.00  0.00     0.037 A 
ATOM     53  C   UNL A   1      41.281  27.792  28.839  1.00  0.00     0.037 A 
ATOM     54  C   UNL A   1      40.718  30.685  34.618  1.00  0.00     0.049 A 
ATOM     55  C   UNL A   1      42.151  27.816  30.066  1.00  0.00     0.074 A 
ATOM     56  C   UNL A   1      41.559  30.589  35.715  1.00  0.00     0.029 A 
ATOM     57  N   UNL A   1      41.294  29.930  33.608  1.00  0.00    -0.354 N 
ATOM     58  N   UNL A   1      41.947  28.414  31.214  1.00  0.00    -0.248 NA
ATOM     59  C   UNL A   1      43.425  27.086  29.989  1.00  0.00     0.031 C 
ATOM     60  C   UNL A   1      42.663  29.810  35.355  1.00  0.00     0.029 A 
ATOM     61  C   UNL A   1      42.486  29.380  34.050  1.00  0.00     0.049 A 
ATOM     62  H   UNL A   1      40.911  29.804  32.710  1.00  0.00     0.167 HD
ATOM     63  C   UNL A   1      43.058  28.126  31.996  1.00  0.00     0.074 A 
ATOM     64  C   UNL A   1      43.922  27.279  31.202  1.00  0.00     0.031 C 
ATOM     65  C   UNL A   1      43.341  28.536  33.256  1.00  0.00     0.037 A 
BRANCH  52  66
ATOM     66  C   UNL A   1      38.984  32.164  35.694  1.00  0.00     0.057 A 
ATOM     67  C   UNL A   1      38.186  31.595  36.694  1.00  0.00     0.134 A 
ATOM     68  C   UNL A   1      39.354  33.507  35.848  1.00  0.00     0.134 A 
ATOM     69  F   UNL A   1      37.779  30.321  36.597  1.00  0.00    -0.206 F 
ATOM     70  C   UNL A   1      37.759  32.341  37.796  1.00  0.00     0.040 A 
ATOM     71  C   UNL A   1      38.956  34.254  36.957  1.00  0.00     0.040 A 
ATOM     72  F   UNL A   1      40.121  34.111  34.927  1.00  0.00    -0.206 F 
ATOM     73  C   UNL A   1      38.150  33.672  37.932  1.00  0.00     0.006 A 
ENDBRANCH  52  66
BRANCH  53  74
ATOM     74  C   UNL A   1      41.701  27.023  27.638  1.00  0.00     0.057 A 
ATOM     75  C   UNL A   1      41.361  25.676  27.473  1.00  0.00     0.134 A 
ATOM     76  C   UNL A   1      42.489  27.613  26.639  1.00  0.00     0.134 A 
ATOM     77  F   UNL A   1      40.644  25.040  28.411  1.00  0.00    -0.206 F 
ATOM     78  C   UNL A   1      41.792  24.942  26.365  1.00  0.00     0.040 A 
ATOM     79  C   UNL A   1      42.898  26.901  25.511  1.00  0.00     0.040 A 
ATOM     80  F   UNL A   1      42.865  28.896  26.742  1.00  0.00    -0.206 F 
ATOM     81  C   UNL A   1      42.556  25.560  25.375  1.00  0.00     0.006 A 
ENDBRANCH  53  74
BRANCH  65  82
ATOM     82  C   UNL A   1      44.623  28.051  33.865  1.00  0.00     0.057 A 
ATOM     83  C   UNL A   1      45.809  28.792  33.779  1.00  0.00     0.134 A 
ATOM     84  C   UNL A   1      44.667  26.839  34.567  1.00  0.00     0.134 A 
ATOM     85  F   UNL A   1      45.837  29.954  33.110  1.00  0.00    -0.206 F 
ATOM     86  C   UNL A   1      46.998  28.331  34.348  1.00  0.00     0.040 A 
ATOM     87  C   UNL A   1      45.844  26.382  35.161  1.00  0.00     0.040 A 
ATOM     88  F   UNL A   1      43.565  26.085  34.694  1.00  0.00    -0.206 F 
ATOM     89  C   UNL A   1      47.017  27.126  35.046  1.00  0.00     0.006 A 
ENDBRANCH  65  82
ENDBRANCH  39  40
ENDBRANCH  32  34
ENDBRANCH  31  32
ENDBRANCH  30  31
ENDBRANCH  29  30
ENDBRANCH  28  29
ENDBRANCH  27  28
ENDBRANCH  26  27
ENDBRANCH   1  26
TORSDOF 24
ENDMDL
MODEL 3
REMARK VINA RESULT:      -9.4      0.950      2.050
REMARK SMILES C=CCOc1ccccc1C(=O)N[C@H](C(=O)OCCOCCOCCOC(=O)c1ccc(-c2c3nc(c(-c4c(F)cccc4F)c4ccc([nH]4)c(-c4c(F)cccc4F)c4nc(c(-c5c(F)cccc5F)c5ccc2[nH]5)C=C4)C=C3)cc1)[C@@H](C)O
REMARK SMILES IDX 20 1 19 2 18 3 17 4 15 5 16 6 14 7 13 8 11 9 12 10 10 12
REMARK SMILES IDX 5 13 6 14 7 15 9 16 8 17 4 18 3 19 2 20 1 21 83 22 84 23
REMARK SMILES IDX 85 24 21 26 22 27 23 28 24 29 25 30 26 31 27 32 28 33 29 34
REMARK SMILES IDX 30 35 82 36 31 37 81 38 32 39 33 40 34 41 75 42 35 43 80 44
REMARK SMILES IDX 74 45 76 46 36 47 79 48 73 49 72 50 37 52 63 53 46 54 62 55
REMARK SMILES IDX 47 56 50 57 61 58 77 59 48 60 49 61 60 63 78 64 51 65 38 66
REMARK SMILES IDX 39 67 44 68 40 69 41 70 43 71 45 72 42 73 64 74 65 75 70 76
REMARK SMILES IDX 66 77 67 78 69 79 71 80 68 81 52 82 53 83 58 84 54 85 55 86
REMARK SMILES IDX 57 87 59 88 56 89
REMARK H PARENT 13 11 85 25 76 51 50 62
REMARK Flexibility Score: inf
ROOT
ATOM      1  O   UNL A   1      34.509  31.437  27.256  1.00  0.00    -0.376 OA
ENDROOT
BRANCH   1   2
ATOM      2  C   UNL A   1      34.089  30.085  27.430  1.00  0.00     0.202 C 
BRANCH   2   3
ATOM      3  C   UNL A   1      32.878  29.641  26.601  1.00  0.00     0.261 C 
BRANCH   3   4
ATOM      4  O   UNL A   1      32.936  28.224  26.355  1.00  0.00    -0.462 OA
BRANCH   4   5
ATOM      5  C   UNL A   1      31.873  27.459  26.699  1.00  0.00     0.331 C 
ATOM      6  O   UNL A   1      31.122  27.714  27.636  1.00  0.00    -0.250 OA
BRANCH   5   7
ATOM      7  C   UNL A   1      31.527  26.403  25.616  1.00  0.00     0.221 C 
BRANCH   7   8
ATOM      8  N   UNL A   1      31.497  25.148  26.467  1.00  0.00    -0.336 N 
ATOM      9  C   UNL A   1      32.227  24.027  26.760  1.00  0.00     0.255 C 
ATOM     10  O   UNL A   1      31.778  23.274  27.626  1.00  0.00    -0.269 OA
ATOM     11  H   UNL A   1      30.663  25.134  26.989  1.00  0.00     0.164 HD
BRANCH   9  12
ATOM     12  C   UNL A   1      33.410  23.595  26.002  1.00  0.00     0.081 A 
ATOM     13  C   UNL A   1      33.628  22.285  25.627  1.00  0.00     0.132 A 
ATOM     14  C   UNL A   1      34.938  21.874  25.372  1.00  0.00     0.047 A 
ATOM     15  C   UNL A   1      35.987  22.804  25.343  1.00  0.00     0.004 A 
ATOM     16  C   UNL A   1      34.412  24.549  25.761  1.00  0.00     0.018 A 
ATOM     17  C   UNL A   1      35.712  24.158  25.469  1.00  0.00     0.001 A 
BRANCH  13  18
ATOM     18  O   UNL A   1      32.628  21.359  25.669  1.00  0.00    -0.489 OA
BRANCH  18  19
ATOM     19  C   UNL A   1      32.269  20.800  24.408  1.00  0.00     0.257 C 
BRANCH  19  20
ATOM     20  C   UNL A   1      32.527  19.324  24.404  1.00  0.00     0.006 C 
ATOM     21  C   UNL A   1      32.467  18.556  23.308  1.00  0.00     0.007 C 
ENDBRANCH  19  20
ENDBRANCH  18  19
ENDBRANCH  13  18
ENDBRANCH   9  12
ENDBRANCH   7   8
BRANCH   7  22
ATOM     22  C   UNL A   1      30.353  26.817  24.638  1.00  0.00     0.145 C 
ATOM     23  C   UNL A   1      30.542  28.116  23.852  1.00  0.00     0.041 C 
BRANCH  22  24
ATOM     24  O   UNL A   1      30.173  25.910  23.530  1.00  0.00    -0.391 OA
ATOM     25  H   UNL A   1      30.949  25.333  23.454  1.00  0.00     0.211 HD
ENDBRANCH  22  24
ENDBRANCH   7  22
ENDBRANCH   5   7
ENDBRANCH   4   5
ENDBRANCH   3   4
ENDBRANCH   2   3
ENDBRANCH   1   2
BRANCH   1  26
ATOM     26  C   UNL A   1      35.356  32.014  28.241  1.00  0.00     0.188 C 
BRANCH  26  27
ATOM     27  C   UNL A   1      34.724  32.929  29.302  1.00  0.00     0.188 C 
BRANCH  27  28
ATOM     28  O   UNL A   1      33.595  33.673  28.882  1.00  0.00    -0.376 OA
BRANCH  28  29
ATOM     29  C   UNL A   1      33.879  35.050  28.641  1.00  0.00     0.202 C 
BRANCH  29  30
ATOM     30  C   UNL A   1      32.936  35.984  29.408  1.00  0.00     0.261 C 
BRANCH  30  31
ATOM     31  O   UNL A   1      32.300  35.347  30.537  1.00  0.00    -0.460 OA
BRANCH  31  32
ATOM     32  C   UNL A   1      32.498  35.903  31.754  1.00  0.00     0.338 C 
ATOM     33  O   UNL A   1      31.873  36.824  32.249  1.00  0.00    -0.246 OA
BRANCH  32  34
ATOM     34  C   UNL A   1      33.572  35.164  32.460  1.00  0.00     0.060 A 
ATOM     35  C   UNL A   1      34.825  35.748  32.604  1.00  0.00     0.016 A 
ATOM     36  C   UNL A   1      33.390  33.849  32.876  1.00  0.00     0.016 A 
ATOM     37  C   UNL A   1      35.902  35.027  33.115  1.00  0.00     0.010 A 
ATOM     38  C   UNL A   1      34.476  33.124  33.409  1.00  0.00     0.010 A 
ATOM     39  C   UNL A   1      35.762  33.694  33.493  1.00  0.00    -0.014 A 
BRANCH  39  40
ATOM     40  C   UNL A   1      36.989  32.891  33.791  1.00  0.00     0.031 A 
ATOM     41  C   UNL A   1      37.663  33.045  35.132  1.00  0.00     0.074 A 
ATOM     42  C   UNL A   1      37.441  31.922  32.965  1.00  0.00     0.049 A 
ATOM     43  N   UNL A   1      38.835  32.616  35.532  1.00  0.00    -0.248 NA
ATOM     44  C   UNL A   1      36.908  33.771  36.166  1.00  0.00     0.031 C 
ATOM     45  C   UNL A   1      36.815  31.502  31.711  1.00  0.00     0.029 A 
ATOM     46  N   UNL A   1      38.532  31.089  33.081  1.00  0.00    -0.354 N 
ATOM     47  C   UNL A   1      38.988  33.088  36.831  1.00  0.00     0.074 A 
ATOM     48  C   UNL A   1      37.782  33.816  37.161  1.00  0.00     0.031 C 
ATOM     49  C   UNL A   1      37.505  30.472  31.196  1.00  0.00     0.029 A 
ATOM     50  C   UNL A   1      38.689  30.235  32.015  1.00  0.00     0.049 A 
ATOM     51  H   UNL A   1      39.142  31.104  33.853  1.00  0.00     0.167 HD
ATOM     52  C   UNL A   1      40.042  32.935  37.667  1.00  0.00     0.037 A 
ATOM     53  C   UNL A   1      39.698  29.402  31.690  1.00  0.00     0.037 A 
ATOM     54  C   UNL A   1      41.209  32.145  37.371  1.00  0.00     0.049 A 
ATOM     55  C   UNL A   1      40.911  29.329  32.577  1.00  0.00     0.074 A 
ATOM     56  C   UNL A   1      42.344  31.959  38.143  1.00  0.00     0.029 A 
ATOM     57  N   UNL A   1      41.378  31.385  36.225  1.00  0.00    -0.354 N 
ATOM     58  N   UNL A   1      41.126  29.903  33.735  1.00  0.00    -0.248 NA
ATOM     59  C   UNL A   1      42.037  28.517  32.093  1.00  0.00     0.031 C 
ATOM     60  C   UNL A   1      43.217  31.118  37.445  1.00  0.00     0.029 A 
ATOM     61  C   UNL A   1      42.605  30.743  36.260  1.00  0.00     0.049 A 
ATOM     62  H   UNL A   1      40.723  31.313  35.494  1.00  0.00     0.167 HD
ATOM     63  C   UNL A   1      42.403  29.517  34.121  1.00  0.00     0.074 A 
ATOM     64  C   UNL A   1      42.906  28.639  33.086  1.00  0.00     0.031 C 
ATOM     65  C   UNL A   1      43.099  29.868  35.229  1.00  0.00     0.037 A 
BRANCH  52  66
ATOM     66  C   UNL A   1      40.018  33.703  38.956  1.00  0.00     0.057 A 
ATOM     67  C   UNL A   1      39.388  33.225  40.110  1.00  0.00     0.134 A 
ATOM     68  C   UNL A   1      40.670  34.941  39.040  1.00  0.00     0.134 A 
ATOM     69  F   UNL A   1      38.729  32.057  40.091  1.00  0.00    -0.206 F 
ATOM     70  C   UNL A   1      39.392  33.960  41.298  1.00  0.00     0.040 A 
ATOM     71  C   UNL A   1      40.704  35.672  40.227  1.00  0.00     0.040 A 
ATOM     72  F   UNL A   1      41.297  35.454  37.970  1.00  0.00    -0.206 F 
ATOM     73  C   UNL A   1      40.057  35.184  41.360  1.00  0.00     0.006 A 
ENDBRANCH  52  66
BRANCH  53  74
ATOM     74  C   UNL A   1      39.659  28.644  30.411  1.00  0.00     0.057 A 
ATOM     75  C   UNL A   1      39.070  27.378  30.327  1.00  0.00     0.134 A 
ATOM     76  C   UNL A   1      40.245  29.159  29.246  1.00  0.00     0.134 A 
ATOM     77  F   UNL A   1      38.527  26.810  31.415  1.00  0.00    -0.206 F 
ATOM     78  C   UNL A   1      39.071  26.648  29.136  1.00  0.00     0.040 A 
ATOM     79  C   UNL A   1      40.223  28.455  28.041  1.00  0.00     0.040 A 
ATOM     80  F   UNL A   1      40.840  30.360  29.261  1.00  0.00    -0.206 F 
ATOM     81  C   UNL A   1      39.642  27.192  27.986  1.00  0.00     0.006 A 
ENDBRANCH  53  74
BRANCH  65  82
ATOM     82  C   UNL A   1      44.469  29.278  35.395  1.00  0.00     0.057 A 
ATOM     83  C   UNL A   1      44.670  28.045  36.029  1.00  0.00     0.134 A 
ATOM     84  C   UNL A   1      45.597  29.940  34.893  1.00  0.00     0.134 A 
ATOM     85  F   UNL A   1      43.633  27.368  36.543  1.00  0.00    -0.206 F 
ATOM     86  C   UNL A   1      45.949  27.505  36.181  1.00  0.00     0.040 A 
ATOM     87  C   UNL A   1      46.877  29.397  35.018  1.00  0.00     0.040 A 
ATOM     88  F   UNL A   1      45.474  31.120  34.268  1.00  0.00    -0.206 F 
ATOM     89  C   UNL A   1      47.056  28.178  35.670  1.00  0.00     0.006 A 
ENDBRANCH  65  82
ENDBRANCH  39  40
ENDBRANCH  32  34
ENDBRANCH  31  32
ENDBRANCH  30  31
ENDBRANCH  29  30
ENDBRANCH  28  29
ENDBRANCH  27  28
ENDBRANCH  26  27
ENDBRANCH   1  26
TORSDOF 24
ENDMDL
