MODEL 1
REMARK VINA RESULT:     -12.4      0.000      0.000
REMARK SMILES O=C(N/N=C/c1ccccc1O)C(=O)Nc1cccc(C(=O)OCCOCCOCCOC(=O)c2ccc(-c3c4nc(c(-c5c(F)cccc5F)c5ccc([nH]5)c(-c5c(F)cccc5F)c5nc(c(-c6c(F)cccc6F)c6ccc3[nH]6)C=C5)C=C4)cc2)c1
REMARK SMILES IDX 26 1 25 2 24 3 23 4 21 5 22 6 20 7 16 8 17 9 89 10 18 11
REMARK SMILES IDX 19 12 15 13 13 14 14 15 2 17 1 18 3 19 4 21 5 22 6 23 7 24
REMARK SMILES IDX 11 25 8 26 10 27 9 28 12 29 27 31 28 32 29 33 30 34 31 35
REMARK SMILES IDX 32 36 33 37 34 38 35 39 36 40 88 41 37 42 87 43 38 44 39 45
REMARK SMILES IDX 40 46 81 47 41 48 86 49 80 50 82 51 42 52 85 53 79 54 78 55
REMARK SMILES IDX 43 57 69 58 52 59 68 60 53 61 56 62 67 63 83 64 54 65 55 66
REMARK SMILES IDX 66 68 84 69 57 70 44 71 45 72 50 73 46 74 47 75 49 76 51 77
REMARK SMILES IDX 48 78 70 79 71 80 76 81 72 82 73 83 75 84 77 85 74 86 58 87
REMARK SMILES IDX 59 88 64 89 60 90 61 91 63 92 65 93 62 94
REMARK H PARENT 15 16 3 20 12 30 82 56 56 67
REMARK Flexibility Score: inf
ROOT
ATOM      1  O   UNL A   1      40.465  21.394  27.229  1.00  0.00    -0.376 OA
ENDROOT
BRANCH   1   2
ATOM      2  C   UNL A   1      39.845  21.677  25.987  1.00  0.00     0.202 C 
BRANCH   2   3
ATOM      3  C   UNL A   1      38.482  22.369  25.975  1.00  0.00     0.261 C 
BRANCH   3   4
ATOM      4  O   UNL A   1      37.418  21.585  25.412  1.00  0.00    -0.460 OA
BRANCH   4   5
ATOM      5  C   UNL A   1      36.505  22.295  24.710  1.00  0.00     0.338 C 
ATOM      6  O   UNL A   1      36.482  22.465  23.500  1.00  0.00    -0.246 OA
BRANCH   5   7
ATOM      7  C   UNL A   1      35.480  22.917  25.583  1.00  0.00     0.062 A 
ATOM      8  C   UNL A   1      33.028  24.868  25.805  1.00  0.00     0.042 A 
ATOM      9  C   UNL A   1      32.142  23.663  26.881  1.00  0.00     0.026 A 
ATOM     10  C   UNL A   1      34.733  24.551  25.248  1.00  0.00     0.041 A 
ATOM     11  C   UNL A   1      32.976  22.113  27.355  1.00  0.00     0.003 A 
ATOM     12  C   UNL A   1      34.593  21.713  26.649  1.00  0.00     0.016 A 
BRANCH   8  13
ATOM     13  N   UNL A   1      32.187  25.651  25.024  1.00  0.00    -0.318 N 
ATOM     14  C   UNL A   1      31.802  25.361  23.724  1.00  0.00     0.315 C 
ATOM     15  O   UNL A   1      30.836  25.981  23.269  1.00  0.00    -0.263 OA
ATOM     16  H   UNL A   1      31.836  26.479  25.427  1.00  0.00     0.170 HD
BRANCH  14  17
ATOM     17  C   UNL A   1      32.443  24.278  22.821  1.00  0.00     0.329 C 
ATOM     18  O   UNL A   1      33.411  24.591  22.128  1.00  0.00    -0.262 OA
ATOM     19  N   UNL A   1      31.836  23.025  22.652  1.00  0.00    -0.239 N 
ATOM     20  H   UNL A   1      31.373  22.777  21.819  1.00  0.00     0.194 HD
BRANCH  19  21
ATOM     21  N   UNL A   1      31.926  22.164  23.718  1.00  0.00    -0.180 NA
ATOM     22  C   UNL A   1      32.872  21.175  23.605  1.00  0.00     0.145 C 
BRANCH  22  23
ATOM     23  C   UNL A   1      33.006  19.093  24.108  1.00  0.00     0.036 A 
ATOM     24  C   UNL A   1      33.292  17.920  23.138  1.00  0.00     0.013 A 
ATOM     25  C   UNL A   1      32.921  18.299  25.401  1.00  0.00     0.124 A 
ATOM     26  C   UNL A   1      33.553  16.534  23.349  1.00  0.00     0.001 A 
ATOM     27  C   UNL A   1      33.140  16.886  25.599  1.00  0.00     0.047 A 
ATOM     28  C   UNL A   1      33.490  16.014  24.601  1.00  0.00     0.004 A 
BRANCH  25  29
ATOM     29  O   UNL A   1      32.614  18.790  26.671  1.00  0.00    -0.507 OA
ATOM     30  H   UNL A   1      31.822  19.273  26.808  1.00  0.00     0.293 HD
ENDBRANCH  25  29
ENDBRANCH  22  23
ENDBRANCH  19  21
ENDBRANCH  14  17
ENDBRANCH   8  13
ENDBRANCH   5   7
ENDBRANCH   4   5
ENDBRANCH   3   4
ENDBRANCH   2   3
ENDBRANCH   1   2
BRANCH   1  31
ATOM     31  C   UNL A   1      41.388  20.324  27.325  1.00  0.00     0.188 C 
BRANCH  31  32
ATOM     32  C   UNL A   1      41.565  19.306  26.175  1.00  0.00     0.188 C 
BRANCH  32  33
ATOM     33  O   UNL A   1      42.674  19.402  25.299  1.00  0.00    -0.376 OA
BRANCH  33  34
ATOM     34  C   UNL A   1      43.714  20.317  25.616  1.00  0.00     0.202 C 
BRANCH  34  35
ATOM     35  C   UNL A   1      43.898  21.540  24.712  1.00  0.00     0.261 C 
BRANCH  35  36
ATOM     36  O   UNL A   1      43.024  22.636  25.051  1.00  0.00    -0.460 OA
BRANCH  36  37
ATOM     37  C   UNL A   1      43.603  23.858  25.071  1.00  0.00     0.338 C 
ATOM     38  O   UNL A   1      44.560  24.236  24.417  1.00  0.00    -0.246 OA
BRANCH  37  39
ATOM     39  C   UNL A   1      42.844  24.785  25.935  1.00  0.00     0.060 A 
ATOM     40  C   UNL A   1      43.023  26.157  25.756  1.00  0.00     0.016 A 
ATOM     41  C   UNL A   1      42.109  24.315  27.020  1.00  0.00     0.016 A 
ATOM     42  C   UNL A   1      42.500  27.065  26.680  1.00  0.00     0.010 A 
ATOM     43  C   UNL A   1      41.589  25.230  27.951  1.00  0.00     0.010 A 
ATOM     44  C   UNL A   1      41.811  26.611  27.806  1.00  0.00    -0.014 A 
BRANCH  44  45
ATOM     45  C   UNL A   1      41.472  27.569  28.894  1.00  0.00     0.031 A 
ATOM     46  C   UNL A   1      42.300  27.570  30.152  1.00  0.00     0.074 A 
ATOM     47  C   UNL A   1      40.488  28.477  28.754  1.00  0.00     0.049 A 
ATOM     48  N   UNL A   1      42.097  28.195  31.283  1.00  0.00    -0.248 NA
ATOM     49  C   UNL A   1      43.531  26.764  30.122  1.00  0.00     0.031 C 
ATOM     50  C   UNL A   1      39.685  28.681  27.550  1.00  0.00     0.029 A 
ATOM     51  N   UNL A   1      39.994  29.398  29.647  1.00  0.00    -0.354 N 
ATOM     52  C   UNL A   1      43.146  27.824  32.115  1.00  0.00     0.074 A 
ATOM     53  C   UNL A   1      43.988  26.923  31.356  1.00  0.00     0.031 C 
ATOM     54  C   UNL A   1      38.786  29.653  27.784  1.00  0.00     0.029 A 
ATOM     55  C   UNL A   1      38.904  30.090  29.173  1.00  0.00     0.049 A 
ATOM     56  H   UNL A   1      40.381  29.547  30.540  1.00  0.00     0.167 HD
ATOM     57  C   UNL A   1      43.383  28.194  33.396  1.00  0.00     0.037 A 
ATOM     58  C   UNL A   1      38.064  30.937  29.803  1.00  0.00     0.037 A 
ATOM     59  C   UNL A   1      42.555  29.104  34.145  1.00  0.00     0.049 A 
ATOM     60  C   UNL A   1      38.278  31.244  31.263  1.00  0.00     0.074 A 
ATOM     61  C   UNL A   1      42.702  29.526  35.456  1.00  0.00     0.029 A 
ATOM     62  N   UNL A   1      41.424  29.733  33.649  1.00  0.00    -0.354 N 
ATOM     63  N   UNL A   1      39.236  30.845  32.063  1.00  0.00    -0.248 NA
ATOM     64  C   UNL A   1      37.281  32.111  31.911  1.00  0.00     0.031 C 
ATOM     65  C   UNL A   1      41.631  30.370  35.767  1.00  0.00     0.029 A 
ATOM     66  C   UNL A   1      40.850  30.522  34.633  1.00  0.00     0.049 A 
ATOM     67  H   UNL A   1      41.080  29.636  32.732  1.00  0.00     0.167 HD
ATOM     68  C   UNL A   1      38.973  31.431  33.298  1.00  0.00     0.074 A 
ATOM     69  C   UNL A   1      37.775  32.226  33.136  1.00  0.00     0.031 C 
ATOM     70  C   UNL A   1      39.663  31.319  34.460  1.00  0.00     0.037 A 
BRANCH  57  71
ATOM     71  C   UNL A   1      44.557  27.566  34.092  1.00  0.00     0.057 A 
ATOM     72  C   UNL A   1      45.819  28.172  34.129  1.00  0.00     0.134 A 
ATOM     73  C   UNL A   1      44.411  26.340  34.754  1.00  0.00     0.134 A 
ATOM     74  F   UNL A   1      46.031  29.340  33.501  1.00  0.00    -0.206 F 
ATOM     75  C   UNL A   1      46.900  27.568  34.776  1.00  0.00     0.040 A 
ATOM     76  C   UNL A   1      45.476  25.740  35.429  1.00  0.00     0.040 A 
ATOM     77  F   UNL A   1      43.228  25.707  34.763  1.00  0.00    -0.206 F 
ATOM     78  C   UNL A   1      46.727  26.352  35.434  1.00  0.00     0.006 A 
ENDBRANCH  57  71
BRANCH  58  79
ATOM     79  C   UNL A   1      36.900  31.512  29.080  1.00  0.00     0.057 A 
ATOM     80  C   UNL A   1      36.898  32.842  28.644  1.00  0.00     0.134 A 
ATOM     81  C   UNL A   1      35.742  30.758  28.845  1.00  0.00     0.134 A 
ATOM     82  F   UNL A   1      37.963  33.626  28.866  1.00  0.00    -0.206 F 
ATOM     83  C   UNL A   1      35.786  33.405  28.015  1.00  0.00     0.040 A 
ATOM     84  C   UNL A   1      34.635  31.299  28.190  1.00  0.00     0.040 A 
ATOM     85  F   UNL A   1      35.675  29.479  29.244  1.00  0.00    -0.206 F 
ATOM     86  C   UNL A   1      34.652  32.630  27.781  1.00  0.00     0.006 A 
ENDBRANCH  58  79
BRANCH  70  87
ATOM     87  C   UNL A   1      39.169  32.111  35.638  1.00  0.00     0.057 A 
ATOM     88  C   UNL A   1      39.504  33.458  35.822  1.00  0.00     0.134 A 
ATOM     89  C   UNL A   1      38.313  31.525  36.580  1.00  0.00     0.134 A 
ATOM     90  F   UNL A   1      40.328  34.077  34.964  1.00  0.00    -0.206 F 
ATOM     91  C   UNL A   1      39.026  34.187  36.914  1.00  0.00     0.040 A 
ATOM     92  C   UNL A   1      37.806  32.251  37.659  1.00  0.00     0.040 A 
ATOM     93  F   UNL A   1      37.943  30.241  36.460  1.00  0.00    -0.206 F 
ATOM     94  C   UNL A   1      38.168  33.584  37.832  1.00  0.00     0.006 A 
ENDBRANCH  70  87
ENDBRANCH  44  45
ENDBRANCH  37  39
ENDBRANCH  36  37
ENDBRANCH  35  36
ENDBRANCH  34  35
ENDBRANCH  33  34
ENDBRANCH  32  33
ENDBRANCH  31  32
ENDBRANCH   1  31
TORSDOF 22
ENDMDL
MODEL 2
REMARK VINA RESULT:     -11.9      4.826     10.335
REMARK SMILES O=C(N/N=C/c1ccccc1O)C(=O)Nc1cccc(C(=O)OCCOCCOCCOC(=O)c2ccc(-c3c4nc(c(-c5c(F)cccc5F)c5ccc([nH]5)c(-c5c(F)cccc5F)c5nc(c(-c6c(F)cccc6F)c6ccc3[nH]6)C=C5)C=C4)cc2)c1
REMARK SMILES IDX 26 1 25 2 24 3 23 4 21 5 22 6 20 7 16 8 17 9 89 10 18 11
REMARK SMILES IDX 19 12 15 13 13 14 14 15 2 17 1 18 3 19 4 21 5 22 6 23 7 24
REMARK SMILES IDX 11 25 8 26 10 27 9 28 12 29 27 31 28 32 29 33 30 34 31 35
REMARK SMILES IDX 32 36 33 37 34 38 35 39 36 40 88 41 37 42 87 43 38 44 39 45
REMARK SMILES IDX 40 46 81 47 41 48 86 49 80 50 82 51 42 52 85 53 79 54 78 55
REMARK SMILES IDX 43 57 69 58 52 59 68 60 53 61 56 62 67 63 83 64 54 65 55 66
REMARK SMILES IDX 66 68 84 69 57 70 44 71 45 72 50 73 46 74 47 75 49 76 51 77
REMARK SMILES IDX 48 78 70 79 71 80 76 81 72 82 73 83 75 84 77 85 74 86 58 87
REMARK SMILES IDX 59 88 64 89 60 90 61 91 63 92 65 93 62 94
REMARK H PARENT 15 16 3 20 12 30 82 56 56 67
REMARK Flexibility Score: inf
ROOT
ATOM      1  O   UNL A   1      35.120  32.797  27.578  1.00  0.00    -0.376 OA
ENDROOT
BRANCH   1   2
ATOM      2  C   UNL A   1      34.464  31.696  28.180  1.00  0.00     0.202 C 
BRANCH   2   3
ATOM      3  C   UNL A   1      33.649  30.744  27.304  1.00  0.00     0.261 C 
BRANCH   3   4
ATOM      4  O   UNL A   1      33.915  29.350  27.529  1.00  0.00    -0.460 OA
BRANCH   4   5
ATOM      5  C   UNL A   1      33.035  28.506  26.941  1.00  0.00     0.338 C 
ATOM      6  O   UNL A   1      31.903  28.248  27.324  1.00  0.00    -0.246 OA
BRANCH   5   7
ATOM      7  C   UNL A   1      33.596  27.854  25.734  1.00  0.00     0.062 A 
ATOM      8  C   UNL A   1      33.877  25.224  24.040  1.00  0.00     0.042 A 
ATOM      9  C   UNL A   1      33.591  26.172  22.486  1.00  0.00     0.026 A 
ATOM     10  C   UNL A   1      33.992  26.072  25.648  1.00  0.00     0.041 A 
ATOM     11  C   UNL A   1      33.377  27.980  22.573  1.00  0.00     0.003 A 
ATOM     12  C   UNL A   1      33.303  28.796  24.186  1.00  0.00     0.016 A 
BRANCH   8  13
ATOM     13  N   UNL A   1      33.430  23.909  23.989  1.00  0.00    -0.318 N 
ATOM     14  C   UNL A   1      32.133  23.495  24.254  1.00  0.00     0.315 C 
ATOM     15  O   UNL A   1      31.818  22.359  23.889  1.00  0.00    -0.263 OA
ATOM     16  H   UNL A   1      34.086  23.217  23.744  1.00  0.00     0.170 HD
BRANCH  14  17
ATOM     17  C   UNL A   1      31.033  24.363  24.913  1.00  0.00     0.329 C 
ATOM     18  O   UNL A   1      31.063  24.522  26.134  1.00  0.00    -0.262 OA
ATOM     19  N   UNL A   1      29.926  24.810  24.176  1.00  0.00    -0.239 N 
ATOM     20  H   UNL A   1      29.030  24.420  24.292  1.00  0.00     0.194 HD
BRANCH  19  21
ATOM     21  N   UNL A   1      30.168  25.824  23.283  1.00  0.00    -0.180 NA
ATOM     22  C   UNL A   1      30.005  27.097  23.772  1.00  0.00     0.145 C 
BRANCH  22  23
ATOM     23  C   UNL A   1      29.206  28.949  23.039  1.00  0.00     0.036 A 
ATOM     24  C   UNL A   1      27.870  29.614  23.455  1.00  0.00     0.013 A 
ATOM     25  C   UNL A   1      29.693  30.014  22.070  1.00  0.00     0.124 A 
ATOM     26  C   UNL A   1      27.294  30.886  23.171  1.00  0.00     0.001 A 
ATOM     27  C   UNL A   1      29.079  31.281  21.751  1.00  0.00     0.047 A 
ATOM     28  C   UNL A   1      27.918  31.738  22.317  1.00  0.00     0.004 A 
BRANCH  25  29
ATOM     29  O   UNL A   1      30.850  29.975  21.290  1.00  0.00    -0.507 OA
ATOM     30  H   UNL A   1      31.049  30.685  20.711  1.00  0.00     0.293 HD
ENDBRANCH  25  29
ENDBRANCH  22  23
ENDBRANCH  19  21
ENDBRANCH  14  17
ENDBRANCH   8  13
ENDBRANCH   5   7
ENDBRANCH   4   5
ENDBRANCH   3   4
ENDBRANCH   2   3
ENDBRANCH   1   2
BRANCH   1  31
ATOM     31  C   UNL A   1      34.722  34.116  27.907  1.00  0.00     0.188 C 
BRANCH  31  32
ATOM     32  C   UNL A   1      35.030  34.730  29.292  1.00  0.00     0.188 C 
BRANCH  32  33
ATOM     33  O   UNL A   1      34.007  35.370  30.034  1.00  0.00    -0.376 OA
BRANCH  33  34
ATOM     34  C   UNL A   1      33.386  34.656  31.093  1.00  0.00     0.202 C 
BRANCH  34  35
ATOM     35  C   UNL A   1      34.280  34.076  32.193  1.00  0.00     0.261 C 
BRANCH  35  36
ATOM     36  O   UNL A   1      34.736  32.738  31.911  1.00  0.00    -0.460 OA
BRANCH  36  37
ATOM     37  C   UNL A   1      35.755  32.294  32.682  1.00  0.00     0.338 C 
ATOM     38  O   UNL A   1      35.888  32.431  33.887  1.00  0.00    -0.246 OA
BRANCH  37  39
ATOM     39  C   UNL A   1      36.696  31.477  31.890  1.00  0.00     0.060 A 
ATOM     40  C   UNL A   1      37.399  30.458  32.536  1.00  0.00     0.016 A 
ATOM     41  C   UNL A   1      37.021  31.823  30.581  1.00  0.00     0.016 A 
ATOM     42  C   UNL A   1      38.449  29.803  31.890  1.00  0.00     0.010 A 
ATOM     43  C   UNL A   1      38.082  31.166  29.936  1.00  0.00     0.010 A 
ATOM     44  C   UNL A   1      38.828  30.176  30.599  1.00  0.00    -0.014 A 
BRANCH  44  45
ATOM     45  C   UNL A   1      40.090  29.639  30.021  1.00  0.00     0.031 A 
ATOM     46  C   UNL A   1      41.298  30.535  29.944  1.00  0.00     0.074 A 
ATOM     47  C   UNL A   1      40.198  28.356  29.628  1.00  0.00     0.049 A 
ATOM     48  N   UNL A   1      42.444  30.340  29.343  1.00  0.00    -0.248 NA
ATOM     49  C   UNL A   1      41.201  31.821  30.653  1.00  0.00     0.031 C 
ATOM     50  C   UNL A   1      39.157  27.338  29.757  1.00  0.00     0.029 A 
ATOM     51  N   UNL A   1      41.243  27.693  29.030  1.00  0.00    -0.354 N 
ATOM     52  C   UNL A   1      43.187  31.494  29.561  1.00  0.00     0.074 A 
ATOM     53  C   UNL A   1      42.365  32.382  30.355  1.00  0.00     0.031 C 
ATOM     54  C   UNL A   1      39.608  26.183  29.237  1.00  0.00     0.029 A 
ATOM     55  C   UNL A   1      40.941  26.398  28.678  1.00  0.00     0.049 A 
ATOM     56  H   UNL A   1      42.122  28.105  28.869  1.00  0.00     0.167 HD
ATOM     57  C   UNL A   1      44.438  31.789  29.133  1.00  0.00     0.037 A 
ATOM     58  C   UNL A   1      41.636  25.507  27.942  1.00  0.00     0.037 A 
ATOM     59  C   UNL A   1      45.263  30.898  28.358  1.00  0.00     0.049 A 
ATOM     60  C   UNL A   1      42.977  25.899  27.375  1.00  0.00     0.074 A 
ATOM     61  C   UNL A   1      46.537  31.114  27.860  1.00  0.00     0.029 A 
ATOM     62  N   UNL A   1      44.894  29.620  27.967  1.00  0.00    -0.354 N 
ATOM     63  N   UNL A   1      43.652  27.011  27.533  1.00  0.00    -0.248 NA
ATOM     64  C   UNL A   1      43.647  24.911  26.515  1.00  0.00     0.031 C 
ATOM     65  C   UNL A   1      46.917  29.986  27.126  1.00  0.00     0.029 A 
ATOM     66  C   UNL A   1      45.906  29.044  27.216  1.00  0.00     0.049 A 
ATOM     67  H   UNL A   1      44.040  29.185  28.192  1.00  0.00     0.167 HD
ATOM     68  C   UNL A   1      44.833  26.848  26.816  1.00  0.00     0.074 A 
ATOM     69  C   UNL A   1      44.790  25.523  26.236  1.00  0.00     0.031 C 
ATOM     70  C   UNL A   1      45.859  27.719  26.652  1.00  0.00     0.037 A 
BRANCH  57  71
ATOM     71  C   UNL A   1      44.970  33.159  29.444  1.00  0.00     0.057 A 
ATOM     72  C   UNL A   1      44.747  34.258  28.605  1.00  0.00     0.134 A 
ATOM     73  C   UNL A   1      45.703  33.381  30.617  1.00  0.00     0.134 A 
ATOM     74  F   UNL A   1      44.067  34.111  27.457  1.00  0.00    -0.206 F 
ATOM     75  C   UNL A   1      45.256  35.522  28.909  1.00  0.00     0.040 A 
ATOM     76  C   UNL A   1      46.192  34.646  30.947  1.00  0.00     0.040 A 
ATOM     77  F   UNL A   1      45.948  32.373  31.469  1.00  0.00    -0.206 F 
ATOM     78  C   UNL A   1      45.975  35.719  30.087  1.00  0.00     0.006 A 
ENDBRANCH  57  71
BRANCH  58  79
ATOM     79  C   UNL A   1      41.056  24.173  27.637  1.00  0.00     0.057 A 
ATOM     80  C   UNL A   1      41.528  23.014  28.264  1.00  0.00     0.134 A 
ATOM     81  C   UNL A   1      40.043  24.019  26.681  1.00  0.00     0.134 A 
ATOM     82  F   UNL A   1      42.518  23.089  29.165  1.00  0.00    -0.206 F 
ATOM     83  C   UNL A   1      41.027  21.751  27.940  1.00  0.00     0.040 A 
ATOM     84  C   UNL A   1      39.511  22.767  26.370  1.00  0.00     0.040 A 
ATOM     85  F   UNL A   1      39.551  25.089  26.038  1.00  0.00    -0.206 F 
ATOM     86  C   UNL A   1      40.011  21.626  26.995  1.00  0.00     0.006 A 
ENDBRANCH  58  79
BRANCH  70  87
ATOM     87  C   UNL A   1      47.044  27.252  25.854  1.00  0.00     0.057 A 
ATOM     88  C   UNL A   1      47.142  27.466  24.473  1.00  0.00     0.134 A 
ATOM     89  C   UNL A   1      48.118  26.611  26.485  1.00  0.00     0.134 A 
ATOM     90  F   UNL A   1      46.143  28.062  23.805  1.00  0.00    -0.206 F 
ATOM     91  C   UNL A   1      48.255  27.039  23.745  1.00  0.00     0.040 A 
ATOM     92  C   UNL A   1      49.249  26.206  25.773  1.00  0.00     0.040 A 
ATOM     93  F   UNL A   1      48.096  26.382  27.806  1.00  0.00    -0.206 F 
ATOM     94  C   UNL A   1      49.316  26.414  24.397  1.00  0.00     0.006 A 
ENDBRANCH  70  87
ENDBRANCH  44  45
ENDBRANCH  37  39
ENDBRANCH  36  37
ENDBRANCH  35  36
ENDBRANCH  34  35
ENDBRANCH  33  34
ENDBRANCH  32  33
ENDBRANCH  31  32
ENDBRANCH   1  31
TORSDOF 22
ENDMDL
MODEL 3
REMARK VINA RESULT:     -11.7      4.974     10.328
REMARK SMILES O=C(N/N=C/c1ccccc1O)C(=O)Nc1cccc(C(=O)OCCOCCOCCOC(=O)c2ccc(-c3c4nc(c(-c5c(F)cccc5F)c5ccc([nH]5)c(-c5c(F)cccc5F)c5nc(c(-c6c(F)cccc6F)c6ccc3[nH]6)C=C5)C=C4)cc2)c1
REMARK SMILES IDX 26 1 25 2 24 3 23 4 21 5 22 6 20 7 16 8 17 9 89 10 18 11
REMARK SMILES IDX 19 12 15 13 13 14 14 15 2 17 1 18 3 19 4 21 5 22 6 23 7 24
REMARK SMILES IDX 11 25 8 26 10 27 9 28 12 29 27 31 28 32 29 33 30 34 31 35
REMARK SMILES IDX 32 36 33 37 34 38 35 39 36 40 88 41 37 42 87 43 38 44 39 45
REMARK SMILES IDX 40 46 81 47 41 48 86 49 80 50 82 51 42 52 85 53 79 54 78 55
REMARK SMILES IDX 43 57 69 58 52 59 68 60 53 61 56 62 67 63 83 64 54 65 55 66
REMARK SMILES IDX 66 68 84 69 57 70 44 71 45 72 50 73 46 74 47 75 49 76 51 77
REMARK SMILES IDX 48 78 70 79 71 80 76 81 72 82 73 83 75 84 77 85 74 86 58 87
REMARK SMILES IDX 59 88 64 89 60 90 61 91 63 92 65 93 62 94
REMARK H PARENT 15 16 3 20 12 30 82 56 56 67
REMARK Flexibility Score: inf
ROOT
ATOM      1  O   UNL A   1      34.781  32.633  27.532  1.00  0.00    -0.376 OA
ENDROOT
BRANCH   1   2
ATOM      2  C   UNL A   1      34.458  31.337  28.003  1.00  0.00     0.202 C 
BRANCH   2   3
ATOM      3  C   UNL A   1      33.666  30.392  27.100  1.00  0.00     0.261 C 
BRANCH   3   4
ATOM      4  O   UNL A   1      34.107  29.025  27.132  1.00  0.00    -0.460 OA
BRANCH   4   5
ATOM      5  C   UNL A   1      33.181  28.124  26.728  1.00  0.00     0.338 C 
ATOM      6  O   UNL A   1      32.035  28.019  27.141  1.00  0.00    -0.246 OA
BRANCH   5   7
ATOM      7  C   UNL A   1      33.706  27.194  25.700  1.00  0.00     0.062 A 
ATOM      8  C   UNL A   1      33.913  24.234  24.672  1.00  0.00     0.042 A 
ATOM      9  C   UNL A   1      33.606  24.792  22.943  1.00  0.00     0.026 A 
ATOM     10  C   UNL A   1      34.075  25.435  26.031  1.00  0.00     0.041 A 
ATOM     11  C   UNL A   1      33.419  26.573  22.603  1.00  0.00     0.003 A 
ATOM     12  C   UNL A   1      33.392  27.749  23.978  1.00  0.00     0.016 A 
BRANCH   8  13
ATOM     13  N   UNL A   1      33.447  22.953  24.942  1.00  0.00    -0.318 N 
ATOM     14  C   UNL A   1      32.186  22.648  25.433  1.00  0.00     0.315 C 
ATOM     15  O   UNL A   1      31.815  21.474  25.346  1.00  0.00    -0.263 OA
ATOM     16  H   UNL A   1      34.060  22.202  24.770  1.00  0.00     0.170 HD
BRANCH  14  17
ATOM     17  C   UNL A   1      31.183  23.670  26.022  1.00  0.00     0.329 C 
ATOM     18  O   UNL A   1      31.248  23.930  27.224  1.00  0.00    -0.262 OA
ATOM     19  N   UNL A   1      30.112  24.155  25.258  1.00  0.00    -0.239 N 
ATOM     20  H   UNL A   1      29.184  23.863  25.414  1.00  0.00     0.194 HD
BRANCH  19  21
ATOM     21  N   UNL A   1      30.433  25.061  24.278  1.00  0.00    -0.180 NA
ATOM     22  C   UNL A   1      30.107  26.368  24.547  1.00  0.00     0.145 C 
BRANCH  22  23
ATOM     23  C   UNL A   1      29.324  28.030  23.439  1.00  0.00     0.036 A 
ATOM     24  C   UNL A   1      30.138  29.124  22.704  1.00  0.00     0.013 A 
ATOM     25  C   UNL A   1      27.928  28.505  23.070  1.00  0.00     0.124 A 
ATOM     26  C   UNL A   1      29.763  30.179  21.823  1.00  0.00     0.001 A 
ATOM     27  C   UNL A   1      27.555  29.605  22.212  1.00  0.00     0.047 A 
ATOM     28  C   UNL A   1      28.452  30.413  21.563  1.00  0.00     0.004 A 
BRANCH  25  29
ATOM     29  O   UNL A   1      26.714  27.958  23.490  1.00  0.00    -0.507 OA
ATOM     30  H   UNL A   1      25.953  28.034  22.948  1.00  0.00     0.293 HD
ENDBRANCH  25  29
ENDBRANCH  22  23
ENDBRANCH  19  21
ENDBRANCH  14  17
ENDBRANCH   8  13
ENDBRANCH   5   7
ENDBRANCH   4   5
ENDBRANCH   3   4
ENDBRANCH   2   3
ENDBRANCH   1   2
BRANCH   1  31
ATOM     31  C   UNL A   1      34.693  33.740  28.412  1.00  0.00     0.188 C 
BRANCH  31  32
ATOM     32  C   UNL A   1      35.555  33.825  29.692  1.00  0.00     0.188 C 
BRANCH  32  33
ATOM     33  O   UNL A   1      35.016  34.376  30.881  1.00  0.00    -0.376 OA
BRANCH  33  34
ATOM     34  C   UNL A   1      34.412  33.502  31.824  1.00  0.00     0.202 C 
BRANCH  34  35
ATOM     35  C   UNL A   1      35.142  33.253  33.147  1.00  0.00     0.261 C 
BRANCH  35  36
ATOM     36  O   UNL A   1      35.734  31.942  33.234  1.00  0.00    -0.460 OA
BRANCH  36  37
ATOM     37  C   UNL A   1      37.017  31.909  33.662  1.00  0.00     0.338 C 
ATOM     38  O   UNL A   1      37.453  32.306  34.729  1.00  0.00    -0.246 OA
BRANCH  37  39
ATOM     39  C   UNL A   1      37.876  31.195  32.696  1.00  0.00     0.060 A 
ATOM     40  C   UNL A   1      39.017  30.547  33.172  1.00  0.00     0.016 A 
ATOM     41  C   UNL A   1      37.665  31.313  31.324  1.00  0.00     0.016 A 
ATOM     42  C   UNL A   1      39.968  30.044  32.281  1.00  0.00     0.010 A 
ATOM     43  C   UNL A   1      38.626  30.812  30.431  1.00  0.00     0.010 A 
ATOM     44  C   UNL A   1      39.803  30.206  30.904  1.00  0.00    -0.014 A 
BRANCH  44  45
ATOM     45  C   UNL A   1      40.931  29.882  29.988  1.00  0.00     0.031 A 
ATOM     46  C   UNL A   1      40.992  28.516  29.357  1.00  0.00     0.074 A 
ATOM     47  C   UNL A   1      41.859  30.801  29.657  1.00  0.00     0.049 A 
ATOM     48  N   UNL A   1      41.951  27.961  28.662  1.00  0.00    -0.248 NA
ATOM     49  C   UNL A   1      39.801  27.668  29.525  1.00  0.00     0.031 C 
ATOM     50  C   UNL A   1      41.861  32.198  30.087  1.00  0.00     0.029 A 
ATOM     51  N   UNL A   1      42.989  30.686  28.882  1.00  0.00    -0.354 N 
ATOM     52  C   UNL A   1      41.502  26.684  28.348  1.00  0.00     0.074 A 
ATOM     53  C   UNL A   1      40.180  26.548  28.924  1.00  0.00     0.031 C 
ATOM     54  C   UNL A   1      42.950  32.807  29.585  1.00  0.00     0.029 A 
ATOM     55  C   UNL A   1      43.754  31.827  28.858  1.00  0.00     0.049 A 
ATOM     56  H   UNL A   1      43.227  29.865  28.393  1.00  0.00     0.167 HD
ATOM     57  C   UNL A   1      42.135  25.711  27.650  1.00  0.00     0.037 A 
ATOM     58  C   UNL A   1      44.987  32.043  28.356  1.00  0.00     0.037 A 
ATOM     59  C   UNL A   1      43.442  25.852  27.061  1.00  0.00     0.049 A 
ATOM     60  C   UNL A   1      45.723  30.911  27.685  1.00  0.00     0.074 A 
ATOM     61  C   UNL A   1      44.175  24.917  26.352  1.00  0.00     0.029 A 
ATOM     62  N   UNL A   1      44.211  27.004  27.115  1.00  0.00    -0.354 N 
ATOM     63  N   UNL A   1      45.320  29.688  27.442  1.00  0.00    -0.248 NA
ATOM     64  C   UNL A   1      47.095  31.189  27.230  1.00  0.00     0.031 C 
ATOM     65  C   UNL A   1      45.409  25.486  26.021  1.00  0.00     0.029 A 
ATOM     66  C   UNL A   1      45.420  26.796  26.472  1.00  0.00     0.049 A 
ATOM     67  H   UNL A   1      43.939  27.846  27.546  1.00  0.00     0.167 HD
ATOM     68  C   UNL A   1      46.374  29.060  26.786  1.00  0.00     0.074 A 
ATOM     69  C   UNL A   1      47.428  30.042  26.654  1.00  0.00     0.031 C 
ATOM     70  C   UNL A   1      46.460  27.784  26.335  1.00  0.00     0.037 A 
BRANCH  57  71
ATOM     71  C   UNL A   1      41.444  24.382  27.534  1.00  0.00     0.057 A 
ATOM     72  C   UNL A   1      40.367  24.169  26.664  1.00  0.00     0.134 A 
ATOM     73  C   UNL A   1      41.883  23.291  28.296  1.00  0.00     0.134 A 
ATOM     74  F   UNL A   1      39.887  25.176  25.918  1.00  0.00    -0.206 F 
ATOM     75  C   UNL A   1      39.735  22.927  26.577  1.00  0.00     0.040 A 
ATOM     76  C   UNL A   1      41.278  22.037  28.196  1.00  0.00     0.040 A 
ATOM     77  F   UNL A   1      42.914  23.423  29.145  1.00  0.00    -0.206 F 
ATOM     78  C   UNL A   1      40.195  21.855  27.340  1.00  0.00     0.006 A 
ENDBRANCH  57  71
BRANCH  58  79
ATOM     79  C   UNL A   1      45.641  33.367  28.519  1.00  0.00     0.057 A 
ATOM     80  C   UNL A   1      45.394  34.417  27.625  1.00  0.00     0.134 A 
ATOM     81  C   UNL A   1      46.562  33.604  29.548  1.00  0.00     0.134 A 
ATOM     82  F   UNL A   1      44.547  34.244  26.600  1.00  0.00    -0.206 F 
ATOM     83  C   UNL A   1      46.048  35.645  27.739  1.00  0.00     0.040 A 
ATOM     84  C   UNL A   1      47.200  34.837  29.692  1.00  0.00     0.040 A 
ATOM     85  F   UNL A   1      46.850  32.640  30.434  1.00  0.00    -0.206 F 
ATOM     86  C   UNL A   1      46.950  35.860  28.780  1.00  0.00     0.006 A 
ENDBRANCH  58  79
BRANCH  70  87
ATOM     87  C   UNL A   1      47.717  27.388  25.612  1.00  0.00     0.057 A 
ATOM     88  C   UNL A   1      48.802  26.800  26.274  1.00  0.00     0.134 A 
ATOM     89  C   UNL A   1      47.826  27.564  24.227  1.00  0.00     0.134 A 
ATOM     90  F   UNL A   1      48.769  26.614  27.602  1.00  0.00    -0.206 F 
ATOM     91  C   UNL A   1      49.959  26.423  25.588  1.00  0.00     0.040 A 
ATOM     92  C   UNL A   1      48.965  27.165  23.525  1.00  0.00     0.040 A 
ATOM     93  F   UNL A   1      46.821  28.113  23.527  1.00  0.00    -0.206 F 
ATOM     94  C   UNL A   1      50.039  26.599  24.208  1.00  0.00     0.006 A 
ENDBRANCH  70  87
ENDBRANCH  44  45
ENDBRANCH  37  39
ENDBRANCH  36  37
ENDBRANCH  35  36
ENDBRANCH  34  35
ENDBRANCH  33  34
ENDBRANCH  32  33
ENDBRANCH  31  32
ENDBRANCH   1  31
TORSDOF 22
ENDMDL
