MODEL 1
REMARK VINA RESULT:      -9.9      0.000      0.000
REMARK SMILES C/C(=N\Nc1nc(-c2ccc(Cl)cc2)cs1)c1nnn(-c2ccc(C(=O)OCCOCCOCCOC(=O)c3ccc(-c4c5nc(c(-c6c(F)cccc6F)c6ccc([nH]6)c(-c6c(F)cccc6F)c6nc(c(-c7c(F)cccc7F)c7ccc4[nH]7)C=C6)C=C5)cc3)cc2)c1C
REMARK SMILES IDX 30 1 29 2 28 3 27 4 25 5 26 6 24 7 21 8 22 9 94 10 23 11
REMARK SMILES IDX 93 12 20 13 17 14 18 15 95 16 19 17 96 18 2 19 1 20 3 21
REMARK SMILES IDX 4 22 5 24 6 25 16 26 7 27 15 28 8 29 9 30 14 31 10 32 13 33
REMARK SMILES IDX 11 34 12 35 31 36 32 37 33 38 34 39 35 40 36 41 37 42 38 43
REMARK SMILES IDX 39 44 40 45 92 46 41 47 91 48 42 49 43 50 44 51 85 52 45 53
REMARK SMILES IDX 90 54 84 55 86 56 46 57 89 58 83 59 82 60 47 62 73 63 56 64
REMARK SMILES IDX 72 65 57 66 60 67 71 68 87 69 58 70 59 71 70 73 88 74 61 75
REMARK SMILES IDX 48 76 49 77 54 78 50 79 51 80 53 81 55 82 52 83 74 84 75 85
REMARK SMILES IDX 80 86 76 87 77 88 79 89 81 90 78 91 62 92 63 93 68 94 64 95
REMARK SMILES IDX 65 96 67 97 69 98 66 99
REMARK H PARENT 4 23 86 61 60 72
REMARK Flexibility Score: inf
ROOT
ATOM      1  O   UNL A   1      40.669  32.443  34.928  1.00  0.00    -0.376 OA
ENDROOT
BRANCH   1   2
ATOM      2  C   UNL A   1      39.764  31.360  35.064  1.00  0.00     0.202 C 
BRANCH   2   3
ATOM      3  C   UNL A   1      39.280  30.424  33.938  1.00  0.00     0.261 C 
BRANCH   3   4
ATOM      4  O   UNL A   1      37.874  30.274  33.769  1.00  0.00    -0.460 OA
BRANCH   4   5
ATOM      5  C   UNL A   1      37.489  29.324  32.875  1.00  0.00     0.338 C 
ATOM      6  O   UNL A   1      37.403  28.137  33.060  1.00  0.00    -0.246 OA
BRANCH   5   7
ATOM      7  C   UNL A   1      37.014  29.999  31.641  1.00  0.00     0.060 A 
ATOM      8  C   UNL A   1      35.891  31.242  29.440  1.00  0.00     0.067 A 
ATOM      9  C   UNL A   1      36.011  31.966  30.629  1.00  0.00     0.029 A 
ATOM     10  C   UNL A   1      36.469  29.972  29.301  1.00  0.00     0.029 A 
ATOM     11  C   UNL A   1      36.559  31.325  31.740  1.00  0.00     0.018 A 
ATOM     12  C   UNL A   1      37.027  29.343  30.407  1.00  0.00     0.018 A 
BRANCH   8  13
ATOM     13  N   UNL A   1      34.904  31.626  28.512  1.00  0.00    -0.217 N 
ATOM     14  C   UNL A   1      33.227  31.512  27.123  1.00  0.00     0.132 A 
ATOM     15  N   UNL A   1      33.299  32.784  27.625  1.00  0.00    -0.128 NA
ATOM     16  C   UNL A   1      34.236  30.744  27.680  1.00  0.00     0.071 A 
ATOM     17  N   UNL A   1      34.259  32.810  28.548  1.00  0.00    -0.061 NA
ATOM     18  C   UNL A   1      34.493  29.278  27.627  1.00  0.00     0.069 C 
BRANCH  14  19
ATOM     19  C   UNL A   1      32.161  31.006  26.268  1.00  0.00     0.087 C 
ATOM     20  C   UNL A   1      30.964  31.915  26.145  1.00  0.00     0.071 C 
ATOM     21  N   UNL A   1      32.331  29.803  25.799  1.00  0.00    -0.176 NA
BRANCH  21  22
ATOM     22  N   UNL A   1      31.365  29.067  25.145  1.00  0.00    -0.252 N 
ATOM     23  H   UNL A   1      30.519  29.548  24.990  1.00  0.00     0.193 HD
BRANCH  22  24
ATOM     24  C   UNL A   1      31.383  27.792  24.680  1.00  0.00     0.203 A 
ATOM     25  N   UNL A   1      32.009  26.778  25.228  1.00  0.00    -0.219 NA
ATOM     26  S   UNL A   1      30.593  27.391  23.194  1.00  0.00    -0.103 S 
ATOM     27  C   UNL A   1      32.163  25.753  24.320  1.00  0.00     0.084 A 
ATOM     28  C   UNL A   1      31.457  25.904  23.147  1.00  0.00     0.097 A 
BRANCH  27  29
ATOM     29  C   UNL A   1      33.102  24.683  24.604  1.00  0.00     0.001 A 
ATOM     30  C   UNL A   1      32.860  23.822  25.683  1.00  0.00     0.012 A 
ATOM     31  C   UNL A   1      34.311  24.581  23.901  1.00  0.00     0.012 A 
ATOM     32  C   UNL A   1      33.801  22.852  26.039  1.00  0.00     0.021 A 
ATOM     33  C   UNL A   1      35.257  23.618  24.265  1.00  0.00     0.021 A 
ATOM     34  C   UNL A   1      34.996  22.756  25.329  1.00  0.00     0.041 A 
ATOM     35  Cl  UNL A   1      36.165  21.577  25.779  1.00  0.00    -0.084 Cl
ENDBRANCH  27  29
ENDBRANCH  22  24
ENDBRANCH  21  22
ENDBRANCH  14  19
ENDBRANCH   8  13
ENDBRANCH   5   7
ENDBRANCH   4   5
ENDBRANCH   3   4
ENDBRANCH   2   3
ENDBRANCH   1   2
BRANCH   1  36
ATOM     36  C   UNL A   1      40.229  33.781  34.951  1.00  0.00     0.188 C 
BRANCH  36  37
ATOM     37  C   UNL A   1      38.722  34.047  35.138  1.00  0.00     0.188 C 
BRANCH  37  38
ATOM     38  O   UNL A   1      37.787  33.773  34.114  1.00  0.00    -0.376 OA
BRANCH  38  39
ATOM     39  C   UNL A   1      37.654  34.577  32.953  1.00  0.00     0.202 C 
BRANCH  39  40
ATOM     40  C   UNL A   1      38.596  34.544  31.753  1.00  0.00     0.261 C 
BRANCH  40  41
ATOM     41  O   UNL A   1      39.259  33.322  31.518  1.00  0.00    -0.460 OA
BRANCH  41  42
ATOM     42  C   UNL A   1      40.571  33.480  31.249  1.00  0.00     0.338 C 
ATOM     43  O   UNL A   1      41.280  34.427  31.542  1.00  0.00    -0.246 OA
BRANCH  42  44
ATOM     44  C   UNL A   1      41.016  32.367  30.415  1.00  0.00     0.060 A 
ATOM     45  C   UNL A   1      40.137  31.290  30.304  1.00  0.00     0.016 A 
ATOM     46  C   UNL A   1      42.379  32.272  30.101  1.00  0.00     0.016 A 
ATOM     47  C   UNL A   1      40.679  30.044  30.111  1.00  0.00     0.010 A 
ATOM     48  C   UNL A   1      42.920  31.024  29.933  1.00  0.00     0.010 A 
ATOM     49  C   UNL A   1      42.071  29.925  30.034  1.00  0.00    -0.014 A 
BRANCH  49  50
ATOM     50  C   UNL A   1      42.620  28.593  29.964  1.00  0.00     0.031 A 
ATOM     51  C   UNL A   1      43.217  28.172  31.245  1.00  0.00     0.074 A 
ATOM     52  C   UNL A   1      42.508  27.820  28.868  1.00  0.00     0.049 A 
ATOM     53  N   UNL A   1      44.465  27.975  31.500  1.00  0.00    -0.248 NA
ATOM     54  C   UNL A   1      42.346  28.159  32.432  1.00  0.00     0.031 C 
ATOM     55  C   UNL A   1      41.695  28.058  27.674  1.00  0.00     0.029 A 
ATOM     56  N   UNL A   1      43.032  26.588  28.640  1.00  0.00    -0.354 N 
ATOM     57  C   UNL A   1      44.507  27.585  32.832  1.00  0.00     0.074 A 
ATOM     58  C   UNL A   1      43.232  27.923  33.400  1.00  0.00     0.031 C 
ATOM     59  C   UNL A   1      41.597  26.906  26.969  1.00  0.00     0.029 A 
ATOM     60  C   UNL A   1      42.432  25.895  27.596  1.00  0.00     0.049 A 
ATOM     61  H   UNL A   1      43.774  26.217  29.169  1.00  0.00     0.167 HD
ATOM     62  C   UNL A   1      45.475  26.737  33.266  1.00  0.00     0.037 A 
ATOM     63  C   UNL A   1      42.561  24.567  27.344  1.00  0.00     0.037 A 
ATOM     64  C   UNL A   1      46.606  26.737  32.368  1.00  0.00     0.049 A 
ATOM     65  C   UNL A   1      43.759  24.083  28.079  1.00  0.00     0.074 A 
ATOM     66  C   UNL A   1      47.459  27.711  31.884  1.00  0.00     0.029 A 
ATOM     67  N   UNL A   1      46.760  25.658  31.533  1.00  0.00    -0.354 N 
ATOM     68  N   UNL A   1      44.984  24.382  27.755  1.00  0.00    -0.248 NA
ATOM     69  C   UNL A   1      43.571  23.635  29.452  1.00  0.00     0.031 C 
ATOM     70  C   UNL A   1      47.715  27.343  30.531  1.00  0.00     0.029 A 
ATOM     71  C   UNL A   1      47.061  26.136  30.285  1.00  0.00     0.049 A 
ATOM     72  H   UNL A   1      46.669  24.711  31.785  1.00  0.00     0.167 HD
ATOM     73  C   UNL A   1      45.624  24.601  28.966  1.00  0.00     0.074 A 
ATOM     74  C   UNL A   1      44.732  24.036  29.976  1.00  0.00     0.031 C 
ATOM     75  C   UNL A   1      46.666  25.478  29.063  1.00  0.00     0.037 A 
BRANCH  62  76
ATOM     76  C   UNL A   1      45.202  25.605  34.227  1.00  0.00     0.057 A 
ATOM     77  C   UNL A   1      45.989  25.507  35.388  1.00  0.00     0.134 A 
ATOM     78  C   UNL A   1      44.440  24.456  33.923  1.00  0.00     0.134 A 
ATOM     79  F   UNL A   1      46.765  26.527  35.781  1.00  0.00    -0.206 F 
ATOM     80  C   UNL A   1      46.086  24.323  36.129  1.00  0.00     0.040 A 
ATOM     81  C   UNL A   1      44.487  23.289  34.689  1.00  0.00     0.040 A 
ATOM     82  F   UNL A   1      43.687  24.349  32.823  1.00  0.00    -0.206 F 
ATOM     83  C   UNL A   1      45.341  23.206  35.774  1.00  0.00     0.006 A 
ENDBRANCH  62  76
BRANCH  63  84
ATOM     84  C   UNL A   1      41.564  23.625  26.780  1.00  0.00     0.057 A 
ATOM     85  C   UNL A   1      41.973  22.503  26.042  1.00  0.00     0.134 A 
ATOM     86  C   UNL A   1      40.218  23.640  27.181  1.00  0.00     0.134 A 
ATOM     87  F   UNL A   1      43.246  22.374  25.646  1.00  0.00    -0.206 F 
ATOM     88  C   UNL A   1      41.101  21.445  25.750  1.00  0.00     0.040 A 
ATOM     89  C   UNL A   1      39.335  22.595  26.887  1.00  0.00     0.040 A 
ATOM     90  F   UNL A   1      39.731  24.623  27.952  1.00  0.00    -0.206 F 
ATOM     91  C   UNL A   1      39.780  21.483  26.183  1.00  0.00     0.006 A 
ENDBRANCH  63  84
BRANCH  75  92
ATOM     92  C   UNL A   1      47.298  25.967  27.791  1.00  0.00     0.057 A 
ATOM     93  C   UNL A   1      46.810  27.032  27.016  1.00  0.00     0.134 A 
ATOM     94  C   UNL A   1      48.528  25.419  27.406  1.00  0.00     0.134 A 
ATOM     95  F   UNL A   1      45.696  27.691  27.362  1.00  0.00    -0.206 F 
ATOM     96  C   UNL A   1      47.491  27.487  25.882  1.00  0.00     0.040 A 
ATOM     97  C   UNL A   1      49.236  25.891  26.301  1.00  0.00     0.040 A 
ATOM     98  F   UNL A   1      49.083  24.434  28.131  1.00  0.00    -0.206 F 
ATOM     99  C   UNL A   1      48.710  26.920  25.525  1.00  0.00     0.006 A 
ENDBRANCH  75  92
ENDBRANCH  49  50
ENDBRANCH  42  44
ENDBRANCH  41  42
ENDBRANCH  40  41
ENDBRANCH  39  40
ENDBRANCH  38  39
ENDBRANCH  37  38
ENDBRANCH  36  37
ENDBRANCH   1  36
TORSDOF 22
ENDMDL
MODEL 2
REMARK VINA RESULT:      -9.8      7.545     12.934
REMARK SMILES C/C(=N\Nc1nc(-c2ccc(Cl)cc2)cs1)c1nnn(-c2ccc(C(=O)OCCOCCOCCOC(=O)c3ccc(-c4c5nc(c(-c6c(F)cccc6F)c6ccc([nH]6)c(-c6c(F)cccc6F)c6nc(c(-c7c(F)cccc7F)c7ccc4[nH]7)C=C6)C=C5)cc3)cc2)c1C
REMARK SMILES IDX 30 1 29 2 28 3 27 4 25 5 26 6 24 7 21 8 22 9 94 10 23 11
REMARK SMILES IDX 93 12 20 13 17 14 18 15 95 16 19 17 96 18 2 19 1 20 3 21
REMARK SMILES IDX 4 22 5 24 6 25 16 26 7 27 15 28 8 29 9 30 14 31 10 32 13 33
REMARK SMILES IDX 11 34 12 35 31 36 32 37 33 38 34 39 35 40 36 41 37 42 38 43
REMARK SMILES IDX 39 44 40 45 92 46 41 47 91 48 42 49 43 50 44 51 85 52 45 53
REMARK SMILES IDX 90 54 84 55 86 56 46 57 89 58 83 59 82 60 47 62 73 63 56 64
REMARK SMILES IDX 72 65 57 66 60 67 71 68 87 69 58 70 59 71 70 73 88 74 61 75
REMARK SMILES IDX 48 76 49 77 54 78 50 79 51 80 53 81 55 82 52 83 74 84 75 85
REMARK SMILES IDX 80 86 76 87 77 88 79 89 81 90 78 91 62 92 63 93 68 94 64 95
REMARK SMILES IDX 65 96 67 97 69 98 66 99
REMARK H PARENT 4 23 86 61 60 72
REMARK Flexibility Score: inf
ROOT
ATOM      1  O   UNL A   1      46.220  26.925  26.478  1.00  0.00    -0.376 OA
ENDROOT
BRANCH   1   2
ATOM      2  C   UNL A   1      46.101  28.257  26.011  1.00  0.00     0.202 C 
BRANCH   2   3
ATOM      3  C   UNL A   1      45.245  29.376  26.639  1.00  0.00     0.261 C 
BRANCH   3   4
ATOM      4  O   UNL A   1      45.390  30.689  26.108  1.00  0.00    -0.460 OA
BRANCH   4   5
ATOM      5  C   UNL A   1      46.206  31.520  26.810  1.00  0.00     0.338 C 
ATOM      6  O   UNL A   1      47.236  31.235  27.366  1.00  0.00    -0.246 OA
BRANCH   5   7
ATOM      7  C   UNL A   1      45.717  32.912  26.652  1.00  0.00     0.060 A 
ATOM      8  C   UNL A   1      44.666  35.469  26.572  1.00  0.00     0.067 A 
ATOM      9  C   UNL A   1      45.644  35.177  27.526  1.00  0.00     0.029 A 
ATOM     10  C   UNL A   1      44.334  34.550  25.567  1.00  0.00     0.029 A 
ATOM     11  C   UNL A   1      46.153  33.879  27.575  1.00  0.00     0.018 A 
ATOM     12  C   UNL A   1      44.856  33.263  25.610  1.00  0.00     0.018 A 
BRANCH   8  13
ATOM     13  N   UNL A   1      43.773  36.529  26.822  1.00  0.00    -0.217 N 
ATOM     14  C   UNL A   1      42.924  38.536  26.876  1.00  0.00     0.132 A 
ATOM     15  N   UNL A   1      41.903  37.624  26.907  1.00  0.00    -0.128 NA
ATOM     16  C   UNL A   1      44.134  37.866  26.810  1.00  0.00     0.071 A 
ATOM     17  N   UNL A   1      42.431  36.410  26.767  1.00  0.00    -0.061 NA
ATOM     18  C   UNL A   1      45.517  38.364  26.571  1.00  0.00     0.069 C 
BRANCH  14  19
ATOM     19  C   UNL A   1      42.756  39.979  26.763  1.00  0.00     0.087 C 
ATOM     20  C   UNL A   1      41.423  40.421  26.214  1.00  0.00     0.071 C 
ATOM     21  N   UNL A   1      43.802  40.699  27.057  1.00  0.00    -0.176 NA
BRANCH  21  22
ATOM     22  N   UNL A   1      43.920  42.052  26.825  1.00  0.00    -0.252 N 
ATOM     23  H   UNL A   1      43.743  42.619  27.611  1.00  0.00     0.193 HD
BRANCH  22  24
ATOM     24  C   UNL A   1      44.239  42.736  25.697  1.00  0.00     0.203 A 
ATOM     25  N   UNL A   1      43.438  42.977  24.687  1.00  0.00    -0.219 NA
ATOM     26  S   UNL A   1      45.849  43.323  25.453  1.00  0.00    -0.103 S 
ATOM     27  C   UNL A   1      44.159  43.323  23.565  1.00  0.00     0.084 A 
ATOM     28  C   UNL A   1      45.498  43.561  23.786  1.00  0.00     0.097 A 
BRANCH  27  29
ATOM     29  C   UNL A   1      43.511  43.308  22.266  1.00  0.00     0.001 A 
ATOM     30  C   UNL A   1      44.184  43.832  21.154  1.00  0.00     0.012 A 
ATOM     31  C   UNL A   1      42.175  42.902  22.133  1.00  0.00     0.012 A 
ATOM     32  C   UNL A   1      43.541  43.924  19.917  1.00  0.00     0.021 A 
ATOM     33  C   UNL A   1      41.529  43.005  20.897  1.00  0.00     0.021 A 
ATOM     34  C   UNL A   1      42.216  43.511  19.795  1.00  0.00     0.041 A 
ATOM     35  Cl  UNL A   1      41.415  43.643  18.278  1.00  0.00    -0.084 Cl
ENDBRANCH  27  29
ENDBRANCH  22  24
ENDBRANCH  21  22
ENDBRANCH  14  19
ENDBRANCH   8  13
ENDBRANCH   5   7
ENDBRANCH   4   5
ENDBRANCH   3   4
ENDBRANCH   2   3
ENDBRANCH   1   2
BRANCH   1  36
ATOM     36  C   UNL A   1      45.090  26.107  26.674  1.00  0.00     0.188 C 
BRANCH  36  37
ATOM     37  C   UNL A   1      45.108  24.687  26.071  1.00  0.00     0.188 C 
BRANCH  37  38
ATOM     38  O   UNL A   1      44.057  24.214  25.253  1.00  0.00    -0.376 OA
BRANCH  38  39
ATOM     39  C   UNL A   1      42.717  24.102  25.704  1.00  0.00     0.202 C 
BRANCH  39  40
ATOM     40  C   UNL A   1      42.282  23.406  26.990  1.00  0.00     0.261 C 
BRANCH  40  41
ATOM     41  O   UNL A   1      42.179  24.222  28.135  1.00  0.00    -0.460 OA
BRANCH  41  42
ATOM     42  C   UNL A   1      41.042  24.947  28.162  1.00  0.00     0.338 C 
ATOM     43  O   UNL A   1      39.906  24.553  27.960  1.00  0.00    -0.246 OA
BRANCH  42  44
ATOM     44  C   UNL A   1      41.386  26.352  28.355  1.00  0.00     0.060 A 
ATOM     45  C   UNL A   1      41.928  26.690  29.595  1.00  0.00     0.016 A 
ATOM     46  C   UNL A   1      40.832  27.301  27.484  1.00  0.00     0.016 A 
ATOM     47  C   UNL A   1      41.690  27.955  30.070  1.00  0.00     0.010 A 
ATOM     48  C   UNL A   1      40.574  28.556  27.970  1.00  0.00     0.010 A 
ATOM     49  C   UNL A   1      40.926  28.830  29.288  1.00  0.00    -0.014 A 
BRANCH  49  50
ATOM     50  C   UNL A   1      40.580  30.106  29.866  1.00  0.00     0.031 A 
ATOM     51  C   UNL A   1      41.750  30.996  29.984  1.00  0.00     0.074 A 
ATOM     52  C   UNL A   1      39.314  30.443  30.172  1.00  0.00     0.049 A 
ATOM     53  N   UNL A   1      42.327  31.391  31.067  1.00  0.00    -0.248 NA
ATOM     54  C   UNL A   1      42.483  31.327  28.751  1.00  0.00     0.031 C 
ATOM     55  C   UNL A   1      38.081  29.732  29.826  1.00  0.00     0.029 A 
ATOM     56  N   UNL A   1      38.857  31.569  30.779  1.00  0.00    -0.354 N 
ATOM     57  C   UNL A   1      43.364  32.214  30.648  1.00  0.00     0.074 A 
ATOM     58  C   UNL A   1      43.544  31.965  29.244  1.00  0.00     0.031 C 
ATOM     59  C   UNL A   1      37.026  30.559  30.019  1.00  0.00     0.029 A 
ATOM     60  C   UNL A   1      37.499  31.801  30.608  1.00  0.00     0.049 A 
ATOM     61  H   UNL A   1      39.439  32.170  31.298  1.00  0.00     0.167 HD
ATOM     62  C   UNL A   1      43.771  33.251  31.425  1.00  0.00     0.037 A 
ATOM     63  C   UNL A   1      36.852  32.969  30.857  1.00  0.00     0.037 A 
ATOM     64  C   UNL A   1      43.374  33.056  32.800  1.00  0.00     0.049 A 
ATOM     65  C   UNL A   1      37.728  33.790  31.732  1.00  0.00     0.074 A 
ATOM     66  C   UNL A   1      43.588  32.065  33.739  1.00  0.00     0.029 A 
ATOM     67  N   UNL A   1      42.316  33.795  33.271  1.00  0.00    -0.354 N 
ATOM     68  N   UNL A   1      37.969  33.521  32.984  1.00  0.00    -0.248 NA
ATOM     69  C   UNL A   1      38.702  34.660  31.085  1.00  0.00     0.031 C 
ATOM     70  C   UNL A   1      42.366  31.972  34.467  1.00  0.00     0.029 A 
ATOM     71  C   UNL A   1      41.502  32.952  33.979  1.00  0.00     0.049 A 
ATOM     72  H   UNL A   1      42.170  34.757  33.125  1.00  0.00     0.167 HD
ATOM     73  C   UNL A   1      39.320  33.793  33.147  1.00  0.00     0.074 A 
ATOM     74  C   UNL A   1      39.696  34.578  31.974  1.00  0.00     0.031 C 
ATOM     75  C   UNL A   1      40.070  33.110  34.061  1.00  0.00     0.037 A 
BRANCH  62  76
ATOM     76  C   UNL A   1      44.114  34.610  30.864  1.00  0.00     0.057 A 
ATOM     77  C   UNL A   1      45.366  35.168  31.178  1.00  0.00     0.134 A 
ATOM     78  C   UNL A   1      43.181  35.511  30.309  1.00  0.00     0.134 A 
ATOM     79  F   UNL A   1      46.337  34.418  31.719  1.00  0.00    -0.206 F 
ATOM     80  C   UNL A   1      45.631  36.536  31.043  1.00  0.00     0.040 A 
ATOM     81  C   UNL A   1      43.456  36.867  30.118  1.00  0.00     0.040 A 
ATOM     82  F   UNL A   1      41.922  35.170  30.013  1.00  0.00    -0.206 F 
ATOM     83  C   UNL A   1      44.669  37.392  30.522  1.00  0.00     0.006 A 
ENDBRANCH  62  76
BRANCH  63  84
ATOM     84  C   UNL A   1      35.688  33.557  30.153  1.00  0.00     0.057 A 
ATOM     85  C   UNL A   1      34.614  34.104  30.873  1.00  0.00     0.134 A 
ATOM     86  C   UNL A   1      35.722  33.855  28.780  1.00  0.00     0.134 A 
ATOM     87  F   UNL A   1      34.511  33.913  32.195  1.00  0.00    -0.206 F 
ATOM     88  C   UNL A   1      33.650  34.923  30.268  1.00  0.00     0.040 A 
ATOM     89  C   UNL A   1      34.761  34.662  28.162  1.00  0.00     0.040 A 
ATOM     90  F   UNL A   1      36.738  33.450  28.005  1.00  0.00    -0.206 F 
ATOM     91  C   UNL A   1      33.728  35.215  28.910  1.00  0.00     0.006 A 
ENDBRANCH  63  84
BRANCH  75  92
ATOM     92  C   UNL A   1      39.350  32.281  35.087  1.00  0.00     0.057 A 
ATOM     93  C   UNL A   1      38.823  32.781  36.289  1.00  0.00     0.134 A 
ATOM     94  C   UNL A   1      39.068  30.944  34.781  1.00  0.00     0.134 A 
ATOM     95  F   UNL A   1      38.949  34.073  36.621  1.00  0.00    -0.206 F 
ATOM     96  C   UNL A   1      38.097  31.968  37.166  1.00  0.00     0.040 A 
ATOM     97  C   UNL A   1      38.310  30.135  35.629  1.00  0.00     0.040 A 
ATOM     98  F   UNL A   1      39.493  30.413  33.623  1.00  0.00    -0.206 F 
ATOM     99  C   UNL A   1      37.834  30.643  36.834  1.00  0.00     0.006 A 
ENDBRANCH  75  92
ENDBRANCH  49  50
ENDBRANCH  42  44
ENDBRANCH  41  42
ENDBRANCH  40  41
ENDBRANCH  39  40
ENDBRANCH  38  39
ENDBRANCH  37  38
ENDBRANCH  36  37
ENDBRANCH   1  36
TORSDOF 22
ENDMDL
MODEL 3
REMARK VINA RESULT:      -9.7      2.344      5.845
REMARK SMILES C/C(=N\Nc1nc(-c2ccc(Cl)cc2)cs1)c1nnn(-c2ccc(C(=O)OCCOCCOCCOC(=O)c3ccc(-c4c5nc(c(-c6c(F)cccc6F)c6ccc([nH]6)c(-c6c(F)cccc6F)c6nc(c(-c7c(F)cccc7F)c7ccc4[nH]7)C=C6)C=C5)cc3)cc2)c1C
REMARK SMILES IDX 30 1 29 2 28 3 27 4 25 5 26 6 24 7 21 8 22 9 94 10 23 11
REMARK SMILES IDX 93 12 20 13 17 14 18 15 95 16 19 17 96 18 2 19 1 20 3 21
REMARK SMILES IDX 4 22 5 24 6 25 16 26 7 27 15 28 8 29 9 30 14 31 10 32 13 33
REMARK SMILES IDX 11 34 12 35 31 36 32 37 33 38 34 39 35 40 36 41 37 42 38 43
REMARK SMILES IDX 39 44 40 45 92 46 41 47 91 48 42 49 43 50 44 51 85 52 45 53
REMARK SMILES IDX 90 54 84 55 86 56 46 57 89 58 83 59 82 60 47 62 73 63 56 64
REMARK SMILES IDX 72 65 57 66 60 67 71 68 87 69 58 70 59 71 70 73 88 74 61 75
REMARK SMILES IDX 48 76 49 77 54 78 50 79 51 80 53 81 55 82 52 83 74 84 75 85
REMARK SMILES IDX 80 86 76 87 77 88 79 89 81 90 78 91 62 92 63 93 68 94 64 95
REMARK SMILES IDX 65 96 67 97 69 98 66 99
REMARK H PARENT 4 23 86 61 60 72
REMARK Flexibility Score: inf
ROOT
ATOM      1  O   UNL A   1      41.235  32.387  32.701  1.00  0.00    -0.376 OA
ENDROOT
BRANCH   1   2
ATOM      2  C   UNL A   1      40.288  31.341  32.562  1.00  0.00     0.202 C 
BRANCH   2   3
ATOM      3  C   UNL A   1      38.753  31.487  32.571  1.00  0.00     0.261 C 
BRANCH   3   4
ATOM      4  O   UNL A   1      38.110  31.734  31.325  1.00  0.00    -0.460 OA
BRANCH   4   5
ATOM      5  C   UNL A   1      37.464  32.926  31.224  1.00  0.00     0.338 C 
ATOM      6  O   UNL A   1      37.733  33.954  31.791  1.00  0.00    -0.246 OA
BRANCH   5   7
ATOM      7  C   UNL A   1      36.443  32.824  30.151  1.00  0.00     0.060 A 
ATOM      8  C   UNL A   1      34.480  32.402  28.250  1.00  0.00     0.067 A 
ATOM      9  C   UNL A   1      34.091  32.712  29.555  1.00  0.00     0.029 A 
ATOM     10  C   UNL A   1      35.825  32.460  27.858  1.00  0.00     0.029 A 
ATOM     11  C   UNL A   1      35.087  32.902  30.513  1.00  0.00     0.018 A 
ATOM     12  C   UNL A   1      36.813  32.666  28.813  1.00  0.00     0.018 A 
BRANCH   8  13
ATOM     13  N   UNL A   1      33.580  31.697  27.426  1.00  0.00    -0.217 N 
ATOM     14  C   UNL A   1      32.513  30.047  26.483  1.00  0.00     0.132 A 
ATOM     15  N   UNL A   1      31.714  31.159  26.461  1.00  0.00    -0.128 NA
ATOM     16  C   UNL A   1      33.710  30.356  27.104  1.00  0.00     0.071 A 
ATOM     17  N   UNL A   1      32.336  32.126  27.132  1.00  0.00    -0.061 NA
ATOM     18  C   UNL A   1      34.834  29.488  27.552  1.00  0.00     0.069 C 
BRANCH  14  19
ATOM     19  C   UNL A   1      32.102  28.711  26.069  1.00  0.00     0.087 C 
ATOM     20  C   UNL A   1      31.855  28.556  24.589  1.00  0.00     0.071 C 
ATOM     21  N   UNL A   1      31.909  27.852  27.028  1.00  0.00    -0.176 NA
BRANCH  21  22
ATOM     22  N   UNL A   1      31.330  26.610  26.872  1.00  0.00    -0.252 N 
ATOM     23  H   UNL A   1      30.439  26.519  27.281  1.00  0.00     0.193 HD
BRANCH  22  24
ATOM     24  C   UNL A   1      31.783  25.491  26.251  1.00  0.00     0.203 A 
ATOM     25  N   UNL A   1      32.807  24.761  26.622  1.00  0.00    -0.219 NA
ATOM     26  S   UNL A   1      31.043  24.943  24.786  1.00  0.00    -0.103 S 
ATOM     27  C   UNL A   1      33.238  23.963  25.585  1.00  0.00     0.084 A 
ATOM     28  C   UNL A   1      32.399  23.927  24.493  1.00  0.00     0.097 A 
BRANCH  27  29
ATOM     29  C   UNL A   1      34.541  23.328  25.666  1.00  0.00     0.001 A 
ATOM     30  C   UNL A   1      35.697  24.120  25.620  1.00  0.00     0.012 A 
ATOM     31  C   UNL A   1      34.663  21.932  25.656  1.00  0.00     0.012 A 
ATOM     32  C   UNL A   1      36.960  23.524  25.591  1.00  0.00     0.021 A 
ATOM     33  C   UNL A   1      35.928  21.336  25.616  1.00  0.00     0.021 A 
ATOM     34  C   UNL A   1      37.070  22.136  25.588  1.00  0.00     0.041 A 
ATOM     35  Cl  UNL A   1      38.625  21.401  25.530  1.00  0.00    -0.084 Cl
ENDBRANCH  27  29
ENDBRANCH  22  24
ENDBRANCH  21  22
ENDBRANCH  14  19
ENDBRANCH   8  13
ENDBRANCH   5   7
ENDBRANCH   4   5
ENDBRANCH   3   4
ENDBRANCH   2   3
ENDBRANCH   1   2
BRANCH   1  36
ATOM     36  C   UNL A   1      41.152  33.565  31.934  1.00  0.00     0.188 C 
BRANCH  36  37
ATOM     37  C   UNL A   1      41.274  33.442  30.401  1.00  0.00     0.188 C 
BRANCH  37  38
ATOM     38  O   UNL A   1      40.778  34.443  29.534  1.00  0.00    -0.376 OA
BRANCH  38  39
ATOM     39  C   UNL A   1      41.566  35.531  29.079  1.00  0.00     0.202 C 
BRANCH  39  40
ATOM     40  C   UNL A   1      41.737  35.935  27.618  1.00  0.00     0.261 C 
BRANCH  40  41
ATOM     41  O   UNL A   1      42.630  35.153  26.856  1.00  0.00    -0.460 OA
BRANCH  41  42
ATOM     42  C   UNL A   1      43.923  35.454  27.091  1.00  0.00     0.338 C 
ATOM     43  O   UNL A   1      44.427  36.562  27.159  1.00  0.00    -0.246 OA
BRANCH  42  44
ATOM     44  C   UNL A   1      44.692  34.214  27.132  1.00  0.00     0.060 A 
ATOM     45  C   UNL A   1      44.216  33.166  26.345  1.00  0.00     0.016 A 
ATOM     46  C   UNL A   1      45.593  34.022  28.189  1.00  0.00     0.016 A 
ATOM     47  C   UNL A   1      44.453  31.886  26.778  1.00  0.00     0.010 A 
ATOM     48  C   UNL A   1      45.808  32.744  28.634  1.00  0.00     0.010 A 
ATOM     49  C   UNL A   1      45.159  31.705  27.974  1.00  0.00    -0.014 A 
BRANCH  49  50
ATOM     50  C   UNL A   1      45.281  30.358  28.474  1.00  0.00     0.031 A 
ATOM     51  C   UNL A   1      46.300  29.584  27.740  1.00  0.00     0.074 A 
ATOM     52  C   UNL A   1      44.591  29.916  29.542  1.00  0.00     0.049 A 
ATOM     53  N   UNL A   1      46.105  28.583  26.951  1.00  0.00    -0.248 NA
ATOM     54  C   UNL A   1      47.676  30.109  27.727  1.00  0.00     0.031 C 
ATOM     55  C   UNL A   1      43.786  30.697  30.483  1.00  0.00     0.029 A 
ATOM     56  N   UNL A   1      44.556  28.667  30.074  1.00  0.00    -0.354 N 
ATOM     57  C   UNL A   1      47.370  28.206  26.523  1.00  0.00     0.074 A 
ATOM     58  C   UNL A   1      48.255  29.291  26.848  1.00  0.00     0.031 C 
ATOM     59  C   UNL A   1      43.546  29.949  31.586  1.00  0.00     0.029 A 
ATOM     60  C   UNL A   1      44.075  28.612  31.375  1.00  0.00     0.049 A 
ATOM     61  H   UNL A   1      44.846  27.867  29.578  1.00  0.00     0.167 HD
ATOM     62  C   UNL A   1      47.632  26.907  26.222  1.00  0.00     0.037 A 
ATOM     63  C   UNL A   1      44.197  27.560  32.226  1.00  0.00     0.037 A 
ATOM     64  C   UNL A   1      46.414  26.185  25.940  1.00  0.00     0.049 A 
ATOM     65  C   UNL A   1      44.526  26.360  31.414  1.00  0.00     0.074 A 
ATOM     66  C   UNL A   1      45.377  26.347  25.041  1.00  0.00     0.029 A 
ATOM     67  N   UNL A   1      45.942  25.327  26.903  1.00  0.00    -0.354 N 
ATOM     68  N   UNL A   1      43.686  25.766  30.614  1.00  0.00    -0.248 NA
ATOM     69  C   UNL A   1      45.933  26.093  31.146  1.00  0.00     0.031 C 
ATOM     70  C   UNL A   1      44.203  25.967  25.754  1.00  0.00     0.029 A 
ATOM     71  C   UNL A   1      44.593  25.533  27.020  1.00  0.00     0.049 A 
ATOM     72  H   UNL A   1      46.477  24.680  27.416  1.00  0.00     0.167 HD
ATOM     73  C   UNL A   1      44.438  25.438  29.496  1.00  0.00     0.074 A 
ATOM     74  C   UNL A   1      45.830  25.578  29.917  1.00  0.00     0.031 C 
ATOM     75  C   UNL A   1      43.867  25.374  28.257  1.00  0.00     0.037 A 
BRANCH  62  76
ATOM     76  C   UNL A   1      48.912  26.215  26.623  1.00  0.00     0.057 A 
ATOM     77  C   UNL A   1      49.260  26.185  27.985  1.00  0.00     0.134 A 
ATOM     78  C   UNL A   1      49.950  25.862  25.734  1.00  0.00     0.134 A 
ATOM     79  F   UNL A   1      48.365  26.507  28.930  1.00  0.00    -0.206 F 
ATOM     80  C   UNL A   1      50.564  25.924  28.419  1.00  0.00     0.040 A 
ATOM     81  C   UNL A   1      51.241  25.544  26.162  1.00  0.00     0.040 A 
ATOM     82  F   UNL A   1      49.816  25.900  24.403  1.00  0.00    -0.206 F 
ATOM     83  C   UNL A   1      51.562  25.612  27.504  1.00  0.00     0.006 A 
ENDBRANCH  62  76
BRANCH  63  84
ATOM     84  C   UNL A   1      44.360  27.568  33.699  1.00  0.00     0.057 A 
ATOM     85  C   UNL A   1      45.512  28.108  34.292  1.00  0.00     0.134 A 
ATOM     86  C   UNL A   1      43.286  27.311  34.568  1.00  0.00     0.134 A 
ATOM     87  F   UNL A   1      46.578  28.426  33.545  1.00  0.00    -0.206 F 
ATOM     88  C   UNL A   1      45.578  28.404  35.661  1.00  0.00     0.040 A 
ATOM     89  C   UNL A   1      43.342  27.592  35.937  1.00  0.00     0.040 A 
ATOM     90  F   UNL A   1      42.109  26.864  34.106  1.00  0.00    -0.206 F 
ATOM     91  C   UNL A   1      44.486  28.157  36.487  1.00  0.00     0.006 A 
ENDBRANCH  63  84
BRANCH  75  92
ATOM     92  C   UNL A   1      42.367  25.366  28.171  1.00  0.00     0.057 A 
ATOM     93  C   UNL A   1      41.562  26.517  28.166  1.00  0.00     0.134 A 
ATOM     94  C   UNL A   1      41.721  24.143  27.953  1.00  0.00     0.134 A 
ATOM     95  F   UNL A   1      42.098  27.741  28.262  1.00  0.00    -0.206 F 
ATOM     96  C   UNL A   1      40.175  26.442  28.005  1.00  0.00     0.040 A 
ATOM     97  C   UNL A   1      40.343  24.060  27.752  1.00  0.00     0.040 A 
ATOM     98  F   UNL A   1      42.432  23.005  27.890  1.00  0.00    -0.206 F 
ATOM     99  C   UNL A   1      39.562  25.211  27.792  1.00  0.00     0.006 A 
ENDBRANCH  75  92
ENDBRANCH  49  50
ENDBRANCH  42  44
ENDBRANCH  41  42
ENDBRANCH  40  41
ENDBRANCH  39  40
ENDBRANCH  38  39
ENDBRANCH  37  38
ENDBRANCH  36  37
ENDBRANCH   1  36
TORSDOF 22
ENDMDL
