MODEL 1
REMARK VINA RESULT:     -11.4      0.000      0.000
REMARK SMILES Nc1c(C(=O)OCC2c3ccccc3-c3ccccc32)ccc(F)c1C(=O)OCCOCCOCCOC(=O)c1ccc(-c2c3nc(c(-c4c(F)cccc4F)c4ccc([nH]4)c(-c4c(F)cccc4F)c4nc(c(-c5c(F)cccc5F)c5ccc2[nH]5)C=C4)C=C3)cc1
REMARK SMILES IDX 32 1 31 2 30 3 29 4 28 5 26 6 27 7 25 8 2 9 3 10 21 11 23 12
REMARK SMILES IDX 22 13 24 14 1 15 4 18 5 19 6 20 7 21 8 22 9 23 20 24 10 25
REMARK SMILES IDX 14 26 15 27 19 28 11 29 13 30 16 31 18 32 12 33 17 34 33 35
REMARK SMILES IDX 34 36 35 37 36 38 37 39 38 40 39 41 40 42 41 43 93 44 42 45
REMARK SMILES IDX 92 46 43 47 44 48 45 49 86 50 46 51 91 52 85 53 87 54 47 55
REMARK SMILES IDX 90 56 84 57 83 58 48 60 74 61 57 62 73 63 58 64 61 65 72 66
REMARK SMILES IDX 88 67 59 68 60 69 71 71 89 72 62 73 49 74 50 75 55 76 51 77
REMARK SMILES IDX 52 78 54 79 56 80 53 81 75 82 76 83 81 84 77 85 78 86 80 87
REMARK SMILES IDX 82 88 79 89 63 90 64 91 69 92 65 93 66 94 68 95 70 96 67 97
REMARK H PARENT 1 16 1 17 87 59 61 70
REMARK Flexibility Score: inf
ROOT
ATOM      1  C   UNL A   1      33.167  33.338  28.015  1.00  0.00     0.188 C 
ENDROOT
BRANCH   1   2
ATOM      2  O   UNL A   1      34.119  32.280  28.077  1.00  0.00    -0.376 OA
BRANCH   2   3
ATOM      3  C   UNL A   1      33.796  31.016  27.498  1.00  0.00     0.202 C 
BRANCH   3   4
ATOM      4  C   UNL A   1      32.496  30.889  26.694  1.00  0.00     0.261 C 
BRANCH   4   5
ATOM      5  O   UNL A   1      32.105  29.520  26.495  1.00  0.00    -0.460 OA
BRANCH   5   6
ATOM      6  C   UNL A   1      32.268  29.024  25.240  1.00  0.00     0.343 C 
ATOM      7  O   UNL A   1      33.101  29.374  24.425  1.00  0.00    -0.246 OA
BRANCH   6   8
ATOM      8  C   UNL A   1      31.367  27.865  25.055  1.00  0.00     0.119 A 
ATOM      9  C   UNL A   1      31.544  26.638  25.735  1.00  0.00     0.064 A 
ATOM     10  C   UNL A   1      30.595  25.614  25.500  1.00  0.00     0.084 A 
ATOM     11  C   UNL A   1      29.571  25.789  24.547  1.00  0.00     0.021 A 
ATOM     12  C   UNL A   1      30.341  28.016  24.114  1.00  0.00     0.139 A 
ATOM     13  C   UNL A   1      29.451  26.984  23.848  1.00  0.00     0.041 A 
ATOM     14  F   UNL A   1      30.228  29.141  23.394  1.00  0.00    -0.206 F 
BRANCH   9  15
ATOM     15  N   UNL A   1      32.587  26.478  26.652  1.00  0.00    -0.397 N 
ATOM     16  H   UNL A   1      32.511  26.863  27.555  1.00  0.00     0.156 HD
ATOM     17  H   UNL A   1      33.397  25.982  26.394  1.00  0.00     0.156 HD
ENDBRANCH   9  15
BRANCH  10  18
ATOM     18  C   UNL A   1      30.584  24.312  26.221  1.00  0.00     0.340 C 
ATOM     19  O   UNL A   1      29.769  24.039  27.090  1.00  0.00    -0.246 OA
BRANCH  18  20
ATOM     20  O   UNL A   1      31.669  23.575  25.870  1.00  0.00    -0.461 OA
BRANCH  20  21
ATOM     21  C   UNL A   1      31.481  22.659  24.779  1.00  0.00     0.246 C 
BRANCH  21  22
ATOM     22  C   UNL A   1      32.661  22.737  23.791  1.00  0.00     0.088 C 
ATOM     23  C   UNL A   1      32.757  24.082  23.076  1.00  0.00    -0.029 A 
ATOM     24  C   UNL A   1      33.972  22.715  24.566  1.00  0.00    -0.029 A 
ATOM     25  C   UNL A   1      31.932  24.594  22.085  1.00  0.00     0.005 A 
ATOM     26  C   UNL A   1      33.868  24.808  23.550  1.00  0.00    -0.014 A 
ATOM     27  C   UNL A   1      34.627  23.962  24.445  1.00  0.00    -0.014 A 
ATOM     28  C   UNL A   1      34.502  21.687  25.330  1.00  0.00     0.005 A 
ATOM     29  C   UNL A   1      32.158  25.897  21.644  1.00  0.00     0.000 A 
ATOM     30  C   UNL A   1      34.094  26.102  23.113  1.00  0.00     0.009 A 
ATOM     31  C   UNL A   1      35.825  24.189  25.102  1.00  0.00     0.009 A 
ATOM     32  C   UNL A   1      35.711  21.918  25.988  1.00  0.00     0.000 A 
ATOM     33  C   UNL A   1      33.219  26.653  22.168  1.00  0.00     0.001 A 
ATOM     34  C   UNL A   1      36.364  23.158  25.878  1.00  0.00     0.001 A 
ENDBRANCH  21  22
ENDBRANCH  20  21
ENDBRANCH  18  20
ENDBRANCH  10  18
ENDBRANCH   6   8
ENDBRANCH   5   6
ENDBRANCH   4   5
ENDBRANCH   3   4
ENDBRANCH   2   3
ENDBRANCH   1   2
BRANCH   1  35
ATOM     35  C   UNL A   1      33.524  34.705  28.639  1.00  0.00     0.188 C 
BRANCH  35  36
ATOM     36  O   UNL A   1      33.305  34.768  30.029  1.00  0.00    -0.376 OA
BRANCH  36  37
ATOM     37  C   UNL A   1      34.364  34.412  30.900  1.00  0.00     0.202 C 
BRANCH  37  38
ATOM     38  C   UNL A   1      34.178  33.465  32.105  1.00  0.00     0.261 C 
BRANCH  38  39
ATOM     39  O   UNL A   1      34.916  32.237  32.119  1.00  0.00    -0.460 OA
BRANCH  39  40
ATOM     40  C   UNL A   1      36.025  32.189  32.892  1.00  0.00     0.338 C 
ATOM     41  O   UNL A   1      36.127  32.527  34.057  1.00  0.00    -0.246 OA
BRANCH  40  42
ATOM     42  C   UNL A   1      37.077  31.478  32.133  1.00  0.00     0.060 A 
ATOM     43  C   UNL A   1      37.995  30.681  32.830  1.00  0.00     0.016 A 
ATOM     44  C   UNL A   1      37.159  31.604  30.745  1.00  0.00     0.016 A 
ATOM     45  C   UNL A   1      39.016  30.025  32.138  1.00  0.00     0.010 A 
ATOM     46  C   UNL A   1      38.195  30.962  30.057  1.00  0.00     0.010 A 
ATOM     47  C   UNL A   1      39.145  30.192  30.752  1.00  0.00    -0.014 A 
BRANCH  47  48
ATOM     48  C   UNL A   1      40.358  29.704  30.051  1.00  0.00     0.031 A 
ATOM     49  C   UNL A   1      41.490  30.667  29.818  1.00  0.00     0.074 A 
ATOM     50  C   UNL A   1      40.461  28.431  29.630  1.00  0.00     0.049 A 
ATOM     51  N   UNL A   1      42.613  30.491  29.169  1.00  0.00    -0.248 NA
ATOM     52  C   UNL A   1      41.331  32.012  30.394  1.00  0.00     0.031 C 
ATOM     53  C   UNL A   1      39.456  27.389  29.825  1.00  0.00     0.029 A 
ATOM     54  N   UNL A   1      41.466  27.805  28.933  1.00  0.00    -0.354 N 
ATOM     55  C   UNL A   1      43.292  31.700  29.257  1.00  0.00     0.074 A 
ATOM     56  C   UNL A   1      42.444  32.610  29.995  1.00  0.00     0.031 C 
ATOM     57  C   UNL A   1      39.885  26.255  29.242  1.00  0.00     0.029 A 
ATOM     58  C   UNL A   1      41.180  26.501  28.607  1.00  0.00     0.049 A 
ATOM     59  H   UNL A   1      42.310  28.247  28.689  1.00  0.00     0.167 HD
ATOM     60  C   UNL A   1      44.515  32.021  28.774  1.00  0.00     0.037 A 
ATOM     61  C   UNL A   1      41.871  25.619  27.857  1.00  0.00     0.037 A 
ATOM     62  C   UNL A   1      45.357  31.121  28.033  1.00  0.00     0.049 A 
ATOM     63  C   UNL A   1      43.195  26.026  27.262  1.00  0.00     0.074 A 
ATOM     64  C   UNL A   1      46.616  31.355  27.507  1.00  0.00     0.029 A 
ATOM     65  N   UNL A   1      45.021  29.817  27.704  1.00  0.00    -0.354 N 
ATOM     66  N   UNL A   1      43.839  27.164  27.369  1.00  0.00    -0.248 NA
ATOM     67  C   UNL A   1      43.890  25.024  26.438  1.00  0.00     0.031 C 
ATOM     68  C   UNL A   1      47.023  30.206  26.821  1.00  0.00     0.029 A 
ATOM     69  C   UNL A   1      46.040  29.240  26.965  1.00  0.00     0.049 A 
ATOM     70  H   UNL A   1      44.184  29.368  27.959  1.00  0.00     0.167 HD
ATOM     71  C   UNL A   1      45.023  27.002  26.658  1.00  0.00     0.074 A 
ATOM     72  C   UNL A   1      45.015  25.654  26.133  1.00  0.00     0.031 C 
ATOM     73  C   UNL A   1      46.027  27.891  26.460  1.00  0.00     0.037 A 
BRANCH  60  74
ATOM     74  C   UNL A   1      45.008  33.417  29.017  1.00  0.00     0.057 A 
ATOM     75  C   UNL A   1      45.810  33.735  30.121  1.00  0.00     0.134 A 
ATOM     76  C   UNL A   1      44.710  34.447  28.116  1.00  0.00     0.134 A 
ATOM     77  F   UNL A   1      46.119  32.798  31.028  1.00  0.00    -0.206 F 
ATOM     78  C   UNL A   1      46.283  35.031  30.328  1.00  0.00     0.040 A 
ATOM     79  C   UNL A   1      45.197  35.741  28.299  1.00  0.00     0.040 A 
ATOM     80  F   UNL A   1      43.949  34.209  27.037  1.00  0.00    -0.206 F 
ATOM     81  C   UNL A   1      45.983  36.037  29.411  1.00  0.00     0.006 A 
ENDBRANCH  60  74
BRANCH  61  82
ATOM     82  C   UNL A   1      41.322  24.262  27.599  1.00  0.00     0.057 A 
ATOM     83  C   UNL A   1      40.300  24.058  26.665  1.00  0.00     0.134 A 
ATOM     84  C   UNL A   1      41.773  23.146  28.314  1.00  0.00     0.134 A 
ATOM     85  F   UNL A   1      39.805  25.092  25.968  1.00  0.00    -0.206 F 
ATOM     86  C   UNL A   1      39.730  22.798  26.467  1.00  0.00     0.040 A 
ATOM     87  C   UNL A   1      41.232  21.877  28.107  1.00  0.00     0.040 A 
ATOM     88  F   UNL A   1      42.747  23.277  29.228  1.00  0.00    -0.206 F 
ATOM     89  C   UNL A   1      40.201  21.702  27.187  1.00  0.00     0.006 A 
ENDBRANCH  61  82
BRANCH  73  90
ATOM     90  C   UNL A   1      47.224  27.424  25.682  1.00  0.00     0.057 A 
ATOM     91  C   UNL A   1      48.297  26.765  26.294  1.00  0.00     0.134 A 
ATOM     92  C   UNL A   1      47.279  27.594  24.292  1.00  0.00     0.134 A 
ATOM     93  F   UNL A   1      48.312  26.579  27.623  1.00  0.00    -0.206 F 
ATOM     94  C   UNL A   1      49.394  26.314  25.556  1.00  0.00     0.040 A 
ATOM     95  C   UNL A   1      48.356  27.124  23.541  1.00  0.00     0.040 A 
ATOM     96  F   UNL A   1      46.278  28.207  23.641  1.00  0.00    -0.206 F 
ATOM     97  C   UNL A   1      49.420  26.486  24.173  1.00  0.00     0.006 A 
ENDBRANCH  73  90
ENDBRANCH  47  48
ENDBRANCH  40  42
ENDBRANCH  39  40
ENDBRANCH  38  39
ENDBRANCH  37  38
ENDBRANCH  36  37
ENDBRANCH  35  36
ENDBRANCH   1  35
TORSDOF 22
ENDMDL
MODEL 2
REMARK VINA RESULT:     -11.3      1.231      2.318
REMARK SMILES Nc1c(C(=O)OCC2c3ccccc3-c3ccccc32)ccc(F)c1C(=O)OCCOCCOCCOC(=O)c1ccc(-c2c3nc(c(-c4c(F)cccc4F)c4ccc([nH]4)c(-c4c(F)cccc4F)c4nc(c(-c5c(F)cccc5F)c5ccc2[nH]5)C=C4)C=C3)cc1
REMARK SMILES IDX 32 1 31 2 30 3 29 4 28 5 26 6 27 7 25 8 2 9 3 10 21 11 23 12
REMARK SMILES IDX 22 13 24 14 1 15 4 18 5 19 6 20 7 21 8 22 9 23 20 24 10 25
REMARK SMILES IDX 14 26 15 27 19 28 11 29 13 30 16 31 18 32 12 33 17 34 33 35
REMARK SMILES IDX 34 36 35 37 36 38 37 39 38 40 39 41 40 42 41 43 93 44 42 45
REMARK SMILES IDX 92 46 43 47 44 48 45 49 86 50 46 51 91 52 85 53 87 54 47 55
REMARK SMILES IDX 90 56 84 57 83 58 48 60 74 61 57 62 73 63 58 64 61 65 72 66
REMARK SMILES IDX 88 67 59 68 60 69 71 71 89 72 62 73 49 74 50 75 55 76 51 77
REMARK SMILES IDX 52 78 54 79 56 80 53 81 75 82 76 83 81 84 77 85 78 86 80 87
REMARK SMILES IDX 82 88 79 89 63 90 64 91 69 92 65 93 66 94 68 95 70 96 67 97
REMARK H PARENT 1 16 1 17 87 59 61 70
REMARK Flexibility Score: inf
ROOT
ATOM      1  C   UNL A   1      34.161  32.491  28.013  1.00  0.00     0.188 C 
ENDROOT
BRANCH   1   2
ATOM      2  O   UNL A   1      33.785  31.139  27.766  1.00  0.00    -0.376 OA
BRANCH   2   3
ATOM      3  C   UNL A   1      32.701  30.868  26.878  1.00  0.00     0.202 C 
BRANCH   3   4
ATOM      4  C   UNL A   1      31.871  29.598  27.101  1.00  0.00     0.261 C 
BRANCH   4   5
ATOM      5  O   UNL A   1      31.994  28.662  26.017  1.00  0.00    -0.460 OA
BRANCH   5   6
ATOM      6  C   UNL A   1      31.759  27.358  26.318  1.00  0.00     0.343 C 
ATOM      7  O   UNL A   1      31.608  26.886  27.430  1.00  0.00    -0.246 OA
BRANCH   6   8
ATOM      8  C   UNL A   1      31.557  26.598  25.064  1.00  0.00     0.119 A 
ATOM      9  C   UNL A   1      32.574  26.431  24.096  1.00  0.00     0.064 A 
ATOM     10  C   UNL A   1      32.269  25.654  22.952  1.00  0.00     0.084 A 
ATOM     11  C   UNL A   1      30.968  25.152  22.751  1.00  0.00     0.021 A 
ATOM     12  C   UNL A   1      30.271  26.089  24.843  1.00  0.00     0.139 A 
ATOM     13  C   UNL A   1      29.968  25.379  23.689  1.00  0.00     0.041 A 
ATOM     14  F   UNL A   1      29.277  26.329  25.710  1.00  0.00    -0.206 F 
BRANCH   9  15
ATOM     15  N   UNL A   1      33.848  26.966  24.304  1.00  0.00    -0.397 N 
ATOM     16  H   UNL A   1      34.609  26.368  24.484  1.00  0.00     0.156 HD
ATOM     17  H   UNL A   1      33.984  27.940  24.269  1.00  0.00     0.156 HD
ENDBRANCH   9  15
BRANCH  10  18
ATOM     18  C   UNL A   1      33.263  25.297  21.903  1.00  0.00     0.340 C 
ATOM     19  O   UNL A   1      33.278  25.816  20.796  1.00  0.00    -0.246 OA
BRANCH  18  20
ATOM     20  O   UNL A   1      34.018  24.245  22.313  1.00  0.00    -0.461 OA
BRANCH  20  21
ATOM     21  C   UNL A   1      33.350  22.975  22.367  1.00  0.00     0.246 C 
BRANCH  21  22
ATOM     22  C   UNL A   1      33.751  22.199  23.636  1.00  0.00     0.088 C 
ATOM     23  C   UNL A   1      35.039  22.714  24.273  1.00  0.00    -0.029 A 
ATOM     24  C   UNL A   1      32.738  22.480  24.740  1.00  0.00    -0.029 A 
ATOM     25  C   UNL A   1      36.342  22.578  23.816  1.00  0.00     0.005 A 
ATOM     26  C   UNL A   1      34.753  23.383  25.479  1.00  0.00    -0.014 A 
ATOM     27  C   UNL A   1      33.347  23.220  25.779  1.00  0.00    -0.014 A 
ATOM     28  C   UNL A   1      31.397  22.132  24.785  1.00  0.00     0.005 A 
ATOM     29  C   UNL A   1      37.360  23.220  24.520  1.00  0.00     0.000 A 
ATOM     30  C   UNL A   1      35.764  24.021  26.180  1.00  0.00     0.009 A 
ATOM     31  C   UNL A   1      32.606  23.625  26.876  1.00  0.00     0.009 A 
ATOM     32  C   UNL A   1      30.654  22.539  25.894  1.00  0.00     0.000 A 
ATOM     33  C   UNL A   1      37.070  23.953  25.681  1.00  0.00     0.001 A 
ATOM     34  C   UNL A   1      31.251  23.282  26.927  1.00  0.00     0.001 A 
ENDBRANCH  21  22
ENDBRANCH  20  21
ENDBRANCH  18  20
ENDBRANCH  10  18
ENDBRANCH   6   8
ENDBRANCH   5   6
ENDBRANCH   4   5
ENDBRANCH   3   4
ENDBRANCH   2   3
ENDBRANCH   1   2
BRANCH   1  35
ATOM     35  C   UNL A   1      33.078  33.591  27.965  1.00  0.00     0.188 C 
BRANCH  35  36
ATOM     36  O   UNL A   1      32.900  34.266  29.187  1.00  0.00    -0.376 OA
BRANCH  36  37
ATOM     37  C   UNL A   1      34.047  34.704  29.894  1.00  0.00     0.202 C 
BRANCH  37  38
ATOM     38  C   UNL A   1      34.481  34.099  31.246  1.00  0.00     0.261 C 
BRANCH  38  39
ATOM     39  O   UNL A   1      35.860  33.750  31.419  1.00  0.00    -0.460 OA
BRANCH  39  40
ATOM     40  C   UNL A   1      36.138  32.690  32.212  1.00  0.00     0.338 C 
ATOM     41  O   UNL A   1      35.527  32.330  33.201  1.00  0.00    -0.246 OA
BRANCH  40  42
ATOM     42  C   UNL A   1      37.224  31.916  31.573  1.00  0.00     0.060 A 
ATOM     43  C   UNL A   1      38.195  31.312  32.383  1.00  0.00     0.016 A 
ATOM     44  C   UNL A   1      37.286  31.793  30.183  1.00  0.00     0.016 A 
ATOM     45  C   UNL A   1      39.247  30.602  31.801  1.00  0.00     0.010 A 
ATOM     46  C   UNL A   1      38.352  31.098  29.602  1.00  0.00     0.010 A 
ATOM     47  C   UNL A   1      39.352  30.522  30.405  1.00  0.00    -0.014 A 
BRANCH  47  48
ATOM     48  C   UNL A   1      40.586  29.986  29.779  1.00  0.00     0.031 A 
ATOM     49  C   UNL A   1      41.722  30.932  29.502  1.00  0.00     0.074 A 
ATOM     50  C   UNL A   1      40.705  28.684  29.463  1.00  0.00     0.049 A 
ATOM     51  N   UNL A   1      42.863  30.711  28.901  1.00  0.00    -0.248 NA
ATOM     52  C   UNL A   1      41.543  32.318  29.965  1.00  0.00     0.031 C 
ATOM     53  C   UNL A   1      39.697  27.656  29.713  1.00  0.00     0.029 A 
ATOM     54  N   UNL A   1      41.731  28.009  28.847  1.00  0.00    -0.354 N 
ATOM     55  C   UNL A   1      43.536  31.926  28.911  1.00  0.00     0.074 A 
ATOM     56  C   UNL A   1      42.665  32.889  29.551  1.00  0.00     0.031 C 
ATOM     57  C   UNL A   1      40.146  26.481  29.234  1.00  0.00     0.029 A 
ATOM     58  C   UNL A   1      41.457  26.682  28.617  1.00  0.00     0.049 A 
ATOM     59  H   UNL A   1      42.580  28.435  28.592  1.00  0.00     0.167 HD
ATOM     60  C   UNL A   1      44.772  32.215  28.439  1.00  0.00     0.037 A 
ATOM     61  C   UNL A   1      42.172  25.747  27.960  1.00  0.00     0.037 A 
ATOM     62  C   UNL A   1      45.636  31.262  27.795  1.00  0.00     0.049 A 
ATOM     63  C   UNL A   1      43.510  26.112  27.371  1.00  0.00     0.074 A 
ATOM     64  C   UNL A   1      46.910  31.460  27.288  1.00  0.00     0.029 A 
ATOM     65  N   UNL A   1      45.314  29.935  27.562  1.00  0.00    -0.354 N 
ATOM     66  N   UNL A   1      44.148  27.258  27.406  1.00  0.00    -0.248 NA
ATOM     67  C   UNL A   1      44.231  25.051  26.650  1.00  0.00     0.031 C 
ATOM     68  C   UNL A   1      47.339  30.262  26.707  1.00  0.00     0.029 A 
ATOM     69  C   UNL A   1      46.354  29.306  26.899  1.00  0.00     0.049 A 
ATOM     70  H   UNL A   1      44.471  29.503  27.828  1.00  0.00     0.167 HD
ATOM     71  C   UNL A   1      45.352  27.046  26.744  1.00  0.00     0.074 A 
ATOM     72  C   UNL A   1      45.362  25.660  26.327  1.00  0.00     0.031 C 
ATOM     73  C   UNL A   1      46.359  27.921  26.503  1.00  0.00     0.037 A 
BRANCH  60  74
ATOM     74  C   UNL A   1      45.254  33.627  28.584  1.00  0.00     0.057 A 
ATOM     75  C   UNL A   1      46.105  34.014  29.628  1.00  0.00     0.134 A 
ATOM     76  C   UNL A   1      44.896  34.604  27.646  1.00  0.00     0.134 A 
ATOM     77  F   UNL A   1      46.473  33.130  30.567  1.00  0.00    -0.206 F 
ATOM     78  C   UNL A   1      46.567  35.325  29.744  1.00  0.00     0.040 A 
ATOM     79  C   UNL A   1      45.371  35.913  27.737  1.00  0.00     0.040 A 
ATOM     80  F   UNL A   1      44.087  34.300  26.620  1.00  0.00    -0.206 F 
ATOM     81  C   UNL A   1      46.206  36.278  28.792  1.00  0.00     0.006 A 
ENDBRANCH  60  74
BRANCH  61  82
ATOM     82  C   UNL A   1      41.633  24.372  27.795  1.00  0.00     0.057 A 
ATOM     83  C   UNL A   1      42.105  23.308  28.573  1.00  0.00     0.134 A 
ATOM     84  C   UNL A   1      40.668  24.080  26.824  1.00  0.00     0.134 A 
ATOM     85  F   UNL A   1      43.051  23.518  29.501  1.00  0.00    -0.206 F 
ATOM     86  C   UNL A   1      41.655  22.001  28.376  1.00  0.00     0.040 A 
ATOM     87  C   UNL A   1      40.189  22.783  26.635  1.00  0.00     0.040 A 
ATOM     88  F   UNL A   1      40.179  25.054  26.042  1.00  0.00    -0.206 F 
ATOM     89  C   UNL A   1      40.689  21.737  27.407  1.00  0.00     0.006 A 
ENDBRANCH  61  82
BRANCH  73  90
ATOM     90  C   UNL A   1      47.578  27.399  25.798  1.00  0.00     0.057 A 
ATOM     91  C   UNL A   1      48.649  26.824  26.494  1.00  0.00     0.134 A 
ATOM     92  C   UNL A   1      47.659  27.431  24.400  1.00  0.00     0.134 A 
ATOM     93  F   UNL A   1      48.640  26.772  27.834  1.00  0.00    -0.206 F 
ATOM     94  C   UNL A   1      49.768  26.321  25.825  1.00  0.00     0.040 A 
ATOM     95  C   UNL A   1      48.758  26.906  23.720  1.00  0.00     0.040 A 
ATOM     96  F   UNL A   1      46.663  27.958  23.672  1.00  0.00    -0.206 F 
ATOM     97  C   UNL A   1      49.819  26.354  24.433  1.00  0.00     0.006 A 
ENDBRANCH  73  90
ENDBRANCH  47  48
ENDBRANCH  40  42
ENDBRANCH  39  40
ENDBRANCH  38  39
ENDBRANCH  37  38
ENDBRANCH  36  37
ENDBRANCH  35  36
ENDBRANCH   1  35
TORSDOF 22
ENDMDL
MODEL 3
REMARK VINA RESULT:     -11.3      4.373      9.558
REMARK SMILES Nc1c(C(=O)OCC2c3ccccc3-c3ccccc32)ccc(F)c1C(=O)OCCOCCOCCOC(=O)c1ccc(-c2c3nc(c(-c4c(F)cccc4F)c4ccc([nH]4)c(-c4c(F)cccc4F)c4nc(c(-c5c(F)cccc5F)c5ccc2[nH]5)C=C4)C=C3)cc1
REMARK SMILES IDX 32 1 31 2 30 3 29 4 28 5 26 6 27 7 25 8 2 9 3 10 21 11 23 12
REMARK SMILES IDX 22 13 24 14 1 15 4 18 5 19 6 20 7 21 8 22 9 23 20 24 10 25
REMARK SMILES IDX 14 26 15 27 19 28 11 29 13 30 16 31 18 32 12 33 17 34 33 35
REMARK SMILES IDX 34 36 35 37 36 38 37 39 38 40 39 41 40 42 41 43 93 44 42 45
REMARK SMILES IDX 92 46 43 47 44 48 45 49 86 50 46 51 91 52 85 53 87 54 47 55
REMARK SMILES IDX 90 56 84 57 83 58 48 60 74 61 57 62 73 63 58 64 61 65 72 66
REMARK SMILES IDX 88 67 59 68 60 69 71 71 89 72 62 73 49 74 50 75 55 76 51 77
REMARK SMILES IDX 52 78 54 79 56 80 53 81 75 82 76 83 81 84 77 85 78 86 80 87
REMARK SMILES IDX 82 88 79 89 63 90 64 91 69 92 65 93 66 94 68 95 70 96 67 97
REMARK H PARENT 1 16 1 17 87 59 61 70
REMARK Flexibility Score: inf
ROOT
ATOM      1  C   UNL A   1      39.023  22.484  26.190  1.00  0.00     0.188 C 
ENDROOT
BRANCH   1   2
ATOM      2  O   UNL A   1      37.734  22.706  25.624  1.00  0.00    -0.376 OA
BRANCH   2   3
ATOM      3  C   UNL A   1      37.138  21.685  24.824  1.00  0.00     0.202 C 
BRANCH   3   4
ATOM      4  C   UNL A   1      35.904  20.955  25.368  1.00  0.00     0.261 C 
BRANCH   4   5
ATOM      5  O   UNL A   1      34.869  20.813  24.380  1.00  0.00    -0.460 OA
BRANCH   5   6
ATOM      6  C   UNL A   1      33.664  20.375  24.830  1.00  0.00     0.343 C 
ATOM      7  O   UNL A   1      33.430  19.298  25.347  1.00  0.00    -0.246 OA
BRANCH   6   8
ATOM      8  C   UNL A   1      32.682  21.478  24.739  1.00  0.00     0.119 A 
ATOM      9  C   UNL A   1      32.147  22.125  25.877  1.00  0.00     0.064 A 
ATOM     10  C   UNL A   1      31.241  23.191  25.661  1.00  0.00     0.084 A 
ATOM     11  C   UNL A   1      30.820  23.522  24.357  1.00  0.00     0.021 A 
ATOM     12  C   UNL A   1      32.250  21.826  23.453  1.00  0.00     0.139 A 
ATOM     13  C   UNL A   1      31.316  22.833  23.257  1.00  0.00     0.041 A 
ATOM     14  F   UNL A   1      32.678  21.150  22.378  1.00  0.00    -0.206 F 
BRANCH   9  15
ATOM     15  N   UNL A   1      32.557  21.756  27.162  1.00  0.00    -0.397 N 
ATOM     16  H   UNL A   1      32.985  22.419  27.751  1.00  0.00     0.156 HD
ATOM     17  H   UNL A   1      32.416  20.835  27.478  1.00  0.00     0.156 HD
ENDBRANCH   9  15
BRANCH  10  18
ATOM     18  C   UNL A   1      30.680  24.038  26.750  1.00  0.00     0.340 C 
ATOM     19  O   UNL A   1      29.582  23.840  27.248  1.00  0.00    -0.246 OA
BRANCH  18  20
ATOM     20  O   UNL A   1      31.493  25.101  26.979  1.00  0.00    -0.461 OA
BRANCH  20  21
ATOM     21  C   UNL A   1      31.019  26.370  26.501  1.00  0.00     0.246 C 
BRANCH  21  22
ATOM     22  C   UNL A   1      32.146  27.139  25.785  1.00  0.00     0.088 C 
ATOM     23  C   UNL A   1      33.119  26.227  25.044  1.00  0.00    -0.029 A 
ATOM     24  C   UNL A   1      31.555  27.945  24.635  1.00  0.00    -0.029 A 
ATOM     25  C   UNL A   1      34.079  25.377  25.574  1.00  0.00     0.005 A 
ATOM     26  C   UNL A   1      32.945  26.355  23.652  1.00  0.00    -0.014 A 
ATOM     27  C   UNL A   1      32.003  27.425  23.399  1.00  0.00    -0.014 A 
ATOM     28  C   UNL A   1      30.676  29.015  24.697  1.00  0.00     0.005 A 
ATOM     29  C   UNL A   1      34.795  24.560  24.699  1.00  0.00     0.000 A 
ATOM     30  C   UNL A   1      33.655  25.545  22.782  1.00  0.00     0.009 A 
ATOM     31  C   UNL A   1      31.563  27.976  22.208  1.00  0.00     0.009 A 
ATOM     32  C   UNL A   1      30.237  29.570  23.494  1.00  0.00     0.000 A 
ATOM     33  C   UNL A   1      34.570  24.629  23.315  1.00  0.00     0.001 A 
ATOM     34  C   UNL A   1      30.673  29.053  22.262  1.00  0.00     0.001 A 
ENDBRANCH  21  22
ENDBRANCH  20  21
ENDBRANCH  18  20
ENDBRANCH  10  18
ENDBRANCH   6   8
ENDBRANCH   5   6
ENDBRANCH   4   5
ENDBRANCH   3   4
ENDBRANCH   2   3
ENDBRANCH   1   2
BRANCH   1  35
ATOM     35  C   UNL A   1      39.693  21.105  26.009  1.00  0.00     0.188 C 
BRANCH  35  36
ATOM     36  O   UNL A   1      40.791  20.891  26.865  1.00  0.00    -0.376 OA
BRANCH  36  37
ATOM     37  C   UNL A   1      41.980  20.348  26.321  1.00  0.00     0.202 C 
BRANCH  37  38
ATOM     38  C   UNL A   1      43.078  21.216  25.668  1.00  0.00     0.261 C 
BRANCH  38  39
ATOM     39  O   UNL A   1      43.591  22.328  26.412  1.00  0.00    -0.460 OA
BRANCH  39  40
ATOM     40  C   UNL A   1      43.684  23.515  25.770  1.00  0.00     0.338 C 
ATOM     41  O   UNL A   1      44.055  23.707  24.626  1.00  0.00    -0.246 OA
BRANCH  40  42
ATOM     42  C   UNL A   1      43.082  24.550  26.637  1.00  0.00     0.060 A 
ATOM     43  C   UNL A   1      43.650  25.832  26.659  1.00  0.00     0.016 A 
ATOM     44  C   UNL A   1      41.969  24.256  27.427  1.00  0.00     0.016 A 
ATOM     45  C   UNL A   1      43.117  26.817  27.494  1.00  0.00     0.010 A 
ATOM     46  C   UNL A   1      41.450  25.239  28.277  1.00  0.00     0.010 A 
ATOM     47  C   UNL A   1      42.037  26.515  28.336  1.00  0.00    -0.014 A 
BRANCH  47  48
ATOM     48  C   UNL A   1      41.625  27.471  29.393  1.00  0.00     0.031 A 
ATOM     49  C   UNL A   1      42.362  27.455  30.704  1.00  0.00     0.074 A 
ATOM     50  C   UNL A   1      40.620  28.344  29.199  1.00  0.00     0.049 A 
ATOM     51  N   UNL A   1      42.138  28.141  31.795  1.00  0.00    -0.248 NA
ATOM     52  C   UNL A   1      43.508  26.535  30.796  1.00  0.00     0.031 C 
ATOM     53  C   UNL A   1      39.851  28.490  27.965  1.00  0.00     0.029 A 
ATOM     54  N   UNL A   1      40.066  29.265  30.054  1.00  0.00    -0.354 N 
ATOM     55  C   UNL A   1      43.109  27.737  32.702  1.00  0.00     0.074 A 
ATOM     56  C   UNL A   1      43.907  26.724  32.045  1.00  0.00     0.031 C 
ATOM     57  C   UNL A   1      38.908  29.432  28.149  1.00  0.00     0.029 A 
ATOM     58  C   UNL A   1      38.988  29.931  29.522  1.00  0.00     0.049 A 
ATOM     59  H   UNL A   1      40.407  29.432  30.962  1.00  0.00     0.167 HD
ATOM     60  C   UNL A   1      43.324  28.175  33.965  1.00  0.00     0.037 A 
ATOM     61  C   UNL A   1      38.147  30.819  30.089  1.00  0.00     0.037 A 
ATOM     62  C   UNL A   1      42.528  29.175  34.623  1.00  0.00     0.049 A 
ATOM     63  C   UNL A   1      38.358  31.232  31.523  1.00  0.00     0.074 A 
ATOM     64  C   UNL A   1      42.672  29.689  35.901  1.00  0.00     0.029 A 
ATOM     65  N   UNL A   1      41.432  29.809  34.058  1.00  0.00    -0.354 N 
ATOM     66  N   UNL A   1      39.293  30.860  32.365  1.00  0.00    -0.248 NA
ATOM     67  C   UNL A   1      37.394  32.189  32.088  1.00  0.00     0.031 C 
ATOM     68  C   UNL A   1      41.636  30.601  36.125  1.00  0.00     0.029 A 
ATOM     69  C   UNL A   1      40.878  30.693  34.969  1.00  0.00     0.049 A 
ATOM     70  H   UNL A   1      41.098  29.654  33.146  1.00  0.00     0.167 HD
ATOM     71  C   UNL A   1      39.049  31.561  33.541  1.00  0.00     0.074 A 
ATOM     72  C   UNL A   1      37.886  32.388  33.302  1.00  0.00     0.031 C 
ATOM     73  C   UNL A   1      39.729  31.523  34.714  1.00  0.00     0.037 A 
BRANCH  60  74
ATOM     74  C   UNL A   1      44.458  27.556  34.726  1.00  0.00     0.057 A 
ATOM     75  C   UNL A   1      45.740  28.121  34.733  1.00  0.00     0.134 A 
ATOM     76  C   UNL A   1      44.257  26.401  35.494  1.00  0.00     0.134 A 
ATOM     77  F   UNL A   1      46.002  29.218  34.007  1.00  0.00    -0.206 F 
ATOM     78  C   UNL A   1      46.784  27.552  35.462  1.00  0.00     0.040 A 
ATOM     79  C   UNL A   1      45.287  25.836  36.246  1.00  0.00     0.040 A 
ATOM     80  F   UNL A   1      43.053  25.810  35.534  1.00  0.00    -0.206 F 
ATOM     81  C   UNL A   1      46.557  26.409  36.228  1.00  0.00     0.006 A 
ENDBRANCH  60  74
BRANCH  61  82
ATOM     82  C   UNL A   1      37.005  31.370  29.313  1.00  0.00     0.057 A 
ATOM     83  C   UNL A   1      35.861  30.604  29.061  1.00  0.00     0.134 A 
ATOM     84  C   UNL A   1      37.051  32.658  28.766  1.00  0.00     0.134 A 
ATOM     85  F   UNL A   1      35.769  29.352  29.533  1.00  0.00    -0.206 F 
ATOM     86  C   UNL A   1      34.814  31.090  28.274  1.00  0.00     0.040 A 
ATOM     87  C   UNL A   1      36.000  33.166  28.001  1.00  0.00     0.040 A 
ATOM     88  F   UNL A   1      38.122  33.441  28.967  1.00  0.00    -0.206 F 
ATOM     89  C   UNL A   1      34.881  32.377  27.746  1.00  0.00     0.006 A 
ENDBRANCH  61  82
BRANCH  73  90
ATOM     90  C   UNL A   1      39.265  32.434  35.814  1.00  0.00     0.057 A 
ATOM     91  C   UNL A   1      39.745  33.742  35.947  1.00  0.00     0.134 A 
ATOM     92  C   UNL A   1      38.289  32.008  36.725  1.00  0.00     0.134 A 
ATOM     93  F   UNL A   1      40.687  34.209  35.114  1.00  0.00    -0.206 F 
ATOM     94  C   UNL A   1      39.288  34.588  36.961  1.00  0.00     0.040 A 
ATOM     95  C   UNL A   1      37.805  32.852  37.725  1.00  0.00     0.040 A 
ATOM     96  F   UNL A   1      37.779  30.769  36.648  1.00  0.00    -0.206 F 
ATOM     97  C   UNL A   1      38.309  34.145  37.848  1.00  0.00     0.006 A 
ENDBRANCH  73  90
ENDBRANCH  47  48
ENDBRANCH  40  42
ENDBRANCH  39  40
ENDBRANCH  38  39
ENDBRANCH  37  38
ENDBRANCH  36  37
ENDBRANCH  35  36
ENDBRANCH   1  35
TORSDOF 22
ENDMDL
