MODEL 1
REMARK VINA RESULT:     -11.0      0.000      0.000
REMARK SMILES CC[C@](C)(NC(=O)N1Cc2ccccc2C1)C(=O)OCCOCCOCCOC(=O)c1ccc(-c2c3nc(c(-c4c(F)cccc4F)c4ccc([nH]4)c(-c4c(F)cccc4F)c4nc(c(-c5c(F)cccc5F)c5ccc2[nH]5)C=C4)C=C3)cc1
REMARK SMILES IDX 24 1 23 2 22 3 21 4 20 5 19 6 17 7 18 8 3 9 4 10 2 11 1 12
REMARK SMILES IDX 5 13 6 14 7 16 8 17 9 18 16 19 10 20 15 21 11 22 14 23 12 24
REMARK SMILES IDX 13 25 25 26 26 27 27 28 28 29 29 30 30 31 31 32 32 33 84 34
REMARK SMILES IDX 33 35 83 36 34 37 35 38 36 39 77 40 37 41 82 42 76 43 78 44
REMARK SMILES IDX 38 45 81 46 75 47 74 48 39 50 65 51 48 52 64 53 49 54 52 55
REMARK SMILES IDX 63 56 79 57 50 58 51 59 62 61 80 62 53 63 40 64 41 65 46 66
REMARK SMILES IDX 42 67 43 68 45 69 47 70 44 71 66 72 67 73 72 74 68 75 69 76
REMARK SMILES IDX 71 77 73 78 70 79 54 80 55 81 60 82 56 83 57 84 59 85 61 86
REMARK SMILES IDX 58 87
REMARK H PARENT 5 15 78 49 52 60
REMARK Flexibility Score: inf
ROOT
ATOM      1  C   UNL A   1      41.694  19.865  26.191  1.00  0.00     0.188 C 
ENDROOT
BRANCH   1   2
ATOM      2  C   UNL A   1      41.331  20.734  27.419  1.00  0.00     0.188 C 
BRANCH   2   3
ATOM      3  O   UNL A   1      40.090  21.418  27.331  1.00  0.00    -0.376 OA
BRANCH   3   4
ATOM      4  C   UNL A   1      39.365  21.421  26.091  1.00  0.00     0.202 C 
BRANCH   4   5
ATOM      5  C   UNL A   1      38.117  22.285  25.748  1.00  0.00     0.261 C 
BRANCH   5   6
ATOM      6  O   UNL A   1      36.887  21.598  25.598  1.00  0.00    -0.462 OA
BRANCH   6   7
ATOM      7  C   UNL A   1      36.062  22.012  24.619  1.00  0.00     0.331 C 
ATOM      8  O   UNL A   1      36.441  22.440  23.535  1.00  0.00    -0.249 OA
BRANCH   7   9
ATOM      9  C   UNL A   1      34.573  21.798  25.013  1.00  0.00     0.136 C 
ATOM     10  C   UNL A   1      34.455  22.419  26.457  1.00  0.00     0.047 C 
BRANCH   9  11
ATOM     11  C   UNL A   1      34.247  20.286  25.142  1.00  0.00     0.037 C 
ATOM     12  C   UNL A   1      33.167  19.749  24.199  1.00  0.00     0.007 C 
ENDBRANCH   9  11
BRANCH   9  13
ATOM     13  N   UNL A   1      33.467  22.455  24.158  1.00  0.00    -0.322 N 
ATOM     14  C   UNL A   1      32.943  23.667  23.803  1.00  0.00     0.318 C 
ATOM     15  H   UNL A   1      32.955  21.746  23.706  1.00  0.00     0.166 HD
ATOM     16  O   UNL A   1      32.306  23.699  22.747  1.00  0.00    -0.249 OA
ATOM     17  N   UNL A   1      32.980  24.757  24.631  1.00  0.00    -0.316 N 
ATOM     18  C   UNL A   1      31.721  25.242  25.217  1.00  0.00     0.157 C 
ATOM     19  C   UNL A   1      33.710  25.967  24.237  1.00  0.00     0.157 C 
ATOM     20  C   UNL A   1      32.054  26.564  25.810  1.00  0.00    -0.023 A 
ATOM     21  C   UNL A   1      33.242  27.003  25.235  1.00  0.00    -0.023 A 
ATOM     22  C   UNL A   1      31.408  27.237  26.842  1.00  0.00     0.006 A 
ATOM     23  C   UNL A   1      33.795  28.193  25.662  1.00  0.00     0.006 A 
ATOM     24  C   UNL A   1      31.986  28.411  27.306  1.00  0.00     0.000 A 
ATOM     25  C   UNL A   1      33.165  28.890  26.711  1.00  0.00     0.000 A 
ENDBRANCH   9  13
ENDBRANCH   7   9
ENDBRANCH   6   7
ENDBRANCH   5   6
ENDBRANCH   4   5
ENDBRANCH   3   4
ENDBRANCH   2   3
ENDBRANCH   1   2
BRANCH   1  26
ATOM     26  O   UNL A   1      42.796  20.300  25.402  1.00  0.00    -0.376 OA
BRANCH  26  27
ATOM     27  C   UNL A   1      43.602  21.378  25.895  1.00  0.00     0.202 C 
BRANCH  27  28
ATOM     28  C   UNL A   1      44.119  22.371  24.825  1.00  0.00     0.261 C 
BRANCH  28  29
ATOM     29  O   UNL A   1      43.313  23.557  24.693  1.00  0.00    -0.460 OA
BRANCH  29  30
ATOM     30  C   UNL A   1      43.915  24.693  25.106  1.00  0.00     0.338 C 
ATOM     31  O   UNL A   1      44.999  25.131  24.731  1.00  0.00    -0.246 OA
BRANCH  30  32
ATOM     32  C   UNL A   1      42.920  25.518  25.812  1.00  0.00     0.060 A 
ATOM     33  C   UNL A   1      43.196  26.895  25.911  1.00  0.00     0.016 A 
ATOM     34  C   UNL A   1      41.738  24.986  26.327  1.00  0.00     0.016 A 
ATOM     35  C   UNL A   1      42.319  27.739  26.566  1.00  0.00     0.010 A 
ATOM     36  C   UNL A   1      40.905  25.816  27.081  1.00  0.00     0.010 A 
ATOM     37  C   UNL A   1      41.243  27.173  27.254  1.00  0.00    -0.014 A 
BRANCH  37  38
ATOM     38  C   UNL A   1      40.818  27.907  28.465  1.00  0.00     0.031 A 
ATOM     39  C   UNL A   1      41.679  27.730  29.689  1.00  0.00     0.074 A 
ATOM     40  C   UNL A   1      39.832  28.814  28.430  1.00  0.00     0.049 A 
ATOM     41  N   UNL A   1      41.582  28.286  30.867  1.00  0.00    -0.248 NA
ATOM     42  C   UNL A   1      42.829  26.814  29.557  1.00  0.00     0.031 C 
ATOM     43  C   UNL A   1      39.027  29.152  27.259  1.00  0.00     0.029 A 
ATOM     44  N   UNL A   1      39.363  29.637  29.418  1.00  0.00    -0.354 N 
ATOM     45  C   UNL A   1      42.643  27.777  31.608  1.00  0.00     0.074 A 
ATOM     46  C   UNL A   1      43.365  26.860  30.762  1.00  0.00     0.031 C 
ATOM     47  C   UNL A   1      38.151  30.113  27.601  1.00  0.00     0.029 A 
ATOM     48  C   UNL A   1      38.315  30.427  29.020  1.00  0.00     0.049 A 
ATOM     49  H   UNL A   1      39.741  29.661  30.327  1.00  0.00     0.167 HD
ATOM     50  C   UNL A   1      42.985  28.050  32.886  1.00  0.00     0.037 A 
ATOM     51  C   UNL A   1      37.566  31.283  29.739  1.00  0.00     0.037 A 
ATOM     52  C   UNL A   1      42.257  28.964  33.720  1.00  0.00     0.049 A 
ATOM     53  C   UNL A   1      37.899  31.489  31.195  1.00  0.00     0.074 A 
ATOM     54  C   UNL A   1      42.489  29.302  35.039  1.00  0.00     0.029 A 
ATOM     55  N   UNL A   1      41.143  29.681  33.305  1.00  0.00    -0.354 N 
ATOM     56  N   UNL A   1      38.880  30.981  31.904  1.00  0.00    -0.248 NA
ATOM     57  C   UNL A   1      37.021  32.392  31.950  1.00  0.00     0.031 C 
ATOM     58  C   UNL A   1      41.478  30.181  35.442  1.00  0.00     0.029 A 
ATOM     59  C   UNL A   1      40.661  30.445  34.353  1.00  0.00     0.049 A 
ATOM     60  H   UNL A   1      40.755  29.652  32.402  1.00  0.00     0.167 HD
ATOM     61  C   UNL A   1      38.761  31.532  33.174  1.00  0.00     0.074 A 
ATOM     62  C   UNL A   1      37.617  32.421  33.132  1.00  0.00     0.031 C 
ATOM     63  C   UNL A   1      39.527  31.330  34.276  1.00  0.00     0.037 A 
BRANCH  50  64
ATOM     64  C   UNL A   1      44.146  27.296  33.466  1.00  0.00     0.057 A 
ATOM     65  C   UNL A   1      45.470  27.743  33.346  1.00  0.00     0.134 A 
ATOM     66  C   UNL A   1      43.931  26.092  34.147  1.00  0.00     0.134 A 
ATOM     67  F   UNL A   1      45.749  28.872  32.678  1.00  0.00    -0.206 F 
ATOM     68  C   UNL A   1      46.537  27.006  33.865  1.00  0.00     0.040 A 
ATOM     69  C   UNL A   1      44.987  25.363  34.695  1.00  0.00     0.040 A 
ATOM     70  F   UNL A   1      42.690  25.601  34.287  1.00  0.00    -0.206 F 
ATOM     71  C   UNL A   1      46.296  25.817  34.549  1.00  0.00     0.006 A 
ENDBRANCH  50  64
BRANCH  51  72
ATOM     72  C   UNL A   1      36.418  31.984  29.111  1.00  0.00     0.057 A 
ATOM     73  C   UNL A   1      36.459  33.357  28.839  1.00  0.00     0.134 A 
ATOM     74  C   UNL A   1      35.236  31.302  28.797  1.00  0.00     0.134 A 
ATOM     75  F   UNL A   1      37.554  34.071  29.135  1.00  0.00    -0.206 F 
ATOM     76  C   UNL A   1      35.360  34.028  28.299  1.00  0.00     0.040 A 
ATOM     77  C   UNL A   1      34.141  31.954  28.230  1.00  0.00     0.040 A 
ATOM     78  F   UNL A   1      35.130  29.986  29.033  1.00  0.00    -0.206 F 
ATOM     79  C   UNL A   1      34.198  33.324  27.989  1.00  0.00     0.006 A 
ENDBRANCH  51  72
BRANCH  63  80
ATOM     80  C   UNL A   1      39.191  32.133  35.500  1.00  0.00     0.057 A 
ATOM     81  C   UNL A   1      39.698  33.421  35.712  1.00  0.00     0.134 A 
ATOM     82  C   UNL A   1      38.321  31.613  36.467  1.00  0.00     0.134 A 
ATOM     83  F   UNL A   1      40.543  33.974  34.828  1.00  0.00    -0.206 F 
ATOM     84  C   UNL A   1      39.383  34.146  36.862  1.00  0.00     0.040 A 
ATOM     85  C   UNL A   1      37.970  32.343  37.603  1.00  0.00     0.040 A 
ATOM     86  F   UNL A   1      37.785  30.391  36.317  1.00  0.00    -0.206 F 
ATOM     87  C   UNL A   1      38.512  33.608  37.808  1.00  0.00     0.006 A 
ENDBRANCH  63  80
ENDBRANCH  37  38
ENDBRANCH  30  32
ENDBRANCH  29  30
ENDBRANCH  28  29
ENDBRANCH  27  28
ENDBRANCH  26  27
ENDBRANCH   1  26
TORSDOF 19
ENDMDL
MODEL 2
REMARK VINA RESULT:     -10.9      0.986      3.423
REMARK SMILES CC[C@](C)(NC(=O)N1Cc2ccccc2C1)C(=O)OCCOCCOCCOC(=O)c1ccc(-c2c3nc(c(-c4c(F)cccc4F)c4ccc([nH]4)c(-c4c(F)cccc4F)c4nc(c(-c5c(F)cccc5F)c5ccc2[nH]5)C=C4)C=C3)cc1
REMARK SMILES IDX 24 1 23 2 22 3 21 4 20 5 19 6 17 7 18 8 3 9 4 10 2 11 1 12
REMARK SMILES IDX 5 13 6 14 7 16 8 17 9 18 16 19 10 20 15 21 11 22 14 23 12 24
REMARK SMILES IDX 13 25 25 26 26 27 27 28 28 29 29 30 30 31 31 32 32 33 84 34
REMARK SMILES IDX 33 35 83 36 34 37 35 38 36 39 77 40 37 41 82 42 76 43 78 44
REMARK SMILES IDX 38 45 81 46 75 47 74 48 39 50 65 51 48 52 64 53 49 54 52 55
REMARK SMILES IDX 63 56 79 57 50 58 51 59 62 61 80 62 53 63 40 64 41 65 46 66
REMARK SMILES IDX 42 67 43 68 45 69 47 70 44 71 66 72 67 73 72 74 68 75 69 76
REMARK SMILES IDX 71 77 73 78 70 79 54 80 55 81 60 82 56 83 57 84 59 85 61 86
REMARK SMILES IDX 58 87
REMARK H PARENT 5 15 78 49 52 60
REMARK Flexibility Score: inf
ROOT
ATOM      1  C   UNL A   1      40.800  20.984  26.413  1.00  0.00     0.188 C 
ENDROOT
BRANCH   1   2
ATOM      2  C   UNL A   1      39.507  21.814  26.227  1.00  0.00     0.188 C 
BRANCH   2   3
ATOM      3  O   UNL A   1      38.491  21.187  25.458  1.00  0.00    -0.376 OA
BRANCH   3   4
ATOM      4  C   UNL A   1      37.261  21.882  25.202  1.00  0.00     0.202 C 
BRANCH   4   5
ATOM      5  C   UNL A   1      36.993  22.903  24.058  1.00  0.00     0.261 C 
BRANCH   5   6
ATOM      6  O   UNL A   1      36.005  23.889  24.302  1.00  0.00    -0.462 OA
BRANCH   6   7
ATOM      7  C   UNL A   1      34.912  23.879  23.518  1.00  0.00     0.331 C 
ATOM      8  O   UNL A   1      34.839  23.284  22.448  1.00  0.00    -0.249 OA
BRANCH   7   9
ATOM      9  C   UNL A   1      33.735  24.646  24.186  1.00  0.00     0.136 C 
ATOM     10  C   UNL A   1      33.024  25.390  22.993  1.00  0.00     0.047 C 
BRANCH   9  11
ATOM     11  C   UNL A   1      34.266  25.740  25.151  1.00  0.00     0.037 C 
ATOM     12  C   UNL A   1      33.243  26.329  26.126  1.00  0.00     0.007 C 
ENDBRANCH   9  11
BRANCH   9  13
ATOM     13  N   UNL A   1      32.640  23.846  24.925  1.00  0.00    -0.322 N 
ATOM     14  C   UNL A   1      32.337  22.599  25.399  1.00  0.00     0.318 C 
ATOM     15  H   UNL A   1      31.890  24.451  25.128  1.00  0.00     0.166 HD
ATOM     16  O   UNL A   1      31.496  22.547  26.300  1.00  0.00    -0.249 OA
ATOM     17  N   UNL A   1      32.810  21.454  24.817  1.00  0.00    -0.316 N 
ATOM     18  C   UNL A   1      31.865  20.580  24.105  1.00  0.00     0.157 C 
ATOM     19  C   UNL A   1      33.683  20.545  25.565  1.00  0.00     0.157 C 
ATOM     20  C   UNL A   1      32.617  19.323  23.850  1.00  0.00    -0.023 A 
ATOM     21  C   UNL A   1      33.707  19.295  24.713  1.00  0.00    -0.023 A 
ATOM     22  C   UNL A   1      32.397  18.369  22.862  1.00  0.00     0.006 A 
ATOM     23  C   UNL A   1      34.599  18.245  24.634  1.00  0.00     0.006 A 
ATOM     24  C   UNL A   1      33.318  17.336  22.749  1.00  0.00     0.000 A 
ATOM     25  C   UNL A   1      34.404  17.269  23.638  1.00  0.00     0.000 A 
ENDBRANCH   9  13
ENDBRANCH   7   9
ENDBRANCH   6   7
ENDBRANCH   5   6
ENDBRANCH   4   5
ENDBRANCH   3   4
ENDBRANCH   2   3
ENDBRANCH   1   2
BRANCH   1  26
ATOM     26  O   UNL A   1      42.015  21.714  26.539  1.00  0.00    -0.376 OA
BRANCH  26  27
ATOM     27  C   UNL A   1      43.149  21.283  25.775  1.00  0.00     0.202 C 
BRANCH  27  28
ATOM     28  C   UNL A   1      43.921  22.402  25.032  1.00  0.00     0.261 C 
BRANCH  28  29
ATOM     29  O   UNL A   1      43.129  23.572  24.756  1.00  0.00    -0.460 OA
BRANCH  29  30
ATOM     30  C   UNL A   1      43.723  24.741  25.078  1.00  0.00     0.338 C 
ATOM     31  O   UNL A   1      44.779  25.179  24.629  1.00  0.00    -0.246 OA
BRANCH  30  32
ATOM     32  C   UNL A   1      42.743  25.584  25.783  1.00  0.00     0.060 A 
ATOM     33  C   UNL A   1      43.059  26.950  25.909  1.00  0.00     0.016 A 
ATOM     34  C   UNL A   1      41.538  25.081  26.272  1.00  0.00     0.016 A 
ATOM     35  C   UNL A   1      42.199  27.810  26.565  1.00  0.00     0.010 A 
ATOM     36  C   UNL A   1      40.720  25.924  27.026  1.00  0.00     0.010 A 
ATOM     37  C   UNL A   1      41.096  27.267  27.227  1.00  0.00    -0.014 A 
BRANCH  37  38
ATOM     38  C   UNL A   1      40.675  27.993  28.444  1.00  0.00     0.031 A 
ATOM     39  C   UNL A   1      41.532  27.797  29.668  1.00  0.00     0.074 A 
ATOM     40  C   UNL A   1      39.698  28.910  28.415  1.00  0.00     0.049 A 
ATOM     41  N   UNL A   1      41.437  28.343  30.851  1.00  0.00    -0.248 NA
ATOM     42  C   UNL A   1      42.673  26.871  29.531  1.00  0.00     0.031 C 
ATOM     43  C   UNL A   1      38.899  29.267  27.245  1.00  0.00     0.029 A 
ATOM     44  N   UNL A   1      39.234  29.729  29.410  1.00  0.00    -0.354 N 
ATOM     45  C   UNL A   1      42.491  27.817  31.590  1.00  0.00     0.074 A 
ATOM     46  C   UNL A   1      43.207  26.902  30.737  1.00  0.00     0.031 C 
ATOM     47  C   UNL A   1      38.030  30.232  27.594  1.00  0.00     0.029 A 
ATOM     48  C   UNL A   1      38.195  30.531  29.016  1.00  0.00     0.049 A 
ATOM     49  H   UNL A   1      39.610  29.740  30.320  1.00  0.00     0.167 HD
ATOM     50  C   UNL A   1      42.833  28.076  32.871  1.00  0.00     0.037 A 
ATOM     51  C   UNL A   1      37.452  31.388  29.742  1.00  0.00     0.037 A 
ATOM     52  C   UNL A   1      42.111  28.988  33.712  1.00  0.00     0.049 A 
ATOM     53  C   UNL A   1      37.784  31.577  31.201  1.00  0.00     0.074 A 
ATOM     54  C   UNL A   1      42.343  29.312  35.034  1.00  0.00     0.029 A 
ATOM     55  N   UNL A   1      41.005  29.720  33.301  1.00  0.00    -0.354 N 
ATOM     56  N   UNL A   1      38.758  31.054  31.907  1.00  0.00    -0.248 NA
ATOM     57  C   UNL A   1      36.912  32.482  31.961  1.00  0.00     0.031 C 
ATOM     58  C   UNL A   1      41.340  30.197  35.443  1.00  0.00     0.029 A 
ATOM     59  C   UNL A   1      40.528  30.478  34.355  1.00  0.00     0.049 A 
ATOM     60  H   UNL A   1      40.619  29.703  32.396  1.00  0.00     0.167 HD
ATOM     61  C   UNL A   1      38.641  31.594  33.182  1.00  0.00     0.074 A 
ATOM     62  C   UNL A   1      37.506  32.494  33.145  1.00  0.00     0.031 C 
ATOM     63  C   UNL A   1      39.403  31.375  34.283  1.00  0.00     0.037 A 
BRANCH  50  64
ATOM     64  C   UNL A   1      43.985  27.305  33.447  1.00  0.00     0.057 A 
ATOM     65  C   UNL A   1      43.811  26.117  34.171  1.00  0.00     0.134 A 
ATOM     66  C   UNL A   1      45.294  27.772  33.280  1.00  0.00     0.134 A 
ATOM     67  F   UNL A   1      42.581  25.631  34.395  1.00  0.00    -0.206 F 
ATOM     68  C   UNL A   1      44.897  25.435  34.725  1.00  0.00     0.040 A 
ATOM     69  C   UNL A   1      46.389  27.084  33.804  1.00  0.00     0.040 A 
ATOM     70  F   UNL A   1      45.531  28.909  32.608  1.00  0.00    -0.206 F 
ATOM     71  C   UNL A   1      46.191  25.915  34.535  1.00  0.00     0.006 A 
ENDBRANCH  50  64
BRANCH  51  72
ATOM     72  C   UNL A   1      36.312  32.106  29.117  1.00  0.00     0.057 A 
ATOM     73  C   UNL A   1      36.364  33.481  28.863  1.00  0.00     0.134 A 
ATOM     74  C   UNL A   1      35.127  31.436  28.789  1.00  0.00     0.134 A 
ATOM     75  F   UNL A   1      37.463  34.184  29.175  1.00  0.00    -0.206 F 
ATOM     76  C   UNL A   1      35.273  34.168  28.327  1.00  0.00     0.040 A 
ATOM     77  C   UNL A   1      34.039  32.104  28.226  1.00  0.00     0.040 A 
ATOM     78  F   UNL A   1      35.010  30.118  29.008  1.00  0.00    -0.206 F 
ATOM     79  C   UNL A   1      34.107  33.477  28.003  1.00  0.00     0.006 A 
ENDBRANCH  51  72
BRANCH  63  80
ATOM     80  C   UNL A   1      39.071  32.169  35.514  1.00  0.00     0.057 A 
ATOM     81  C   UNL A   1      38.292  31.646  36.554  1.00  0.00     0.134 A 
ATOM     82  C   UNL A   1      39.569  33.470  35.670  1.00  0.00     0.134 A 
ATOM     83  F   UNL A   1      37.779  30.410  36.465  1.00  0.00    -0.206 F 
ATOM     84  C   UNL A   1      37.985  32.405  37.685  1.00  0.00     0.040 A 
ATOM     85  C   UNL A   1      39.299  34.224  36.812  1.00  0.00     0.040 A 
ATOM     86  F   UNL A   1      40.337  34.025  34.719  1.00  0.00    -0.206 F 
ATOM     87  C   UNL A   1      38.495  33.695  37.817  1.00  0.00     0.006 A 
ENDBRANCH  63  80
ENDBRANCH  37  38
ENDBRANCH  30  32
ENDBRANCH  29  30
ENDBRANCH  28  29
ENDBRANCH  27  28
ENDBRANCH  26  27
ENDBRANCH   1  26
TORSDOF 19
ENDMDL
MODEL 3
REMARK VINA RESULT:     -10.8      0.916      6.102
REMARK SMILES CC[C@](C)(NC(=O)N1Cc2ccccc2C1)C(=O)OCCOCCOCCOC(=O)c1ccc(-c2c3nc(c(-c4c(F)cccc4F)c4ccc([nH]4)c(-c4c(F)cccc4F)c4nc(c(-c5c(F)cccc5F)c5ccc2[nH]5)C=C4)C=C3)cc1
REMARK SMILES IDX 24 1 23 2 22 3 21 4 20 5 19 6 17 7 18 8 3 9 4 10 2 11 1 12
REMARK SMILES IDX 5 13 6 14 7 16 8 17 9 18 16 19 10 20 15 21 11 22 14 23 12 24
REMARK SMILES IDX 13 25 25 26 26 27 27 28 28 29 29 30 30 31 31 32 32 33 84 34
REMARK SMILES IDX 33 35 83 36 34 37 35 38 36 39 77 40 37 41 82 42 76 43 78 44
REMARK SMILES IDX 38 45 81 46 75 47 74 48 39 50 65 51 48 52 64 53 49 54 52 55
REMARK SMILES IDX 63 56 79 57 50 58 51 59 62 61 80 62 53 63 40 64 41 65 46 66
REMARK SMILES IDX 42 67 43 68 45 69 47 70 44 71 66 72 67 73 72 74 68 75 69 76
REMARK SMILES IDX 71 77 73 78 70 79 54 80 55 81 60 82 56 83 57 84 59 85 61 86
REMARK SMILES IDX 58 87
REMARK H PARENT 5 15 78 49 52 60
REMARK Flexibility Score: inf
ROOT
ATOM      1  C   UNL A   1      40.897  21.605  27.426  1.00  0.00     0.188 C 
ENDROOT
BRANCH   1   2
ATOM      2  C   UNL A   1      40.073  21.780  26.128  1.00  0.00     0.188 C 
BRANCH   2   3
ATOM      3  O   UNL A   1      38.664  21.770  26.300  1.00  0.00    -0.376 OA
BRANCH   3   4
ATOM      4  C   UNL A   1      37.806  21.860  25.151  1.00  0.00     0.202 C 
BRANCH   4   5
ATOM      5  C   UNL A   1      36.273  22.132  25.157  1.00  0.00     0.261 C 
BRANCH   5   6
ATOM      6  O   UNL A   1      35.428  21.016  25.376  1.00  0.00    -0.462 OA
BRANCH   6   7
ATOM      7  C   UNL A   1      34.203  21.255  25.876  1.00  0.00     0.331 C 
ATOM      8  O   UNL A   1      33.980  21.516  27.054  1.00  0.00    -0.249 OA
BRANCH   7   9
ATOM      9  C   UNL A   1      33.126  21.240  24.754  1.00  0.00     0.136 C 
ATOM     10  C   UNL A   1      31.780  21.587  25.497  1.00  0.00     0.047 C 
BRANCH   9  11
ATOM     11  C   UNL A   1      32.964  19.814  24.164  1.00  0.00     0.037 C 
ATOM     12  C   UNL A   1      32.809  18.679  25.180  1.00  0.00     0.007 C 
ENDBRANCH   9  11
BRANCH   9  13
ATOM     13  N   UNL A   1      33.252  22.234  23.579  1.00  0.00    -0.322 N 
ATOM     14  C   UNL A   1      33.509  23.545  23.286  1.00  0.00     0.318 C 
ATOM     15  H   UNL A   1      33.088  21.749  22.737  1.00  0.00     0.166 HD
ATOM     16  O   UNL A   1      33.909  23.781  22.143  1.00  0.00    -0.249 OA
ATOM     17  N   UNL A   1      33.200  24.566  24.144  1.00  0.00    -0.316 N 
ATOM     18  C   UNL A   1      32.115  25.490  23.781  1.00  0.00     0.157 C 
ATOM     19  C   UNL A   1      34.257  25.416  24.700  1.00  0.00     0.157 C 
ATOM     20  C   UNL A   1      32.223  26.614  24.748  1.00  0.00    -0.023 A 
ATOM     21  C   UNL A   1      33.498  26.576  25.306  1.00  0.00    -0.023 A 
ATOM     22  C   UNL A   1      31.234  27.501  25.159  1.00  0.00     0.006 A 
ATOM     23  C   UNL A   1      33.831  27.492  26.282  1.00  0.00     0.006 A 
ATOM     24  C   UNL A   1      31.552  28.394  26.174  1.00  0.00     0.000 A 
ATOM     25  C   UNL A   1      32.845  28.396  26.722  1.00  0.00     0.000 A 
ENDBRANCH   9  13
ENDBRANCH   7   9
ENDBRANCH   6   7
ENDBRANCH   5   6
ENDBRANCH   4   5
ENDBRANCH   3   4
ENDBRANCH   2   3
ENDBRANCH   1   2
BRANCH   1  26
ATOM     26  O   UNL A   1      42.312  21.545  27.284  1.00  0.00    -0.376 OA
BRANCH  26  27
ATOM     27  C   UNL A   1      42.853  21.243  25.991  1.00  0.00     0.202 C 
BRANCH  27  28
ATOM     28  C   UNL A   1      43.768  22.331  25.377  1.00  0.00     0.261 C 
BRANCH  28  29
ATOM     29  O   UNL A   1      43.080  23.548  25.036  1.00  0.00    -0.460 OA
BRANCH  29  30
ATOM     30  C   UNL A   1      43.786  24.675  25.265  1.00  0.00     0.338 C 
ATOM     31  O   UNL A   1      44.814  25.029  24.696  1.00  0.00    -0.246 OA
BRANCH  30  32
ATOM     32  C   UNL A   1      42.949  25.598  26.052  1.00  0.00     0.060 A 
ATOM     33  C   UNL A   1      43.416  26.920  26.181  1.00  0.00     0.016 A 
ATOM     34  C   UNL A   1      41.732  25.211  26.612  1.00  0.00     0.016 A 
ATOM     35  C   UNL A   1      42.696  27.848  26.911  1.00  0.00     0.010 A 
ATOM     36  C   UNL A   1      41.059  26.115  27.437  1.00  0.00     0.010 A 
ATOM     37  C   UNL A   1      41.588  27.406  27.636  1.00  0.00    -0.014 A 
BRANCH  37  38
ATOM     38  C   UNL A   1      41.328  28.140  28.892  1.00  0.00     0.031 A 
ATOM     39  C   UNL A   1      40.105  29.021  28.909  1.00  0.00     0.074 A 
ATOM     40  C   UNL A   1      42.032  27.903  30.007  1.00  0.00     0.049 A 
ATOM     41  N   UNL A   1      39.602  29.736  29.880  1.00  0.00    -0.248 NA
ATOM     42  C   UNL A   1      39.324  29.085  27.658  1.00  0.00     0.031 C 
ATOM     43  C   UNL A   1      43.150  26.970  30.126  1.00  0.00     0.029 A 
ATOM     44  N   UNL A   1      41.882  28.420  31.266  1.00  0.00    -0.354 N 
ATOM     45  C   UNL A   1      38.465  30.337  29.351  1.00  0.00     0.074 A 
ATOM     46  C   UNL A   1      38.351  29.919  27.975  1.00  0.00     0.031 C 
ATOM     47  C   UNL A   1      43.594  26.988  31.395  1.00  0.00     0.029 A 
ATOM     48  C   UNL A   1      42.812  27.958  32.161  1.00  0.00     0.049 A 
ATOM     49  H   UNL A   1      41.174  29.062  31.506  1.00  0.00     0.167 HD
ATOM     50  C   UNL A   1      37.589  31.165  29.960  1.00  0.00     0.037 A 
ATOM     51  C   UNL A   1      43.012  28.308  33.445  1.00  0.00     0.037 A 
ATOM     52  C   UNL A   1      37.713  31.575  31.330  1.00  0.00     0.049 A 
ATOM     53  C   UNL A   1      42.087  29.320  34.072  1.00  0.00     0.074 A 
ATOM     54  C   UNL A   1      36.906  32.433  32.052  1.00  0.00     0.029 A 
ATOM     55  N   UNL A   1      38.723  31.153  32.183  1.00  0.00    -0.354 N 
ATOM     56  N   UNL A   1      41.034  29.913  33.562  1.00  0.00    -0.248 NA
ATOM     57  C   UNL A   1      42.379  29.708  35.458  1.00  0.00     0.031 C 
ATOM     58  C   UNL A   1      37.462  32.577  33.327  1.00  0.00     0.029 A 
ATOM     59  C   UNL A   1      38.574  31.753  33.420  1.00  0.00     0.049 A 
ATOM     60  H   UNL A   1      39.439  30.520  31.945  1.00  0.00     0.167 HD
ATOM     61  C   UNL A   1      40.515  30.712  34.573  1.00  0.00     0.074 A 
ATOM     62  C   UNL A   1      41.366  30.517  35.730  1.00  0.00     0.031 C 
ATOM     63  C   UNL A   1      39.431  31.528  34.556  1.00  0.00     0.037 A 
BRANCH  50  64
ATOM     64  C   UNL A   1      36.478  31.731  29.124  1.00  0.00     0.057 A 
ATOM     65  C   UNL A   1      36.465  33.064  28.691  1.00  0.00     0.134 A 
ATOM     66  C   UNL A   1      35.395  30.923  28.758  1.00  0.00     0.134 A 
ATOM     67  F   UNL A   1      37.456  33.901  29.033  1.00  0.00    -0.206 F 
ATOM     68  C   UNL A   1      35.403  33.576  27.942  1.00  0.00     0.040 A 
ATOM     69  C   UNL A   1      34.343  31.416  27.985  1.00  0.00     0.040 A 
ATOM     70  F   UNL A   1      35.339  29.641  29.150  1.00  0.00    -0.206 F 
ATOM     71  C   UNL A   1      34.343  32.749  27.580  1.00  0.00     0.006 A 
ENDBRANCH  50  64
BRANCH  51  72
ATOM     72  C   UNL A   1      44.142  27.726  34.212  1.00  0.00     0.057 A 
ATOM     73  C   UNL A   1      45.408  28.322  34.216  1.00  0.00     0.134 A 
ATOM     74  C   UNL A   1      43.990  26.536  34.936  1.00  0.00     0.134 A 
ATOM     75  F   UNL A   1      45.625  29.450  33.525  1.00  0.00    -0.206 F 
ATOM     76  C   UNL A   1      46.486  27.746  34.891  1.00  0.00     0.040 A 
ATOM     77  C   UNL A   1      45.051  25.965  35.640  1.00  0.00     0.040 A 
ATOM     78  F   UNL A   1      42.803  25.913  34.974  1.00  0.00    -0.206 F 
ATOM     79  C   UNL A   1      46.307  26.565  35.609  1.00  0.00     0.006 A 
ENDBRANCH  51  72
BRANCH  63  80
ATOM     80  C   UNL A   1      39.072  32.217  35.841  1.00  0.00     0.057 A 
ATOM     81  C   UNL A   1      39.471  33.530  36.123  1.00  0.00     0.134 A 
ATOM     82  C   UNL A   1      38.287  31.560  36.798  1.00  0.00     0.134 A 
ATOM     83  F   UNL A   1      40.230  34.212  35.252  1.00  0.00    -0.206 F 
ATOM     84  C   UNL A   1      39.137  34.149  37.328  1.00  0.00     0.040 A 
ATOM     85  C   UNL A   1      37.916  32.182  37.990  1.00  0.00     0.040 A 
ATOM     86  F   UNL A   1      37.856  30.308  36.584  1.00  0.00    -0.206 F 
ATOM     87  C   UNL A   1      38.352  33.475  38.263  1.00  0.00     0.006 A 
ENDBRANCH  63  80
ENDBRANCH  37  38
ENDBRANCH  30  32
ENDBRANCH  29  30
ENDBRANCH  28  29
ENDBRANCH  27  28
ENDBRANCH  26  27
ENDBRANCH   1  26
TORSDOF 19
ENDMDL
