MODEL 1
REMARK VINA RESULT:     -11.6      0.000      0.000
REMARK SMILES O=C(OCCOCCOCCOC(=O)c1ccc(-c2c3nc(c(-c4c(F)cccc4F)c4ccc([nH]4)c(-c4c(F)cccc4F)c4nc(c(-c5c(F)cccc5F)c5ccc2[nH]5)C=C4)C=C3)cc1)C1=Cc2cc(S(F)(F)(F)(F)F)cc(Br)c2O[C@H]1C(F)(F)F
REMARK SMILES IDX 8 1 7 2 6 3 5 4 4 5 3 6 2 7 1 8 69 9 70 10 85 11 71 12 84 13
REMARK SMILES IDX 72 14 83 15 73 16 81 17 80 18 82 19 86 20 87 21 88 22 89 23
REMARK SMILES IDX 74 24 75 25 76 26 77 27 78 28 79 29 9 30 10 31 11 32 12 33
REMARK SMILES IDX 13 34 14 35 15 36 16 37 68 38 17 39 67 40 18 41 19 42 20 43
REMARK SMILES IDX 61 44 21 45 66 46 60 47 62 48 22 49 65 50 59 51 58 52 23 54
REMARK SMILES IDX 49 55 32 56 48 57 33 58 36 59 47 60 63 61 34 62 35 63 46 65
REMARK SMILES IDX 64 66 37 67 24 68 25 69 30 70 26 71 27 72 29 73 31 74 28 75
REMARK SMILES IDX 50 76 51 77 56 78 52 79 53 80 55 81 57 82 54 83 38 84 39 85
REMARK SMILES IDX 44 86 40 87 41 88 43 89 45 90 42 91
REMARK H PARENT 62 53 36 64
REMARK Flexibility Score: inf
ROOT
ATOM      1  C   UNL A   1      37.155  21.791  25.362  1.00  0.00     0.188 C 
ENDROOT
BRANCH   1   2
ATOM      2  C   UNL A   1      35.859  21.464  26.088  1.00  0.00     0.188 C 
BRANCH   2   3
ATOM      3  O   UNL A   1      35.231  22.669  26.502  1.00  0.00    -0.376 OA
BRANCH   3   4
ATOM      4  C   UNL A   1      34.264  22.379  27.500  1.00  0.00     0.202 C 
BRANCH   4   5
ATOM      5  C   UNL A   1      32.912  22.923  27.069  1.00  0.00     0.261 C 
BRANCH   5   6
ATOM      6  O   UNL A   1      32.999  23.405  25.736  1.00  0.00    -0.460 OA
BRANCH   6   7
ATOM      7  C   UNL A   1      31.822  23.553  24.956  1.00  0.00     0.338 C 
ATOM      8  O   UNL A   1      30.697  23.707  25.527  1.00  0.00    -0.246 OA
BRANCH   7   9
ATOM      9  C   UNL A   1      31.907  23.528  23.438  1.00  0.00     0.087 C 
ATOM     10  C   UNL A   1      31.710  24.670  22.727  1.00  0.00     0.027 C 
ATOM     11  C   UNL A   1      32.213  22.226  22.715  1.00  0.00     0.316 C 
ATOM     12  C   UNL A   1      31.405  25.972  23.450  1.00  0.00     0.020 A 
ATOM     13  O   UNL A   1      32.999  25.417  25.123  1.00  0.00    -0.474 OA
ATOM     14  C   UNL A   1      30.406  26.780  22.932  1.00  0.00     0.036 A 
ATOM     15  C   UNL A   1      32.096  26.336  24.524  1.00  0.00     0.142 A 
ATOM     16  C   UNL A   1      30.407  28.097  23.451  1.00  0.00     0.109 A 
ATOM     17  C   UNL A   1      31.947  27.592  25.061  1.00  0.00     0.062 A 
ATOM     18  C   UNL A   1      31.020  28.464  24.561  1.00  0.00     0.044 A 
ATOM     19  Br  UNL A   1      33.079  28.140  26.563  1.00  0.00    -0.047 Br
BRANCH  11  20
ATOM     20  C   UNL A   1      32.388  21.110  23.734  1.00  0.00     0.430 C 
ATOM     21  F   UNL A   1      32.247  19.998  23.019  1.00  0.00    -0.167 F 
ATOM     22  F   UNL A   1      33.578  21.108  24.328  1.00  0.00    -0.167 F 
ATOM     23  F   UNL A   1      31.432  21.168  24.656  1.00  0.00    -0.167 F 
ENDBRANCH  11  20
BRANCH  16  24
ATOM     24  S   UNL A   1      29.503  29.365  22.529  1.00  0.00     0.310 S 
ATOM     25  F   UNL A   1      29.768  30.454  23.652  1.00  0.00    -0.094 F 
ATOM     26  F   UNL A   1      28.199  28.968  23.318  1.00  0.00    -0.094 F 
ATOM     27  F   UNL A   1      28.726  30.457  21.740  1.00  0.00    -0.094 F 
ATOM     28  F   UNL A   1      30.847  29.843  21.852  1.00  0.00    -0.094 F 
ATOM     29  F   UNL A   1      30.326  28.339  23.404  1.00  0.00    -0.094 F 
ENDBRANCH  16  24
ENDBRANCH   7   9
ENDBRANCH   6   7
ENDBRANCH   5   6
ENDBRANCH   4   5
ENDBRANCH   3   4
ENDBRANCH   2   3
ENDBRANCH   1   2
BRANCH   1  30
ATOM     30  O   UNL A   1      37.386  20.822  24.349  1.00  0.00    -0.376 OA
BRANCH  30  31
ATOM     31  C   UNL A   1      38.016  19.684  24.918  1.00  0.00     0.202 C 
BRANCH  31  32
ATOM     32  C   UNL A   1      39.226  20.126  25.725  1.00  0.00     0.261 C 
BRANCH  32  33
ATOM     33  O   UNL A   1      40.223  19.117  25.673  1.00  0.00    -0.460 OA
BRANCH  33  34
ATOM     34  C   UNL A   1      41.577  19.443  25.951  1.00  0.00     0.338 C 
ATOM     35  O   UNL A   1      42.489  18.574  25.779  1.00  0.00    -0.246 OA
BRANCH  34  36
ATOM     36  C   UNL A   1      41.937  20.831  26.454  1.00  0.00     0.060 A 
ATOM     37  C   UNL A   1      41.846  21.032  27.821  1.00  0.00     0.016 A 
ATOM     38  C   UNL A   1      42.348  21.799  25.642  1.00  0.00     0.016 A 
ATOM     39  C   UNL A   1      41.937  22.389  28.210  1.00  0.00     0.010 A 
ATOM     40  C   UNL A   1      42.549  23.073  26.117  1.00  0.00     0.010 A 
ATOM     41  C   UNL A   1      42.418  23.356  27.448  1.00  0.00    -0.014 A 
BRANCH  41  42
ATOM     42  C   UNL A   1      42.805  24.709  28.021  1.00  0.00     0.031 A 
ATOM     43  C   UNL A   1      44.126  24.969  28.387  1.00  0.00     0.074 A 
ATOM     44  C   UNL A   1      41.765  25.610  28.182  1.00  0.00     0.049 A 
ATOM     45  N   UNL A   1      44.621  26.094  28.903  1.00  0.00    -0.248 NA
ATOM     46  C   UNL A   1      45.224  24.001  28.249  1.00  0.00     0.031 C 
ATOM     47  C   UNL A   1      40.431  25.358  27.808  1.00  0.00     0.029 A 
ATOM     48  N   UNL A   1      41.822  26.878  28.716  1.00  0.00    -0.354 N 
ATOM     49  C   UNL A   1      45.936  25.972  29.103  1.00  0.00     0.074 A 
ATOM     50  C   UNL A   1      46.341  24.621  28.691  1.00  0.00     0.031 C 
ATOM     51  C   UNL A   1      39.692  26.453  28.123  1.00  0.00     0.029 A 
ATOM     52  C   UNL A   1      40.551  27.409  28.698  1.00  0.00     0.049 A 
ATOM     53  H   UNL A   1      42.630  27.327  29.053  1.00  0.00     0.167 HD
ATOM     54  C   UNL A   1      46.810  26.933  29.611  1.00  0.00     0.037 A 
ATOM     55  C   UNL A   1      40.144  28.653  29.154  1.00  0.00     0.037 A 
ATOM     56  C   UNL A   1      46.411  28.193  30.026  1.00  0.00     0.049 A 
ATOM     57  C   UNL A   1      41.010  29.593  29.717  1.00  0.00     0.074 A 
ATOM     58  C   UNL A   1      47.282  29.177  30.534  1.00  0.00     0.029 A 
ATOM     59  N   UNL A   1      45.136  28.715  30.031  1.00  0.00    -0.354 N 
ATOM     60  N   UNL A   1      42.330  29.485  29.879  1.00  0.00    -0.248 NA
ATOM     61  C   UNL A   1      40.586  30.901  30.232  1.00  0.00     0.031 C 
ATOM     62  C   UNL A   1      46.541  30.273  30.848  1.00  0.00     0.029 A 
ATOM     63  C   UNL A   1      45.195  29.992  30.544  1.00  0.00     0.049 A 
ATOM     64  H   UNL A   1      44.323  28.255  29.721  1.00  0.00     0.167 HD
ATOM     65  C   UNL A   1      42.817  30.596  30.435  1.00  0.00     0.074 A 
ATOM     66  C   UNL A   1      41.701  31.520  30.676  1.00  0.00     0.031 C 
ATOM     67  C   UNL A   1      44.148  30.878  30.745  1.00  0.00     0.037 A 
BRANCH  54  68
ATOM     68  C   UNL A   1      48.285  26.578  29.713  1.00  0.00     0.057 A 
ATOM     69  C   UNL A   1      49.166  26.945  28.710  1.00  0.00     0.134 A 
ATOM     70  C   UNL A   1      48.712  25.989  30.823  1.00  0.00     0.134 A 
ATOM     71  F   UNL A   1      48.829  27.754  27.709  1.00  0.00    -0.206 F 
ATOM     72  C   UNL A   1      50.458  26.384  28.846  1.00  0.00     0.040 A 
ATOM     73  C   UNL A   1      50.021  25.587  30.942  1.00  0.00     0.040 A 
ATOM     74  F   UNL A   1      47.866  25.785  31.829  1.00  0.00    -0.206 F 
ATOM     75  C   UNL A   1      50.934  25.865  29.963  1.00  0.00     0.006 A 
ENDBRANCH  54  68
BRANCH  55  76
ATOM     76  C   UNL A   1      38.672  29.014  29.035  1.00  0.00     0.057 A 
ATOM     77  C   UNL A   1      38.203  29.617  27.881  1.00  0.00     0.134 A 
ATOM     78  C   UNL A   1      37.880  28.825  30.084  1.00  0.00     0.134 A 
ATOM     79  F   UNL A   1      38.872  29.601  26.731  1.00  0.00    -0.206 F 
ATOM     80  C   UNL A   1      36.947  30.251  28.035  1.00  0.00     0.040 A 
ATOM     81  C   UNL A   1      36.614  29.358  30.111  1.00  0.00     0.040 A 
ATOM     82  F   UNL A   1      38.317  28.110  31.118  1.00  0.00    -0.206 F 
ATOM     83  C   UNL A   1      36.107  30.018  29.026  1.00  0.00     0.006 A 
ENDBRANCH  55  76
BRANCH  67  84
ATOM     84  C   UNL A   1      44.470  32.239  31.341  1.00  0.00     0.057 A 
ATOM     85  C   UNL A   1      44.757  33.275  30.468  1.00  0.00     0.134 A 
ATOM     86  C   UNL A   1      44.466  32.427  32.656  1.00  0.00     0.134 A 
ATOM     87  F   UNL A   1      44.528  33.204  29.159  1.00  0.00    -0.206 F 
ATOM     88  C   UNL A   1      45.315  34.415  31.093  1.00  0.00     0.040 A 
ATOM     89  C   UNL A   1      44.898  33.615  33.194  1.00  0.00     0.040 A 
ATOM     90  F   UNL A   1      44.042  31.456  33.459  1.00  0.00    -0.206 F 
ATOM     91  C   UNL A   1      45.254  34.663  32.389  1.00  0.00     0.006 A 
ENDBRANCH  67  84
ENDBRANCH  41  42
ENDBRANCH  34  36
ENDBRANCH  33  34
ENDBRANCH  32  33
ENDBRANCH  31  32
ENDBRANCH  30  31
ENDBRANCH   1  30
TORSDOF 19
ENDMDL
MODEL 2
REMARK VINA RESULT:     -11.5      0.254      5.833
REMARK SMILES O=C(OCCOCCOCCOC(=O)c1ccc(-c2c3nc(c(-c4c(F)cccc4F)c4ccc([nH]4)c(-c4c(F)cccc4F)c4nc(c(-c5c(F)cccc5F)c5ccc2[nH]5)C=C4)C=C3)cc1)C1=Cc2cc(S(F)(F)(F)(F)F)cc(Br)c2O[C@H]1C(F)(F)F
REMARK SMILES IDX 8 1 7 2 6 3 5 4 4 5 3 6 2 7 1 8 69 9 70 10 85 11 71 12 84 13
REMARK SMILES IDX 72 14 83 15 73 16 81 17 80 18 82 19 86 20 87 21 88 22 89 23
REMARK SMILES IDX 74 24 75 25 76 26 77 27 78 28 79 29 9 30 10 31 11 32 12 33
REMARK SMILES IDX 13 34 14 35 15 36 16 37 68 38 17 39 67 40 18 41 19 42 20 43
REMARK SMILES IDX 61 44 21 45 66 46 60 47 62 48 22 49 65 50 59 51 58 52 23 54
REMARK SMILES IDX 49 55 32 56 48 57 33 58 36 59 47 60 63 61 34 62 35 63 46 65
REMARK SMILES IDX 64 66 37 67 24 68 25 69 30 70 26 71 27 72 29 73 31 74 28 75
REMARK SMILES IDX 50 76 51 77 56 78 52 79 53 80 55 81 57 82 54 83 38 84 39 85
REMARK SMILES IDX 44 86 40 87 41 88 43 89 45 90 42 91
REMARK H PARENT 62 53 36 64
REMARK Flexibility Score: inf
ROOT
ATOM      1  C   UNL A   1      37.173  21.744  25.334  1.00  0.00     0.188 C 
ENDROOT
BRANCH   1   2
ATOM      2  C   UNL A   1      35.878  21.463  26.079  1.00  0.00     0.188 C 
BRANCH   2   3
ATOM      3  O   UNL A   1      35.269  22.692  26.448  1.00  0.00    -0.376 OA
BRANCH   3   4
ATOM      4  C   UNL A   1      34.349  22.464  27.506  1.00  0.00     0.202 C 
BRANCH   4   5
ATOM      5  C   UNL A   1      32.962  22.914  27.077  1.00  0.00     0.261 C 
BRANCH   5   6
ATOM      6  O   UNL A   1      33.020  23.432  25.756  1.00  0.00    -0.460 OA
BRANCH   6   7
ATOM      7  C   UNL A   1      31.830  23.563  24.992  1.00  0.00     0.338 C 
ATOM      8  O   UNL A   1      30.713  23.721  25.577  1.00  0.00    -0.246 OA
BRANCH   7   9
ATOM      9  C   UNL A   1      31.893  23.515  23.474  1.00  0.00     0.087 C 
ATOM     10  C   UNL A   1      31.695  24.648  22.748  1.00  0.00     0.027 C 
ATOM     11  C   UNL A   1      32.179  22.200  22.766  1.00  0.00     0.316 C 
ATOM     12  C   UNL A   1      31.411  25.963  23.456  1.00  0.00     0.020 A 
ATOM     13  O   UNL A   1      33.025  25.420  25.114  1.00  0.00    -0.474 OA
ATOM     14  C   UNL A   1      30.411  26.771  22.940  1.00  0.00     0.036 A 
ATOM     15  C   UNL A   1      32.120  26.337  24.514  1.00  0.00     0.142 A 
ATOM     16  C   UNL A   1      30.429  28.095  23.439  1.00  0.00     0.109 A 
ATOM     17  C   UNL A   1      31.989  27.602  25.033  1.00  0.00     0.062 A 
ATOM     18  C   UNL A   1      31.062  28.474  24.534  1.00  0.00     0.044 A 
ATOM     19  Br  UNL A   1      33.147  28.163  26.511  1.00  0.00    -0.047 Br
BRANCH  11  20
ATOM     20  C   UNL A   1      32.360  21.098  23.799  1.00  0.00     0.430 C 
ATOM     21  F   UNL A   1      32.198  19.976  23.103  1.00  0.00    -0.167 F 
ATOM     22  F   UNL A   1      33.558  21.094  24.374  1.00  0.00    -0.167 F 
ATOM     23  F   UNL A   1      31.418  21.178  24.735  1.00  0.00    -0.167 F 
ENDBRANCH  11  20
BRANCH  16  24
ATOM     24  S   UNL A   1      29.522  29.357  22.511  1.00  0.00     0.310 S 
ATOM     25  F   UNL A   1      29.751  30.441  23.646  1.00  0.00    -0.094 F 
ATOM     26  F   UNL A   1      28.211  28.934  23.275  1.00  0.00    -0.094 F 
ATOM     27  F   UNL A   1      28.742  30.443  21.717  1.00  0.00    -0.094 F 
ATOM     28  F   UNL A   1      30.870  29.860  21.860  1.00  0.00    -0.094 F 
ATOM     29  F   UNL A   1      30.346  28.336  23.392  1.00  0.00    -0.094 F 
ENDBRANCH  16  24
ENDBRANCH   7   9
ENDBRANCH   6   7
ENDBRANCH   5   6
ENDBRANCH   4   5
ENDBRANCH   3   4
ENDBRANCH   2   3
ENDBRANCH   1   2
BRANCH   1  30
ATOM     30  O   UNL A   1      37.367  20.754  24.334  1.00  0.00    -0.376 OA
BRANCH  30  31
ATOM     31  C   UNL A   1      38.026  19.631  24.900  1.00  0.00     0.202 C 
BRANCH  31  32
ATOM     32  C   UNL A   1      39.222  20.102  25.711  1.00  0.00     0.261 C 
BRANCH  32  33
ATOM     33  O   UNL A   1      40.264  19.142  25.619  1.00  0.00    -0.460 OA
BRANCH  33  34
ATOM     34  C   UNL A   1      41.595  19.505  25.953  1.00  0.00     0.338 C 
ATOM     35  O   UNL A   1      42.549  18.692  25.740  1.00  0.00    -0.246 OA
BRANCH  34  36
ATOM     36  C   UNL A   1      41.881  20.866  26.567  1.00  0.00     0.060 A 
ATOM     37  C   UNL A   1      42.218  21.879  25.685  1.00  0.00     0.016 A 
ATOM     38  C   UNL A   1      41.785  21.093  27.872  1.00  0.00     0.016 A 
ATOM     39  C   UNL A   1      42.721  23.043  26.313  1.00  0.00     0.010 A 
ATOM     40  C   UNL A   1      42.166  22.302  28.402  1.00  0.00     0.010 A 
ATOM     41  C   UNL A   1      42.568  23.329  27.594  1.00  0.00    -0.014 A 
BRANCH  41  42
ATOM     42  C   UNL A   1      42.824  24.724  28.138  1.00  0.00     0.031 A 
ATOM     43  C   UNL A   1      41.774  25.634  28.268  1.00  0.00     0.074 A 
ATOM     44  C   UNL A   1      44.143  25.015  28.441  1.00  0.00     0.049 A 
ATOM     45  N   UNL A   1      41.835  26.887  28.722  1.00  0.00    -0.248 NA
ATOM     46  C   UNL A   1      40.378  25.338  27.914  1.00  0.00     0.031 C 
ATOM     47  C   UNL A   1      45.206  24.099  28.320  1.00  0.00     0.029 A 
ATOM     48  N   UNL A   1      44.661  26.205  28.903  1.00  0.00    -0.354 N 
ATOM     49  C   UNL A   1      40.619  27.439  28.719  1.00  0.00     0.074 A 
ATOM     50  C   UNL A   1      39.666  26.453  28.192  1.00  0.00     0.031 C 
ATOM     51  C   UNL A   1      46.351  24.732  28.692  1.00  0.00     0.029 A 
ATOM     52  C   UNL A   1      46.022  26.052  29.052  1.00  0.00     0.049 A 
ATOM     53  H   UNL A   1      44.148  27.023  29.092  1.00  0.00     0.167 HD
ATOM     54  C   UNL A   1      40.270  28.724  29.134  1.00  0.00     0.037 A 
ATOM     55  C   UNL A   1      46.941  26.999  29.474  1.00  0.00     0.037 A 
ATOM     56  C   UNL A   1      41.182  29.657  29.598  1.00  0.00     0.049 A 
ATOM     57  C   UNL A   1      46.599  28.305  29.835  1.00  0.00     0.074 A 
ATOM     58  C   UNL A   1      40.845  30.956  30.028  1.00  0.00     0.029 A 
ATOM     59  N   UNL A   1      42.547  29.513  29.724  1.00  0.00    -0.354 N 
ATOM     60  N   UNL A   1      45.379  28.843  29.869  1.00  0.00    -0.248 NA
ATOM     61  C   UNL A   1      47.567  29.326  30.253  1.00  0.00     0.031 C 
ATOM     62  C   UNL A   1      41.990  31.587  30.399  1.00  0.00     0.029 A 
ATOM     63  C   UNL A   1      43.062  30.695  30.206  1.00  0.00     0.049 A 
ATOM     64  H   UNL A   1      43.063  28.704  29.507  1.00  0.00     0.167 HD
ATOM     65  C   UNL A   1      45.447  30.110  30.283  1.00  0.00     0.074 A 
ATOM     66  C   UNL A   1      46.856  30.441  30.529  1.00  0.00     0.031 C 
ATOM     67  C   UNL A   1      44.389  31.002  30.469  1.00  0.00     0.037 A 
BRANCH  54  68
ATOM     68  C   UNL A   1      38.803  29.123  29.074  1.00  0.00     0.057 A 
ATOM     69  C   UNL A   1      38.257  29.609  27.898  1.00  0.00     0.134 A 
ATOM     70  C   UNL A   1      38.051  28.909  30.146  1.00  0.00     0.134 A 
ATOM     71  F   UNL A   1      38.907  29.599  26.738  1.00  0.00    -0.206 F 
ATOM     72  C   UNL A   1      36.944  30.116  28.042  1.00  0.00     0.040 A 
ATOM     73  C   UNL A   1      36.736  29.310  30.169  1.00  0.00     0.040 A 
ATOM     74  F   UNL A   1      38.574  28.303  31.208  1.00  0.00    -0.206 F 
ATOM     75  C   UNL A   1      36.147  29.852  29.061  1.00  0.00     0.006 A 
ENDBRANCH  54  68
BRANCH  55  76
ATOM     76  C   UNL A   1      48.404  26.595  29.551  1.00  0.00     0.057 A 
ATOM     77  C   UNL A   1      48.905  26.038  30.715  1.00  0.00     0.134 A 
ATOM     78  C   UNL A   1      49.198  26.869  28.522  1.00  0.00     0.134 A 
ATOM     79  F   UNL A   1      48.128  25.518  31.662  1.00  0.00    -0.206 F 
ATOM     80  C   UNL A   1      50.316  26.073  30.807  1.00  0.00     0.040 A 
ATOM     81  C   UNL A   1      50.562  26.750  28.639  1.00  0.00     0.040 A 
ATOM     82  F   UNL A   1      48.668  27.261  27.366  1.00  0.00    -0.206 F 
ATOM     83  C   UNL A   1      51.130  26.262  29.784  1.00  0.00     0.006 A 
ENDBRANCH  55  76
BRANCH  67  84
ATOM     84  C   UNL A   1      44.710  32.392  30.991  1.00  0.00     0.057 A 
ATOM     85  C   UNL A   1      44.967  33.387  30.063  1.00  0.00     0.134 A 
ATOM     86  C   UNL A   1      44.735  32.643  32.295  1.00  0.00     0.134 A 
ATOM     87  F   UNL A   1      44.709  33.251  28.764  1.00  0.00    -0.206 F 
ATOM     88  C   UNL A   1      45.528  34.561  30.619  1.00  0.00     0.040 A 
ATOM     89  C   UNL A   1      45.168  33.860  32.765  1.00  0.00     0.040 A 
ATOM     90  F   UNL A   1      44.339  31.709  33.154  1.00  0.00    -0.206 F 
ATOM     91  C   UNL A   1      45.494  34.870  31.902  1.00  0.00     0.006 A 
ENDBRANCH  67  84
ENDBRANCH  41  42
ENDBRANCH  34  36
ENDBRANCH  33  34
ENDBRANCH  32  33
ENDBRANCH  31  32
ENDBRANCH  30  31
ENDBRANCH   1  30
TORSDOF 19
ENDMDL
MODEL 3
REMARK VINA RESULT:     -11.5      3.774      5.097
REMARK SMILES O=C(OCCOCCOCCOC(=O)c1ccc(-c2c3nc(c(-c4c(F)cccc4F)c4ccc([nH]4)c(-c4c(F)cccc4F)c4nc(c(-c5c(F)cccc5F)c5ccc2[nH]5)C=C4)C=C3)cc1)C1=Cc2cc(S(F)(F)(F)(F)F)cc(Br)c2O[C@H]1C(F)(F)F
REMARK SMILES IDX 8 1 7 2 6 3 5 4 4 5 3 6 2 7 1 8 69 9 70 10 85 11 71 12 84 13
REMARK SMILES IDX 72 14 83 15 73 16 81 17 80 18 82 19 86 20 87 21 88 22 89 23
REMARK SMILES IDX 74 24 75 25 76 26 77 27 78 28 79 29 9 30 10 31 11 32 12 33
REMARK SMILES IDX 13 34 14 35 15 36 16 37 68 38 17 39 67 40 18 41 19 42 20 43
REMARK SMILES IDX 61 44 21 45 66 46 60 47 62 48 22 49 65 50 59 51 58 52 23 54
REMARK SMILES IDX 49 55 32 56 48 57 33 58 36 59 47 60 63 61 34 62 35 63 46 65
REMARK SMILES IDX 64 66 37 67 24 68 25 69 30 70 26 71 27 72 29 73 31 74 28 75
REMARK SMILES IDX 50 76 51 77 56 78 52 79 53 80 55 81 57 82 54 83 38 84 39 85
REMARK SMILES IDX 44 86 40 87 41 88 43 89 45 90 42 91
REMARK H PARENT 62 53 36 64
REMARK Flexibility Score: inf
ROOT
ATOM      1  C   UNL A   1      40.366  21.121  26.685  1.00  0.00     0.188 C 
ENDROOT
BRANCH   1   2
ATOM      2  C   UNL A   1      39.399  22.167  26.154  1.00  0.00     0.188 C 
BRANCH   2   3
ATOM      3  O   UNL A   1      38.275  21.522  25.574  1.00  0.00    -0.376 OA
BRANCH   3   4
ATOM      4  C   UNL A   1      37.266  22.483  25.301  1.00  0.00     0.202 C 
BRANCH   4   5
ATOM      5  C   UNL A   1      36.031  21.782  24.760  1.00  0.00     0.261 C 
BRANCH   5   6
ATOM      6  O   UNL A   1      35.044  22.749  24.432  1.00  0.00    -0.460 OA
BRANCH   6   7
ATOM      7  C   UNL A   1      33.727  22.335  24.099  1.00  0.00     0.338 C 
ATOM      8  O   UNL A   1      33.438  22.042  22.897  1.00  0.00    -0.246 OA
BRANCH   7   9
ATOM      9  C   UNL A   1      32.663  22.242  25.181  1.00  0.00     0.087 C 
ATOM     10  C   UNL A   1      32.113  23.375  25.693  1.00  0.00     0.027 C 
ATOM     11  C   UNL A   1      32.214  20.881  25.691  1.00  0.00     0.316 C 
ATOM     12  C   UNL A   1      32.561  24.735  25.184  1.00  0.00     0.020 A 
ATOM     13  O   UNL A   1      32.627  23.882  22.966  1.00  0.00    -0.474 OA
ATOM     14  C   UNL A   1      32.783  25.734  26.117  1.00  0.00     0.036 A 
ATOM     15  C   UNL A   1      32.704  24.964  23.884  1.00  0.00     0.142 A 
ATOM     16  C   UNL A   1      32.872  27.031  25.559  1.00  0.00     0.109 A 
ATOM     17  C   UNL A   1      32.925  26.238  23.417  1.00  0.00     0.062 A 
ATOM     18  C   UNL A   1      33.094  27.283  24.282  1.00  0.00     0.044 A 
ATOM     19  Br  UNL A   1      32.998  26.559  21.486  1.00  0.00    -0.047 Br
BRANCH  11  20
ATOM     20  C   UNL A   1      32.979  19.789  24.959  1.00  0.00     0.430 C 
ATOM     21  F   UNL A   1      32.470  18.661  25.445  1.00  0.00    -0.167 F 
ATOM     22  F   UNL A   1      32.821  19.815  23.640  1.00  0.00    -0.167 F 
ATOM     23  F   UNL A   1      34.275  19.853  25.253  1.00  0.00    -0.167 F 
ENDBRANCH  11  20
BRANCH  16  24
ATOM     24  S   UNL A   1      32.669  28.443  26.673  1.00  0.00     0.310 S 
ATOM     25  F   UNL A   1      33.287  29.446  25.610  1.00  0.00    -0.094 F 
ATOM     26  F   UNL A   1      34.134  28.203  27.197  1.00  0.00    -0.094 F 
ATOM     27  F   UNL A   1      32.496  29.659  27.628  1.00  0.00    -0.094 F 
ATOM     28  F   UNL A   1      31.258  28.753  26.036  1.00  0.00    -0.094 F 
ATOM     29  F   UNL A   1      32.873  27.283  25.619  1.00  0.00    -0.094 F 
ENDBRANCH  16  24
ENDBRANCH   7   9
ENDBRANCH   6   7
ENDBRANCH   5   6
ENDBRANCH   4   5
ENDBRANCH   3   4
ENDBRANCH   2   3
ENDBRANCH   1   2
BRANCH   1  30
ATOM     30  O   UNL A   1      41.366  20.865  25.710  1.00  0.00    -0.376 OA
BRANCH  30  31
ATOM     31  C   UNL A   1      42.649  20.952  26.313  1.00  0.00     0.202 C 
BRANCH  31  32
ATOM     32  C   UNL A   1      43.592  21.706  25.389  1.00  0.00     0.261 C 
BRANCH  32  33
ATOM     33  O   UNL A   1      42.992  22.933  24.999  1.00  0.00    -0.460 OA
BRANCH  33  34
ATOM     34  C   UNL A   1      43.676  24.158  25.215  1.00  0.00     0.338 C 
ATOM     35  O   UNL A   1      44.638  24.491  24.454  1.00  0.00    -0.246 OA
BRANCH  34  36
ATOM     36  C   UNL A   1      43.260  25.071  26.357  1.00  0.00     0.060 A 
ATOM     37  C   UNL A   1      42.434  24.513  27.319  1.00  0.00     0.016 A 
ATOM     38  C   UNL A   1      43.682  26.326  26.455  1.00  0.00     0.016 A 
ATOM     39  C   UNL A   1      41.870  25.458  28.209  1.00  0.00     0.010 A 
ATOM     40  C   UNL A   1      43.189  27.155  27.434  1.00  0.00     0.010 A 
ATOM     41  C   UNL A   1      42.323  26.687  28.382  1.00  0.00    -0.014 A 
BRANCH  41  42
ATOM     42  C   UNL A   1      41.905  27.533  29.573  1.00  0.00     0.031 A 
ATOM     43  C   UNL A   1      42.565  27.406  30.796  1.00  0.00     0.074 A 
ATOM     44  C   UNL A   1      40.826  28.375  29.359  1.00  0.00     0.049 A 
ATOM     45  N   UNL A   1      42.317  28.068  31.927  1.00  0.00    -0.248 NA
ATOM     46  C   UNL A   1      43.687  26.486  31.035  1.00  0.00     0.031 C 
ATOM     47  C   UNL A   1      40.161  28.514  28.126  1.00  0.00     0.029 A 
ATOM     48  N   UNL A   1      40.214  29.211  30.266  1.00  0.00    -0.354 N 
ATOM     49  C   UNL A   1      43.172  27.690  32.880  1.00  0.00     0.074 A 
ATOM     50  C   UNL A   1      44.061  26.663  32.321  1.00  0.00     0.031 C 
ATOM     51  C   UNL A   1      39.154  29.412  28.290  1.00  0.00     0.029 A 
ATOM     52  C   UNL A   1      39.174  29.850  29.628  1.00  0.00     0.049 A 
ATOM     53  H   UNL A   1      40.474  29.331  31.208  1.00  0.00     0.167 HD
ATOM     54  C   UNL A   1      43.245  28.163  34.191  1.00  0.00     0.037 A 
ATOM     55  C   UNL A   1      38.281  30.763  30.166  1.00  0.00     0.037 A 
ATOM     56  C   UNL A   1      42.380  29.108  34.717  1.00  0.00     0.049 A 
ATOM     57  C   UNL A   1      38.318  31.193  31.495  1.00  0.00     0.074 A 
ATOM     58  C   UNL A   1      42.445  29.602  36.034  1.00  0.00     0.029 A 
ATOM     59  N   UNL A   1      41.324  29.729  34.085  1.00  0.00    -0.354 N 
ATOM     60  N   UNL A   1      39.197  30.845  32.435  1.00  0.00    -0.248 NA
ATOM     61  C   UNL A   1      37.359  32.136  32.084  1.00  0.00     0.031 C 
ATOM     62  C   UNL A   1      41.438  30.500  36.198  1.00  0.00     0.029 A 
ATOM     63  C   UNL A   1      40.725  30.582  34.986  1.00  0.00     0.049 A 
ATOM     64  H   UNL A   1      41.046  29.588  33.152  1.00  0.00     0.167 HD
ATOM     65  C   UNL A   1      38.922  31.476  33.578  1.00  0.00     0.074 A 
ATOM     66  C   UNL A   1      37.731  32.311  33.370  1.00  0.00     0.031 C 
ATOM     67  C   UNL A   1      39.620  31.394  34.785  1.00  0.00     0.037 A 
BRANCH  54  68
ATOM     68  C   UNL A   1      44.336  27.608  35.093  1.00  0.00     0.057 A 
ATOM     69  C   UNL A   1      44.097  26.492  35.878  1.00  0.00     0.134 A 
ATOM     70  C   UNL A   1      45.539  28.167  35.039  1.00  0.00     0.134 A 
ATOM     71  F   UNL A   1      42.996  25.754  35.771  1.00  0.00    -0.206 F 
ATOM     72  C   UNL A   1      45.130  26.208  36.802  1.00  0.00     0.040 A 
ATOM     73  C   UNL A   1      46.543  27.748  35.880  1.00  0.00     0.040 A 
ATOM     74  F   UNL A   1      45.774  29.142  34.166  1.00  0.00    -0.206 F 
ATOM     75  C   UNL A   1      46.358  26.688  36.723  1.00  0.00     0.006 A 
ENDBRANCH  54  68
BRANCH  55  76
ATOM     76  C   UNL A   1      37.202  31.330  29.259  1.00  0.00     0.057 A 
ATOM     77  C   UNL A   1      37.333  32.611  28.750  1.00  0.00     0.134 A 
ATOM     78  C   UNL A   1      36.105  30.613  29.044  1.00  0.00     0.134 A 
ATOM     79  F   UNL A   1      38.491  33.265  28.721  1.00  0.00    -0.206 F 
ATOM     80  C   UNL A   1      36.123  33.163  28.266  1.00  0.00     0.040 A 
ATOM     81  C   UNL A   1      35.007  31.177  28.441  1.00  0.00     0.040 A 
ATOM     82  F   UNL A   1      36.070  29.336  29.415  1.00  0.00    -0.206 F 
ATOM     83  C   UNL A   1      35.046  32.460  27.967  1.00  0.00     0.006 A 
ENDBRANCH  55  76
BRANCH  67  84
ATOM     84  C   UNL A   1      39.137  32.245  35.948  1.00  0.00     0.057 A 
ATOM     85  C   UNL A   1      38.159  31.715  36.773  1.00  0.00     0.134 A 
ATOM     86  C   UNL A   1      39.645  33.452  36.168  1.00  0.00     0.134 A 
ATOM     87  F   UNL A   1      37.806  30.433  36.748  1.00  0.00    -0.206 F 
ATOM     88  C   UNL A   1      37.569  32.661  37.644  1.00  0.00     0.040 A 
ATOM     89  C   UNL A   1      39.106  34.273  37.129  1.00  0.00     0.040 A 
ATOM     90  F   UNL A   1      40.685  33.870  35.452  1.00  0.00    -0.206 F 
ATOM     91  C   UNL A   1      38.096  33.835  37.941  1.00  0.00     0.006 A 
ENDBRANCH  67  84
ENDBRANCH  41  42
ENDBRANCH  34  36
ENDBRANCH  33  34
ENDBRANCH  32  33
ENDBRANCH  31  32
ENDBRANCH  30  31
ENDBRANCH   1  30
TORSDOF 19
ENDMDL
