MODEL 1
REMARK VINA RESULT:     -11.4      0.000      0.000
REMARK SMILES O=C(OCCOCCOCCOC(=O)[C@H](c1ccccc1)C(c1ccccc1)c1ccccc1)c1ccc(-c2c3nc(c(-c4c(F)cccc4F)c4ccc([nH]4)c(-c4c(F)cccc4F)c4nc(c(-c5c(F)cccc5F)c5ccc2[nH]5)C=C4)C=C3)cc1
REMARK SMILES IDX 7 1 6 2 5 3 4 4 3 5 2 6 1 7 35 8 36 9 88 10 37 11 87 12
REMARK SMILES IDX 38 13 39 14 40 15 81 16 41 17 86 18 80 19 82 20 42 21 85 22
REMARK SMILES IDX 79 23 78 24 43 26 69 27 52 28 68 29 53 30 56 31 67 32 83 33
REMARK SMILES IDX 54 34 55 35 66 37 84 38 57 39 44 40 45 41 50 42 46 43 47 44
REMARK SMILES IDX 49 45 51 46 48 47 70 48 71 49 76 50 72 51 73 52 75 53 77 54
REMARK SMILES IDX 74 55 58 56 59 57 64 58 60 59 61 60 63 61 65 62 62 63 8 64
REMARK SMILES IDX 9 65 10 66 11 67 12 68 13 69 14 70 15 71 22 72 23 73 24 74
REMARK SMILES IDX 28 75 25 76 27 77 26 78 29 79 30 80 34 81 31 82 33 83 32 84
REMARK SMILES IDX 16 85 17 86 21 87 18 88 20 89 19 90
REMARK H PARENT 82 25 56 36
REMARK Flexibility Score: inf
ROOT
ATOM      1  C   UNL A   1      40.718  20.125  26.156  1.00  0.00     0.188 C 
ENDROOT
BRANCH   1   2
ATOM      2  O   UNL A   1      42.060  20.131  25.683  1.00  0.00    -0.376 OA
BRANCH   2   3
ATOM      3  C   UNL A   1      42.857  21.229  26.133  1.00  0.00     0.202 C 
BRANCH   3   4
ATOM      4  C   UNL A   1      43.894  21.784  25.128  1.00  0.00     0.261 C 
BRANCH   4   5
ATOM      5  O   UNL A   1      43.593  23.090  24.601  1.00  0.00    -0.460 OA
BRANCH   5   6
ATOM      6  C   UNL A   1      44.029  24.314  24.990  1.00  0.00     0.338 C 
ATOM      7  O   UNL A   1      45.132  24.691  24.598  1.00  0.00    -0.246 OA
BRANCH   6   8
ATOM      8  C   UNL A   1      43.261  25.238  25.886  1.00  0.00     0.060 A 
ATOM      9  C   UNL A   1      43.649  26.534  26.212  1.00  0.00     0.016 A 
ATOM     10  C   UNL A   1      42.049  24.767  26.427  1.00  0.00     0.016 A 
ATOM     11  C   UNL A   1      42.938  27.305  27.113  1.00  0.00     0.010 A 
ATOM     12  C   UNL A   1      41.306  25.545  27.326  1.00  0.00     0.010 A 
ATOM     13  C   UNL A   1      41.791  26.798  27.712  1.00  0.00    -0.014 A 
BRANCH  13  14
ATOM     14  C   UNL A   1      41.312  27.518  28.906  1.00  0.00     0.031 A 
ATOM     15  C   UNL A   1      42.159  27.450  30.142  1.00  0.00     0.074 A 
ATOM     16  C   UNL A   1      40.296  28.392  28.801  1.00  0.00     0.049 A 
ATOM     17  N   UNL A   1      42.010  28.061  31.285  1.00  0.00    -0.248 NA
ATOM     18  C   UNL A   1      43.362  26.601  30.066  1.00  0.00     0.031 C 
ATOM     19  C   UNL A   1      39.537  28.647  27.578  1.00  0.00     0.029 A 
ATOM     20  N   UNL A   1      39.762  29.262  29.710  1.00  0.00    -0.354 N 
ATOM     21  C   UNL A   1      43.082  27.653  32.068  1.00  0.00     0.074 A 
ATOM     22  C   UNL A   1      43.869  26.735  31.281  1.00  0.00     0.031 C 
ATOM     23  C   UNL A   1      38.637  29.614  27.807  1.00  0.00     0.029 A 
ATOM     24  C   UNL A   1      38.731  30.017  29.204  1.00  0.00     0.049 A 
ATOM     25  H   UNL A   1      40.084  29.340  30.637  1.00  0.00     0.167 HD
ATOM     26  C   UNL A   1      43.375  28.017  33.336  1.00  0.00     0.037 A 
ATOM     27  C   UNL A   1      37.947  30.920  29.819  1.00  0.00     0.037 A 
ATOM     28  C   UNL A   1      42.575  28.939  34.093  1.00  0.00     0.049 A 
ATOM     29  C   UNL A   1      38.225  31.219  31.266  1.00  0.00     0.074 A 
ATOM     30  C   UNL A   1      42.724  29.339  35.407  1.00  0.00     0.029 A 
ATOM     31  N   UNL A   1      41.466  29.606  33.588  1.00  0.00    -0.354 N 
ATOM     32  N   UNL A   1      39.195  30.774  32.029  1.00  0.00    -0.248 NA
ATOM     33  C   UNL A   1      37.303  32.140  31.939  1.00  0.00     0.031 C 
ATOM     34  C   UNL A   1      41.671  30.209  35.712  1.00  0.00     0.029 A 
ATOM     35  C   UNL A   1      40.904  30.400  34.571  1.00  0.00     0.049 A 
ATOM     36  H   UNL A   1      41.130  29.526  32.666  1.00  0.00     0.167 HD
ATOM     37  C   UNL A   1      39.020  31.382  33.264  1.00  0.00     0.074 A 
ATOM     38  C   UNL A   1      37.856  32.239  33.139  1.00  0.00     0.031 C 
ATOM     39  C   UNL A   1      39.751  31.249  34.399  1.00  0.00     0.037 A 
BRANCH  26  40
ATOM     40  C   UNL A   1      44.548  27.341  33.982  1.00  0.00     0.057 A 
ATOM     41  C   UNL A   1      45.833  27.899  33.987  1.00  0.00     0.134 A 
ATOM     42  C   UNL A   1      44.394  26.075  34.561  1.00  0.00     0.134 A 
ATOM     43  F   UNL A   1      46.060  29.094  33.418  1.00  0.00    -0.206 F 
ATOM     44  C   UNL A   1      46.928  27.209  34.516  1.00  0.00     0.040 A 
ATOM     45  C   UNL A   1      45.474  25.386  35.116  1.00  0.00     0.040 A 
ATOM     46  F   UNL A   1      43.193  25.476  34.580  1.00  0.00    -0.206 F 
ATOM     47  C   UNL A   1      46.747  25.950  35.085  1.00  0.00     0.006 A 
ENDBRANCH  26  40
BRANCH  27  48
ATOM     48  C   UNL A   1      36.823  31.565  29.091  1.00  0.00     0.057 A 
ATOM     49  C   UNL A   1      36.889  32.898  28.669  1.00  0.00     0.134 A 
ATOM     50  C   UNL A   1      35.638  30.866  28.824  1.00  0.00     0.134 A 
ATOM     51  F   UNL A   1      37.985  33.631  28.912  1.00  0.00    -0.206 F 
ATOM     52  C   UNL A   1      35.812  33.518  28.030  1.00  0.00     0.040 A 
ATOM     53  C   UNL A   1      34.567  31.463  28.157  1.00  0.00     0.040 A 
ATOM     54  F   UNL A   1      35.501  29.590  29.214  1.00  0.00    -0.206 F 
ATOM     55  C   UNL A   1      34.648  32.798  27.768  1.00  0.00     0.006 A 
ENDBRANCH  27  48
BRANCH  39  56
ATOM     56  C   UNL A   1      39.338  32.088  35.570  1.00  0.00     0.057 A 
ATOM     57  C   UNL A   1      39.800  33.398  35.745  1.00  0.00     0.134 A 
ATOM     58  C   UNL A   1      38.433  31.586  36.513  1.00  0.00     0.134 A 
ATOM     59  F   UNL A   1      40.677  33.931  34.882  1.00  0.00    -0.206 F 
ATOM     60  C   UNL A   1      39.398  34.170  36.835  1.00  0.00     0.040 A 
ATOM     61  C   UNL A   1      37.999  32.358  37.589  1.00  0.00     0.040 A 
ATOM     62  F   UNL A   1      37.945  30.341  36.394  1.00  0.00    -0.206 F 
ATOM     63  C   UNL A   1      38.489  33.651  37.757  1.00  0.00     0.006 A 
ENDBRANCH  39  56
ENDBRANCH  13  14
ENDBRANCH   6   8
ENDBRANCH   5   6
ENDBRANCH   4   5
ENDBRANCH   3   4
ENDBRANCH   2   3
ENDBRANCH   1   2
BRANCH   1  64
ATOM     64  C   UNL A   1      40.092  21.468  26.556  1.00  0.00     0.188 C 
BRANCH  64  65
ATOM     65  O   UNL A   1      38.789  21.755  26.085  1.00  0.00    -0.376 OA
BRANCH  65  66
ATOM     66  C   UNL A   1      38.374  23.121  26.147  1.00  0.00     0.202 C 
BRANCH  66  67
ATOM     67  C   UNL A   1      36.994  23.490  25.575  1.00  0.00     0.261 C 
BRANCH  67  68
ATOM     68  O   UNL A   1      36.345  22.392  24.894  1.00  0.00    -0.463 OA
BRANCH  68  69
ATOM     69  C   UNL A   1      35.974  22.633  23.594  1.00  0.00     0.314 C 
ATOM     70  O   UNL A   1      36.746  22.949  22.707  1.00  0.00    -0.252 OA
BRANCH  69  71
ATOM     71  C   UNL A   1      34.448  22.488  23.405  1.00  0.00     0.141 C 
BRANCH  71  72
ATOM     72  C   UNL A   1      33.973  21.551  24.587  1.00  0.00     0.068 C 
BRANCH  72  73
ATOM     73  C   UNL A   1      32.848  22.068  25.496  1.00  0.00    -0.039 A 
ATOM     74  C   UNL A   1      33.199  22.745  26.685  1.00  0.00     0.004 A 
ATOM     75  C   UNL A   1      31.489  21.983  25.168  1.00  0.00     0.004 A 
ATOM     76  C   UNL A   1      32.233  23.330  27.502  1.00  0.00     0.000 A 
ATOM     77  C   UNL A   1      30.521  22.577  25.986  1.00  0.00     0.000 A 
ATOM     78  C   UNL A   1      30.892  23.252  27.148  1.00  0.00     0.000 A 
ENDBRANCH  72  73
BRANCH  72  79
ATOM     79  C   UNL A   1      33.692  20.086  24.177  1.00  0.00    -0.039 A 
ATOM     80  C   UNL A   1      34.539  19.069  24.660  1.00  0.00     0.004 A 
ATOM     81  C   UNL A   1      32.646  19.707  23.320  1.00  0.00     0.004 A 
ATOM     82  C   UNL A   1      34.373  17.738  24.275  1.00  0.00     0.000 A 
ATOM     83  C   UNL A   1      32.506  18.377  22.902  1.00  0.00     0.000 A 
ATOM     84  C   UNL A   1      33.369  17.394  23.379  1.00  0.00     0.000 A 
ENDBRANCH  72  79
ENDBRANCH  71  72
BRANCH  71  85
ATOM     85  C   UNL A   1      33.811  23.888  23.239  1.00  0.00    -0.033 A 
ATOM     86  C   UNL A   1      32.742  24.047  22.337  1.00  0.00     0.004 A 
ATOM     87  C   UNL A   1      34.183  25.028  23.966  1.00  0.00     0.004 A 
ATOM     88  C   UNL A   1      32.075  25.266  22.173  1.00  0.00     0.000 A 
ATOM     89  C   UNL A   1      33.487  26.239  23.843  1.00  0.00     0.000 A 
ATOM     90  C   UNL A   1      32.437  26.360  22.944  1.00  0.00     0.000 A 
ENDBRANCH  71  85
ENDBRANCH  69  71
ENDBRANCH  68  69
ENDBRANCH  67  68
ENDBRANCH  66  67
ENDBRANCH  65  66
ENDBRANCH  64  65
ENDBRANCH   1  64
TORSDOF 21
ENDMDL
MODEL 2
REMARK VINA RESULT:     -11.3      3.019      8.274
REMARK SMILES O=C(OCCOCCOCCOC(=O)[C@H](c1ccccc1)C(c1ccccc1)c1ccccc1)c1ccc(-c2c3nc(c(-c4c(F)cccc4F)c4ccc([nH]4)c(-c4c(F)cccc4F)c4nc(c(-c5c(F)cccc5F)c5ccc2[nH]5)C=C4)C=C3)cc1
REMARK SMILES IDX 7 1 6 2 5 3 4 4 3 5 2 6 1 7 35 8 36 9 88 10 37 11 87 12
REMARK SMILES IDX 38 13 39 14 40 15 81 16 41 17 86 18 80 19 82 20 42 21 85 22
REMARK SMILES IDX 79 23 78 24 43 26 69 27 52 28 68 29 53 30 56 31 67 32 83 33
REMARK SMILES IDX 54 34 55 35 66 37 84 38 57 39 44 40 45 41 50 42 46 43 47 44
REMARK SMILES IDX 49 45 51 46 48 47 70 48 71 49 76 50 72 51 73 52 75 53 77 54
REMARK SMILES IDX 74 55 58 56 59 57 64 58 60 59 61 60 63 61 65 62 62 63 8 64
REMARK SMILES IDX 9 65 10 66 11 67 12 68 13 69 14 70 15 71 22 72 23 73 24 74
REMARK SMILES IDX 28 75 25 76 27 77 26 78 29 79 30 80 34 81 31 82 33 83 32 84
REMARK SMILES IDX 16 85 17 86 21 87 18 88 20 89 19 90
REMARK H PARENT 82 25 56 36
REMARK Flexibility Score: inf
ROOT
ATOM      1  C   UNL A   1      32.945  29.670  26.688  1.00  0.00     0.188 C 
ENDROOT
BRANCH   1   2
ATOM      2  O   UNL A   1      31.993  30.508  26.043  1.00  0.00    -0.376 OA
BRANCH   2   3
ATOM      3  C   UNL A   1      31.411  31.515  26.872  1.00  0.00     0.202 C 
BRANCH   3   4
ATOM      4  C   UNL A   1      31.943  32.956  26.684  1.00  0.00     0.261 C 
BRANCH   4   5
ATOM      5  O   UNL A   1      32.174  33.685  27.904  1.00  0.00    -0.460 OA
BRANCH   5   6
ATOM      6  C   UNL A   1      33.326  34.171  28.429  1.00  0.00     0.338 C 
ATOM      7  O   UNL A   1      33.374  35.365  28.722  1.00  0.00    -0.246 OA
BRANCH   6   8
ATOM      8  C   UNL A   1      34.558  33.352  28.665  1.00  0.00     0.060 A 
ATOM      9  C   UNL A   1      34.565  32.039  29.125  1.00  0.00     0.016 A 
ATOM     10  C   UNL A   1      35.804  33.950  28.388  1.00  0.00     0.016 A 
ATOM     11  C   UNL A   1      35.742  31.368  29.403  1.00  0.00     0.010 A 
ATOM     12  C   UNL A   1      37.005  33.275  28.645  1.00  0.00     0.010 A 
ATOM     13  C   UNL A   1      36.966  31.998  29.212  1.00  0.00    -0.014 A 
BRANCH  13  14
ATOM     14  C   UNL A   1      38.127  31.366  29.865  1.00  0.00     0.031 A 
ATOM     15  C   UNL A   1      38.319  31.618  31.331  1.00  0.00     0.074 A 
ATOM     16  C   UNL A   1      38.824  30.414  29.222  1.00  0.00     0.049 A 
ATOM     17  N   UNL A   1      39.200  31.115  32.151  1.00  0.00    -0.248 NA
ATOM     18  C   UNL A   1      37.362  32.542  31.968  1.00  0.00     0.031 C 
ATOM     19  C   UNL A   1      38.577  29.984  27.847  1.00  0.00     0.029 A 
ATOM     20  N   UNL A   1      39.838  29.602  29.646  1.00  0.00    -0.354 N 
ATOM     21  C   UNL A   1      38.918  31.676  33.390  1.00  0.00     0.074 A 
ATOM     22  C   UNL A   1      37.795  32.566  33.218  1.00  0.00     0.031 C 
ATOM     23  C   UNL A   1      39.412  28.981  27.538  1.00  0.00     0.029 A 
ATOM     24  C   UNL A   1      40.278  28.727  28.682  1.00  0.00     0.049 A 
ATOM     25  H   UNL A   1      40.217  29.640  30.554  1.00  0.00     0.167 HD
ATOM     26  C   UNL A   1      39.549  31.462  34.566  1.00  0.00     0.037 A 
ATOM     27  C   UNL A   1      41.283  27.834  28.727  1.00  0.00     0.037 A 
ATOM     28  C   UNL A   1      40.660  30.564  34.709  1.00  0.00     0.049 A 
ATOM     29  C   UNL A   1      42.043  27.702  30.017  1.00  0.00     0.074 A 
ATOM     30  C   UNL A   1      41.430  30.308  35.826  1.00  0.00     0.029 A 
ATOM     31  N   UNL A   1      41.158  29.771  33.682  1.00  0.00    -0.354 N 
ATOM     32  N   UNL A   1      41.825  28.290  31.170  1.00  0.00    -0.248 NA
ATOM     33  C   UNL A   1      43.190  26.787  30.016  1.00  0.00     0.031 C 
ATOM     34  C   UNL A   1      42.429  29.398  35.461  1.00  0.00     0.029 A 
ATOM     35  C   UNL A   1      42.241  29.039  34.134  1.00  0.00     0.049 A 
ATOM     36  H   UNL A   1      40.793  29.734  32.769  1.00  0.00     0.167 HD
ATOM     37  C   UNL A   1      42.785  27.796  32.040  1.00  0.00     0.074 A 
ATOM     38  C   UNL A   1      43.579  26.849  31.282  1.00  0.00     0.031 C 
ATOM     39  C   UNL A   1      42.996  28.095  33.347  1.00  0.00     0.037 A 
BRANCH  26  40
ATOM     40  C   UNL A   1      39.097  32.283  35.738  1.00  0.00     0.057 A 
ATOM     41  C   UNL A   1      38.209  31.795  36.705  1.00  0.00     0.134 A 
ATOM     42  C   UNL A   1      39.521  33.613  35.864  1.00  0.00     0.134 A 
ATOM     43  F   UNL A   1      37.735  30.542  36.624  1.00  0.00    -0.206 F 
ATOM     44  C   UNL A   1      37.733  32.609  37.737  1.00  0.00     0.040 A 
ATOM     45  C   UNL A   1      39.073  34.428  36.905  1.00  0.00     0.040 A 
ATOM     46  F   UNL A   1      40.362  34.148  34.967  1.00  0.00    -0.206 F 
ATOM     47  C   UNL A   1      38.168  33.929  37.839  1.00  0.00     0.006 A 
ENDBRANCH  26  40
BRANCH  27  48
ATOM     48  C   UNL A   1      41.642  27.040  27.524  1.00  0.00     0.057 A 
ATOM     49  C   UNL A   1      41.172  25.735  27.336  1.00  0.00     0.134 A 
ATOM     50  C   UNL A   1      42.494  27.561  26.541  1.00  0.00     0.134 A 
ATOM     51  F   UNL A   1      40.371  25.167  28.251  1.00  0.00    -0.206 F 
ATOM     52  C   UNL A   1      41.552  24.971  26.230  1.00  0.00     0.040 A 
ATOM     53  C   UNL A   1      42.856  26.820  25.414  1.00  0.00     0.040 A 
ATOM     54  F   UNL A   1      42.995  28.799  26.664  1.00  0.00    -0.206 F 
ATOM     55  C   UNL A   1      42.393  25.516  25.262  1.00  0.00     0.006 A 
ENDBRANCH  27  48
BRANCH  39  56
ATOM     56  C   UNL A   1      44.094  27.348  34.041  1.00  0.00     0.057 A 
ATOM     57  C   UNL A   1      45.401  27.846  34.114  1.00  0.00     0.134 A 
ATOM     58  C   UNL A   1      43.825  26.130  34.677  1.00  0.00     0.134 A 
ATOM     59  F   UNL A   1      45.723  29.002  33.514  1.00  0.00    -0.206 F 
ATOM     60  C   UNL A   1      46.410  27.143  34.773  1.00  0.00     0.040 A 
ATOM     61  C   UNL A   1      44.818  25.434  35.366  1.00  0.00     0.040 A 
ATOM     62  F   UNL A   1      42.590  25.607  34.653  1.00  0.00    -0.206 F 
ATOM     63  C   UNL A   1      46.116  25.937  35.407  1.00  0.00     0.006 A 
ENDBRANCH  39  56
ENDBRANCH  13  14
ENDBRANCH   6   8
ENDBRANCH   5   6
ENDBRANCH   4   5
ENDBRANCH   3   4
ENDBRANCH   2   3
ENDBRANCH   1   2
BRANCH   1  64
ATOM     64  C   UNL A   1      32.423  28.450  27.459  1.00  0.00     0.188 C 
BRANCH  64  65
ATOM     65  O   UNL A   1      31.130  27.972  27.140  1.00  0.00    -0.376 OA
BRANCH  65  66
ATOM     66  C   UNL A   1      31.030  27.106  26.008  1.00  0.00     0.202 C 
BRANCH  66  67
ATOM     67  C   UNL A   1      30.027  25.940  26.068  1.00  0.00     0.261 C 
BRANCH  67  68
ATOM     68  O   UNL A   1      30.407  24.816  25.242  1.00  0.00    -0.463 OA
BRANCH  68  69
ATOM     69  C   UNL A   1      31.459  24.065  25.704  1.00  0.00     0.314 C 
ATOM     70  O   UNL A   1      31.656  23.807  26.878  1.00  0.00    -0.252 OA
BRANCH  69  71
ATOM     71  C   UNL A   1      32.386  23.620  24.551  1.00  0.00     0.141 C 
BRANCH  71  72
ATOM     72  C   UNL A   1      33.682  24.515  24.693  1.00  0.00     0.068 C 
BRANCH  72  73
ATOM     73  C   UNL A   1      35.044  23.809  24.625  1.00  0.00    -0.039 A 
ATOM     74  C   UNL A   1      35.773  23.634  25.821  1.00  0.00     0.004 A 
ATOM     75  C   UNL A   1      35.566  23.249  23.452  1.00  0.00     0.004 A 
ATOM     76  C   UNL A   1      36.965  22.913  25.849  1.00  0.00     0.000 A 
ATOM     77  C   UNL A   1      36.760  22.519  23.483  1.00  0.00     0.000 A 
ATOM     78  C   UNL A   1      37.456  22.348  24.678  1.00  0.00     0.000 A 
ENDBRANCH  72  73
BRANCH  72  79
ATOM     79  C   UNL A   1      33.694  25.779  23.801  1.00  0.00    -0.039 A 
ATOM     80  C   UNL A   1      34.094  27.006  24.365  1.00  0.00     0.004 A 
ATOM     81  C   UNL A   1      33.300  25.782  22.453  1.00  0.00     0.004 A 
ATOM     82  C   UNL A   1      34.067  28.191  23.627  1.00  0.00     0.000 A 
ATOM     83  C   UNL A   1      33.234  26.977  21.726  1.00  0.00     0.000 A 
ATOM     84  C   UNL A   1      33.616  28.180  22.313  1.00  0.00     0.000 A 
ENDBRANCH  72  79
ENDBRANCH  71  72
BRANCH  71  85
ATOM     85  C   UNL A   1      32.519  22.078  24.560  1.00  0.00    -0.033 A 
ATOM     86  C   UNL A   1      32.289  21.369  23.366  1.00  0.00     0.004 A 
ATOM     87  C   UNL A   1      32.909  21.315  25.669  1.00  0.00     0.004 A 
ATOM     88  C   UNL A   1      32.448  19.981  23.277  1.00  0.00     0.000 A 
ATOM     89  C   UNL A   1      33.117  19.932  25.575  1.00  0.00     0.000 A 
ATOM     90  C   UNL A   1      32.882  19.263  24.381  1.00  0.00     0.000 A 
ENDBRANCH  71  85
ENDBRANCH  69  71
ENDBRANCH  68  69
ENDBRANCH  67  68
ENDBRANCH  66  67
ENDBRANCH  65  66
ENDBRANCH  64  65
ENDBRANCH   1  64
TORSDOF 21
ENDMDL
MODEL 3
REMARK VINA RESULT:     -10.7      3.106      8.001
REMARK SMILES O=C(OCCOCCOCCOC(=O)[C@H](c1ccccc1)C(c1ccccc1)c1ccccc1)c1ccc(-c2c3nc(c(-c4c(F)cccc4F)c4ccc([nH]4)c(-c4c(F)cccc4F)c4nc(c(-c5c(F)cccc5F)c5ccc2[nH]5)C=C4)C=C3)cc1
REMARK SMILES IDX 7 1 6 2 5 3 4 4 3 5 2 6 1 7 35 8 36 9 88 10 37 11 87 12
REMARK SMILES IDX 38 13 39 14 40 15 81 16 41 17 86 18 80 19 82 20 42 21 85 22
REMARK SMILES IDX 79 23 78 24 43 26 69 27 52 28 68 29 53 30 56 31 67 32 83 33
REMARK SMILES IDX 54 34 55 35 66 37 84 38 57 39 44 40 45 41 50 42 46 43 47 44
REMARK SMILES IDX 49 45 51 46 48 47 70 48 71 49 76 50 72 51 73 52 75 53 77 54
REMARK SMILES IDX 74 55 58 56 59 57 64 58 60 59 61 60 63 61 65 62 62 63 8 64
REMARK SMILES IDX 9 65 10 66 11 67 12 68 13 69 14 70 15 71 22 72 23 73 24 74
REMARK SMILES IDX 28 75 25 76 27 77 26 78 29 79 30 80 34 81 31 82 33 83 32 84
REMARK SMILES IDX 16 85 17 86 21 87 18 88 20 89 19 90
REMARK H PARENT 82 25 56 36
REMARK Flexibility Score: inf
ROOT
ATOM      1  C   UNL A   1      32.380  29.161  27.111  1.00  0.00     0.188 C 
ENDROOT
BRANCH   1   2
ATOM      2  O   UNL A   1      32.491  30.274  26.230  1.00  0.00    -0.376 OA
BRANCH   2   3
ATOM      3  C   UNL A   1      31.366  31.156  26.223  1.00  0.00     0.202 C 
BRANCH   3   4
ATOM      4  C   UNL A   1      31.655  32.643  26.542  1.00  0.00     0.261 C 
BRANCH   4   5
ATOM      5  O   UNL A   1      32.515  32.867  27.675  1.00  0.00    -0.460 OA
BRANCH   5   6
ATOM      6  C   UNL A   1      33.785  33.339  27.731  1.00  0.00     0.338 C 
ATOM      7  O   UNL A   1      33.992  34.496  27.368  1.00  0.00    -0.246 OA
BRANCH   6   8
ATOM      8  C   UNL A   1      34.964  32.537  28.191  1.00  0.00     0.060 A 
ATOM      9  C   UNL A   1      34.926  31.189  28.533  1.00  0.00     0.016 A 
ATOM     10  C   UNL A   1      36.209  33.193  28.271  1.00  0.00     0.016 A 
ATOM     11  C   UNL A   1      36.035  30.530  29.032  1.00  0.00     0.010 A 
ATOM     12  C   UNL A   1      37.347  32.532  28.755  1.00  0.00     0.010 A 
ATOM     13  C   UNL A   1      37.236  31.208  29.193  1.00  0.00    -0.014 A 
BRANCH  13  14
ATOM     14  C   UNL A   1      38.238  30.555  30.054  1.00  0.00     0.031 A 
ATOM     15  C   UNL A   1      39.216  29.627  29.396  1.00  0.00     0.074 A 
ATOM     16  C   UNL A   1      38.414  30.974  31.318  1.00  0.00     0.049 A 
ATOM     17  N   UNL A   1      40.241  29.003  29.908  1.00  0.00    -0.248 NA
ATOM     18  C   UNL A   1      39.032  29.397  27.951  1.00  0.00     0.031 C 
ATOM     19  C   UNL A   1      37.615  32.008  31.973  1.00  0.00     0.029 A 
ATOM     20  N   UNL A   1      39.344  30.629  32.258  1.00  0.00    -0.354 N 
ATOM     21  C   UNL A   1      40.807  28.292  28.858  1.00  0.00     0.074 A 
ATOM     22  C   UNL A   1      40.010  28.548  27.682  1.00  0.00     0.031 C 
ATOM     23  C   UNL A   1      38.090  32.222  33.209  1.00  0.00     0.029 A 
ATOM     24  C   UNL A   1      39.202  31.310  33.444  1.00  0.00     0.049 A 
ATOM     25  H   UNL A   1      40.047  29.958  32.102  1.00  0.00     0.167 HD
ATOM     26  C   UNL A   1      41.898  27.494  28.882  1.00  0.00     0.037 A 
ATOM     27  C   UNL A   1      39.893  31.188  34.591  1.00  0.00     0.037 A 
ATOM     28  C   UNL A   1      42.676  27.264  30.067  1.00  0.00     0.049 A 
ATOM     29  C   UNL A   1      41.031  30.206  34.622  1.00  0.00     0.074 A 
ATOM     30  C   UNL A   1      43.761  26.427  30.242  1.00  0.00     0.029 A 
ATOM     31  N   UNL A   1      42.439  27.883  31.288  1.00  0.00    -0.354 N 
ATOM     32  N   UNL A   1      41.519  29.475  33.647  1.00  0.00    -0.248 NA
ATOM     33  C   UNL A   1      41.713  30.026  35.909  1.00  0.00     0.031 C 
ATOM     34  C   UNL A   1      44.147  26.501  31.585  1.00  0.00     0.029 A 
ATOM     35  C   UNL A   1      43.345  27.432  32.230  1.00  0.00     0.049 A 
ATOM     36  H   UNL A   1      41.732  28.547  31.457  1.00  0.00     0.167 HD
ATOM     37  C   UNL A   1      42.582  28.771  34.192  1.00  0.00     0.074 A 
ATOM     38  C   UNL A   1      42.675  29.175  35.581  1.00  0.00     0.031 C 
ATOM     39  C   UNL A   1      43.410  27.872  33.602  1.00  0.00     0.037 A 
BRANCH  26  40
ATOM     40  C   UNL A   1      42.231  26.763  27.615  1.00  0.00     0.057 A 
ATOM     41  C   UNL A   1      41.730  25.487  27.325  1.00  0.00     0.134 A 
ATOM     42  C   UNL A   1      43.121  27.330  26.694  1.00  0.00     0.134 A 
ATOM     43  F   UNL A   1      40.901  24.870  28.182  1.00  0.00    -0.206 F 
ATOM     44  C   UNL A   1      42.127  24.789  26.181  1.00  0.00     0.040 A 
ATOM     45  C   UNL A   1      43.505  26.654  25.534  1.00  0.00     0.040 A 
ATOM     46  F   UNL A   1      43.648  28.544  26.915  1.00  0.00    -0.206 F 
ATOM     47  C   UNL A   1      43.015  25.375  25.281  1.00  0.00     0.006 A 
ENDBRANCH  26  40
BRANCH  27  48
ATOM     48  C   UNL A   1      39.510  31.977  35.791  1.00  0.00     0.057 A 
ATOM     49  C   UNL A   1      40.163  33.169  36.127  1.00  0.00     0.134 A 
ATOM     50  C   UNL A   1      38.494  31.539  36.651  1.00  0.00     0.134 A 
ATOM     51  F   UNL A   1      41.160  33.633  35.359  1.00  0.00    -0.206 F 
ATOM     52  C   UNL A   1      39.837  33.883  37.283  1.00  0.00     0.040 A 
ATOM     53  C   UNL A   1      38.136  32.259  37.792  1.00  0.00     0.040 A 
ATOM     54  F   UNL A   1      37.838  30.397  36.398  1.00  0.00    -0.206 F 
ATOM     55  C   UNL A   1      38.816  33.430  38.117  1.00  0.00     0.006 A 
ENDBRANCH  27  48
BRANCH  39  56
ATOM     56  C   UNL A   1      44.512  27.313  34.449  1.00  0.00     0.057 A 
ATOM     57  C   UNL A   1      45.753  27.949  34.568  1.00  0.00     0.134 A 
ATOM     58  C   UNL A   1      44.309  26.139  35.185  1.00  0.00     0.134 A 
ATOM     59  F   UNL A   1      46.013  29.070  33.879  1.00  0.00    -0.206 F 
ATOM     60  C   UNL A   1      46.766  27.421  35.369  1.00  0.00     0.040 A 
ATOM     61  C   UNL A   1      45.302  25.618  36.014  1.00  0.00     0.040 A 
ATOM     62  F   UNL A   1      43.137  25.489  35.122  1.00  0.00    -0.206 F 
ATOM     63  C   UNL A   1      46.538  26.256  36.100  1.00  0.00     0.006 A 
ENDBRANCH  39  56
ENDBRANCH  13  14
ENDBRANCH   6   8
ENDBRANCH   5   6
ENDBRANCH   4   5
ENDBRANCH   3   4
ENDBRANCH   2   3
ENDBRANCH   1   2
BRANCH   1  64
ATOM     64  C   UNL A   1      31.402  28.041  26.733  1.00  0.00     0.188 C 
BRANCH  64  65
ATOM     65  O   UNL A   1      31.178  27.795  25.357  1.00  0.00    -0.376 OA
BRANCH  65  66
ATOM     66  C   UNL A   1      30.346  26.680  25.035  1.00  0.00     0.202 C 
BRANCH  66  67
ATOM     67  C   UNL A   1      30.191  25.560  26.079  1.00  0.00     0.261 C 
BRANCH  67  68
ATOM     68  O   UNL A   1      31.327  24.667  26.132  1.00  0.00    -0.463 OA
BRANCH  68  69
ATOM     69  C   UNL A   1      31.116  23.404  25.637  1.00  0.00     0.314 C 
ATOM     70  O   UNL A   1      30.326  22.605  26.107  1.00  0.00    -0.252 OA
BRANCH  69  71
ATOM     71  C   UNL A   1      32.033  23.108  24.430  1.00  0.00     0.141 C 
BRANCH  71  72
ATOM     72  C   UNL A   1      33.292  24.045  24.629  1.00  0.00     0.068 C 
BRANCH  72  73
ATOM     73  C   UNL A   1      34.674  23.378  24.673  1.00  0.00    -0.039 A 
ATOM     74  C   UNL A   1      35.332  23.107  23.454  1.00  0.00     0.004 A 
ATOM     75  C   UNL A   1      35.360  23.102  25.863  1.00  0.00     0.004 A 
ATOM     76  C   UNL A   1      36.629  22.599  23.423  1.00  0.00     0.000 A 
ATOM     77  C   UNL A   1      36.666  22.599  25.831  1.00  0.00     0.000 A 
ATOM     78  C   UNL A   1      37.301  22.351  24.614  1.00  0.00     0.000 A 
ENDBRANCH  72  73
BRANCH  72  79
ATOM     79  C   UNL A   1      33.329  25.282  23.701  1.00  0.00    -0.039 A 
ATOM     80  C   UNL A   1      33.973  26.451  24.149  1.00  0.00     0.004 A 
ATOM     81  C   UNL A   1      32.727  25.319  22.432  1.00  0.00     0.004 A 
ATOM     82  C   UNL A   1      33.986  27.618  23.382  1.00  0.00     0.000 A 
ATOM     83  C   UNL A   1      32.705  26.501  21.681  1.00  0.00     0.000 A 
ATOM     84  C   UNL A   1      33.333  27.649  22.156  1.00  0.00     0.000 A 
ENDBRANCH  72  79
ENDBRANCH  71  72
BRANCH  71  85
ATOM     85  C   UNL A   1      32.234  21.580  24.294  1.00  0.00    -0.033 A 
ATOM     86  C   UNL A   1      32.122  20.990  23.020  1.00  0.00     0.004 A 
ATOM     87  C   UNL A   1      32.577  20.721  25.347  1.00  0.00     0.004 A 
ATOM     88  C   UNL A   1      32.348  19.626  22.805  1.00  0.00     0.000 A 
ATOM     89  C   UNL A   1      32.853  19.364  25.130  1.00  0.00     0.000 A 
ATOM     90  C   UNL A   1      32.733  18.814  23.860  1.00  0.00     0.000 A 
ENDBRANCH  71  85
ENDBRANCH  69  71
ENDBRANCH  68  69
ENDBRANCH  67  68
ENDBRANCH  66  67
ENDBRANCH  65  66
ENDBRANCH  64  65
ENDBRANCH   1  64
TORSDOF 21
ENDMDL
