MODEL 1
REMARK VINA RESULT:     -12.8      0.000      0.000
REMARK SMILES Cc1cccc(NC(=O)C[C@@H]2CCCCO2)c1C(=O)OCCOCCOCCOC(=O)c1ccc(-c2c3nc(c(-c4c(F)cccc4F)c4ccc([nH]4)c(-c4c(F)cccc4F)c4nc(c(-c5c(F)cccc5F)c5ccc2[nH]5)C=C4)C=C3)cc1
REMARK SMILES IDX 24 1 23 2 22 3 21 4 20 5 18 6 19 7 17 8 1 9 2 10 3 11 4 12
REMARK SMILES IDX 6 13 5 14 7 15 8 16 9 18 10 19 11 20 12 21 16 22 13 23 15 24
REMARK SMILES IDX 14 25 25 26 26 27 27 28 28 29 29 30 30 31 31 32 32 33 33 34
REMARK SMILES IDX 85 35 34 36 84 37 35 38 36 39 37 40 78 41 38 42 83 43 77 44
REMARK SMILES IDX 79 45 39 46 82 47 76 48 75 49 40 51 66 52 49 53 65 54 50 55
REMARK SMILES IDX 53 56 64 57 80 58 51 59 52 60 63 62 81 63 54 64 41 65 42 66
REMARK SMILES IDX 47 67 43 68 44 69 46 70 48 71 45 72 67 73 68 74 73 75 69 76
REMARK SMILES IDX 70 77 72 78 74 79 71 80 55 81 56 82 61 83 57 84 58 85 60 86
REMARK SMILES IDX 62 87 59 88
REMARK H PARENT 7 17 79 50 53 61
REMARK Flexibility Score: inf
ROOT
ATOM      1  C   UNL A   1      34.557  33.808  28.041  1.00  0.00     0.188 C 
ENDROOT
BRANCH   1   2
ATOM      2  O   UNL A   1      34.928  32.484  27.604  1.00  0.00    -0.376 OA
BRANCH   2   3
ATOM      3  C   UNL A   1      34.197  31.257  27.806  1.00  0.00     0.202 C 
BRANCH   3   4
ATOM      4  C   UNL A   1      34.553  29.583  27.394  1.00  0.00     0.261 C 
BRANCH   4   5
ATOM      5  O   UNL A   1      33.565  28.136  26.978  1.00  0.00    -0.460 OA
BRANCH   5   6
ATOM      6  C   UNL A   1      32.143  27.688  26.872  1.00  0.00     0.340 C 
ATOM      7  O   UNL A   1      31.505  27.121  27.768  1.00  0.00    -0.246 OA
BRANCH   6   8
ATOM      8  C   UNL A   1      31.219  27.563  25.708  1.00  0.00     0.086 A 
ATOM      9  C   UNL A   1      31.497  29.998  25.022  1.00  0.00     0.045 C 
ATOM     10  C   UNL A   1      31.112  28.579  24.764  1.00  0.00    -0.034 A 
ATOM     11  C   UNL A   1      30.585  28.258  23.497  1.00  0.00     0.004 A 
ATOM     12  C   UNL A   1      30.179  26.964  23.157  1.00  0.00     0.002 A 
ATOM     13  C   UNL A   1      30.631  26.234  25.400  1.00  0.00     0.056 A 
ATOM     14  C   UNL A   1      30.196  25.957  24.106  1.00  0.00     0.027 A 
BRANCH  13  15
ATOM     15  N   UNL A   1      30.495  25.195  26.386  1.00  0.00    -0.325 N 
ATOM     16  C   UNL A   1      30.966  23.904  26.483  1.00  0.00     0.227 C 
ATOM     17  H   UNL A   1      29.947  25.464  27.157  1.00  0.00     0.169 HD
ATOM     18  O   UNL A   1      30.793  23.253  27.517  1.00  0.00    -0.275 OA
BRANCH  16  19
ATOM     19  C   UNL A   1      31.656  23.171  25.363  1.00  0.00     0.132 C 
BRANCH  19  20
ATOM     20  C   UNL A   1      33.125  22.781  25.609  1.00  0.00     0.127 C 
ATOM     21  C   UNL A   1      33.932  23.993  26.086  1.00  0.00     0.033 C 
ATOM     22  O   UNL A   1      33.830  22.181  24.527  1.00  0.00    -0.378 OA
ATOM     23  C   UNL A   1      34.017  25.039  24.979  1.00  0.00     0.005 C 
ATOM     24  C   UNL A   1      34.084  23.008  23.406  1.00  0.00     0.160 C 
ATOM     25  C   UNL A   1      34.556  24.427  23.695  1.00  0.00     0.029 C 
ENDBRANCH  19  20
ENDBRANCH  16  19
ENDBRANCH  13  15
ENDBRANCH   6   8
ENDBRANCH   5   6
ENDBRANCH   4   5
ENDBRANCH   3   4
ENDBRANCH   2   3
ENDBRANCH   1   2
BRANCH   1  26
ATOM     26  C   UNL A   1      33.121  34.307  28.103  1.00  0.00     0.188 C 
BRANCH  26  27
ATOM     27  O   UNL A   1      32.790  34.688  29.418  1.00  0.00    -0.376 OA
BRANCH  27  28
ATOM     28  C   UNL A   1      32.921  36.065  29.711  1.00  0.00     0.202 C 
BRANCH  28  29
ATOM     29  C   UNL A   1      33.043  36.381  31.216  1.00  0.00     0.261 C 
BRANCH  29  30
ATOM     30  O   UNL A   1      33.108  35.174  32.018  1.00  0.00    -0.460 OA
BRANCH  30  31
ATOM     31  C   UNL A   1      34.175  35.015  32.872  1.00  0.00     0.338 C 
ATOM     32  O   UNL A   1      34.629  35.901  33.589  1.00  0.00    -0.246 OA
BRANCH  31  33
ATOM     33  C   UNL A   1      34.859  33.708  32.598  1.00  0.00     0.060 A 
ATOM     34  C   UNL A   1      35.479  32.862  33.533  1.00  0.00     0.016 A 
ATOM     35  C   UNL A   1      35.280  33.579  31.327  1.00  0.00     0.016 A 
ATOM     36  C   UNL A   1      36.692  32.116  33.213  1.00  0.00     0.010 A 
ATOM     37  C   UNL A   1      36.594  33.167  31.204  1.00  0.00     0.010 A 
ATOM     38  C   UNL A   1      37.412  32.333  32.036  1.00  0.00    -0.014 A 
BRANCH  38  39
ATOM     39  C   UNL A   1      38.959  31.618  31.614  1.00  0.00     0.031 A 
ATOM     40  C   UNL A   1      39.353  30.107  30.749  1.00  0.00     0.074 A 
ATOM     41  C   UNL A   1      40.056  32.179  32.169  1.00  0.00     0.049 A 
ATOM     42  N   UNL A   1      40.351  29.300  31.046  1.00  0.00    -0.248 NA
ATOM     43  C   UNL A   1      38.571  29.333  29.657  1.00  0.00     0.031 C 
ATOM     44  C   UNL A   1      41.457  31.892  31.882  1.00  0.00     0.029 A 
ATOM     45  N   UNL A   1      40.114  33.134  33.191  1.00  0.00    -0.354 N 
ATOM     46  C   UNL A   1      40.311  28.221  30.136  1.00  0.00     0.074 A 
ATOM     47  C   UNL A   1      38.997  28.090  29.690  1.00  0.00     0.031 C 
ATOM     48  C   UNL A   1      42.209  32.396  32.878  1.00  0.00     0.029 A 
ATOM     49  C   UNL A   1      41.297  32.877  33.901  1.00  0.00     0.049 A 
ATOM     50  H   UNL A   1      39.458  33.844  33.376  1.00  0.00     0.167 HD
ATOM     51  C   UNL A   1      41.411  27.684  29.546  1.00  0.00     0.037 A 
ATOM     52  C   UNL A   1      41.236  32.447  35.189  1.00  0.00     0.037 A 
ATOM     53  C   UNL A   1      42.518  27.965  30.416  1.00  0.00     0.049 A 
ATOM     54  C   UNL A   1      41.827  31.050  35.339  1.00  0.00     0.074 A 
ATOM     55  C   UNL A   1      43.477  28.953  30.438  1.00  0.00     0.029 A 
ATOM     56  N   UNL A   1      42.404  27.474  31.707  1.00  0.00    -0.354 N 
ATOM     57  N   UNL A   1      42.121  30.250  34.346  1.00  0.00    -0.248 NA
ATOM     58  C   UNL A   1      42.163  30.464  36.632  1.00  0.00     0.031 C 
ATOM     59  C   UNL A   1      43.793  29.181  31.814  1.00  0.00     0.029 A 
ATOM     60  C   UNL A   1      43.082  28.280  32.596  1.00  0.00     0.049 A 
ATOM     61  H   UNL A   1      41.909  26.661  31.956  1.00  0.00     0.167 HD
ATOM     62  C   UNL A   1      42.622  29.068  34.826  1.00  0.00     0.074 A 
ATOM     63  C   UNL A   1      42.665  29.273  36.263  1.00  0.00     0.031 C 
ATOM     64  C   UNL A   1      42.950  28.008  34.025  1.00  0.00     0.037 A 
BRANCH  51  65
ATOM     65  C   UNL A   1      41.468  27.043  28.145  1.00  0.00     0.057 A 
ATOM     66  C   UNL A   1      41.906  27.815  27.054  1.00  0.00     0.134 A 
ATOM     67  C   UNL A   1      41.013  25.750  27.750  1.00  0.00     0.134 A 
ATOM     68  F   UNL A   1      42.327  29.074  27.230  1.00  0.00    -0.206 F 
ATOM     69  C   UNL A   1      41.906  27.353  25.721  1.00  0.00     0.040 A 
ATOM     70  C   UNL A   1      41.063  25.258  26.432  1.00  0.00     0.040 A 
ATOM     71  F   UNL A   1      40.416  24.888  28.581  1.00  0.00    -0.206 F 
ATOM     72  C   UNL A   1      41.499  26.065  25.404  1.00  0.00     0.006 A 
ENDBRANCH  51  65
BRANCH  52  73
ATOM     73  C   UNL A   1      40.072  33.022  35.942  1.00  0.00     0.057 A 
ATOM     74  C   UNL A   1      38.929  32.239  36.204  1.00  0.00     0.134 A 
ATOM     75  C   UNL A   1      40.212  34.166  36.717  1.00  0.00     0.134 A 
ATOM     76  F   UNL A   1      38.716  31.111  35.509  1.00  0.00    -0.206 F 
ATOM     77  C   UNL A   1      38.037  32.527  37.251  1.00  0.00     0.040 A 
ATOM     78  C   UNL A   1      39.302  34.493  37.744  1.00  0.00     0.040 A 
ATOM     79  F   UNL A   1      41.338  34.876  36.600  1.00  0.00    -0.206 F 
ATOM     80  C   UNL A   1      38.238  33.646  38.045  1.00  0.00     0.006 A 
ENDBRANCH  52  73
BRANCH  64  81
ATOM     81  C   UNL A   1      43.179  26.588  34.517  1.00  0.00     0.057 A 
ATOM     82  C   UNL A   1      42.171  25.758  35.031  1.00  0.00     0.134 A 
ATOM     83  C   UNL A   1      44.428  25.947  34.329  1.00  0.00     0.134 A 
ATOM     84  F   UNL A   1      40.899  26.164  35.130  1.00  0.00    -0.206 F 
ATOM     85  C   UNL A   1      42.408  24.431  35.414  1.00  0.00     0.040 A 
ATOM     86  C   UNL A   1      44.649  24.597  34.619  1.00  0.00     0.040 A 
ATOM     87  F   UNL A   1      45.488  26.592  33.819  1.00  0.00    -0.206 F 
ATOM     88  C   UNL A   1      43.644  23.840  35.195  1.00  0.00     0.006 A 
ENDBRANCH  64  81
ENDBRANCH  38  39
ENDBRANCH  31  33
ENDBRANCH  30  31
ENDBRANCH  29  30
ENDBRANCH  28  29
ENDBRANCH  27  28
ENDBRANCH  26  27
ENDBRANCH   1  26
TORSDOF 20
ENDMDL
MODEL 2
REMARK VINA RESULT:     -12.2      0.959      1.589
REMARK SMILES Cc1cccc(NC(=O)C[C@@H]2CCCCO2)c1C(=O)OCCOCCOCCOC(=O)c1ccc(-c2c3nc(c(-c4c(F)cccc4F)c4ccc([nH]4)c(-c4c(F)cccc4F)c4nc(c(-c5c(F)cccc5F)c5ccc2[nH]5)C=C4)C=C3)cc1
REMARK SMILES IDX 24 1 23 2 22 3 21 4 20 5 18 6 19 7 17 8 1 9 2 10 3 11 4 12
REMARK SMILES IDX 6 13 5 14 7 15 8 16 9 18 10 19 11 20 12 21 16 22 13 23 15 24
REMARK SMILES IDX 14 25 25 26 26 27 27 28 28 29 29 30 30 31 31 32 32 33 33 34
REMARK SMILES IDX 85 35 34 36 84 37 35 38 36 39 37 40 78 41 38 42 83 43 77 44
REMARK SMILES IDX 79 45 39 46 82 47 76 48 75 49 40 51 66 52 49 53 65 54 50 55
REMARK SMILES IDX 53 56 64 57 80 58 51 59 52 60 63 62 81 63 54 64 41 65 42 66
REMARK SMILES IDX 47 67 43 68 44 69 46 70 48 71 45 72 67 73 68 74 73 75 69 76
REMARK SMILES IDX 70 77 72 78 74 79 71 80 55 81 56 82 61 83 57 84 58 85 60 86
REMARK SMILES IDX 62 87 59 88
REMARK H PARENT 7 17 79 50 53 61
REMARK Flexibility Score: inf
ROOT
ATOM      1  C   UNL A   1      34.083  33.061  28.250  1.00  0.00     0.188 C 
ENDROOT
BRANCH   1   2
ATOM      2  O   UNL A   1      33.274  31.953  27.804  1.00  0.00    -0.376 OA
BRANCH   2   3
ATOM      3  C   UNL A   1      33.686  30.842  26.980  1.00  0.00     0.202 C 
BRANCH   3   4
ATOM      4  C   UNL A   1      33.919  29.133  27.325  1.00  0.00     0.261 C 
BRANCH   4   5
ATOM      5  O   UNL A   1      33.062  27.614  26.874  1.00  0.00    -0.460 OA
BRANCH   5   6
ATOM      6  C   UNL A   1      31.734  27.124  26.393  1.00  0.00     0.340 C 
ATOM      7  O   UNL A   1      30.786  26.804  27.120  1.00  0.00    -0.246 OA
BRANCH   6   8
ATOM      8  C   UNL A   1      31.261  26.675  25.052  1.00  0.00     0.086 A 
ATOM      9  C   UNL A   1      30.985  29.049  24.177  1.00  0.00     0.045 C 
ATOM     10  C   UNL A   1      31.131  27.574  23.999  1.00  0.00    -0.034 A 
ATOM     11  C   UNL A   1      31.107  27.063  22.685  1.00  0.00     0.004 A 
ATOM     12  C   UNL A   1      31.220  25.697  22.408  1.00  0.00     0.002 A 
ATOM     13  C   UNL A   1      31.209  25.219  24.761  1.00  0.00     0.056 A 
ATOM     14  C   UNL A   1      31.265  24.778  23.442  1.00  0.00     0.027 A 
BRANCH  13  15
ATOM     15  N   UNL A   1      31.114  24.222  25.794  1.00  0.00    -0.325 N 
ATOM     16  C   UNL A   1      32.028  23.633  26.639  1.00  0.00     0.227 C 
ATOM     17  H   UNL A   1      30.198  23.888  25.925  1.00  0.00     0.169 HD
ATOM     18  O   UNL A   1      31.651  22.872  27.534  1.00  0.00    -0.275 OA
BRANCH  16  19
ATOM     19  C   UNL A   1      33.519  23.805  26.521  1.00  0.00     0.132 C 
BRANCH  19  20
ATOM     20  C   UNL A   1      34.321  22.550  26.131  1.00  0.00     0.127 C 
ATOM     21  C   UNL A   1      35.811  22.882  25.998  1.00  0.00     0.033 C 
ATOM     22  O   UNL A   1      33.917  21.859  24.953  1.00  0.00    -0.378 OA
ATOM     23  C   UNL A   1      36.037  23.834  24.828  1.00  0.00     0.005 C 
ATOM     24  C   UNL A   1      34.108  22.541  23.727  1.00  0.00     0.160 C 
ATOM     25  C   UNL A   1      35.431  23.275  23.550  1.00  0.00     0.029 C 
ENDBRANCH  19  20
ENDBRANCH  16  19
ENDBRANCH  13  15
ENDBRANCH   6   8
ENDBRANCH   5   6
ENDBRANCH   4   5
ENDBRANCH   3   4
ENDBRANCH   2   3
ENDBRANCH   1   2
BRANCH   1  26
ATOM     26  C   UNL A   1      33.576  34.493  28.347  1.00  0.00     0.188 C 
BRANCH  26  27
ATOM     27  O   UNL A   1      32.826  34.669  29.526  1.00  0.00    -0.376 OA
BRANCH  27  28
ATOM     28  C   UNL A   1      33.279  35.684  30.399  1.00  0.00     0.202 C 
BRANCH  28  29
ATOM     29  C   UNL A   1      32.680  35.611  31.818  1.00  0.00     0.261 C 
BRANCH  29  30
ATOM     30  O   UNL A   1      33.353  34.622  32.638  1.00  0.00    -0.460 OA
BRANCH  30  31
ATOM     31  C   UNL A   1      34.720  34.710  32.777  1.00  0.00     0.338 C 
ATOM     32  O   UNL A   1      35.315  35.706  33.171  1.00  0.00    -0.246 OA
BRANCH  31  33
ATOM     33  C   UNL A   1      35.376  33.529  32.125  1.00  0.00     0.060 A 
ATOM     34  C   UNL A   1      35.661  32.285  32.712  1.00  0.00     0.016 A 
ATOM     35  C   UNL A   1      36.126  33.853  31.056  1.00  0.00     0.016 A 
ATOM     36  C   UNL A   1      36.870  31.536  32.384  1.00  0.00     0.010 A 
ATOM     37  C   UNL A   1      37.396  33.307  31.068  1.00  0.00     0.010 A 
ATOM     38  C   UNL A   1      37.900  32.082  31.616  1.00  0.00    -0.014 A 
BRANCH  38  39
ATOM     39  C   UNL A   1      39.460  31.345  31.289  1.00  0.00     0.031 A 
ATOM     40  C   UNL A   1      39.888  29.861  30.392  1.00  0.00     0.074 A 
ATOM     41  C   UNL A   1      40.521  31.852  31.954  1.00  0.00     0.049 A 
ATOM     42  N   UNL A   1      40.840  29.016  30.733  1.00  0.00    -0.248 NA
ATOM     43  C   UNL A   1      39.180  29.155  29.208  1.00  0.00     0.031 C 
ATOM     44  C   UNL A   1      41.934  31.541  31.768  1.00  0.00     0.029 A 
ATOM     45  N   UNL A   1      40.518  32.762  33.019  1.00  0.00    -0.354 N 
ATOM     46  C   UNL A   1      40.849  27.979  29.776  1.00  0.00     0.074 A 
ATOM     47  C   UNL A   1      39.574  27.901  29.221  1.00  0.00     0.031 C 
ATOM     48  C   UNL A   1      42.613  31.982  32.843  1.00  0.00     0.029 A 
ATOM     49  C   UNL A   1      41.632  32.444  33.809  1.00  0.00     0.049 A 
ATOM     50  H   UNL A   1      39.865  33.480  33.182  1.00  0.00     0.167 HD
ATOM     51  C   UNL A   1      41.981  27.438  29.253  1.00  0.00     0.037 A 
ATOM     52  C   UNL A   1      41.457  31.962  35.068  1.00  0.00     0.037 A 
ATOM     53  C   UNL A   1      43.019  27.653  30.221  1.00  0.00     0.049 A 
ATOM     54  C   UNL A   1      42.001  30.545  35.204  1.00  0.00     0.074 A 
ATOM     55  C   UNL A   1      43.996  28.613  30.363  1.00  0.00     0.029 A 
ATOM     56  N   UNL A   1      42.790  27.111  31.475  1.00  0.00    -0.354 N 
ATOM     57  N   UNL A   1      42.357  29.780  34.202  1.00  0.00    -0.248 NA
ATOM     58  C   UNL A   1      42.218  29.896  36.492  1.00  0.00     0.031 C 
ATOM     59  C   UNL A   1      44.204  28.774  31.768  1.00  0.00     0.029 A 
ATOM     60  C   UNL A   1      43.412  27.860  32.451  1.00  0.00     0.049 A 
ATOM     61  H   UNL A   1      42.257  26.301  31.647  1.00  0.00     0.167 HD
ATOM     62  C   UNL A   1      42.789  28.566  34.669  1.00  0.00     0.074 A 
ATOM     63  C   UNL A   1      42.721  28.709  36.112  1.00  0.00     0.031 C 
ATOM     64  C   UNL A   1      43.157  27.532  33.851  1.00  0.00     0.037 A 
BRANCH  51  65
ATOM     65  C   UNL A   1      42.137  26.854  27.834  1.00  0.00     0.057 A 
ATOM     66  C   UNL A   1      42.453  25.492  27.684  1.00  0.00     0.134 A 
ATOM     67  C   UNL A   1      42.121  27.551  26.590  1.00  0.00     0.134 A 
ATOM     68  F   UNL A   1      42.558  24.690  28.751  1.00  0.00    -0.206 F 
ATOM     69  C   UNL A   1      42.710  24.884  26.437  1.00  0.00     0.040 A 
ATOM     70  C   UNL A   1      42.319  26.943  25.335  1.00  0.00     0.040 A 
ATOM     71  F   UNL A   1      41.991  28.878  26.484  1.00  0.00    -0.206 F 
ATOM     72  C   UNL A   1      42.628  25.602  25.253  1.00  0.00     0.006 A 
ENDBRANCH  51  65
BRANCH  52  73
ATOM     73  C   UNL A   1      40.249  32.535  35.750  1.00  0.00     0.057 A 
ATOM     74  C   UNL A   1      40.269  33.846  36.266  1.00  0.00     0.134 A 
ATOM     75  C   UNL A   1      38.990  31.974  35.571  1.00  0.00     0.134 A 
ATOM     76  F   UNL A   1      41.440  34.471  36.463  1.00  0.00    -0.206 F 
ATOM     77  C   UNL A   1      39.099  34.591  36.489  1.00  0.00     0.040 A 
ATOM     78  C   UNL A   1      37.805  32.693  35.831  1.00  0.00     0.040 A 
ATOM     79  F   UNL A   1      38.907  30.784  34.969  1.00  0.00    -0.206 F 
ATOM     80  C   UNL A   1      37.858  34.022  36.244  1.00  0.00     0.006 A 
ENDBRANCH  52  73
BRANCH  64  81
ATOM     81  C   UNL A   1      43.313  26.087  34.297  1.00  0.00     0.057 A 
ATOM     82  C   UNL A   1      42.290  25.328  34.887  1.00  0.00     0.134 A 
ATOM     83  C   UNL A   1      44.483  25.352  33.984  1.00  0.00     0.134 A 
ATOM     84  F   UNL A   1      41.070  25.832  35.108  1.00  0.00    -0.206 F 
ATOM     85  C   UNL A   1      42.452  23.978  35.225  1.00  0.00     0.040 A 
ATOM     86  C   UNL A   1      44.618  23.983  34.231  1.00  0.00     0.040 A 
ATOM     87  F   UNL A   1      45.542  25.923  33.391  1.00  0.00    -0.206 F 
ATOM     88  C   UNL A   1      43.611  23.296  34.884  1.00  0.00     0.006 A 
ENDBRANCH  64  81
ENDBRANCH  38  39
ENDBRANCH  31  33
ENDBRANCH  30  31
ENDBRANCH  29  30
ENDBRANCH  28  29
ENDBRANCH  27  28
ENDBRANCH  26  27
ENDBRANCH   1  26
TORSDOF 20
ENDMDL
MODEL 3
REMARK VINA RESULT:     -11.5      4.054      7.050
REMARK SMILES Cc1cccc(NC(=O)C[C@@H]2CCCCO2)c1C(=O)OCCOCCOCCOC(=O)c1ccc(-c2c3nc(c(-c4c(F)cccc4F)c4ccc([nH]4)c(-c4c(F)cccc4F)c4nc(c(-c5c(F)cccc5F)c5ccc2[nH]5)C=C4)C=C3)cc1
REMARK SMILES IDX 24 1 23 2 22 3 21 4 20 5 18 6 19 7 17 8 1 9 2 10 3 11 4 12
REMARK SMILES IDX 6 13 5 14 7 15 8 16 9 18 10 19 11 20 12 21 16 22 13 23 15 24
REMARK SMILES IDX 14 25 25 26 26 27 27 28 28 29 29 30 30 31 31 32 32 33 33 34
REMARK SMILES IDX 85 35 34 36 84 37 35 38 36 39 37 40 78 41 38 42 83 43 77 44
REMARK SMILES IDX 79 45 39 46 82 47 76 48 75 49 40 51 66 52 49 53 65 54 50 55
REMARK SMILES IDX 53 56 64 57 80 58 51 59 52 60 63 62 81 63 54 64 41 65 42 66
REMARK SMILES IDX 47 67 43 68 44 69 46 70 48 71 45 72 67 73 68 74 73 75 69 76
REMARK SMILES IDX 70 77 72 78 74 79 71 80 55 81 56 82 61 83 57 84 58 85 60 86
REMARK SMILES IDX 62 87 59 88
REMARK H PARENT 7 17 79 50 53 61
REMARK Flexibility Score: inf
ROOT
ATOM      1  C   UNL A   1      36.582  29.375  27.949  1.00  0.00     0.188 C 
ENDROOT
BRANCH   1   2
ATOM      2  O   UNL A   1      35.147  29.424  28.084  1.00  0.00    -0.376 OA
BRANCH   2   3
ATOM      3  C   UNL A   1      34.160  29.178  27.060  1.00  0.00     0.202 C 
BRANCH   3   4
ATOM      4  C   UNL A   1      33.614  27.703  26.271  1.00  0.00     0.261 C 
BRANCH   4   5
ATOM      5  O   UNL A   1      34.365  26.497  25.164  1.00  0.00    -0.460 OA
BRANCH   5   6
ATOM      6  C   UNL A   1      34.433  25.024  24.921  1.00  0.00     0.340 C 
ATOM      7  O   UNL A   1      35.436  24.410  24.538  1.00  0.00    -0.246 OA
BRANCH   6   8
ATOM      8  C   UNL A   1      33.376  23.976  24.828  1.00  0.00     0.086 A 
ATOM      9  C   UNL A   1      33.798  23.113  27.185  1.00  0.00     0.045 C 
ATOM     10  C   UNL A   1      32.970  23.264  25.952  1.00  0.00    -0.034 A 
ATOM     11  C   UNL A   1      31.716  22.622  25.917  1.00  0.00     0.004 A 
ATOM     12  C   UNL A   1      30.869  22.685  24.807  1.00  0.00     0.002 A 
ATOM     13  C   UNL A   1      32.551  23.898  23.595  1.00  0.00     0.056 A 
ATOM     14  C   UNL A   1      31.287  23.316  23.648  1.00  0.00     0.027 A 
BRANCH  13  15
ATOM     15  N   UNL A   1      32.995  24.413  22.327  1.00  0.00    -0.325 N 
ATOM     16  C   UNL A   1      32.646  25.507  21.566  1.00  0.00     0.227 C 
ATOM     17  H   UNL A   1      33.701  23.867  21.914  1.00  0.00     0.169 HD
ATOM     18  O   UNL A   1      33.283  25.788  20.548  1.00  0.00    -0.275 OA
BRANCH  16  19
ATOM     19  C   UNL A   1      31.465  26.395  21.857  1.00  0.00     0.132 C 
BRANCH  19  20
ATOM     20  C   UNL A   1      31.601  27.332  23.071  1.00  0.00     0.127 C 
ATOM     21  C   UNL A   1      30.522  27.022  24.114  1.00  0.00     0.033 C 
ATOM     22  O   UNL A   1      31.578  28.734  22.818  1.00  0.00    -0.378 OA
ATOM     23  C   UNL A   1      29.140  27.349  23.557  1.00  0.00     0.005 C 
ATOM     24  C   UNL A   1      30.353  29.270  22.355  1.00  0.00     0.160 C 
ATOM     25  C   UNL A   1      29.086  28.781  23.046  1.00  0.00     0.029 C 
ENDBRANCH  19  20
ENDBRANCH  16  19
ENDBRANCH  13  15
ENDBRANCH   6   8
ENDBRANCH   5   6
ENDBRANCH   4   5
ENDBRANCH   3   4
ENDBRANCH   2   3
ENDBRANCH   1   2
BRANCH   1  26
ATOM     26  C   UNL A   1      37.517  30.464  28.457  1.00  0.00     0.188 C 
BRANCH  26  27
ATOM     27  O   UNL A   1      36.788  31.626  28.776  1.00  0.00    -0.376 OA
BRANCH  27  28
ATOM     28  C   UNL A   1      36.948  32.111  30.094  1.00  0.00     0.202 C 
BRANCH  28  29
ATOM     29  C   UNL A   1      36.826  31.027  31.185  1.00  0.00     0.261 C 
BRANCH  29  30
ATOM     30  O   UNL A   1      38.100  30.758  31.824  1.00  0.00    -0.460 OA
BRANCH  30  31
ATOM     31  C   UNL A   1      38.156  29.763  32.774  1.00  0.00     0.338 C 
ATOM     32  O   UNL A   1      37.718  29.866  33.914  1.00  0.00    -0.246 OA
BRANCH  31  33
ATOM     33  C   UNL A   1      39.060  28.661  32.305  1.00  0.00     0.060 A 
ATOM     34  C   UNL A   1      40.461  28.617  32.393  1.00  0.00     0.016 A 
ATOM     35  C   UNL A   1      38.512  27.887  31.351  1.00  0.00     0.016 A 
ATOM     36  C   UNL A   1      41.282  28.019  31.345  1.00  0.00     0.010 A 
ATOM     37  C   UNL A   1      39.323  27.686  30.250  1.00  0.00     0.010 A 
ATOM     38  C   UNL A   1      40.749  27.622  30.117  1.00  0.00    -0.014 A 
BRANCH  38  39
ATOM     39  C   UNL A   1      41.653  27.040  28.728  1.00  0.00     0.031 A 
ATOM     40  C   UNL A   1      42.380  25.446  28.390  1.00  0.00     0.074 A 
ATOM     41  C   UNL A   1      42.035  27.968  27.824  1.00  0.00     0.049 A 
ATOM     42  N   UNL A   1      43.535  25.251  27.785  1.00  0.00    -0.248 NA
ATOM     43  C   UNL A   1      41.969  24.027  28.858  1.00  0.00     0.031 C 
ATOM     44  C   UNL A   1      42.655  27.754  26.520  1.00  0.00     0.029 A 
ATOM     45  N   UNL A   1      41.978  29.363  27.939  1.00  0.00    -0.354 N 
ATOM     46  C   UNL A   1      43.752  23.857  27.723  1.00  0.00     0.074 A 
ATOM     47  C   UNL A   1      43.040  23.269  28.766  1.00  0.00     0.031 C 
ATOM     48  C   UNL A   1      43.188  28.918  26.105  1.00  0.00     0.029 A 
ATOM     49  C   UNL A   1      43.060  29.862  27.200  1.00  0.00     0.049 A 
ATOM     50  H   UNL A   1      41.312  29.888  28.439  1.00  0.00     0.167 HD
ATOM     51  C   UNL A   1      44.247  23.213  26.633  1.00  0.00     0.037 A 
ATOM     52  C   UNL A   1      44.079  30.500  27.834  1.00  0.00     0.037 A 
ATOM     53  C   UNL A   1      45.012  24.183  25.901  1.00  0.00     0.049 A 
ATOM     54  C   UNL A   1      45.394  29.746  27.674  1.00  0.00     0.074 A 
ATOM     55  C   UNL A   1      44.730  24.994  24.824  1.00  0.00     0.029 A 
ATOM     56  N   UNL A   1      46.054  24.773  26.597  1.00  0.00    -0.354 N 
ATOM     57  N   UNL A   1      45.506  28.523  27.217  1.00  0.00    -0.248 NA
ATOM     58  C   UNL A   1      46.692  30.333  27.988  1.00  0.00     0.031 C 
ATOM     59  C   UNL A   1      45.494  26.188  25.005  1.00  0.00     0.029 A 
ATOM     60  C   UNL A   1      46.283  26.053  26.140  1.00  0.00     0.049 A 
ATOM     61  H   UNL A   1      46.563  24.339  27.320  1.00  0.00     0.167 HD
ATOM     62  C   UNL A   1      46.822  28.142  27.213  1.00  0.00     0.074 A 
ATOM     63  C   UNL A   1      47.525  29.329  27.666  1.00  0.00     0.031 C 
ATOM     64  C   UNL A   1      47.243  26.889  26.856  1.00  0.00     0.037 A 
BRANCH  51  65
ATOM     65  C   UNL A   1      43.914  21.771  26.201  1.00  0.00     0.057 A 
ATOM     66  C   UNL A   1      44.932  20.967  25.656  1.00  0.00     0.134 A 
ATOM     67  C   UNL A   1      42.638  21.136  26.163  1.00  0.00     0.134 A 
ATOM     68  F   UNL A   1      46.190  21.418  25.567  1.00  0.00    -0.206 F 
ATOM     69  C   UNL A   1      44.711  19.670  25.144  1.00  0.00     0.040 A 
ATOM     70  C   UNL A   1      42.416  19.822  25.708  1.00  0.00     0.040 A 
ATOM     71  F   UNL A   1      41.494  21.750  26.486  1.00  0.00    -0.206 F 
ATOM     72  C   UNL A   1      43.455  19.084  25.182  1.00  0.00     0.006 A 
ENDBRANCH  51  65
BRANCH  52  73
ATOM     73  C   UNL A   1      43.625  31.278  29.034  1.00  0.00     0.057 A 
ATOM     74  C   UNL A   1      43.754  30.740  30.331  1.00  0.00     0.134 A 
ATOM     75  C   UNL A   1      43.426  32.651  28.966  1.00  0.00     0.134 A 
ATOM     76  F   UNL A   1      43.958  29.424  30.493  1.00  0.00    -0.206 F 
ATOM     77  C   UNL A   1      43.790  31.542  31.484  1.00  0.00     0.040 A 
ATOM     78  C   UNL A   1      43.415  33.466  30.117  1.00  0.00     0.040 A 
ATOM     79  F   UNL A   1      43.422  33.232  27.762  1.00  0.00    -0.206 F 
ATOM     80  C   UNL A   1      43.646  32.918  31.376  1.00  0.00     0.006 A 
ENDBRANCH  52  73
BRANCH  64  81
ATOM     81  C   UNL A   1      48.620  26.319  27.154  1.00  0.00     0.057 A 
ATOM     82  C   UNL A   1      49.562  25.974  26.173  1.00  0.00     0.134 A 
ATOM     83  C   UNL A   1      49.107  26.255  28.483  1.00  0.00     0.134 A 
ATOM     84  F   UNL A   1      49.312  26.124  24.867  1.00  0.00    -0.206 F 
ATOM     85  C   UNL A   1      50.847  25.513  26.488  1.00  0.00     0.040 A 
ATOM     86  C   UNL A   1      50.417  25.888  28.803  1.00  0.00     0.040 A 
ATOM     87  F   UNL A   1      48.343  26.581  29.536  1.00  0.00    -0.206 F 
ATOM     88  C   UNL A   1      51.285  25.483  27.804  1.00  0.00     0.006 A 
ENDBRANCH  64  81
ENDBRANCH  38  39
ENDBRANCH  31  33
ENDBRANCH  30  31
ENDBRANCH  29  30
ENDBRANCH  28  29
ENDBRANCH  27  28
ENDBRANCH  26  27
ENDBRANCH   1  26
TORSDOF 20
ENDMDL
