MODEL 1
REMARK VINA RESULT:     -10.6      0.000      0.000
REMARK SMILES CCN(CC)C(=O)[C@@H]1CC=CC[C@H]1C(=O)Nc1ccc(C(=O)OCCOCCOCCOC(=O)c2ccc(-c3c4nc(c(-c5c(F)cccc5F)c5ccc([nH]5)c(-c5c(F)cccc5F)c5nc(c(-c6c(F)cccc6F)c6ccc3[nH]6)C=C5)C=C4)cc2)cc1
REMARK SMILES IDX 27 1 26 2 25 3 24 4 23 5 21 6 22 7 20 8 17 9 18 10 90 11
REMARK SMILES IDX 19 12 89 13 16 14 14 15 15 16 13 18 8 19 9 20 10 21 12 22
REMARK SMILES IDX 11 23 6 24 3 25 7 26 2 27 1 28 4 29 5 30 28 31 29 32 30 33
REMARK SMILES IDX 31 34 32 35 33 36 34 37 35 38 36 39 88 40 37 41 87 42 38 43
REMARK SMILES IDX 39 44 40 45 81 46 41 47 86 48 80 49 82 50 42 51 85 52 79 53
REMARK SMILES IDX 78 54 43 56 69 57 52 58 68 59 53 60 56 61 67 62 83 63 54 64
REMARK SMILES IDX 55 65 66 67 84 68 57 69 44 70 45 71 50 72 46 73 47 74 49 75
REMARK SMILES IDX 51 76 48 77 70 78 71 79 76 80 72 81 73 82 75 83 77 84 74 85
REMARK SMILES IDX 58 86 59 87 64 88 60 89 61 90 63 91 65 92 62 93
REMARK H PARENT 16 17 82 55 56 66
REMARK Flexibility Score: inf
ROOT
ATOM      1  C   UNL A   1      32.866  28.965  26.890  1.00  0.00     0.188 C 
ENDROOT
BRANCH   1   2
ATOM      2  O   UNL A   1      32.431  28.770  25.547  1.00  0.00    -0.376 OA
BRANCH   2   3
ATOM      3  C   UNL A   1      31.441  29.622  24.982  1.00  0.00     0.202 C 
BRANCH   3   4
ATOM      4  C   UNL A   1      30.655  29.145  23.754  1.00  0.00     0.261 C 
BRANCH   4   5
ATOM      5  O   UNL A   1      29.957  27.911  23.960  1.00  0.00    -0.460 OA
BRANCH   5   6
ATOM      6  C   UNL A   1      30.439  26.848  23.266  1.00  0.00     0.338 C 
ATOM      7  O   UNL A   1      30.867  26.848  22.133  1.00  0.00    -0.246 OA
BRANCH   6   8
ATOM      8  C   UNL A   1      30.510  25.658  24.153  1.00  0.00     0.060 A 
ATOM      9  C   UNL A   1      30.922  23.572  25.925  1.00  0.00     0.041 A 
ATOM     10  C   UNL A   1      30.490  24.802  26.418  1.00  0.00     0.027 A 
ATOM     11  C   UNL A   1      30.901  23.315  24.561  1.00  0.00     0.027 A 
ATOM     12  C   UNL A   1      30.303  25.856  25.526  1.00  0.00     0.018 A 
ATOM     13  C   UNL A   1      30.751  24.371  23.666  1.00  0.00     0.018 A 
BRANCH   9  14
ATOM     14  N   UNL A   1      31.529  22.679  26.804  1.00  0.00    -0.326 N 
ATOM     15  C   UNL A   1      32.883  22.474  26.951  1.00  0.00     0.228 C 
ATOM     16  O   UNL A   1      33.236  21.909  27.996  1.00  0.00    -0.274 OA
ATOM     17  H   UNL A   1      30.934  22.145  27.377  1.00  0.00     0.169 HD
BRANCH  15  18
ATOM     18  C   UNL A   1      33.968  23.068  26.011  1.00  0.00     0.095 C 
ATOM     19  C   UNL A   1      34.286  22.379  24.642  1.00  0.00     0.095 C 
ATOM     20  C   UNL A   1      35.412  23.143  23.927  1.00  0.00     0.041 C 
ATOM     21  C   UNL A   1      35.234  24.631  23.920  1.00  0.00    -0.030 C 
ATOM     22  C   UNL A   1      33.767  24.596  25.929  1.00  0.00     0.041 C 
ATOM     23  C   UNL A   1      34.470  25.279  24.802  1.00  0.00    -0.030 C 
BRANCH  19  24
ATOM     24  C   UNL A   1      34.465  20.854  24.843  1.00  0.00     0.226 C 
ATOM     25  N   UNL A   1      33.541  19.900  24.432  1.00  0.00    -0.343 N 
ATOM     26  O   UNL A   1      35.425  20.469  25.524  1.00  0.00    -0.275 OA
BRANCH  25  27
ATOM     27  C   UNL A   1      33.817  18.507  24.828  1.00  0.00     0.116 C 
ATOM     28  C   UNL A   1      32.659  17.857  25.578  1.00  0.00     0.027 C 
ENDBRANCH  25  27
BRANCH  25  29
ATOM     29  C   UNL A   1      32.275  20.116  23.733  1.00  0.00     0.116 C 
ATOM     30  C   UNL A   1      32.239  19.440  22.372  1.00  0.00     0.027 C 
ENDBRANCH  25  29
ENDBRANCH  19  24
ENDBRANCH  15  18
ENDBRANCH   9  14
ENDBRANCH   6   8
ENDBRANCH   5   6
ENDBRANCH   4   5
ENDBRANCH   3   4
ENDBRANCH   2   3
ENDBRANCH   1   2
BRANCH   1  31
ATOM     31  C   UNL A   1      34.299  29.459  27.178  1.00  0.00     0.188 C 
BRANCH  31  32
ATOM     32  O   UNL A   1      34.364  30.789  27.640  1.00  0.00    -0.376 OA
BRANCH  32  33
ATOM     33  C   UNL A   1      33.161  31.536  27.651  1.00  0.00     0.202 C 
BRANCH  33  34
ATOM     34  C   UNL A   1      33.181  33.036  27.297  1.00  0.00     0.261 C 
BRANCH  34  35
ATOM     35  O   UNL A   1      32.365  33.914  28.090  1.00  0.00    -0.460 OA
BRANCH  35  36
ATOM     36  C   UNL A   1      32.974  34.966  28.683  1.00  0.00     0.338 C 
ATOM     37  O   UNL A   1      32.546  36.101  28.778  1.00  0.00    -0.246 OA
BRANCH  36  38
ATOM     38  C   UNL A   1      34.185  34.467  29.377  1.00  0.00     0.060 A 
ATOM     39  C   UNL A   1      35.430  34.621  28.756  1.00  0.00     0.016 A 
ATOM     40  C   UNL A   1      34.094  33.840  30.623  1.00  0.00     0.016 A 
ATOM     41  C   UNL A   1      36.583  34.114  29.363  1.00  0.00     0.010 A 
ATOM     42  C   UNL A   1      35.248  33.320  31.223  1.00  0.00     0.010 A 
ATOM     43  C   UNL A   1      36.495  33.425  30.580  1.00  0.00    -0.014 A 
BRANCH  43  44
ATOM     44  C   UNL A   1      37.678  32.685  31.091  1.00  0.00     0.031 A 
ATOM     45  C   UNL A   1      38.322  33.140  32.375  1.00  0.00     0.074 A 
ATOM     46  C   UNL A   1      38.156  31.603  30.453  1.00  0.00     0.049 A 
ATOM     47  N   UNL A   1      39.341  32.634  33.021  1.00  0.00    -0.248 NA
ATOM     48  C   UNL A   1      37.733  34.327  33.015  1.00  0.00     0.031 C 
ATOM     49  C   UNL A   1      37.618  31.045  29.214  1.00  0.00     0.029 A 
ATOM     50  N   UNL A   1      39.209  30.777  30.764  1.00  0.00    -0.354 N 
ATOM     51  C   UNL A   1      39.515  33.435  34.143  1.00  0.00     0.074 A 
ATOM     52  C   UNL A   1      38.520  34.484  34.070  1.00  0.00     0.031 C 
ATOM     53  C   UNL A   1      38.347  29.969  28.869  1.00  0.00     0.029 A 
ATOM     54  C   UNL A   1      39.413  29.774  29.849  1.00  0.00     0.049 A 
ATOM     55  H   UNL A   1      39.765  30.894  31.568  1.00  0.00     0.167 HD
ATOM     56  C   UNL A   1      40.411  33.305  35.150  1.00  0.00     0.037 A 
ATOM     57  C   UNL A   1      40.358  28.814  29.804  1.00  0.00     0.037 A 
ATOM     58  C   UNL A   1      41.409  32.269  35.223  1.00  0.00     0.049 A 
ATOM     59  C   UNL A   1      41.378  28.721  30.909  1.00  0.00     0.074 A 
ATOM     60  C   UNL A   1      42.352  32.048  36.211  1.00  0.00     0.029 A 
ATOM     61  N   UNL A   1      41.598  31.285  34.265  1.00  0.00    -0.354 N 
ATOM     62  N   UNL A   1      41.509  29.462  31.983  1.00  0.00    -0.248 NA
ATOM     63  C   UNL A   1      42.376  27.647  30.799  1.00  0.00     0.031 C 
ATOM     64  C   UNL A   1      43.143  30.958  35.827  1.00  0.00     0.029 A 
ATOM     65  C   UNL A   1      42.655  30.467  34.629  1.00  0.00     0.049 A 
ATOM     66  H   UNL A   1      41.060  31.183  33.446  1.00  0.00     0.167 HD
ATOM     67  C   UNL A   1      42.577  28.923  32.692  1.00  0.00     0.074 A 
ATOM     68  C   UNL A   1      43.051  27.786  31.932  1.00  0.00     0.031 C 
ATOM     69  C   UNL A   1      43.115  29.332  33.868  1.00  0.00     0.037 A 
BRANCH  56  70
ATOM     70  C   UNL A   1      40.366  34.327  36.249  1.00  0.00     0.057 A 
ATOM     71  C   UNL A   1      41.086  35.527  36.172  1.00  0.00     0.134 A 
ATOM     72  C   UNL A   1      39.571  34.123  37.384  1.00  0.00     0.134 A 
ATOM     73  F   UNL A   1      41.879  35.779  35.120  1.00  0.00    -0.206 F 
ATOM     74  C   UNL A   1      41.035  36.476  37.195  1.00  0.00     0.040 A 
ATOM     75  C   UNL A   1      39.490  35.076  38.400  1.00  0.00     0.040 A 
ATOM     76  F   UNL A   1      38.852  32.998  37.518  1.00  0.00    -0.206 F 
ATOM     77  C   UNL A   1      40.229  36.254  38.311  1.00  0.00     0.006 A 
ENDBRANCH  56  70
BRANCH  57  78
ATOM     78  C   UNL A   1      40.388  27.849  28.674  1.00  0.00     0.057 A 
ATOM     79  C   UNL A   1      41.090  28.131  27.496  1.00  0.00     0.134 A 
ATOM     80  C   UNL A   1      39.687  26.639  28.733  1.00  0.00     0.134 A 
ATOM     81  F   UNL A   1      41.758  29.286  27.369  1.00  0.00    -0.206 F 
ATOM     82  C   UNL A   1      41.078  27.253  26.410  1.00  0.00     0.040 A 
ATOM     83  C   UNL A   1      39.689  25.740  27.666  1.00  0.00     0.040 A 
ATOM     84  F   UNL A   1      38.993  26.311  29.834  1.00  0.00    -0.206 F 
ATOM     85  C   UNL A   1      40.380  26.050  26.496  1.00  0.00     0.006 A 
ENDBRANCH  57  78
BRANCH  69  86
ATOM     86  C   UNL A   1      44.246  28.516  34.428  1.00  0.00     0.057 A 
ATOM     87  C   UNL A   1      45.588  28.824  34.170  1.00  0.00     0.134 A 
ATOM     88  C   UNL A   1      43.986  27.411  35.250  1.00  0.00     0.134 A 
ATOM     89  F   UNL A   1      45.908  29.862  33.383  1.00  0.00    -0.206 F 
ATOM     90  C   UNL A   1      46.627  28.043  34.679  1.00  0.00     0.040 A 
ATOM     91  C   UNL A   1      45.017  26.640  35.788  1.00  0.00     0.040 A 
ATOM     92  F   UNL A   1      42.724  27.066  35.549  1.00  0.00    -0.206 F 
ATOM     93  C   UNL A   1      46.342  26.949  35.494  1.00  0.00     0.006 A 
ENDBRANCH  69  86
ENDBRANCH  43  44
ENDBRANCH  36  38
ENDBRANCH  35  36
ENDBRANCH  34  35
ENDBRANCH  33  34
ENDBRANCH  32  33
ENDBRANCH  31  32
ENDBRANCH   1  31
TORSDOF 22
ENDMDL
MODEL 2
REMARK VINA RESULT:     -10.5      3.037      8.431
REMARK SMILES CCN(CC)C(=O)[C@@H]1CC=CC[C@H]1C(=O)Nc1ccc(C(=O)OCCOCCOCCOC(=O)c2ccc(-c3c4nc(c(-c5c(F)cccc5F)c5ccc([nH]5)c(-c5c(F)cccc5F)c5nc(c(-c6c(F)cccc6F)c6ccc3[nH]6)C=C5)C=C4)cc2)cc1
REMARK SMILES IDX 27 1 26 2 25 3 24 4 23 5 21 6 22 7 20 8 17 9 18 10 90 11
REMARK SMILES IDX 19 12 89 13 16 14 14 15 15 16 13 18 8 19 9 20 10 21 12 22
REMARK SMILES IDX 11 23 6 24 3 25 7 26 2 27 1 28 4 29 5 30 28 31 29 32 30 33
REMARK SMILES IDX 31 34 32 35 33 36 34 37 35 38 36 39 88 40 37 41 87 42 38 43
REMARK SMILES IDX 39 44 40 45 81 46 41 47 86 48 80 49 82 50 42 51 85 52 79 53
REMARK SMILES IDX 78 54 43 56 69 57 52 58 68 59 53 60 56 61 67 62 83 63 54 64
REMARK SMILES IDX 55 65 66 67 84 68 57 69 44 70 45 71 50 72 46 73 47 74 49 75
REMARK SMILES IDX 51 76 48 77 70 78 71 79 76 80 72 81 73 82 75 83 77 84 74 85
REMARK SMILES IDX 58 86 59 87 64 88 60 89 61 90 63 91 65 92 62 93
REMARK H PARENT 16 17 82 55 56 66
REMARK Flexibility Score: inf
ROOT
ATOM      1  C   UNL A   1      41.677  21.220  27.121  1.00  0.00     0.188 C 
ENDROOT
BRANCH   1   2
ATOM      2  O   UNL A   1      40.427  21.025  26.465  1.00  0.00    -0.376 OA
BRANCH   2   3
ATOM      3  C   UNL A   1      39.530  22.116  26.290  1.00  0.00     0.202 C 
BRANCH   3   4
ATOM      4  C   UNL A   1      38.169  21.867  25.627  1.00  0.00     0.261 C 
BRANCH   4   5
ATOM      5  O   UNL A   1      37.521  23.062  25.176  1.00  0.00    -0.460 OA
BRANCH   5   6
ATOM      6  C   UNL A   1      36.634  22.895  24.161  1.00  0.00     0.338 C 
ATOM      7  O   UNL A   1      36.792  22.241  23.153  1.00  0.00    -0.246 OA
BRANCH   6   8
ATOM      8  C   UNL A   1      35.336  23.523  24.517  1.00  0.00     0.060 A 
ATOM      9  C   UNL A   1      32.910  24.486  25.438  1.00  0.00     0.041 A 
ATOM     10  C   UNL A   1      34.075  24.824  26.124  1.00  0.00     0.027 A 
ATOM     11  C   UNL A   1      32.978  23.898  24.182  1.00  0.00     0.027 A 
ATOM     12  C   UNL A   1      35.293  24.321  25.669  1.00  0.00     0.018 A 
ATOM     13  C   UNL A   1      34.185  23.361  23.741  1.00  0.00     0.018 A 
BRANCH   9  14
ATOM     14  N   UNL A   1      31.692  24.592  26.105  1.00  0.00    -0.326 N 
ATOM     15  C   UNL A   1      30.976  25.748  26.316  1.00  0.00     0.228 C 
ATOM     16  O   UNL A   1      29.783  25.601  26.615  1.00  0.00    -0.274 OA
ATOM     17  H   UNL A   1      31.305  23.758  26.457  1.00  0.00     0.169 HD
BRANCH  15  18
ATOM     18  C   UNL A   1      31.508  27.177  26.015  1.00  0.00     0.095 C 
ATOM     19  C   UNL A   1      30.888  28.018  24.849  1.00  0.00     0.095 C 
ATOM     20  C   UNL A   1      31.611  29.371  24.746  1.00  0.00     0.041 C 
ATOM     21  C   UNL A   1      31.807  30.063  26.061  1.00  0.00    -0.030 C 
ATOM     22  C   UNL A   1      31.655  27.940  27.349  1.00  0.00     0.041 C 
ATOM     23  C   UNL A   1      31.796  29.421  27.233  1.00  0.00    -0.030 C 
BRANCH  19  24
ATOM     24  C   UNL A   1      30.786  27.156  23.567  1.00  0.00     0.226 C 
ATOM     25  N   UNL A   1      31.751  27.131  22.566  1.00  0.00    -0.343 N 
ATOM     26  O   UNL A   1      29.726  26.553  23.358  1.00  0.00    -0.275 OA
BRANCH  25  27
ATOM     27  C   UNL A   1      31.421  26.355  21.357  1.00  0.00     0.116 C 
ATOM     28  C   UNL A   1      32.638  25.693  20.720  1.00  0.00     0.027 C 
ENDBRANCH  25  27
BRANCH  25  29
ATOM     29  C   UNL A   1      33.020  27.857  22.521  1.00  0.00     0.116 C 
ATOM     30  C   UNL A   1      34.134  27.127  23.254  1.00  0.00     0.027 C 
ENDBRANCH  25  29
ENDBRANCH  19  24
ENDBRANCH  15  18
ENDBRANCH   9  14
ENDBRANCH   6   8
ENDBRANCH   5   6
ENDBRANCH   4   5
ENDBRANCH   3   4
ENDBRANCH   2   3
ENDBRANCH   1   2
BRANCH   1  31
ATOM     31  C   UNL A   1      42.916  20.410  26.687  1.00  0.00     0.188 C 
BRANCH  31  32
ATOM     32  O   UNL A   1      43.254  20.563  25.328  1.00  0.00    -0.376 OA
BRANCH  32  33
ATOM     33  C   UNL A   1      44.138  21.617  24.990  1.00  0.00     0.202 C 
BRANCH  33  34
ATOM     34  C   UNL A   1      43.583  22.939  24.425  1.00  0.00     0.261 C 
BRANCH  34  35
ATOM     35  O   UNL A   1      44.388  24.118  24.588  1.00  0.00    -0.460 OA
BRANCH  35  36
ATOM     36  C   UNL A   1      45.060  24.259  25.754  1.00  0.00     0.338 C 
ATOM     37  O   UNL A   1      46.198  23.898  25.990  1.00  0.00    -0.246 OA
BRANCH  36  38
ATOM     38  C   UNL A   1      44.245  25.104  26.658  1.00  0.00     0.060 A 
ATOM     39  C   UNL A   1      44.533  26.472  26.745  1.00  0.00     0.016 A 
ATOM     40  C   UNL A   1      43.214  24.553  27.425  1.00  0.00     0.016 A 
ATOM     41  C   UNL A   1      43.815  27.283  27.629  1.00  0.00     0.010 A 
ATOM     42  C   UNL A   1      42.506  25.364  28.320  1.00  0.00     0.010 A 
ATOM     43  C   UNL A   1      42.825  26.728  28.451  1.00  0.00    -0.014 A 
BRANCH  43  44
ATOM     44  C   UNL A   1      42.241  27.543  29.548  1.00  0.00     0.031 A 
ATOM     45  C   UNL A   1      42.900  27.518  30.903  1.00  0.00     0.074 A 
ATOM     46  C   UNL A   1      41.166  28.324  29.343  1.00  0.00     0.049 A 
ATOM     47  N   UNL A   1      42.583  28.166  31.995  1.00  0.00    -0.248 NA
ATOM     48  C   UNL A   1      44.075  26.644  31.041  1.00  0.00     0.031 C 
ATOM     49  C   UNL A   1      40.444  28.456  28.080  1.00  0.00     0.029 A 
ATOM     50  N   UNL A   1      40.494  29.159  30.203  1.00  0.00    -0.354 N 
ATOM     51  C   UNL A   1      43.519  27.783  32.948  1.00  0.00     0.074 A 
ATOM     52  C   UNL A   1      44.392  26.816  32.316  1.00  0.00     0.031 C 
ATOM     53  C   UNL A   1      39.427  29.319  28.248  1.00  0.00     0.029 A 
ATOM     54  C   UNL A   1      39.413  29.785  29.633  1.00  0.00     0.049 A 
ATOM     55  H   UNL A   1      40.763  29.295  31.141  1.00  0.00     0.167 HD
ATOM     56  C   UNL A   1      43.650  28.205  34.228  1.00  0.00     0.037 A 
ATOM     57  C   UNL A   1      38.512  30.630  30.171  1.00  0.00     0.037 A 
ATOM     58  C   UNL A   1      42.779  29.159  34.864  1.00  0.00     0.049 A 
ATOM     59  C   UNL A   1      38.647  31.044  31.613  1.00  0.00     0.074 A 
ATOM     60  C   UNL A   1      42.841  29.657  36.154  1.00  0.00     0.029 A 
ATOM     61  N   UNL A   1      41.682  29.753  34.260  1.00  0.00    -0.354 N 
ATOM     62  N   UNL A   1      39.558  30.703  32.493  1.00  0.00    -0.248 NA
ATOM     63  C   UNL A   1      37.632  31.973  32.133  1.00  0.00     0.031 C 
ATOM     64  C   UNL A   1      41.753  30.517  36.345  1.00  0.00     0.029 A 
ATOM     65  C   UNL A   1      41.048  30.598  35.156  1.00  0.00     0.049 A 
ATOM     66  H   UNL A   1      41.396  29.597  33.330  1.00  0.00     0.167 HD
ATOM     67  C   UNL A   1      39.247  31.400  33.655  1.00  0.00     0.074 A 
ATOM     68  C   UNL A   1      38.071  32.193  33.365  1.00  0.00     0.031 C 
ATOM     69  C   UNL A   1      39.881  31.388  34.854  1.00  0.00     0.037 A 
BRANCH  56  70
ATOM     70  C   UNL A   1      44.771  27.615  35.036  1.00  0.00     0.057 A 
ATOM     71  C   UNL A   1      44.608  26.433  35.772  1.00  0.00     0.134 A 
ATOM     72  C   UNL A   1      46.033  28.220  35.056  1.00  0.00     0.134 A 
ATOM     73  F   UNL A   1      43.421  25.811  35.809  1.00  0.00    -0.206 F 
ATOM     74  C   UNL A   1      45.656  25.888  36.516  1.00  0.00     0.040 A 
ATOM     75  C   UNL A   1      47.096  27.670  35.774  1.00  0.00     0.040 A 
ATOM     76  F   UNL A   1      46.257  29.351  34.370  1.00  0.00    -0.206 F 
ATOM     77  C   UNL A   1      46.907  26.503  36.513  1.00  0.00     0.006 A 
ENDBRANCH  56  70
BRANCH  57  78
ATOM     78  C   UNL A   1      37.396  31.155  29.342  1.00  0.00     0.057 A 
ATOM     79  C   UNL A   1      37.409  32.466  28.851  1.00  0.00     0.134 A 
ATOM     80  C   UNL A   1      36.275  30.370  29.051  1.00  0.00     0.134 A 
ATOM     81  F   UNL A   1      38.443  33.277  29.120  1.00  0.00    -0.206 F 
ATOM     82  C   UNL A   1      36.340  32.983  28.117  1.00  0.00     0.040 A 
ATOM     83  C   UNL A   1      35.211  30.864  28.294  1.00  0.00     0.040 A 
ATOM     84  F   UNL A   1      36.200  29.105  29.493  1.00  0.00    -0.206 F 
ATOM     85  C   UNL A   1      35.239  32.179  27.832  1.00  0.00     0.006 A 
ENDBRANCH  57  78
BRANCH  69  86
ATOM     86  C   UNL A   1      39.342  32.293  35.926  1.00  0.00     0.057 A 
ATOM     87  C   UNL A   1      38.304  31.902  36.782  1.00  0.00     0.134 A 
ATOM     88  C   UNL A   1      39.882  33.574  36.112  1.00  0.00     0.134 A 
ATOM     89  F   UNL A   1      37.735  30.694  36.653  1.00  0.00    -0.206 F 
ATOM     90  C   UNL A   1      37.800  32.763  37.759  1.00  0.00     0.040 A 
ATOM     91  C   UNL A   1      39.406  34.432  37.104  1.00  0.00     0.040 A 
ATOM     92  F   UNL A   1      40.887  34.009  35.336  1.00  0.00    -0.206 F 
ATOM     93  C   UNL A   1      38.354  34.031  37.924  1.00  0.00     0.006 A 
ENDBRANCH  69  86
ENDBRANCH  43  44
ENDBRANCH  36  38
ENDBRANCH  35  36
ENDBRANCH  34  35
ENDBRANCH  33  34
ENDBRANCH  32  33
ENDBRANCH  31  32
ENDBRANCH   1  31
TORSDOF 22
ENDMDL
MODEL 3
REMARK VINA RESULT:     -10.4      1.329      2.360
REMARK SMILES CCN(CC)C(=O)[C@@H]1CC=CC[C@H]1C(=O)Nc1ccc(C(=O)OCCOCCOCCOC(=O)c2ccc(-c3c4nc(c(-c5c(F)cccc5F)c5ccc([nH]5)c(-c5c(F)cccc5F)c5nc(c(-c6c(F)cccc6F)c6ccc3[nH]6)C=C5)C=C4)cc2)cc1
REMARK SMILES IDX 27 1 26 2 25 3 24 4 23 5 21 6 22 7 20 8 17 9 18 10 90 11
REMARK SMILES IDX 19 12 89 13 16 14 14 15 15 16 13 18 8 19 9 20 10 21 12 22
REMARK SMILES IDX 11 23 6 24 3 25 7 26 2 27 1 28 4 29 5 30 28 31 29 32 30 33
REMARK SMILES IDX 31 34 32 35 33 36 34 37 35 38 36 39 88 40 37 41 87 42 38 43
REMARK SMILES IDX 39 44 40 45 81 46 41 47 86 48 80 49 82 50 42 51 85 52 79 53
REMARK SMILES IDX 78 54 43 56 69 57 52 58 68 59 53 60 56 61 67 62 83 63 54 64
REMARK SMILES IDX 55 65 66 67 84 68 57 69 44 70 45 71 50 72 46 73 47 74 49 75
REMARK SMILES IDX 51 76 48 77 70 78 71 79 76 80 72 81 73 82 75 83 77 84 74 85
REMARK SMILES IDX 58 86 59 87 64 88 60 89 61 90 63 91 65 92 62 93
REMARK H PARENT 16 17 82 55 56 66
REMARK Flexibility Score: inf
ROOT
ATOM      1  C   UNL A   1      33.577  28.931  27.636  1.00  0.00     0.188 C 
ENDROOT
BRANCH   1   2
ATOM      2  O   UNL A   1      32.928  28.336  26.515  1.00  0.00    -0.376 OA
BRANCH   2   3
ATOM      3  C   UNL A   1      31.654  28.806  26.090  1.00  0.00     0.202 C 
BRANCH   3   4
ATOM      4  C   UNL A   1      31.575  29.819  24.941  1.00  0.00     0.261 C 
BRANCH   4   5
ATOM      5  O   UNL A   1      31.397  29.217  23.654  1.00  0.00    -0.460 OA
BRANCH   5   6
ATOM      6  C   UNL A   1      32.535  28.782  23.053  1.00  0.00     0.338 C 
ATOM      7  O   UNL A   1      33.559  29.407  22.887  1.00  0.00    -0.246 OA
BRANCH   6   8
ATOM      8  C   UNL A   1      32.415  27.336  22.736  1.00  0.00     0.060 A 
ATOM      9  C   UNL A   1      32.197  24.589  22.472  1.00  0.00     0.041 A 
ATOM     10  C   UNL A   1      31.090  25.315  22.907  1.00  0.00     0.027 A 
ATOM     11  C   UNL A   1      33.301  25.240  21.939  1.00  0.00     0.027 A 
ATOM     12  C   UNL A   1      31.209  26.695  23.058  1.00  0.00     0.018 A 
ATOM     13  C   UNL A   1      33.441  26.613  22.121  1.00  0.00     0.018 A 
BRANCH   9  14
ATOM     14  N   UNL A   1      32.243  23.223  22.741  1.00  0.00    -0.326 N 
ATOM     15  C   UNL A   1      33.222  22.564  23.449  1.00  0.00     0.228 C 
ATOM     16  O   UNL A   1      32.922  21.437  23.870  1.00  0.00    -0.274 OA
ATOM     17  H   UNL A   1      31.502  22.676  22.392  1.00  0.00     0.169 HD
BRANCH  15  18
ATOM     18  C   UNL A   1      34.559  23.209  23.906  1.00  0.00     0.095 C 
ATOM     19  C   UNL A   1      34.749  23.659  25.394  1.00  0.00     0.095 C 
ATOM     20  C   UNL A   1      36.139  24.289  25.571  1.00  0.00     0.041 C 
ATOM     21  C   UNL A   1      37.253  23.504  24.946  1.00  0.00    -0.030 C 
ATOM     22  C   UNL A   1      35.729  22.380  23.333  1.00  0.00     0.041 C 
ATOM     23  C   UNL A   1      37.061  22.624  23.960  1.00  0.00    -0.030 C 
BRANCH  19  24
ATOM     24  C   UNL A   1      33.521  24.478  25.862  1.00  0.00     0.226 C 
ATOM     25  N   UNL A   1      32.448  23.941  26.564  1.00  0.00    -0.343 N 
ATOM     26  O   UNL A   1      33.428  25.651  25.479  1.00  0.00    -0.275 OA
BRANCH  25  27
ATOM     27  C   UNL A   1      31.308  24.842  26.808  1.00  0.00     0.116 C 
ATOM     28  C   UNL A   1      30.010  24.353  26.174  1.00  0.00     0.027 C 
ENDBRANCH  25  27
BRANCH  25  29
ATOM     29  C   UNL A   1      32.266  22.561  27.012  1.00  0.00     0.116 C 
ATOM     30  C   UNL A   1      33.387  22.093  27.925  1.00  0.00     0.027 C 
ENDBRANCH  25  29
ENDBRANCH  19  24
ENDBRANCH  15  18
ENDBRANCH   9  14
ENDBRANCH   6   8
ENDBRANCH   5   6
ENDBRANCH   4   5
ENDBRANCH   3   4
ENDBRANCH   2   3
ENDBRANCH   1   2
BRANCH   1  31
ATOM     31  C   UNL A   1      34.815  29.828  27.430  1.00  0.00     0.188 C 
BRANCH  31  32
ATOM     32  O   UNL A   1      34.507  31.169  27.126  1.00  0.00    -0.376 OA
BRANCH  32  33
ATOM     33  C   UNL A   1      33.334  31.716  27.701  1.00  0.00     0.202 C 
BRANCH  33  34
ATOM     34  C   UNL A   1      32.886  33.143  27.330  1.00  0.00     0.261 C 
BRANCH  34  35
ATOM     35  O   UNL A   1      32.291  33.941  28.367  1.00  0.00    -0.460 OA
BRANCH  35  36
ATOM     36  C   UNL A   1      32.993  35.008  28.813  1.00  0.00     0.338 C 
ATOM     37  O   UNL A   1      32.626  36.169  28.833  1.00  0.00    -0.246 OA
BRANCH  36  38
ATOM     38  C   UNL A   1      34.231  34.511  29.458  1.00  0.00     0.060 A 
ATOM     39  C   UNL A   1      35.447  34.640  28.775  1.00  0.00     0.016 A 
ATOM     40  C   UNL A   1      34.194  33.908  30.718  1.00  0.00     0.016 A 
ATOM     41  C   UNL A   1      36.622  34.133  29.336  1.00  0.00     0.010 A 
ATOM     42  C   UNL A   1      35.370  33.388  31.273  1.00  0.00     0.010 A 
ATOM     43  C   UNL A   1      36.586  33.467  30.570  1.00  0.00    -0.014 A 
BRANCH  43  44
ATOM     44  C   UNL A   1      37.785  32.726  31.039  1.00  0.00     0.031 A 
ATOM     45  C   UNL A   1      38.491  33.196  32.284  1.00  0.00     0.074 A 
ATOM     46  C   UNL A   1      38.224  31.629  30.397  1.00  0.00     0.049 A 
ATOM     47  N   UNL A   1      39.535  32.691  32.890  1.00  0.00    -0.248 NA
ATOM     48  C   UNL A   1      37.942  34.398  32.930  1.00  0.00     0.031 C 
ATOM     49  C   UNL A   1      37.625  31.056  29.193  1.00  0.00     0.029 A 
ATOM     50  N   UNL A   1      39.283  30.798  30.673  1.00  0.00    -0.354 N 
ATOM     51  C   UNL A   1      39.767  33.509  33.990  1.00  0.00     0.074 A 
ATOM     52  C   UNL A   1      38.778  34.566  33.945  1.00  0.00     0.031 C 
ATOM     53  C   UNL A   1      38.328  29.968  28.833  1.00  0.00     0.029 A 
ATOM     54  C   UNL A   1      39.437  29.779  29.767  1.00  0.00     0.049 A 
ATOM     55  H   UNL A   1      39.877  30.924  31.449  1.00  0.00     0.167 HD
ATOM     56  C   UNL A   1      40.707  33.387  34.957  1.00  0.00     0.037 A 
ATOM     57  C   UNL A   1      40.371  28.810  29.695  1.00  0.00     0.037 A 
ATOM     58  C   UNL A   1      41.698  32.343  35.002  1.00  0.00     0.049 A 
ATOM     59  C   UNL A   1      41.440  28.726  30.753  1.00  0.00     0.074 A 
ATOM     60  C   UNL A   1      42.685  32.130  35.949  1.00  0.00     0.029 A 
ATOM     61  N   UNL A   1      41.835  31.342  34.052  1.00  0.00    -0.354 N 
ATOM     62  N   UNL A   1      41.626  29.483  31.808  1.00  0.00    -0.248 NA
ATOM     63  C   UNL A   1      42.423  27.641  30.616  1.00  0.00     0.031 C 
ATOM     64  C   UNL A   1      43.447  31.027  35.547  1.00  0.00     0.029 A 
ATOM     65  C   UNL A   1      42.900  30.520  34.381  1.00  0.00     0.049 A 
ATOM     66  H   UNL A   1      41.259  31.232  33.260  1.00  0.00     0.167 HD
ATOM     67  C   UNL A   1      42.721  28.946  32.475  1.00  0.00     0.074 A 
ATOM     68  C   UNL A   1      43.150  27.792  31.714  1.00  0.00     0.031 C 
ATOM     69  C   UNL A   1      43.316  29.370  33.619  1.00  0.00     0.037 A 
BRANCH  56  70
ATOM     70  C   UNL A   1      40.721  34.428  36.040  1.00  0.00     0.057 A 
ATOM     71  C   UNL A   1      41.495  35.591  35.936  1.00  0.00     0.134 A 
ATOM     72  C   UNL A   1      39.929  34.279  37.185  1.00  0.00     0.134 A 
ATOM     73  F   UNL A   1      42.289  35.789  34.873  1.00  0.00    -0.206 F 
ATOM     74  C   UNL A   1      41.499  36.557  36.944  1.00  0.00     0.040 A 
ATOM     75  C   UNL A   1      39.903  35.250  38.186  1.00  0.00     0.040 A 
ATOM     76  F   UNL A   1      39.160  33.191  37.344  1.00  0.00    -0.206 F 
ATOM     77  C   UNL A   1      40.695  36.391  38.071  1.00  0.00     0.006 A 
ENDBRANCH  56  70
BRANCH  57  78
ATOM     78  C   UNL A   1      40.340  27.827  28.581  1.00  0.00     0.057 A 
ATOM     79  C   UNL A   1      39.645  26.617  28.698  1.00  0.00     0.134 A 
ATOM     80  C   UNL A   1      41.033  28.059  27.387  1.00  0.00     0.134 A 
ATOM     81  F   UNL A   1      38.985  26.325  29.828  1.00  0.00    -0.206 F 
ATOM     82  C   UNL A   1      39.656  25.666  27.676  1.00  0.00     0.040 A 
ATOM     83  C   UNL A   1      41.030  27.129  26.347  1.00  0.00     0.040 A 
ATOM     84  F   UNL A   1      41.720  29.199  27.213  1.00  0.00    -0.206 F 
ATOM     85  C   UNL A   1      40.346  25.924  26.493  1.00  0.00     0.006 A 
ENDBRANCH  57  78
BRANCH  69  86
ATOM     86  C   UNL A   1      44.464  28.552  34.140  1.00  0.00     0.057 A 
ATOM     87  C   UNL A   1      45.794  28.831  33.798  1.00  0.00     0.134 A 
ATOM     88  C   UNL A   1      44.235  27.476  35.008  1.00  0.00     0.134 A 
ATOM     89  F   UNL A   1      46.085  29.840  32.963  1.00  0.00    -0.206 F 
ATOM     90  C   UNL A   1      46.849  28.048  34.272  1.00  0.00     0.040 A 
ATOM     91  C   UNL A   1      45.283  26.705  35.512  1.00  0.00     0.040 A 
ATOM     92  F   UNL A   1      42.987  27.161  35.388  1.00  0.00    -0.206 F 
ATOM     93  C   UNL A   1      46.595  26.984  35.136  1.00  0.00     0.006 A 
ENDBRANCH  69  86
ENDBRANCH  43  44
ENDBRANCH  36  38
ENDBRANCH  35  36
ENDBRANCH  34  35
ENDBRANCH  33  34
ENDBRANCH  32  33
ENDBRANCH  31  32
ENDBRANCH   1  31
TORSDOF 22
ENDMDL
