MODEL 1
REMARK VINA RESULT:     -11.2      0.000      0.000
REMARK SMILES O=C(CCC(=O)N1CCC(c2nnc3ccccn23)CC1)OCCOCCOCCOC(=O)c1ccc(-c2c3nc(c(-c4c(F)cccc4F)c4ccc([nH]4)c(-c4c(F)cccc4F)c4nc(c(-c5c(F)cccc5F)c5ccc2[nH]5)C=C4)C=C3)cc1
REMARK SMILES IDX 26 1 25 2 24 3 23 4 22 5 2 6 1 7 3 8 4 9 5 10 6 11 7 12 8 13
REMARK SMILES IDX 21 14 9 15 20 16 10 17 11 18 12 19 19 20 13 21 14 22 18 23
REMARK SMILES IDX 15 24 17 25 16 26 27 27 28 28 29 29 30 30 31 31 32 32 33 33
REMARK SMILES IDX 34 34 35 35 87 36 36 37 86 38 37 39 38 40 39 41 80 42 40 43
REMARK SMILES IDX 85 44 79 45 81 46 41 47 84 48 78 49 77 50 42 52 68 53 51 54
REMARK SMILES IDX 67 55 52 56 55 57 66 58 82 59 53 60 54 61 65 63 83 64 56 65
REMARK SMILES IDX 43 66 44 67 49 68 45 69 46 70 48 71 50 72 47 73 69 74 70 75
REMARK SMILES IDX 75 76 71 77 72 78 74 79 76 80 73 81 57 82 58 83 63 84 59 85
REMARK SMILES IDX 60 86 62 87 64 88 61 89
REMARK H PARENT 81 51 55 62
REMARK Flexibility Score: inf
ROOT
ATOM      1  C   UNL A   1      44.634  18.835  25.182  1.00  0.00     0.188 C 
ENDROOT
BRANCH   1   2
ATOM      2  O   UNL A   1      43.325  18.307  25.371  1.00  0.00    -0.376 OA
BRANCH   2   3
ATOM      3  C   UNL A   1      42.829  18.130  26.689  1.00  0.00     0.202 C 
BRANCH   3   4
ATOM      4  C   UNL A   1      42.030  19.284  27.284  1.00  0.00     0.261 C 
BRANCH   4   5
ATOM      5  O   UNL A   1      41.333  20.054  26.285  1.00  0.00    -0.463 OA
BRANCH   5   6
ATOM      6  C   UNL A   1      41.374  21.392  26.135  1.00  0.00     0.306 C 
ATOM      7  O   UNL A   1      42.153  21.909  25.335  1.00  0.00    -0.252 OA
BRANCH   6   8
ATOM      8  C   UNL A   1      40.378  22.225  26.867  1.00  0.00     0.132 C 
BRANCH   8   9
ATOM      9  C   UNL A   1      38.988  21.807  26.429  1.00  0.00     0.112 C 
BRANCH   9  10
ATOM     10  C   UNL A   1      38.158  22.973  25.933  1.00  0.00     0.223 C 
ATOM     11  O   UNL A   1      38.650  24.104  25.990  1.00  0.00    -0.275 OA
ATOM     12  N   UNL A   1      36.882  22.757  25.431  1.00  0.00    -0.343 N 
ATOM     13  C   UNL A   1      36.252  23.839  24.690  1.00  0.00     0.120 C 
ATOM     14  C   UNL A   1      36.063  21.538  25.537  1.00  0.00     0.120 C 
ATOM     15  C   UNL A   1      34.907  24.207  25.285  1.00  0.00     0.033 C 
ATOM     16  C   UNL A   1      34.670  21.840  26.123  1.00  0.00     0.033 C 
ATOM     17  C   UNL A   1      33.983  22.981  25.360  1.00  0.00     0.062 C 
BRANCH  17  18
ATOM     18  C   UNL A   1      32.674  23.405  25.958  1.00  0.00     0.140 A 
ATOM     19  N   UNL A   1      32.241  23.187  27.186  1.00  0.00    -0.134 NA
ATOM     20  N   UNL A   1      31.795  24.255  25.317  1.00  0.00    -0.286 N 
ATOM     21  N   UNL A   1      31.092  23.924  27.379  1.00  0.00    -0.130 NA
ATOM     22  C   UNL A   1      30.844  24.583  26.269  1.00  0.00     0.160 A 
ATOM     23  C   UNL A   1      31.798  24.780  24.024  1.00  0.00     0.095 A 
ATOM     24  C   UNL A   1      29.848  25.530  25.903  1.00  0.00     0.050 A 
ATOM     25  C   UNL A   1      30.848  25.663  23.673  1.00  0.00     0.019 A 
ATOM     26  C   UNL A   1      29.851  26.053  24.659  1.00  0.00     0.005 A 
ENDBRANCH  17  18
ENDBRANCH   9  10
ENDBRANCH   8   9
ENDBRANCH   6   8
ENDBRANCH   5   6
ENDBRANCH   4   5
ENDBRANCH   3   4
ENDBRANCH   2   3
ENDBRANCH   1   2
BRANCH   1  27
ATOM     27  C   UNL A   1      44.924  20.014  24.220  1.00  0.00     0.188 C 
BRANCH  27  28
ATOM     28  O   UNL A   1      46.264  20.476  24.207  1.00  0.00    -0.376 OA
BRANCH  28  29
ATOM     29  C   UNL A   1      46.438  21.850  24.539  1.00  0.00     0.202 C 
BRANCH  29  30
ATOM     30  C   UNL A   1      45.223  22.722  24.194  1.00  0.00     0.261 C 
BRANCH  30  31
ATOM     31  O   UNL A   1      44.754  23.548  25.277  1.00  0.00    -0.460 OA
BRANCH  31  32
ATOM     32  C   UNL A   1      45.133  24.845  25.273  1.00  0.00     0.338 C 
ATOM     33  O   UNL A   1      45.931  25.371  24.517  1.00  0.00    -0.246 OA
BRANCH  32  34
ATOM     34  C   UNL A   1      44.242  25.587  26.198  1.00  0.00     0.060 A 
ATOM     35  C   UNL A   1      44.461  26.963  26.367  1.00  0.00     0.016 A 
ATOM     36  C   UNL A   1      43.140  24.976  26.807  1.00  0.00     0.016 A 
ATOM     37  C   UNL A   1      43.603  27.716  27.172  1.00  0.00     0.010 A 
ATOM     38  C   UNL A   1      42.291  25.727  27.629  1.00  0.00     0.010 A 
ATOM     39  C   UNL A   1      42.541  27.094  27.846  1.00  0.00    -0.014 A 
BRANCH  39  40
ATOM     40  C   UNL A   1      41.894  27.808  28.975  1.00  0.00     0.031 A 
ATOM     41  C   UNL A   1      42.549  27.694  30.327  1.00  0.00     0.074 A 
ATOM     42  C   UNL A   1      40.803  28.580  28.824  1.00  0.00     0.049 A 
ATOM     43  N   UNL A   1      42.242  28.278  31.457  1.00  0.00    -0.248 NA
ATOM     44  C   UNL A   1      43.716  26.799  30.410  1.00  0.00     0.031 C 
ATOM     45  C   UNL A   1      40.071  28.790  27.577  1.00  0.00     0.029 A 
ATOM     46  N   UNL A   1      40.122  29.340  29.746  1.00  0.00    -0.354 N 
ATOM     47  C   UNL A   1      43.194  27.846  32.370  1.00  0.00     0.074 A 
ATOM     48  C   UNL A   1      44.051  26.907  31.684  1.00  0.00     0.031 C 
ATOM     49  C   UNL A   1      39.035  29.618  27.815  1.00  0.00     0.029 A 
ATOM     50  C   UNL A   1      39.030  29.994  29.229  1.00  0.00     0.049 A 
ATOM     51  H   UNL A   1      40.393  29.409  30.689  1.00  0.00     0.167 HD
ATOM     52  C   UNL A   1      43.361  28.213  33.662  1.00  0.00     0.037 A 
ATOM     53  C   UNL A   1      38.131  30.799  29.832  1.00  0.00     0.037 A 
ATOM     54  C   UNL A   1      42.497  29.117  34.367  1.00  0.00     0.049 A 
ATOM     55  C   UNL A   1      38.293  31.137  31.296  1.00  0.00     0.074 A 
ATOM     56  C   UNL A   1      42.574  29.534  35.684  1.00  0.00     0.029 A 
ATOM     57  N   UNL A   1      41.386  29.735  33.814  1.00  0.00    -0.354 N 
ATOM     58  N   UNL A   1      39.226  30.760  32.137  1.00  0.00    -0.248 NA
ATOM     59  C   UNL A   1      37.283  32.028  31.887  1.00  0.00     0.031 C 
ATOM     60  C   UNL A   1      41.485  30.375  35.940  1.00  0.00     0.029 A 
ATOM     61  C   UNL A   1      40.760  30.519  34.768  1.00  0.00     0.049 A 
ATOM     62  H   UNL A   1      41.088  29.632  32.882  1.00  0.00     0.167 HD
ATOM     63  C   UNL A   1      38.931  31.389  33.343  1.00  0.00     0.074 A 
ATOM     64  C   UNL A   1      37.745  32.187  33.119  1.00  0.00     0.031 C 
ATOM     65  C   UNL A   1      39.582  31.313  34.530  1.00  0.00     0.037 A 
BRANCH  52  66
ATOM     66  C   UNL A   1      44.529  27.618  34.389  1.00  0.00     0.057 A 
ATOM     67  C   UNL A   1      45.794  28.221  34.358  1.00  0.00     0.134 A 
ATOM     68  C   UNL A   1      44.390  26.439  35.129  1.00  0.00     0.134 A 
ATOM     69  F   UNL A   1      45.997  29.341  33.647  1.00  0.00    -0.206 F 
ATOM     70  C   UNL A   1      46.885  27.659  35.021  1.00  0.00     0.040 A 
ATOM     71  C   UNL A   1      45.468  25.881  35.816  1.00  0.00     0.040 A 
ATOM     72  F   UNL A   1      43.207  25.810  35.195  1.00  0.00    -0.206 F 
ATOM     73  C   UNL A   1      46.722  26.488  35.759  1.00  0.00     0.006 A 
ENDBRANCH  52  66
BRANCH  53  74
ATOM     74  C   UNL A   1      36.982  31.351  29.068  1.00  0.00     0.057 A 
ATOM     75  C   UNL A   1      36.960  32.684  28.638  1.00  0.00     0.134 A 
ATOM     76  C   UNL A   1      35.846  30.574  28.807  1.00  0.00     0.134 A 
ATOM     77  F   UNL A   1      38.002  33.490  28.886  1.00  0.00    -0.206 F 
ATOM     78  C   UNL A   1      35.843  33.231  28.000  1.00  0.00     0.040 A 
ATOM     79  C   UNL A   1      34.733  31.100  28.148  1.00  0.00     0.040 A 
ATOM     80  F   UNL A   1      35.798  29.292  29.198  1.00  0.00    -0.206 F 
ATOM     81  C   UNL A   1      34.726  32.435  27.751  1.00  0.00     0.006 A 
ENDBRANCH  53  74
BRANCH  65  82
ATOM     82  C   UNL A   1      39.048  32.136  35.668  1.00  0.00     0.057 A 
ATOM     83  C   UNL A   1      38.231  31.584  36.663  1.00  0.00     0.134 A 
ATOM     84  C   UNL A   1      39.383  33.491  35.786  1.00  0.00     0.134 A 
ATOM     85  F   UNL A   1      37.867  30.294  36.606  1.00  0.00    -0.206 F 
ATOM     86  C   UNL A   1      37.741  32.358  37.716  1.00  0.00     0.040 A 
ATOM     87  C   UNL A   1      38.921  34.268  36.850  1.00  0.00     0.040 A 
ATOM     88  F   UNL A   1      40.172  34.080  34.876  1.00  0.00    -0.206 F 
ATOM     89  C   UNL A   1      38.090  33.703  37.815  1.00  0.00     0.006 A 
ENDBRANCH  65  82
ENDBRANCH  39  40
ENDBRANCH  32  34
ENDBRANCH  31  32
ENDBRANCH  30  31
ENDBRANCH  29  30
ENDBRANCH  28  29
ENDBRANCH  27  28
ENDBRANCH   1  27
TORSDOF 20
ENDMDL
MODEL 2
REMARK VINA RESULT:     -11.0      1.728      3.128
REMARK SMILES O=C(CCC(=O)N1CCC(c2nnc3ccccn23)CC1)OCCOCCOCCOC(=O)c1ccc(-c2c3nc(c(-c4c(F)cccc4F)c4ccc([nH]4)c(-c4c(F)cccc4F)c4nc(c(-c5c(F)cccc5F)c5ccc2[nH]5)C=C4)C=C3)cc1
REMARK SMILES IDX 26 1 25 2 24 3 23 4 22 5 2 6 1 7 3 8 4 9 5 10 6 11 7 12 8 13
REMARK SMILES IDX 21 14 9 15 20 16 10 17 11 18 12 19 19 20 13 21 14 22 18 23
REMARK SMILES IDX 15 24 17 25 16 26 27 27 28 28 29 29 30 30 31 31 32 32 33 33
REMARK SMILES IDX 34 34 35 35 87 36 36 37 86 38 37 39 38 40 39 41 80 42 40 43
REMARK SMILES IDX 85 44 79 45 81 46 41 47 84 48 78 49 77 50 42 52 68 53 51 54
REMARK SMILES IDX 67 55 52 56 55 57 66 58 82 59 53 60 54 61 65 63 83 64 56 65
REMARK SMILES IDX 43 66 44 67 49 68 45 69 46 70 48 71 50 72 47 73 69 74 70 75
REMARK SMILES IDX 75 76 71 77 72 78 74 79 76 80 73 81 57 82 58 83 63 84 59 85
REMARK SMILES IDX 60 86 62 87 64 88 61 89
REMARK H PARENT 81 51 55 62
REMARK Flexibility Score: inf
ROOT
ATOM      1  C   UNL A   1      40.839  20.735  27.029  1.00  0.00     0.188 C 
ENDROOT
BRANCH   1   2
ATOM      2  O   UNL A   1      39.984  21.705  26.434  1.00  0.00    -0.376 OA
BRANCH   2   3
ATOM      3  C   UNL A   1      38.932  21.279  25.583  1.00  0.00     0.202 C 
BRANCH   3   4
ATOM      4  C   UNL A   1      37.588  21.983  25.744  1.00  0.00     0.261 C 
BRANCH   4   5
ATOM      5  O   UNL A   1      36.529  21.335  25.013  1.00  0.00    -0.463 OA
BRANCH   5   6
ATOM      6  C   UNL A   1      35.278  21.104  25.456  1.00  0.00     0.306 C 
ATOM      7  O   UNL A   1      34.816  21.754  26.393  1.00  0.00    -0.252 OA
BRANCH   6   8
ATOM      8  C   UNL A   1      34.425  20.131  24.717  1.00  0.00     0.132 C 
BRANCH   8   9
ATOM      9  C   UNL A   1      32.972  20.424  25.039  1.00  0.00     0.112 C 
BRANCH   9  10
ATOM     10  C   UNL A   1      32.326  21.349  24.028  1.00  0.00     0.223 C 
ATOM     11  O   UNL A   1      32.380  21.037  22.835  1.00  0.00    -0.275 OA
ATOM     12  N   UNL A   1      31.697  22.512  24.451  1.00  0.00    -0.343 N 
ATOM     13  C   UNL A   1      30.834  23.200  23.502  1.00  0.00     0.120 C 
ATOM     14  C   UNL A   1      31.773  23.152  25.774  1.00  0.00     0.120 C 
ATOM     15  C   UNL A   1      31.256  24.645  23.320  1.00  0.00     0.033 C 
ATOM     16  C   UNL A   1      32.183  24.633  25.666  1.00  0.00     0.033 C 
ATOM     17  C   UNL A   1      31.290  25.384  24.667  1.00  0.00     0.062 C 
BRANCH  17  18
ATOM     18  C   UNL A   1      31.715  26.802  24.424  1.00  0.00     0.140 A 
ATOM     19  N   UNL A   1      31.929  27.391  23.263  1.00  0.00    -0.134 NA
ATOM     20  N   UNL A   1      31.778  27.749  25.427  1.00  0.00    -0.286 N 
ATOM     21  N   UNL A   1      32.095  28.742  23.485  1.00  0.00    -0.130 NA
ATOM     22  C   UNL A   1      31.976  28.956  24.776  1.00  0.00     0.160 A 
ATOM     23  C   UNL A   1      31.630  27.640  26.810  1.00  0.00     0.095 A 
ATOM     24  C   UNL A   1      31.992  30.135  25.571  1.00  0.00     0.050 A 
ATOM     25  C   UNL A   1      31.661  28.752  27.562  1.00  0.00     0.019 A 
ATOM     26  C   UNL A   1      31.837  30.040  26.907  1.00  0.00     0.005 A 
ENDBRANCH  17  18
ENDBRANCH   9  10
ENDBRANCH   8   9
ENDBRANCH   6   8
ENDBRANCH   5   6
ENDBRANCH   4   5
ENDBRANCH   3   4
ENDBRANCH   2   3
ENDBRANCH   1   2
BRANCH   1  27
ATOM     27  C   UNL A   1      42.244  20.406  26.464  1.00  0.00     0.188 C 
BRANCH  27  28
ATOM     28  O   UNL A   1      42.699  21.258  25.426  1.00  0.00    -0.376 OA
BRANCH  28  29
ATOM     29  C   UNL A   1      44.111  21.303  25.250  1.00  0.00     0.202 C 
BRANCH  29  30
ATOM     30  C   UNL A   1      44.574  22.402  24.283  1.00  0.00     0.261 C 
BRANCH  30  31
ATOM     31  O   UNL A   1      43.943  23.680  24.486  1.00  0.00    -0.460 OA
BRANCH  31  32
ATOM     32  C   UNL A   1      44.703  24.666  25.012  1.00  0.00     0.338 C 
ATOM     33  O   UNL A   1      45.812  25.010  24.643  1.00  0.00    -0.246 OA
BRANCH  32  34
ATOM     34  C   UNL A   1      43.868  25.427  25.974  1.00  0.00     0.060 A 
ATOM     35  C   UNL A   1      44.103  26.803  26.112  1.00  0.00     0.016 A 
ATOM     36  C   UNL A   1      42.798  24.830  26.652  1.00  0.00     0.016 A 
ATOM     37  C   UNL A   1      43.295  27.572  26.952  1.00  0.00     0.010 A 
ATOM     38  C   UNL A   1      41.999  25.598  27.508  1.00  0.00     0.010 A 
ATOM     39  C   UNL A   1      42.268  26.966  27.692  1.00  0.00    -0.014 A 
BRANCH  39  40
ATOM     40  C   UNL A   1      41.688  27.699  28.845  1.00  0.00     0.031 A 
ATOM     41  C   UNL A   1      42.373  27.539  30.177  1.00  0.00     0.074 A 
ATOM     42  C   UNL A   1      40.633  28.526  28.731  1.00  0.00     0.049 A 
ATOM     43  N   UNL A   1      42.126  28.126  31.320  1.00  0.00    -0.248 NA
ATOM     44  C   UNL A   1      43.496  26.587  30.220  1.00  0.00     0.031 C 
ATOM     45  C   UNL A   1      39.879  28.785  27.507  1.00  0.00     0.029 A 
ATOM     46  N   UNL A   1      40.016  29.309  29.678  1.00  0.00    -0.354 N 
ATOM     47  C   UNL A   1      43.079  27.638  32.203  1.00  0.00     0.074 A 
ATOM     48  C   UNL A   1      43.871  26.664  31.486  1.00  0.00     0.031 C 
ATOM     49  C   UNL A   1      38.893  29.661  27.780  1.00  0.00     0.029 A 
ATOM     50  C   UNL A   1      38.944  30.021  29.198  1.00  0.00     0.049 A 
ATOM     51  H   UNL A   1      40.316  29.355  30.614  1.00  0.00     0.167 HD
ATOM     52  C   UNL A   1      43.300  27.983  33.493  1.00  0.00     0.037 A 
ATOM     53  C   UNL A   1      38.103  30.863  29.832  1.00  0.00     0.037 A 
ATOM     54  C   UNL A   1      42.501  28.921  34.230  1.00  0.00     0.049 A 
ATOM     55  C   UNL A   1      38.321  31.178  31.293  1.00  0.00     0.074 A 
ATOM     56  C   UNL A   1      42.634  29.320  35.548  1.00  0.00     0.029 A 
ATOM     57  N   UNL A   1      41.408  29.599  33.713  1.00  0.00    -0.354 N 
ATOM     58  N   UNL A   1      39.257  30.746  32.106  1.00  0.00    -0.248 NA
ATOM     59  C   UNL A   1      37.373  32.112  31.921  1.00  0.00     0.031 C 
ATOM     60  C   UNL A   1      41.596  30.211  35.841  1.00  0.00     0.029 A 
ATOM     61  C   UNL A   1      40.847  30.403  34.691  1.00  0.00     0.049 A 
ATOM     62  H   UNL A   1      41.079  29.520  32.789  1.00  0.00     0.167 HD
ATOM     63  C   UNL A   1      39.026  31.377  33.325  1.00  0.00     0.074 A 
ATOM     64  C   UNL A   1      37.875  32.235  33.141  1.00  0.00     0.031 C 
ATOM     65  C   UNL A   1      39.704  31.256  34.493  1.00  0.00     0.037 A 
BRANCH  52  66
ATOM     66  C   UNL A   1      44.456  27.323  34.183  1.00  0.00     0.057 A 
ATOM     67  C   UNL A   1      45.720  27.927  34.230  1.00  0.00     0.134 A 
ATOM     68  C   UNL A   1      44.306  26.081  34.808  1.00  0.00     0.134 A 
ATOM     69  F   UNL A   1      45.933  29.108  33.629  1.00  0.00    -0.206 F 
ATOM     70  C   UNL A   1      46.801  27.306  34.857  1.00  0.00     0.040 A 
ATOM     71  C   UNL A   1      45.373  25.462  35.459  1.00  0.00     0.040 A 
ATOM     72  F   UNL A   1      43.123  25.449  34.794  1.00  0.00    -0.206 F 
ATOM     73  C   UNL A   1      46.626  26.072  35.481  1.00  0.00     0.006 A 
ENDBRANCH  52  66
BRANCH  53  74
ATOM     74  C   UNL A   1      36.962  31.480  29.105  1.00  0.00     0.057 A 
ATOM     75  C   UNL A   1      37.000  32.813  28.677  1.00  0.00     0.134 A 
ATOM     76  C   UNL A   1      35.778  30.766  28.879  1.00  0.00     0.134 A 
ATOM     77  F   UNL A   1      38.092  33.560  28.893  1.00  0.00    -0.206 F 
ATOM     78  C   UNL A   1      35.896  33.422  28.075  1.00  0.00     0.040 A 
ATOM     79  C   UNL A   1      34.676  31.355  28.255  1.00  0.00     0.040 A 
ATOM     80  F   UNL A   1      35.673  29.488  29.270  1.00  0.00    -0.206 F 
ATOM     81  C   UNL A   1      34.730  32.689  27.860  1.00  0.00     0.006 A 
ENDBRANCH  53  74
BRANCH  65  82
ATOM     82  C   UNL A   1      39.243  32.093  35.652  1.00  0.00     0.057 A 
ATOM     83  C   UNL A   1      39.668  33.416  35.827  1.00  0.00     0.134 A 
ATOM     84  C   UNL A   1      38.336  31.577  36.587  1.00  0.00     0.134 A 
ATOM     85  F   UNL A   1      40.541  33.969  34.972  1.00  0.00    -0.206 F 
ATOM     86  C   UNL A   1      39.232  34.186  36.907  1.00  0.00     0.040 A 
ATOM     87  C   UNL A   1      37.872  32.346  37.656  1.00  0.00     0.040 A 
ATOM     88  F   UNL A   1      37.878  30.322  36.473  1.00  0.00    -0.206 F 
ATOM     89  C   UNL A   1      38.327  33.652  37.823  1.00  0.00     0.006 A 
ENDBRANCH  65  82
ENDBRANCH  39  40
ENDBRANCH  32  34
ENDBRANCH  31  32
ENDBRANCH  30  31
ENDBRANCH  29  30
ENDBRANCH  28  29
ENDBRANCH  27  28
ENDBRANCH   1  27
TORSDOF 20
ENDMDL
MODEL 3
REMARK VINA RESULT:     -10.7      2.142      3.830
REMARK SMILES O=C(CCC(=O)N1CCC(c2nnc3ccccn23)CC1)OCCOCCOCCOC(=O)c1ccc(-c2c3nc(c(-c4c(F)cccc4F)c4ccc([nH]4)c(-c4c(F)cccc4F)c4nc(c(-c5c(F)cccc5F)c5ccc2[nH]5)C=C4)C=C3)cc1
REMARK SMILES IDX 26 1 25 2 24 3 23 4 22 5 2 6 1 7 3 8 4 9 5 10 6 11 7 12 8 13
REMARK SMILES IDX 21 14 9 15 20 16 10 17 11 18 12 19 19 20 13 21 14 22 18 23
REMARK SMILES IDX 15 24 17 25 16 26 27 27 28 28 29 29 30 30 31 31 32 32 33 33
REMARK SMILES IDX 34 34 35 35 87 36 36 37 86 38 37 39 38 40 39 41 80 42 40 43
REMARK SMILES IDX 85 44 79 45 81 46 41 47 84 48 78 49 77 50 42 52 68 53 51 54
REMARK SMILES IDX 67 55 52 56 55 57 66 58 82 59 53 60 54 61 65 63 83 64 56 65
REMARK SMILES IDX 43 66 44 67 49 68 45 69 46 70 48 71 50 72 47 73 69 74 70 75
REMARK SMILES IDX 75 76 71 77 72 78 74 79 76 80 73 81 57 82 58 83 63 84 59 85
REMARK SMILES IDX 60 86 62 87 64 88 61 89
REMARK H PARENT 81 51 55 62
REMARK Flexibility Score: inf
ROOT
ATOM      1  C   UNL A   1      40.031  21.854  26.902  1.00  0.00     0.188 C 
ENDROOT
BRANCH   1   2
ATOM      2  O   UNL A   1      39.342  21.972  25.662  1.00  0.00    -0.376 OA
BRANCH   2   3
ATOM      3  C   UNL A   1      38.115  21.284  25.478  1.00  0.00     0.202 C 
BRANCH   3   4
ATOM      4  C   UNL A   1      37.132  21.884  24.477  1.00  0.00     0.261 C 
BRANCH   4   5
ATOM      5  O   UNL A   1      35.816  22.073  25.033  1.00  0.00    -0.463 OA
BRANCH   5   6
ATOM      6  C   UNL A   1      34.737  22.552  24.385  1.00  0.00     0.306 C 
ATOM      7  O   UNL A   1      34.818  22.905  23.209  1.00  0.00    -0.252 OA
BRANCH   6   8
ATOM      8  C   UNL A   1      33.419  22.535  25.080  1.00  0.00     0.132 C 
BRANCH   8   9
ATOM      9  C   UNL A   1      33.556  23.287  26.389  1.00  0.00     0.112 C 
BRANCH   9  10
ATOM     10  C   UNL A   1      32.406  24.243  26.634  1.00  0.00     0.223 C 
ATOM     11  O   UNL A   1      31.420  23.823  27.247  1.00  0.00    -0.275 OA
ATOM     12  N   UNL A   1      32.478  25.551  26.175  1.00  0.00    -0.343 N 
ATOM     13  C   UNL A   1      31.509  26.506  26.693  1.00  0.00     0.120 C 
ATOM     14  C   UNL A   1      33.440  26.123  25.219  1.00  0.00     0.120 C 
ATOM     15  C   UNL A   1      30.741  27.177  25.570  1.00  0.00     0.033 C 
ATOM     16  C   UNL A   1      32.728  26.837  24.055  1.00  0.00     0.033 C 
ATOM     17  C   UNL A   1      31.697  27.850  24.573  1.00  0.00     0.062 C 
BRANCH  17  18
ATOM     18  C   UNL A   1      30.882  28.491  23.488  1.00  0.00     0.140 A 
ATOM     19  N   UNL A   1      30.478  27.947  22.355  1.00  0.00    -0.134 NA
ATOM     20  N   UNL A   1      30.291  29.731  23.626  1.00  0.00    -0.286 N 
ATOM     21  N   UNL A   1      29.585  28.807  21.754  1.00  0.00    -0.130 NA
ATOM     22  C   UNL A   1      29.454  29.860  22.530  1.00  0.00     0.160 A 
ATOM     23  C   UNL A   1      30.394  30.695  24.629  1.00  0.00     0.095 A 
ATOM     24  C   UNL A   1      28.641  31.025  22.459  1.00  0.00     0.050 A 
ATOM     25  C   UNL A   1      29.637  31.802  24.555  1.00  0.00     0.019 A 
ATOM     26  C   UNL A   1      28.723  31.956  23.432  1.00  0.00     0.005 A 
ENDBRANCH  17  18
ENDBRANCH   9  10
ENDBRANCH   8   9
ENDBRANCH   6   8
ENDBRANCH   5   6
ENDBRANCH   4   5
ENDBRANCH   3   4
ENDBRANCH   2   3
ENDBRANCH   1   2
BRANCH   1  27
ATOM     27  C   UNL A   1      41.506  21.388  26.992  1.00  0.00     0.188 C 
BRANCH  27  28
ATOM     28  O   UNL A   1      42.146  21.143  25.751  1.00  0.00    -0.376 OA
BRANCH  28  29
ATOM     29  C   UNL A   1      43.562  21.291  25.756  1.00  0.00     0.202 C 
BRANCH  29  30
ATOM     30  C   UNL A   1      44.089  22.187  24.626  1.00  0.00     0.261 C 
BRANCH  30  31
ATOM     31  O   UNL A   1      43.538  23.518  24.614  1.00  0.00    -0.460 OA
BRANCH  31  32
ATOM     32  C   UNL A   1      44.332  24.519  25.056  1.00  0.00     0.338 C 
ATOM     33  O   UNL A   1      45.430  24.824  24.626  1.00  0.00    -0.246 OA
BRANCH  32  34
ATOM     34  C   UNL A   1      43.546  25.343  26.006  1.00  0.00     0.060 A 
ATOM     35  C   UNL A   1      43.992  26.645  26.279  1.00  0.00     0.016 A 
ATOM     36  C   UNL A   1      42.332  24.895  26.539  1.00  0.00     0.016 A 
ATOM     37  C   UNL A   1      43.245  27.483  27.111  1.00  0.00     0.010 A 
ATOM     38  C   UNL A   1      41.592  25.728  27.389  1.00  0.00     0.010 A 
ATOM     39  C   UNL A   1      42.066  27.013  27.709  1.00  0.00    -0.014 A 
BRANCH  39  40
ATOM     40  C   UNL A   1      41.508  27.753  28.869  1.00  0.00     0.031 A 
ATOM     41  C   UNL A   1      42.218  27.604  30.188  1.00  0.00     0.074 A 
ATOM     42  C   UNL A   1      40.449  28.578  28.770  1.00  0.00     0.049 A 
ATOM     43  N   UNL A   1      41.993  28.198  31.332  1.00  0.00    -0.248 NA
ATOM     44  C   UNL A   1      43.344  26.653  30.216  1.00  0.00     0.031 C 
ATOM     45  C   UNL A   1      39.671  28.827  27.559  1.00  0.00     0.029 A 
ATOM     46  N   UNL A   1      39.849  29.366  29.723  1.00  0.00    -0.354 N 
ATOM     47  C   UNL A   1      42.964  27.717  32.199  1.00  0.00     0.074 A 
ATOM     48  C   UNL A   1      43.742  26.740  31.473  1.00  0.00     0.031 C 
ATOM     49  C   UNL A   1      38.689  29.704  27.845  1.00  0.00     0.029 A 
ATOM     50  C   UNL A   1      38.767  30.074  29.259  1.00  0.00     0.049 A 
ATOM     51  H   UNL A   1      40.167  29.420  30.653  1.00  0.00     0.167 HD
ATOM     52  C   UNL A   1      43.209  28.071  33.483  1.00  0.00     0.037 A 
ATOM     53  C   UNL A   1      37.938  30.919  29.904  1.00  0.00     0.037 A 
ATOM     54  C   UNL A   1      42.423  29.013  34.228  1.00  0.00     0.049 A 
ATOM     55  C   UNL A   1      38.183  31.244  31.359  1.00  0.00     0.074 A 
ATOM     56  C   UNL A   1      42.581  29.421  35.541  1.00  0.00     0.029 A 
ATOM     57  N   UNL A   1      41.319  29.686  33.728  1.00  0.00    -0.354 N 
ATOM     58  N   UNL A   1      39.136  30.820  32.155  1.00  0.00    -0.248 NA
ATOM     59  C   UNL A   1      37.246  32.181  31.998  1.00  0.00     0.031 C 
ATOM     60  C   UNL A   1      41.548  30.313  35.848  1.00  0.00     0.029 A 
ATOM     61  C   UNL A   1      40.777  30.496  34.711  1.00  0.00     0.049 A 
ATOM     62  H   UNL A   1      40.973  29.600  32.811  1.00  0.00     0.167 HD
ATOM     63  C   UNL A   1      38.928  31.458  33.374  1.00  0.00     0.074 A 
ATOM     64  C   UNL A   1      37.772  32.313  33.207  1.00  0.00     0.031 C 
ATOM     65  C   UNL A   1      39.629  31.346  34.530  1.00  0.00     0.037 A 
BRANCH  52  66
ATOM     66  C   UNL A   1      44.379  27.418  34.154  1.00  0.00     0.057 A 
ATOM     67  C   UNL A   1      44.261  26.166  34.774  1.00  0.00     0.134 A 
ATOM     68  C   UNL A   1      45.632  28.038  34.177  1.00  0.00     0.134 A 
ATOM     69  F   UNL A   1      43.079  25.531  34.805  1.00  0.00    -0.206 F 
ATOM     70  C   UNL A   1      45.345  25.565  35.414  1.00  0.00     0.040 A 
ATOM     71  C   UNL A   1      46.730  27.435  34.792  1.00  0.00     0.040 A 
ATOM     72  F   UNL A   1      45.810  29.239  33.606  1.00  0.00    -0.206 F 
ATOM     73  C   UNL A   1      46.587  26.197  35.417  1.00  0.00     0.006 A 
ENDBRANCH  52  66
BRANCH  53  74
ATOM     74  C   UNL A   1      36.782  31.529  29.195  1.00  0.00     0.057 A 
ATOM     75  C   UNL A   1      35.628  30.792  28.902  1.00  0.00     0.134 A 
ATOM     76  C   UNL A   1      36.832  32.852  28.736  1.00  0.00     0.134 A 
ATOM     77  F   UNL A   1      35.532  29.510  29.285  1.00  0.00    -0.206 F 
ATOM     78  C   UNL A   1      34.579  31.336  28.157  1.00  0.00     0.040 A 
ATOM     79  C   UNL A   1      35.780  33.416  28.012  1.00  0.00     0.040 A 
ATOM     80  F   UNL A   1      37.910  33.612  28.976  1.00  0.00    -0.206 F 
ATOM     81  C   UNL A   1      34.653  32.655  27.712  1.00  0.00     0.006 A 
ENDBRANCH  53  74
BRANCH  65  82
ATOM     82  C   UNL A   1      39.189  32.190  35.692  1.00  0.00     0.057 A 
ATOM     83  C   UNL A   1      39.648  33.502  35.872  1.00  0.00     0.134 A 
ATOM     84  C   UNL A   1      38.268  31.695  36.625  1.00  0.00     0.134 A 
ATOM     85  F   UNL A   1      40.535  34.035  35.019  1.00  0.00    -0.206 F 
ATOM     86  C   UNL A   1      39.231  34.278  36.955  1.00  0.00     0.040 A 
ATOM     87  C   UNL A   1      37.824  32.471  37.697  1.00  0.00     0.040 A 
ATOM     88  F   UNL A   1      37.778  30.452  36.505  1.00  0.00    -0.206 F 
ATOM     89  C   UNL A   1      38.313  33.765  37.869  1.00  0.00     0.006 A 
ENDBRANCH  65  82
ENDBRANCH  39  40
ENDBRANCH  32  34
ENDBRANCH  31  32
ENDBRANCH  30  31
ENDBRANCH  29  30
ENDBRANCH  28  29
ENDBRANCH  27  28
ENDBRANCH   1  27
TORSDOF 20
ENDMDL
