MODEL 1
REMARK VINA RESULT:     -10.0      0.000      0.000
REMARK SMILES Cc1ccc(CNC(=O)NC[C@@H](CC(C)C)C(=O)OCCOCCOCCOC(=O)c2ccc(-c3c4nc(c(-c5c(F)cccc5F)c5ccc([nH]5)c(-c5c(F)cccc5F)c5nc(c(-c6c(F)cccc6F)c6ccc3[nH]6)C=C5)C=C4)cc2)s1
REMARK SMILES IDX 23 1 22 2 21 3 20 4 19 5 17 6 18 7 12 8 11 9 10 10 7 11 8 12
REMARK SMILES IDX 9 14 6 16 5 17 1 18 2 19 3 20 85 21 4 22 13 23 14 24 15 25
REMARK SMILES IDX 16 26 24 27 25 28 26 29 27 30 28 31 29 32 30 33 31 34 32 35
REMARK SMILES IDX 84 36 33 37 83 38 34 39 35 40 36 41 77 42 37 43 82 44 76 45
REMARK SMILES IDX 78 46 38 47 81 48 75 49 74 50 39 52 65 53 48 54 64 55 49 56
REMARK SMILES IDX 52 57 63 58 79 59 50 60 51 61 62 63 80 64 53 65 40 66 41 67
REMARK SMILES IDX 46 68 42 69 43 70 45 71 47 72 44 73 66 74 67 75 72 76 68 77
REMARK SMILES IDX 69 78 71 79 73 80 70 81 54 82 55 83 60 84 56 85 57 86 59 87
REMARK SMILES IDX 61 88 58 89
REMARK H PARENT 7 13 10 15 78 51 52 62
REMARK Flexibility Score: inf
ROOT
ATOM      1  C   UNL A   1      34.868  24.173  23.474  1.00  0.00     0.188 C 
ENDROOT
BRANCH   1   2
ATOM      2  O   UNL A   1      33.468  24.159  23.253  1.00  0.00    -0.376 OA
BRANCH   2   3
ATOM      3  C   UNL A   1      32.894  25.350  22.723  1.00  0.00     0.202 C 
BRANCH   3   4
ATOM      4  C   UNL A   1      31.374  25.360  22.507  1.00  0.00     0.261 C 
BRANCH   4   5
ATOM      5  O   UNL A   1      30.558  25.209  23.696  1.00  0.00    -0.463 OA
BRANCH   5   6
ATOM      6  C   UNL A   1      30.227  26.376  24.310  1.00  0.00     0.310 C 
ATOM      7  O   UNL A   1      29.574  27.271  23.777  1.00  0.00    -0.252 OA
BRANCH   6   8
ATOM      8  C   UNL A   1      30.798  26.565  25.706  1.00  0.00     0.119 C 
BRANCH   8   9
ATOM      9  C   UNL A   1      31.469  25.371  26.407  1.00  0.00     0.133 C 
BRANCH   9  10
ATOM     10  N   UNL A   1      30.448  24.388  26.816  1.00  0.00    -0.337 N 
ATOM     11  N   UNL A   1      31.145  22.140  26.505  1.00  0.00    -0.333 N 
ATOM     12  C   UNL A   1      30.299  23.068  26.938  1.00  0.00     0.315 C 
ATOM     13  H   UNL A   1      30.976  21.249  26.887  1.00  0.00     0.165 HD
ATOM     14  O   UNL A   1      29.273  22.679  27.503  1.00  0.00    -0.249 OA
ATOM     15  H   UNL A   1      29.620  24.849  27.083  1.00  0.00     0.165 HD
BRANCH  11  16
ATOM     16  C   UNL A   1      32.251  22.169  25.598  1.00  0.00     0.164 C 
BRANCH  16  17
ATOM     17  C   UNL A   1      32.502  20.826  24.994  1.00  0.00     0.024 A 
ATOM     18  C   UNL A   1      32.267  18.068  22.225  1.00  0.00     0.056 C 
ATOM     19  C   UNL A   1      32.449  18.914  23.436  1.00  0.00     0.002 A 
ATOM     20  C   UNL A   1      32.635  18.513  24.742  1.00  0.00     0.015 A 
ATOM     21  S   UNL A   1      32.409  20.617  23.297  1.00  0.00    -0.144 S 
ATOM     22  C   UNL A   1      32.696  19.620  25.640  1.00  0.00     0.017 A 
ENDBRANCH  16  17
ENDBRANCH  11  16
ENDBRANCH   9  10
ENDBRANCH   8   9
BRANCH   8  23
ATOM     23  C   UNL A   1      31.581  27.896  25.722  1.00  0.00     0.020 C 
BRANCH  23  24
ATOM     24  C   UNL A   1      33.063  27.900  25.296  1.00  0.00    -0.017 C 
ATOM     25  C   UNL A   1      33.398  28.838  24.140  1.00  0.00     0.007 C 
ATOM     26  C   UNL A   1      33.910  28.298  26.512  1.00  0.00     0.007 C 
ENDBRANCH  23  24
ENDBRANCH   8  23
ENDBRANCH   6   8
ENDBRANCH   5   6
ENDBRANCH   4   5
ENDBRANCH   3   4
ENDBRANCH   2   3
ENDBRANCH   1   2
BRANCH   1  27
ATOM     27  C   UNL A   1      35.525  22.840  23.831  1.00  0.00     0.188 C 
BRANCH  27  28
ATOM     28  O   UNL A   1      35.865  22.645  25.198  1.00  0.00    -0.376 OA
BRANCH  28  29
ATOM     29  C   UNL A   1      35.921  21.274  25.616  1.00  0.00     0.202 C 
BRANCH  29  30
ATOM     30  C   UNL A   1      37.126  20.472  25.069  1.00  0.00     0.261 C 
BRANCH  30  31
ATOM     31  O   UNL A   1      38.364  21.217  25.021  1.00  0.00    -0.460 OA
BRANCH  31  32
ATOM     32  C   UNL A   1      39.257  20.892  25.984  1.00  0.00     0.338 C 
ATOM     33  O   UNL A   1      39.734  19.797  26.170  1.00  0.00    -0.246 OA
BRANCH  32  34
ATOM     34  C   UNL A   1      39.799  22.121  26.613  1.00  0.00     0.060 A 
ATOM     35  C   UNL A   1      39.215  23.339  26.246  1.00  0.00     0.016 A 
ATOM     36  C   UNL A   1      40.857  22.103  27.515  1.00  0.00     0.016 A 
ATOM     37  C   UNL A   1      39.718  24.550  26.711  1.00  0.00     0.010 A 
ATOM     38  C   UNL A   1      41.373  23.319  27.982  1.00  0.00     0.010 A 
ATOM     39  C   UNL A   1      40.832  24.548  27.551  1.00  0.00    -0.014 A 
BRANCH  39  40
ATOM     40  C   UNL A   1      41.548  25.821  27.809  1.00  0.00     0.031 A 
ATOM     41  C   UNL A   1      40.849  26.883  28.612  1.00  0.00     0.074 A 
ATOM     42  C   UNL A   1      42.816  26.019  27.405  1.00  0.00     0.049 A 
ATOM     43  N   UNL A   1      41.212  28.113  28.865  1.00  0.00    -0.248 NA
ATOM     44  C   UNL A   1      39.563  26.497  29.216  1.00  0.00     0.031 C 
ATOM     45  C   UNL A   1      43.653  25.036  26.722  1.00  0.00     0.029 A 
ATOM     46  N   UNL A   1      43.620  27.126  27.521  1.00  0.00    -0.354 N 
ATOM     47  C   UNL A   1      40.189  28.657  29.631  1.00  0.00     0.074 A 
ATOM     48  C   UNL A   1      39.186  27.627  29.794  1.00  0.00     0.031 C 
ATOM     49  C   UNL A   1      44.853  25.588  26.470  1.00  0.00     0.029 A 
ATOM     50  C   UNL A   1      44.850  26.976  26.928  1.00  0.00     0.049 A 
ATOM     51  H   UNL A   1      43.342  27.948  27.985  1.00  0.00     0.167 HD
ATOM     52  C   UNL A   1      40.091  29.903  30.151  1.00  0.00     0.037 A 
ATOM     53  C   UNL A   1      45.842  27.869  26.746  1.00  0.00     0.037 A 
ATOM     54  C   UNL A   1      41.092  30.924  30.002  1.00  0.00     0.049 A 
ATOM     55  C   UNL A   1      45.670  29.281  27.244  1.00  0.00     0.074 A 
ATOM     56  C   UNL A   1      41.074  32.227  30.468  1.00  0.00     0.029 A 
ATOM     57  N   UNL A   1      42.299  30.751  29.341  1.00  0.00    -0.354 N 
ATOM     58  N   UNL A   1      44.673  29.809  27.912  1.00  0.00    -0.248 NA
ATOM     59  C   UNL A   1      46.759  30.224  26.948  1.00  0.00     0.031 C 
ATOM     60  C   UNL A   1      42.255  32.855  30.055  1.00  0.00     0.029 A 
ATOM     61  C   UNL A   1      43.027  31.929  29.372  1.00  0.00     0.049 A 
ATOM     62  H   UNL A   1      42.594  29.915  28.912  1.00  0.00     0.167 HD
ATOM     63  C   UNL A   1      45.026  31.134  28.141  1.00  0.00     0.074 A 
ATOM     64  C   UNL A   1      46.333  31.327  27.548  1.00  0.00     0.031 C 
ATOM     65  C   UNL A   1      44.331  32.103  28.788  1.00  0.00     0.037 A 
BRANCH  52  66
ATOM     66  C   UNL A   1      38.827  30.237  30.885  1.00  0.00     0.057 A 
ATOM     67  C   UNL A   1      37.728  30.823  30.246  1.00  0.00     0.134 A 
ATOM     68  C   UNL A   1      38.716  29.975  32.256  1.00  0.00     0.134 A 
ATOM     69  F   UNL A   1      37.781  31.122  28.940  1.00  0.00    -0.206 F 
ATOM     70  C   UNL A   1      36.570  31.160  30.950  1.00  0.00     0.040 A 
ATOM     71  C   UNL A   1      37.556  30.284  32.967  1.00  0.00     0.040 A 
ATOM     72  F   UNL A   1      39.735  29.418  32.928  1.00  0.00    -0.206 F 
ATOM     73  C   UNL A   1      36.481  30.886  32.315  1.00  0.00     0.006 A 
ENDBRANCH  52  66
BRANCH  53  74
ATOM     74  C   UNL A   1      47.079  27.473  26.029  1.00  0.00     0.057 A 
ATOM     75  C   UNL A   1      47.182  27.595  24.639  1.00  0.00     0.134 A 
ATOM     76  C   UNL A   1      48.176  26.934  26.711  1.00  0.00     0.134 A 
ATOM     77  F   UNL A   1      46.153  28.076  23.926  1.00  0.00    -0.206 F 
ATOM     78  C   UNL A   1      48.326  27.186  23.951  1.00  0.00     0.040 A 
ATOM     79  C   UNL A   1      49.336  26.541  26.040  1.00  0.00     0.040 A 
ATOM     80  F   UNL A   1      48.137  26.783  28.043  1.00  0.00    -0.206 F 
ATOM     81  C   UNL A   1      49.410  26.662  24.654  1.00  0.00     0.006 A 
ENDBRANCH  53  74
BRANCH  65  82
ATOM     82  C   UNL A   1      44.988  33.445  28.928  1.00  0.00     0.057 A 
ATOM     83  C   UNL A   1      44.771  34.477  28.007  1.00  0.00     0.134 A 
ATOM     84  C   UNL A   1      45.819  33.718  30.022  1.00  0.00     0.134 A 
ATOM     85  F   UNL A   1      43.995  34.276  26.931  1.00  0.00    -0.206 F 
ATOM     86  C   UNL A   1      45.374  35.728  28.158  1.00  0.00     0.040 A 
ATOM     87  C   UNL A   1      46.409  34.971  30.196  1.00  0.00     0.040 A 
ATOM     88  F   UNL A   1      46.062  32.775  30.946  1.00  0.00    -0.206 F 
ATOM     89  C   UNL A   1      46.191  35.978  29.259  1.00  0.00     0.006 A 
ENDBRANCH  65  82
ENDBRANCH  39  40
ENDBRANCH  32  34
ENDBRANCH  31  32
ENDBRANCH  30  31
ENDBRANCH  29  30
ENDBRANCH  28  29
ENDBRANCH  27  28
ENDBRANCH   1  27
TORSDOF 23
ENDMDL
MODEL 2
REMARK VINA RESULT:      -9.7      0.660      6.045
REMARK SMILES Cc1ccc(CNC(=O)NC[C@@H](CC(C)C)C(=O)OCCOCCOCCOC(=O)c2ccc(-c3c4nc(c(-c5c(F)cccc5F)c5ccc([nH]5)c(-c5c(F)cccc5F)c5nc(c(-c6c(F)cccc6F)c6ccc3[nH]6)C=C5)C=C4)cc2)s1
REMARK SMILES IDX 23 1 22 2 21 3 20 4 19 5 17 6 18 7 12 8 11 9 10 10 7 11 8 12
REMARK SMILES IDX 9 14 6 16 5 17 1 18 2 19 3 20 85 21 4 22 13 23 14 24 15 25
REMARK SMILES IDX 16 26 24 27 25 28 26 29 27 30 28 31 29 32 30 33 31 34 32 35
REMARK SMILES IDX 84 36 33 37 83 38 34 39 35 40 36 41 77 42 37 43 82 44 76 45
REMARK SMILES IDX 78 46 38 47 81 48 75 49 74 50 39 52 65 53 48 54 64 55 49 56
REMARK SMILES IDX 52 57 63 58 79 59 50 60 51 61 62 63 80 64 53 65 40 66 41 67
REMARK SMILES IDX 46 68 42 69 43 70 45 71 47 72 44 73 66 74 67 75 72 76 68 77
REMARK SMILES IDX 69 78 71 79 73 80 70 81 54 82 55 83 60 84 56 85 57 86 59 87
REMARK SMILES IDX 61 88 58 89
REMARK H PARENT 7 13 10 15 78 51 52 62
REMARK Flexibility Score: inf
ROOT
ATOM      1  C   UNL A   1      35.130  23.805  23.175  1.00  0.00     0.188 C 
ENDROOT
BRANCH   1   2
ATOM      2  O   UNL A   1      33.803  23.959  22.699  1.00  0.00    -0.376 OA
BRANCH   2   3
ATOM      3  C   UNL A   1      33.264  25.278  22.731  1.00  0.00     0.202 C 
BRANCH   3   4
ATOM      4  C   UNL A   1      31.765  25.429  22.437  1.00  0.00     0.261 C 
BRANCH   4   5
ATOM      5  O   UNL A   1      30.875  25.324  23.577  1.00  0.00    -0.463 OA
BRANCH   5   6
ATOM      6  C   UNL A   1      30.605  26.504  24.197  1.00  0.00     0.310 C 
ATOM      7  O   UNL A   1      30.064  27.461  23.646  1.00  0.00    -0.252 OA
BRANCH   6   8
ATOM      8  C   UNL A   1      31.101  26.618  25.629  1.00  0.00     0.119 C 
BRANCH   8   9
ATOM      9  C   UNL A   1      31.782  25.403  26.283  1.00  0.00     0.133 C 
BRANCH   9  10
ATOM     10  N   UNL A   1      30.762  24.472  26.802  1.00  0.00    -0.337 N 
ATOM     11  N   UNL A   1      31.204  22.207  26.247  1.00  0.00    -0.333 N 
ATOM     12  C   UNL A   1      30.523  23.162  26.870  1.00  0.00     0.315 C 
ATOM     13  H   UNL A   1      31.025  21.306  26.599  1.00  0.00     0.165 HD
ATOM     14  O   UNL A   1      29.575  22.810  27.578  1.00  0.00    -0.249 OA
ATOM     15  H   UNL A   1      30.032  24.973  27.231  1.00  0.00     0.165 HD
BRANCH  11  16
ATOM     16  C   UNL A   1      32.145  22.218  25.169  1.00  0.00     0.164 C 
BRANCH  16  17
ATOM     17  C   UNL A   1      32.221  20.888  24.493  1.00  0.00     0.024 A 
ATOM     18  C   UNL A   1      33.335  17.156  24.093  1.00  0.00     0.056 C 
ATOM     19  C   UNL A   1      32.833  18.552  23.984  1.00  0.00     0.002 A 
ATOM     20  C   UNL A   1      32.527  19.268  22.846  1.00  0.00     0.015 A 
ATOM     21  S   UNL A   1      32.598  19.484  25.398  1.00  0.00    -0.144 S 
ATOM     22  C   UNL A   1      32.145  20.610  23.141  1.00  0.00     0.017 A 
ENDBRANCH  16  17
ENDBRANCH  11  16
ENDBRANCH   9  10
ENDBRANCH   8   9
BRANCH   8  23
ATOM     23  C   UNL A   1      31.831  27.971  25.771  1.00  0.00     0.020 C 
BRANCH  23  24
ATOM     24  C   UNL A   1      33.374  27.993  25.791  1.00  0.00    -0.017 C 
ATOM     25  C   UNL A   1      34.025  28.546  24.526  1.00  0.00     0.007 C 
ATOM     26  C   UNL A   1      33.826  28.841  26.986  1.00  0.00     0.007 C 
ENDBRANCH  23  24
ENDBRANCH   8  23
ENDBRANCH   6   8
ENDBRANCH   5   6
ENDBRANCH   4   5
ENDBRANCH   3   4
ENDBRANCH   2   3
ENDBRANCH   1   2
BRANCH   1  27
ATOM     27  C   UNL A   1      35.502  22.440  23.752  1.00  0.00     0.188 C 
BRANCH  27  28
ATOM     28  O   UNL A   1      35.702  22.376  25.158  1.00  0.00    -0.376 OA
BRANCH  28  29
ATOM     29  C   UNL A   1      36.036  21.076  25.663  1.00  0.00     0.202 C 
BRANCH  29  30
ATOM     30  C   UNL A   1      37.268  20.415  25.000  1.00  0.00     0.261 C 
BRANCH  30  31
ATOM     31  O   UNL A   1      38.457  21.238  25.000  1.00  0.00    -0.460 OA
BRANCH  31  32
ATOM     32  C   UNL A   1      39.310  21.001  26.023  1.00  0.00     0.338 C 
ATOM     33  O   UNL A   1      39.844  19.947  26.272  1.00  0.00    -0.246 OA
BRANCH  32  34
ATOM     34  C   UNL A   1      39.732  22.282  26.641  1.00  0.00     0.060 A 
ATOM     35  C   UNL A   1      39.044  23.438  26.254  1.00  0.00     0.016 A 
ATOM     36  C   UNL A   1      40.779  22.370  27.553  1.00  0.00     0.016 A 
ATOM     37  C   UNL A   1      39.430  24.694  26.709  1.00  0.00     0.010 A 
ATOM     38  C   UNL A   1      41.178  23.634  28.009  1.00  0.00     0.010 A 
ATOM     39  C   UNL A   1      40.532  24.804  27.558  1.00  0.00    -0.014 A 
BRANCH  39  40
ATOM     40  C   UNL A   1      41.128  26.139  27.806  1.00  0.00     0.031 A 
ATOM     41  C   UNL A   1      42.518  26.405  27.299  1.00  0.00     0.074 A 
ATOM     42  C   UNL A   1      40.438  27.126  28.406  1.00  0.00     0.049 A 
ATOM     43  N   UNL A   1      43.295  27.438  27.494  1.00  0.00    -0.248 NA
ATOM     44  C   UNL A   1      43.109  25.358  26.449  1.00  0.00     0.031 C 
ATOM     45  C   UNL A   1      39.046  27.045  28.843  1.00  0.00     0.029 A 
ATOM     46  N   UNL A   1      40.827  28.398  28.746  1.00  0.00    -0.354 N 
ATOM     47  C   UNL A   1      44.475  27.155  26.818  1.00  0.00     0.074 A 
ATOM     48  C   UNL A   1      44.317  25.849  26.216  1.00  0.00     0.031 C 
ATOM     49  C   UNL A   1      38.699  28.217  29.403  1.00  0.00     0.029 A 
ATOM     50  C   UNL A   1      39.857  29.109  29.409  1.00  0.00     0.049 A 
ATOM     51  H   UNL A   1      41.715  28.765  28.535  1.00  0.00     0.167 HD
ATOM     52  C   UNL A   1      45.591  27.913  26.710  1.00  0.00     0.037 A 
ATOM     53  C   UNL A   1      39.913  30.326  29.986  1.00  0.00     0.037 A 
ATOM     54  C   UNL A   1      45.746  29.216  27.297  1.00  0.00     0.049 A 
ATOM     55  C   UNL A   1      41.198  31.110  29.941  1.00  0.00     0.074 A 
ATOM     56  C   UNL A   1      46.849  30.052  27.267  1.00  0.00     0.029 A 
ATOM     57  N   UNL A   1      44.760  29.877  28.014  1.00  0.00    -0.354 N 
ATOM     58  N   UNL A   1      42.333  30.811  29.356  1.00  0.00    -0.248 NA
ATOM     59  C   UNL A   1      41.213  32.397  30.652  1.00  0.00     0.031 C 
ATOM     60  C   UNL A   1      46.543  31.205  28.000  1.00  0.00     0.029 A 
ATOM     61  C   UNL A   1      45.235  31.105  28.447  1.00  0.00     0.049 A 
ATOM     62  H   UNL A   1      43.858  29.526  28.190  1.00  0.00     0.167 HD
ATOM     63  C   UNL A   1      43.184  31.882  29.603  1.00  0.00     0.074 A 
ATOM     64  C   UNL A   1      42.433  32.842  30.384  1.00  0.00     0.031 C 
ATOM     65  C   UNL A   1      44.472  32.055  29.213  1.00  0.00     0.037 A 
BRANCH  52  66
ATOM     66  C   UNL A   1      46.749  27.317  25.968  1.00  0.00     0.057 A 
ATOM     67  C   UNL A   1      46.921  27.495  24.589  1.00  0.00     0.134 A 
ATOM     68  C   UNL A   1      47.701  26.544  26.645  1.00  0.00     0.134 A 
ATOM     69  F   UNL A   1      46.030  28.202  23.879  1.00  0.00    -0.206 F 
ATOM     70  C   UNL A   1      47.986  26.904  23.906  1.00  0.00     0.040 A 
ATOM     71  C   UNL A   1      48.783  25.970  25.978  1.00  0.00     0.040 A 
ATOM     72  F   UNL A   1      47.592  26.333  27.966  1.00  0.00    -0.206 F 
ATOM     73  C   UNL A   1      48.924  26.143  24.602  1.00  0.00     0.006 A 
ENDBRANCH  52  66
BRANCH  53  74
ATOM     74  C   UNL A   1      38.726  30.873  30.690  1.00  0.00     0.057 A 
ATOM     75  C   UNL A   1      38.464  30.551  32.026  1.00  0.00     0.134 A 
ATOM     76  C   UNL A   1      37.808  31.702  30.034  1.00  0.00     0.134 A 
ATOM     77  F   UNL A   1      39.289  29.737  32.698  1.00  0.00    -0.206 F 
ATOM     78  C   UNL A   1      37.327  31.027  32.683  1.00  0.00     0.040 A 
ATOM     79  C   UNL A   1      36.679  32.203  30.684  1.00  0.00     0.040 A 
ATOM     80  F   UNL A   1      37.997  32.040  28.750  1.00  0.00    -0.206 F 
ATOM     81  C   UNL A   1      36.434  31.860  32.012  1.00  0.00     0.006 A 
ENDBRANCH  53  74
BRANCH  65  82
ATOM     82  C   UNL A   1      45.136  33.348  29.587  1.00  0.00     0.057 A 
ATOM     83  C   UNL A   1      45.070  34.480  28.766  1.00  0.00     0.134 A 
ATOM     84  C   UNL A   1      45.817  33.471  30.805  1.00  0.00     0.134 A 
ATOM     85  F   UNL A   1      44.443  34.425  27.581  1.00  0.00    -0.206 F 
ATOM     86  C   UNL A   1      45.677  35.684  29.133  1.00  0.00     0.040 A 
ATOM     87  C   UNL A   1      46.407  34.674  31.194  1.00  0.00     0.040 A 
ATOM     88  F   UNL A   1      45.908  32.426  31.642  1.00  0.00    -0.206 F 
ATOM     89  C   UNL A   1      46.342  35.783  30.353  1.00  0.00     0.006 A 
ENDBRANCH  65  82
ENDBRANCH  39  40
ENDBRANCH  32  34
ENDBRANCH  31  32
ENDBRANCH  30  31
ENDBRANCH  29  30
ENDBRANCH  28  29
ENDBRANCH  27  28
ENDBRANCH   1  27
TORSDOF 23
ENDMDL
MODEL 3
REMARK VINA RESULT:      -9.6      2.025      6.417
REMARK SMILES Cc1ccc(CNC(=O)NC[C@@H](CC(C)C)C(=O)OCCOCCOCCOC(=O)c2ccc(-c3c4nc(c(-c5c(F)cccc5F)c5ccc([nH]5)c(-c5c(F)cccc5F)c5nc(c(-c6c(F)cccc6F)c6ccc3[nH]6)C=C5)C=C4)cc2)s1
REMARK SMILES IDX 23 1 22 2 21 3 20 4 19 5 17 6 18 7 12 8 11 9 10 10 7 11 8 12
REMARK SMILES IDX 9 14 6 16 5 17 1 18 2 19 3 20 85 21 4 22 13 23 14 24 15 25
REMARK SMILES IDX 16 26 24 27 25 28 26 29 27 30 28 31 29 32 30 33 31 34 32 35
REMARK SMILES IDX 84 36 33 37 83 38 34 39 35 40 36 41 77 42 37 43 82 44 76 45
REMARK SMILES IDX 78 46 38 47 81 48 75 49 74 50 39 52 65 53 48 54 64 55 49 56
REMARK SMILES IDX 52 57 63 58 79 59 50 60 51 61 62 63 80 64 53 65 40 66 41 67
REMARK SMILES IDX 46 68 42 69 43 70 45 71 47 72 44 73 66 74 67 75 72 76 68 77
REMARK SMILES IDX 69 78 71 79 73 80 70 81 54 82 55 83 60 84 56 85 57 86 59 87
REMARK SMILES IDX 61 88 58 89
REMARK H PARENT 7 13 10 15 78 51 52 62
REMARK Flexibility Score: inf
ROOT
ATOM      1  C   UNL A   1      35.773  21.395  24.649  1.00  0.00     0.188 C 
ENDROOT
BRANCH   1   2
ATOM      2  O   UNL A   1      34.878  21.857  25.647  1.00  0.00    -0.376 OA
BRANCH   2   3
ATOM      3  C   UNL A   1      34.879  23.258  25.905  1.00  0.00     0.202 C 
BRANCH   3   4
ATOM      4  C   UNL A   1      35.256  24.185  24.742  1.00  0.00     0.261 C 
BRANCH   4   5
ATOM      5  O   UNL A   1      34.212  25.070  24.263  1.00  0.00    -0.463 OA
BRANCH   5   6
ATOM      6  C   UNL A   1      33.441  24.554  23.269  1.00  0.00     0.310 C 
ATOM      7  O   UNL A   1      33.869  23.821  22.380  1.00  0.00    -0.252 OA
BRANCH   6   8
ATOM      8  C   UNL A   1      31.992  25.012  23.261  1.00  0.00     0.119 C 
BRANCH   8   9
ATOM      9  C   UNL A   1      30.874  23.960  23.366  1.00  0.00     0.133 C 
BRANCH   9  10
ATOM     10  N   UNL A   1      30.791  23.449  24.748  1.00  0.00    -0.337 N 
ATOM     11  N   UNL A   1      31.948  21.399  25.053  1.00  0.00    -0.333 N 
ATOM     12  C   UNL A   1      31.268  22.451  25.493  1.00  0.00     0.315 C 
ATOM     13  H   UNL A   1      32.405  20.901  25.768  1.00  0.00     0.165 HD
ATOM     14  O   UNL A   1      31.048  22.515  26.706  1.00  0.00    -0.249 OA
ATOM     15  H   UNL A   1      30.201  24.023  25.288  1.00  0.00     0.165 HD
BRANCH  11  16
ATOM     16  C   UNL A   1      32.155  20.841  23.752  1.00  0.00     0.164 C 
BRANCH  16  17
ATOM     17  C   UNL A   1      32.463  19.381  23.823  1.00  0.00     0.024 A 
ATOM     18  C   UNL A   1      34.045  16.147  25.362  1.00  0.00     0.056 C 
ATOM     19  C   UNL A   1      33.398  17.219  24.558  1.00  0.00     0.002 A 
ATOM     20  C   UNL A   1      33.140  17.238  23.204  1.00  0.00     0.015 A 
ATOM     21  S   UNL A   1      32.898  18.667  25.317  1.00  0.00    -0.144 S 
ATOM     22  C   UNL A   1      32.572  18.478  22.783  1.00  0.00     0.017 A 
ENDBRANCH  16  17
ENDBRANCH  11  16
ENDBRANCH   9  10
ENDBRANCH   8   9
BRANCH   8  23
ATOM     23  C   UNL A   1      31.875  26.231  24.201  1.00  0.00     0.020 C 
BRANCH  23  24
ATOM     24  C   UNL A   1      30.844  27.332  23.877  1.00  0.00    -0.017 C 
ATOM     25  C   UNL A   1      31.054  28.648  24.621  1.00  0.00     0.007 C 
ATOM     26  C   UNL A   1      30.895  27.608  22.369  1.00  0.00     0.007 C 
ENDBRANCH  23  24
ENDBRANCH   8  23
ENDBRANCH   6   8
ENDBRANCH   5   6
ENDBRANCH   4   5
ENDBRANCH   3   4
ENDBRANCH   2   3
ENDBRANCH   1   2
BRANCH   1  27
ATOM     27  C   UNL A   1      37.168  20.976  25.113  1.00  0.00     0.188 C 
BRANCH  27  28
ATOM     28  O   UNL A   1      38.081  22.023  25.409  1.00  0.00    -0.376 OA
BRANCH  28  29
ATOM     29  C   UNL A   1      39.332  21.595  25.966  1.00  0.00     0.202 C 
BRANCH  29  30
ATOM     30  C   UNL A   1      39.549  20.063  25.983  1.00  0.00     0.261 C 
BRANCH  30  31
ATOM     31  O   UNL A   1      40.745  19.625  25.300  1.00  0.00    -0.460 OA
BRANCH  31  32
ATOM     32  C   UNL A   1      41.816  19.425  26.104  1.00  0.00     0.338 C 
ATOM     33  O   UNL A   1      42.371  18.370  26.297  1.00  0.00    -0.246 OA
BRANCH  32  34
ATOM     34  C   UNL A   1      42.402  20.727  26.503  1.00  0.00     0.060 A 
ATOM     35  C   UNL A   1      42.263  21.109  27.843  1.00  0.00     0.016 A 
ATOM     36  C   UNL A   1      43.050  21.570  25.606  1.00  0.00     0.016 A 
ATOM     37  C   UNL A   1      42.698  22.353  28.288  1.00  0.00     0.010 A 
ATOM     38  C   UNL A   1      43.484  22.827  26.046  1.00  0.00     0.010 A 
ATOM     39  C   UNL A   1      43.274  23.241  27.378  1.00  0.00    -0.014 A 
BRANCH  39  40
ATOM     40  C   UNL A   1      43.465  24.659  27.768  1.00  0.00     0.031 A 
ATOM     41  C   UNL A   1      44.870  25.173  27.921  1.00  0.00     0.074 A 
ATOM     42  C   UNL A   1      42.428  25.501  27.919  1.00  0.00     0.049 A 
ATOM     43  N   UNL A   1      45.293  26.326  28.368  1.00  0.00    -0.248 NA
ATOM     44  C   UNL A   1      45.945  24.255  27.507  1.00  0.00     0.031 C 
ATOM     45  C   UNL A   1      41.024  25.170  27.689  1.00  0.00     0.029 A 
ATOM     46  N   UNL A   1      42.406  26.819  28.303  1.00  0.00    -0.354 N 
ATOM     47  C   UNL A   1      46.680  26.264  28.317  1.00  0.00     0.074 A 
ATOM     48  C   UNL A   1      47.028  24.956  27.805  1.00  0.00     0.031 C 
ATOM     49  C   UNL A   1      40.274  26.257  27.945  1.00  0.00     0.029 A 
ATOM     50  C   UNL A   1      41.140  27.341  28.406  1.00  0.00     0.049 A 
ATOM     51  H   UNL A   1      43.221  27.340  28.487  1.00  0.00     0.167 HD
ATOM     52  C   UNL A   1      47.583  27.209  28.667  1.00  0.00     0.037 A 
ATOM     53  C   UNL A   1      40.728  28.543  28.855  1.00  0.00     0.037 A 
ATOM     54  C   UNL A   1      47.239  28.514  29.162  1.00  0.00     0.049 A 
ATOM     55  C   UNL A   1      41.746  29.544  29.335  1.00  0.00     0.074 A 
ATOM     56  C   UNL A   1      48.082  29.534  29.570  1.00  0.00     0.029 A 
ATOM     57  N   UNL A   1      45.943  28.983  29.310  1.00  0.00    -0.354 N 
ATOM     58  N   UNL A   1      43.054  29.456  29.346  1.00  0.00    -0.248 NA
ATOM     59  C   UNL A   1      41.226  30.807  29.880  1.00  0.00     0.031 C 
ATOM     60  C   UNL A   1      47.293  30.607  30.001  1.00  0.00     0.029 A 
ATOM     61  C   UNL A   1      45.961  30.271  29.818  1.00  0.00     0.049 A 
ATOM     62  H   UNL A   1      45.129  28.475  29.087  1.00  0.00     0.167 HD
ATOM     63  C   UNL A   1      43.513  30.660  29.869  1.00  0.00     0.074 A 
ATOM     64  C   UNL A   1      42.344  31.464  30.157  1.00  0.00     0.031 C 
ATOM     65  C   UNL A   1      44.790  31.064  30.088  1.00  0.00     0.037 A 
BRANCH  52  66
ATOM     66  C   UNL A   1      49.031  26.836  28.570  1.00  0.00     0.057 A 
ATOM     67  C   UNL A   1      49.722  26.248  29.637  1.00  0.00     0.134 A 
ATOM     68  C   UNL A   1      49.747  27.077  27.391  1.00  0.00     0.134 A 
ATOM     69  F   UNL A   1      49.100  26.015  30.802  1.00  0.00    -0.206 F 
ATOM     70  C   UNL A   1      51.080  25.937  29.544  1.00  0.00     0.040 A 
ATOM     71  C   UNL A   1      51.098  26.749  27.275  1.00  0.00     0.040 A 
ATOM     72  F   UNL A   1      49.144  27.641  26.332  1.00  0.00    -0.206 F 
ATOM     73  C   UNL A   1      51.770  26.184  28.358  1.00  0.00     0.006 A 
ENDBRANCH  52  66
BRANCH  53  74
ATOM     74  C   UNL A   1      39.280  28.863  28.908  1.00  0.00     0.057 A 
ATOM     75  C   UNL A   1      38.615  29.402  27.801  1.00  0.00     0.134 A 
ATOM     76  C   UNL A   1      38.533  28.668  30.076  1.00  0.00     0.134 A 
ATOM     77  F   UNL A   1      39.283  29.640  26.663  1.00  0.00    -0.206 F 
ATOM     78  C   UNL A   1      37.263  29.745  27.856  1.00  0.00     0.040 A 
ATOM     79  C   UNL A   1      37.176  28.985  30.139  1.00  0.00     0.040 A 
ATOM     80  F   UNL A   1      39.114  28.162  31.174  1.00  0.00    -0.206 F 
ATOM     81  C   UNL A   1      36.538  29.531  29.028  1.00  0.00     0.006 A 
ENDBRANCH  53  74
BRANCH  65  82
ATOM     82  C   UNL A   1      44.991  32.451  30.624  1.00  0.00     0.057 A 
ATOM     83  C   UNL A   1      45.104  32.708  31.995  1.00  0.00     0.134 A 
ATOM     84  C   UNL A   1      45.111  33.539  29.750  1.00  0.00     0.134 A 
ATOM     85  F   UNL A   1      44.985  31.711  32.886  1.00  0.00    -0.206 F 
ATOM     86  C   UNL A   1      45.309  34.001  32.481  1.00  0.00     0.040 A 
ATOM     87  C   UNL A   1      45.340  34.833  30.221  1.00  0.00     0.040 A 
ATOM     88  F   UNL A   1      45.022  33.360  28.423  1.00  0.00    -0.206 F 
ATOM     89  C   UNL A   1      45.433  35.066  31.591  1.00  0.00     0.006 A 
ENDBRANCH  65  82
ENDBRANCH  39  40
ENDBRANCH  32  34
ENDBRANCH  31  32
ENDBRANCH  30  31
ENDBRANCH  29  30
ENDBRANCH  28  29
ENDBRANCH  27  28
ENDBRANCH   1  27
TORSDOF 23
ENDMDL
