MODEL 1
REMARK VINA RESULT:     -10.8      0.000      0.000
REMARK SMILES CC(C)(C)OC(=O)N1CCC2(CC1)C[C@@H](C(=O)OCCOCCOCCOC(=O)c1ccc(-c3c4nc(c(-c5c(F)cccc5F)c5ccc([nH]5)c(-c5c(F)cccc5F)c5nc(c(-c6c(F)cccc6F)c6ccc3[nH]6)C=C5)C=C4)cc1)CO2
REMARK SMILES IDX 22 1 21 2 20 3 19 4 18 5 16 6 17 7 15 8 6 9 7 10 8 11 9 12
REMARK SMILES IDX 13 13 10 14 12 15 11 16 14 17 85 18 84 19 5 20 2 21 1 22
REMARK SMILES IDX 3 23 4 24 23 25 24 26 25 27 26 28 27 29 28 30 29 31 30 32
REMARK SMILES IDX 31 33 83 34 32 35 82 36 33 37 34 38 35 39 76 40 36 41 81 42
REMARK SMILES IDX 75 43 77 44 37 45 80 46 74 47 73 48 38 50 64 51 47 52 63 53
REMARK SMILES IDX 48 54 51 55 62 56 78 57 49 58 50 59 61 61 79 62 52 63 39 64
REMARK SMILES IDX 40 65 45 66 41 67 42 68 44 69 46 70 43 71 65 72 66 73 71 74
REMARK SMILES IDX 67 75 68 76 70 77 72 78 69 79 53 80 54 81 59 82 55 83 56 84
REMARK SMILES IDX 58 85 60 86 57 87
REMARK H PARENT 77 49 51 60
REMARK Flexibility Score: inf
ROOT
ATOM      1  C   UNL A   1      33.557  35.140  29.008  1.00  0.00     0.188 C 
ENDROOT
BRANCH   1   2
ATOM      2  O   UNL A   1      33.976  33.784  29.043  1.00  0.00    -0.376 OA
BRANCH   2   3
ATOM      3  C   UNL A   1      34.832  33.300  28.007  1.00  0.00     0.202 C 
BRANCH   3   4
ATOM      4  C   UNL A   1      34.935  31.781  27.795  1.00  0.00     0.261 C 
BRANCH   4   5
ATOM      5  O   UNL A   1      33.783  31.207  27.146  1.00  0.00    -0.463 OA
BRANCH   5   6
ATOM      6  C   UNL A   1      33.620  29.867  27.266  1.00  0.00     0.311 C 
ATOM      7  O   UNL A   1      34.504  29.093  27.618  1.00  0.00    -0.252 OA
BRANCH   6   8
ATOM      8  C   UNL A   1      32.195  29.393  27.029  1.00  0.00     0.128 C 
ATOM      9  C   UNL A   1      33.039  23.964  23.670  1.00  0.00     0.410 C 
ATOM     10  O   UNL A   1      32.226  23.124  23.304  1.00  0.00    -0.224 OA
ATOM     11  N   UNL A   1      32.714  25.274  23.921  1.00  0.00    -0.308 N 
ATOM     12  C   UNL A   1      31.332  25.632  24.185  1.00  0.00     0.126 C 
ATOM     13  C   UNL A   1      33.694  26.343  24.078  1.00  0.00     0.126 C 
ATOM     14  C   UNL A   1      31.224  26.133  25.627  1.00  0.00     0.057 C 
ATOM     15  C   UNL A   1      33.632  26.917  25.489  1.00  0.00     0.057 C 
ATOM     16  C   UNL A   1      32.187  27.306  25.848  1.00  0.00     0.073 C 
ATOM     17  C   UNL A   1      32.076  27.896  27.253  1.00  0.00     0.053 C 
ATOM     18  O   UNL A   1      31.783  28.336  24.936  1.00  0.00    -0.374 OA
ATOM     19  C   UNL A   1      31.607  29.554  25.641  1.00  0.00     0.176 C 
BRANCH   9  20
ATOM     20  O   UNL A   1      34.341  23.717  23.944  1.00  0.00    -0.444 OA
BRANCH  20  21
ATOM     21  C   UNL A   1      34.727  22.884  25.061  1.00  0.00     0.106 C 
ATOM     22  C   UNL A   1      36.237  23.121  25.212  1.00  0.00     0.056 C 
ATOM     23  C   UNL A   1      34.469  21.424  24.688  1.00  0.00     0.056 C 
ATOM     24  C   UNL A   1      34.051  23.274  26.382  1.00  0.00     0.056 C 
ENDBRANCH  20  21
ENDBRANCH   9  20
ENDBRANCH   6   8
ENDBRANCH   5   6
ENDBRANCH   4   5
ENDBRANCH   3   4
ENDBRANCH   2   3
ENDBRANCH   1   2
BRANCH   1  25
ATOM     25  C   UNL A   1      32.974  35.767  30.277  1.00  0.00     0.188 C 
BRANCH  25  26
ATOM     26  O   UNL A   1      32.973  34.935  31.417  1.00  0.00    -0.376 OA
BRANCH  26  27
ATOM     27  C   UNL A   1      33.818  35.305  32.502  1.00  0.00     0.202 C 
BRANCH  27  28
ATOM     28  C   UNL A   1      35.304  34.920  32.375  1.00  0.00     0.261 C 
BRANCH  28  29
ATOM     29  O   UNL A   1      35.557  33.553  31.991  1.00  0.00    -0.460 OA
BRANCH  29  30
ATOM     30  C   UNL A   1      36.263  32.791  32.863  1.00  0.00     0.338 C 
ATOM     31  O   UNL A   1      35.975  32.552  34.022  1.00  0.00    -0.246 OA
BRANCH  30  32
ATOM     32  C   UNL A   1      37.291  32.052  32.087  1.00  0.00     0.060 A 
ATOM     33  C   UNL A   1      38.271  31.336  32.791  1.00  0.00     0.016 A 
ATOM     34  C   UNL A   1      37.258  32.007  30.692  1.00  0.00     0.016 A 
ATOM     35  C   UNL A   1      39.236  30.597  32.102  1.00  0.00     0.010 A 
ATOM     36  C   UNL A   1      38.241  31.288  30.001  1.00  0.00     0.010 A 
ATOM     37  C   UNL A   1      39.250  30.602  30.700  1.00  0.00    -0.014 A 
BRANCH  37  38
ATOM     38  C   UNL A   1      40.424  30.049  29.975  1.00  0.00     0.031 A 
ATOM     39  C   UNL A   1      41.595  30.959  29.716  1.00  0.00     0.074 A 
ATOM     40  C   UNL A   1      40.472  28.765  29.579  1.00  0.00     0.049 A 
ATOM     41  N   UNL A   1      42.719  30.712  29.092  1.00  0.00    -0.248 NA
ATOM     42  C   UNL A   1      41.482  32.334  30.230  1.00  0.00     0.031 C 
ATOM     43  C   UNL A   1      39.427  27.767  29.796  1.00  0.00     0.029 A 
ATOM     44  N   UNL A   1      41.453  28.081  28.898  1.00  0.00    -0.354 N 
ATOM     45  C   UNL A   1      43.442  31.898  29.133  1.00  0.00     0.074 A 
ATOM     46  C   UNL A   1      42.621  32.871  29.821  1.00  0.00     0.031 C 
ATOM     47  C   UNL A   1      39.817  26.599  29.252  1.00  0.00     0.029 A 
ATOM     48  C   UNL A   1      41.126  26.774  28.623  1.00  0.00     0.049 A 
ATOM     49  H   UNL A   1      42.308  28.490  28.633  1.00  0.00     0.167 HD
ATOM     50  C   UNL A   1      44.679  32.154  28.649  1.00  0.00     0.037 A 
ATOM     51  C   UNL A   1      41.800  25.836  27.927  1.00  0.00     0.037 A 
ATOM     52  C   UNL A   1      45.502  31.190  27.969  1.00  0.00     0.049 A 
ATOM     53  C   UNL A   1      43.148  26.173  27.336  1.00  0.00     0.074 A 
ATOM     54  C   UNL A   1      46.785  31.351  27.476  1.00  0.00     0.029 A 
ATOM     55  N   UNL A   1      45.121  29.890  27.678  1.00  0.00    -0.354 N 
ATOM     56  N   UNL A   1      43.839  27.283  27.422  1.00  0.00    -0.248 NA
ATOM     57  C   UNL A   1      43.808  25.119  26.549  1.00  0.00     0.031 C 
ATOM     58  C   UNL A   1      47.160  30.165  26.836  1.00  0.00     0.029 A 
ATOM     59  C   UNL A   1      46.131  29.248  26.982  1.00  0.00     0.049 A 
ATOM     60  H   UNL A   1      44.260  29.484  27.929  1.00  0.00     0.167 HD
ATOM     61  C   UNL A   1      45.025  27.049  26.732  1.00  0.00     0.074 A 
ATOM     62  C   UNL A   1      44.966  25.686  26.250  1.00  0.00     0.031 C 
ATOM     63  C   UNL A   1      46.067  27.887  26.515  1.00  0.00     0.037 A 
BRANCH  50  64
ATOM     64  C   UNL A   1      45.216  33.545  28.812  1.00  0.00     0.057 A 
ATOM     65  C   UNL A   1      45.040  34.527  27.829  1.00  0.00     0.134 A 
ATOM     66  C   UNL A   1      45.866  33.919  29.994  1.00  0.00     0.134 A 
ATOM     67  F   UNL A   1      44.441  34.227  26.667  1.00  0.00    -0.206 F 
ATOM     68  C   UNL A   1      45.501  35.831  28.014  1.00  0.00     0.040 A 
ATOM     69  C   UNL A   1      46.310  35.226  30.200  1.00  0.00     0.040 A 
ATOM     70  F   UNL A   1      46.065  33.025  30.975  1.00  0.00    -0.206 F 
ATOM     71  C   UNL A   1      46.130  36.187  29.207  1.00  0.00     0.006 A 
ENDBRANCH  50  64
BRANCH  51  72
ATOM     72  C   UNL A   1      41.219  24.483  27.718  1.00  0.00     0.057 A 
ATOM     73  C   UNL A   1      41.699  23.369  28.418  1.00  0.00     0.134 A 
ATOM     74  C   UNL A   1      40.222  24.259  26.761  1.00  0.00     0.134 A 
ATOM     75  F   UNL A   1      42.677  23.513  29.326  1.00  0.00    -0.206 F 
ATOM     76  C   UNL A   1      41.234  22.080  28.153  1.00  0.00     0.040 A 
ATOM     77  C   UNL A   1      39.725  22.980  26.506  1.00  0.00     0.040 A 
ATOM     78  F   UNL A   1      39.722  25.282  26.052  1.00  0.00    -0.206 F 
ATOM     79  C   UNL A   1      40.241  21.883  27.194  1.00  0.00     0.006 A 
ENDBRANCH  51  72
BRANCH  63  80
ATOM     80  C   UNL A   1      47.246  27.344  25.758  1.00  0.00     0.057 A 
ATOM     81  C   UNL A   1      47.358  27.472  24.367  1.00  0.00     0.134 A 
ATOM     82  C   UNL A   1      48.294  26.703  26.432  1.00  0.00     0.134 A 
ATOM     83  F   UNL A   1      46.384  28.063  23.658  1.00  0.00    -0.206 F 
ATOM     84  C   UNL A   1      48.452  26.952  23.671  1.00  0.00     0.040 A 
ATOM     85  C   UNL A   1      49.407  26.208  25.751  1.00  0.00     0.040 A 
ATOM     86  F   UNL A   1      48.258  26.558  27.765  1.00  0.00    -0.206 F 
ATOM     87  C   UNL A   1      49.484  26.324  24.365  1.00  0.00     0.006 A 
ENDBRANCH  63  80
ENDBRANCH  37  38
ENDBRANCH  30  32
ENDBRANCH  29  30
ENDBRANCH  28  29
ENDBRANCH  27  28
ENDBRANCH  26  27
ENDBRANCH  25  26
ENDBRANCH   1  25
TORSDOF 19
ENDMDL
MODEL 2
REMARK VINA RESULT:     -10.6      4.520     10.259
REMARK SMILES CC(C)(C)OC(=O)N1CCC2(CC1)C[C@@H](C(=O)OCCOCCOCCOC(=O)c1ccc(-c3c4nc(c(-c5c(F)cccc5F)c5ccc([nH]5)c(-c5c(F)cccc5F)c5nc(c(-c6c(F)cccc6F)c6ccc3[nH]6)C=C5)C=C4)cc1)CO2
REMARK SMILES IDX 22 1 21 2 20 3 19 4 18 5 16 6 17 7 15 8 6 9 7 10 8 11 9 12
REMARK SMILES IDX 13 13 10 14 12 15 11 16 14 17 85 18 84 19 5 20 2 21 1 22
REMARK SMILES IDX 3 23 4 24 23 25 24 26 25 27 26 28 27 29 28 30 29 31 30 32
REMARK SMILES IDX 31 33 83 34 32 35 82 36 33 37 34 38 35 39 76 40 36 41 81 42
REMARK SMILES IDX 75 43 77 44 37 45 80 46 74 47 73 48 38 50 64 51 47 52 63 53
REMARK SMILES IDX 48 54 51 55 62 56 78 57 49 58 50 59 61 61 79 62 52 63 39 64
REMARK SMILES IDX 40 65 45 66 41 67 42 68 44 69 46 70 43 71 65 72 66 73 71 74
REMARK SMILES IDX 67 75 68 76 70 77 72 78 69 79 53 80 54 81 59 82 55 83 56 84
REMARK SMILES IDX 58 85 60 86 57 87
REMARK H PARENT 77 49 51 60
REMARK Flexibility Score: inf
ROOT
ATOM      1  C   UNL A   1      41.783  20.561  27.254  1.00  0.00     0.188 C 
ENDROOT
BRANCH   1   2
ATOM      2  O   UNL A   1      40.435  20.952  27.467  1.00  0.00    -0.376 OA
BRANCH   2   3
ATOM      3  C   UNL A   1      39.795  21.775  26.492  1.00  0.00     0.202 C 
BRANCH   3   4
ATOM      4  C   UNL A   1      38.668  21.162  25.645  1.00  0.00     0.261 C 
BRANCH   4   5
ATOM      5  O   UNL A   1      37.822  22.142  25.009  1.00  0.00    -0.463 OA
BRANCH   5   6
ATOM      6  C   UNL A   1      36.807  22.644  25.752  1.00  0.00     0.311 C 
ATOM      7  O   UNL A   1      36.872  23.685  26.397  1.00  0.00    -0.252 OA
BRANCH   6   8
ATOM      8  C   UNL A   1      35.510  21.857  25.639  1.00  0.00     0.128 C 
ATOM      9  C   UNL A   1      31.086  26.490  24.980  1.00  0.00     0.410 C 
ATOM     10  O   UNL A   1      29.886  26.413  24.750  1.00  0.00    -0.224 OA
ATOM     11  N   UNL A   1      31.809  25.489  25.581  1.00  0.00    -0.308 N 
ATOM     12  C   UNL A   1      31.291  24.132  25.580  1.00  0.00     0.126 C 
ATOM     13  C   UNL A   1      33.154  25.662  26.117  1.00  0.00     0.126 C 
ATOM     14  C   UNL A   1      32.225  23.254  24.746  1.00  0.00     0.057 C 
ATOM     15  C   UNL A   1      34.146  24.794  25.352  1.00  0.00     0.057 C 
ATOM     16  C   UNL A   1      33.654  23.337  25.296  1.00  0.00     0.073 C 
ATOM     17  C   UNL A   1      34.624  22.426  24.545  1.00  0.00     0.053 C 
ATOM     18  O   UNL A   1      33.597  22.854  26.645  1.00  0.00    -0.374 OA
ATOM     19  C   UNL A   1      34.574  21.843  26.831  1.00  0.00     0.176 C 
BRANCH   9  20
ATOM     20  O   UNL A   1      31.880  27.525  24.621  1.00  0.00    -0.444 OA
BRANCH  20  21
ATOM     21  C   UNL A   1      32.226  27.761  23.238  1.00  0.00     0.106 C 
ATOM     22  C   UNL A   1      33.647  28.340  23.291  1.00  0.00     0.056 C 
ATOM     23  C   UNL A   1      31.264  28.804  22.669  1.00  0.00     0.056 C 
ATOM     24  C   UNL A   1      32.265  26.484  22.387  1.00  0.00     0.056 C 
ENDBRANCH  20  21
ENDBRANCH   9  20
ENDBRANCH   6   8
ENDBRANCH   5   6
ENDBRANCH   4   5
ENDBRANCH   3   4
ENDBRANCH   2   3
ENDBRANCH   1   2
BRANCH   1  25
ATOM     25  C   UNL A   1      42.138  19.795  25.976  1.00  0.00     0.188 C 
BRANCH  25  26
ATOM     26  O   UNL A   1      43.023  20.458  25.100  1.00  0.00    -0.376 OA
BRANCH  26  27
ATOM     27  C   UNL A   1      44.417  20.364  25.376  1.00  0.00     0.202 C 
BRANCH  27  28
ATOM     28  C   UNL A   1      45.195  21.692  25.428  1.00  0.00     0.261 C 
BRANCH  28  29
ATOM     29  O   UNL A   1      44.563  22.750  26.178  1.00  0.00    -0.460 OA
BRANCH  29  30
ATOM     30  C   UNL A   1      44.183  23.852  25.484  1.00  0.00     0.338 C 
ATOM     31  O   UNL A   1      44.168  23.983  24.274  1.00  0.00    -0.246 OA
BRANCH  30  32
ATOM     32  C   UNL A   1      43.508  24.772  26.434  1.00  0.00     0.060 A 
ATOM     33  C   UNL A   1      43.983  26.089  26.540  1.00  0.00     0.016 A 
ATOM     34  C   UNL A   1      42.387  24.374  27.162  1.00  0.00     0.016 A 
ATOM     35  C   UNL A   1      43.355  26.999  27.393  1.00  0.00     0.010 A 
ATOM     36  C   UNL A   1      41.773  25.278  28.038  1.00  0.00     0.010 A 
ATOM     37  C   UNL A   1      42.270  26.587  28.178  1.00  0.00    -0.014 A 
BRANCH  37  38
ATOM     38  C   UNL A   1      41.782  27.463  29.275  1.00  0.00     0.031 A 
ATOM     39  C   UNL A   1      42.501  27.419  30.597  1.00  0.00     0.074 A 
ATOM     40  C   UNL A   1      40.744  28.302  29.104  1.00  0.00     0.049 A 
ATOM     41  N   UNL A   1      42.253  28.074  31.702  1.00  0.00    -0.248 NA
ATOM     42  C   UNL A   1      43.659  26.513  30.682  1.00  0.00     0.031 C 
ATOM     43  C   UNL A   1      39.982  28.471  27.868  1.00  0.00     0.029 A 
ATOM     44  N   UNL A   1      40.149  29.171  29.988  1.00  0.00    -0.354 N 
ATOM     45  C   UNL A   1      43.215  27.656  32.613  1.00  0.00     0.074 A 
ATOM     46  C   UNL A   1      44.037  26.674  31.941  1.00  0.00     0.031 C 
ATOM     47  C   UNL A   1      39.014  29.384  28.075  1.00  0.00     0.029 A 
ATOM     48  C   UNL A   1      39.069  29.840  29.463  1.00  0.00     0.049 A 
ATOM     49  H   UNL A   1      40.467  29.302  30.910  1.00  0.00     0.167 HD
ATOM     50  C   UNL A   1      43.402  28.057  33.892  1.00  0.00     0.037 A 
ATOM     51  C   UNL A   1      38.215  30.706  30.045  1.00  0.00     0.037 A 
ATOM     52  C   UNL A   1      42.591  29.037  34.564  1.00  0.00     0.049 A 
ATOM     53  C   UNL A   1      38.406  31.081  31.495  1.00  0.00     0.074 A 
ATOM     54  C   UNL A   1      42.731  29.533  35.849  1.00  0.00     0.029 A 
ATOM     55  N   UNL A   1      41.486  29.664  34.012  1.00  0.00    -0.354 N 
ATOM     56  N   UNL A   1      39.347  30.714  32.331  1.00  0.00    -0.248 NA
ATOM     57  C   UNL A   1      37.411  31.993  32.080  1.00  0.00     0.031 C 
ATOM     58  C   UNL A   1      41.676  30.418  36.094  1.00  0.00     0.029 A 
ATOM     59  C   UNL A   1      40.914  30.516  34.941  1.00  0.00     0.049 A 
ATOM     60  H   UNL A   1      41.157  29.523  33.094  1.00  0.00     0.167 HD
ATOM     61  C   UNL A   1      39.077  31.375  33.525  1.00  0.00     0.074 A 
ATOM     62  C   UNL A   1      37.895  32.179  33.298  1.00  0.00     0.031 C 
ATOM     63  C   UNL A   1      39.744  31.320  34.703  1.00  0.00     0.037 A 
BRANCH  50  64
ATOM     64  C   UNL A   1      44.517  27.417  34.665  1.00  0.00     0.057 A 
ATOM     65  C   UNL A   1      44.332  26.231  35.386  1.00  0.00     0.134 A 
ATOM     66  C   UNL A   1      45.804  27.967  34.639  1.00  0.00     0.134 A 
ATOM     67  F   UNL A   1      43.119  25.664  35.464  1.00  0.00    -0.206 F 
ATOM     68  C   UNL A   1      45.389  25.618  36.061  1.00  0.00     0.040 A 
ATOM     69  C   UNL A   1      46.874  27.351  35.290  1.00  0.00     0.040 A 
ATOM     70  F   UNL A   1      46.047  29.102  33.966  1.00  0.00    -0.206 F 
ATOM     71  C   UNL A   1      46.667  26.173  36.006  1.00  0.00     0.006 A 
ENDBRANCH  50  64
BRANCH  51  72
ATOM     72  C   UNL A   1      37.075  31.277  29.279  1.00  0.00     0.057 A 
ATOM     73  C   UNL A   1      35.951  30.503  28.963  1.00  0.00     0.134 A 
ATOM     74  C   UNL A   1      37.115  32.585  28.780  1.00  0.00     0.134 A 
ATOM     75  F   UNL A   1      35.867  29.232  29.384  1.00  0.00    -0.206 F 
ATOM     76  C   UNL A   1      34.924  30.997  28.155  1.00  0.00     0.040 A 
ATOM     77  C   UNL A   1      36.082  33.101  27.996  1.00  0.00     0.040 A 
ATOM     78  F   UNL A   1      38.165  33.377  29.041  1.00  0.00    -0.206 F 
ATOM     79  C   UNL A   1      34.988  32.302  27.670  1.00  0.00     0.006 A 
ENDBRANCH  51  72
BRANCH  63  80
ATOM     80  C   UNL A   1      39.238  32.182  35.825  1.00  0.00     0.057 A 
ATOM     81  C   UNL A   1      39.691  33.494  36.015  1.00  0.00     0.134 A 
ATOM     82  C   UNL A   1      38.268  31.700  36.714  1.00  0.00     0.134 A 
ATOM     83  F   UNL A   1      40.627  34.014  35.207  1.00  0.00    -0.206 F 
ATOM     84  C   UNL A   1      39.223  34.283  37.068  1.00  0.00     0.040 A 
ATOM     85  C   UNL A   1      37.770  32.489  37.751  1.00  0.00     0.040 A 
ATOM     86  F   UNL A   1      37.781  30.457  36.583  1.00  0.00    -0.206 F 
ATOM     87  C   UNL A   1      38.255  33.783  37.937  1.00  0.00     0.006 A 
ENDBRANCH  63  80
ENDBRANCH  37  38
ENDBRANCH  30  32
ENDBRANCH  29  30
ENDBRANCH  28  29
ENDBRANCH  27  28
ENDBRANCH  26  27
ENDBRANCH  25  26
ENDBRANCH   1  25
TORSDOF 19
ENDMDL
MODEL 3
REMARK VINA RESULT:      -9.7      3.855      9.851
REMARK SMILES CC(C)(C)OC(=O)N1CCC2(CC1)C[C@@H](C(=O)OCCOCCOCCOC(=O)c1ccc(-c3c4nc(c(-c5c(F)cccc5F)c5ccc([nH]5)c(-c5c(F)cccc5F)c5nc(c(-c6c(F)cccc6F)c6ccc3[nH]6)C=C5)C=C4)cc1)CO2
REMARK SMILES IDX 22 1 21 2 20 3 19 4 18 5 16 6 17 7 15 8 6 9 7 10 8 11 9 12
REMARK SMILES IDX 13 13 10 14 12 15 11 16 14 17 85 18 84 19 5 20 2 21 1 22
REMARK SMILES IDX 3 23 4 24 23 25 24 26 25 27 26 28 27 29 28 30 29 31 30 32
REMARK SMILES IDX 31 33 83 34 32 35 82 36 33 37 34 38 35 39 76 40 36 41 81 42
REMARK SMILES IDX 75 43 77 44 37 45 80 46 74 47 73 48 38 50 64 51 47 52 63 53
REMARK SMILES IDX 48 54 51 55 62 56 78 57 49 58 50 59 61 61 79 62 52 63 39 64
REMARK SMILES IDX 40 65 45 66 41 67 42 68 44 69 46 70 43 71 65 72 66 73 71 74
REMARK SMILES IDX 67 75 68 76 70 77 72 78 69 79 53 80 54 81 59 82 55 83 56 84
REMARK SMILES IDX 58 85 60 86 57 87
REMARK H PARENT 77 49 51 60
REMARK Flexibility Score: inf
ROOT
ATOM      1  C   UNL A   1      40.793  21.875  26.148  1.00  0.00     0.188 C 
ENDROOT
BRANCH   1   2
ATOM      2  O   UNL A   1      40.523  23.222  26.508  1.00  0.00    -0.376 OA
BRANCH   2   3
ATOM      3  C   UNL A   1      39.231  23.552  27.019  1.00  0.00     0.202 C 
BRANCH   3   4
ATOM      4  C   UNL A   1      38.067  23.693  26.024  1.00  0.00     0.261 C 
BRANCH   4   5
ATOM      5  O   UNL A   1      37.377  22.455  25.760  1.00  0.00    -0.463 OA
BRANCH   5   6
ATOM      6  C   UNL A   1      36.629  22.402  24.632  1.00  0.00     0.311 C 
ATOM      7  O   UNL A   1      36.964  22.894  23.558  1.00  0.00    -0.252 OA
BRANCH   6   8
ATOM      8  C   UNL A   1      35.360  21.576  24.768  1.00  0.00     0.128 C 
ATOM      9  C   UNL A   1      30.796  26.070  25.426  1.00  0.00     0.410 C 
ATOM     10  O   UNL A   1      29.577  25.962  25.471  1.00  0.00    -0.224 OA
ATOM     11  N   UNL A   1      31.661  25.065  25.783  1.00  0.00    -0.308 N 
ATOM     12  C   UNL A   1      31.189  23.692  25.815  1.00  0.00     0.126 C 
ATOM     13  C   UNL A   1      33.088  25.258  26.009  1.00  0.00     0.126 C 
ATOM     14  C   UNL A   1      31.927  22.897  24.736  1.00  0.00     0.057 C 
ATOM     15  C   UNL A   1      33.899  24.472  24.984  1.00  0.00     0.057 C 
ATOM     16  C   UNL A   1      33.441  23.003  24.951  1.00  0.00     0.073 C 
ATOM     17  C   UNL A   1      34.233  22.171  23.943  1.00  0.00     0.053 C 
ATOM     18  O   UNL A   1      33.706  22.443  26.244  1.00  0.00    -0.374 OA
ATOM     19  C   UNL A   1      34.724  21.461  26.138  1.00  0.00     0.176 C 
BRANCH   9  20
ATOM     20  O   UNL A   1      31.462  27.153  24.961  1.00  0.00    -0.444 OA
BRANCH  20  21
ATOM     21  C   UNL A   1      31.439  27.503  23.559  1.00  0.00     0.106 C 
ATOM     22  C   UNL A   1      30.129  28.284  23.381  1.00  0.00     0.056 C 
ATOM     23  C   UNL A   1      31.387  26.214  22.739  1.00  0.00     0.056 C 
ATOM     24  C   UNL A   1      32.598  28.415  23.133  1.00  0.00     0.056 C 
ENDBRANCH  20  21
ENDBRANCH   9  20
ENDBRANCH   6   8
ENDBRANCH   5   6
ENDBRANCH   4   5
ENDBRANCH   3   4
ENDBRANCH   2   3
ENDBRANCH   1   2
BRANCH   1  25
ATOM     25  C   UNL A   1      40.844  20.812  27.249  1.00  0.00     0.188 C 
BRANCH  25  26
ATOM     26  O   UNL A   1      42.116  20.250  27.488  1.00  0.00    -0.376 OA
BRANCH  26  27
ATOM     27  C   UNL A   1      42.279  18.858  27.235  1.00  0.00     0.202 C 
BRANCH  27  28
ATOM     28  C   UNL A   1      43.015  18.481  25.936  1.00  0.00     0.261 C 
BRANCH  28  29
ATOM     29  O   UNL A   1      43.194  19.558  24.993  1.00  0.00    -0.460 OA
BRANCH  29  30
ATOM     30  C   UNL A   1      44.442  19.735  24.492  1.00  0.00     0.338 C 
ATOM     31  O   UNL A   1      45.019  19.014  23.697  1.00  0.00    -0.246 OA
BRANCH  30  32
ATOM     32  C   UNL A   1      44.880  21.109  24.845  1.00  0.00     0.060 A 
ATOM     33  C   UNL A   1      45.229  21.377  26.178  1.00  0.00     0.016 A 
ATOM     34  C   UNL A   1      45.010  22.103  23.874  1.00  0.00     0.016 A 
ATOM     35  C   UNL A   1      45.681  22.646  26.547  1.00  0.00     0.010 A 
ATOM     36  C   UNL A   1      45.438  23.383  24.249  1.00  0.00     0.010 A 
ATOM     37  C   UNL A   1      45.750  23.669  25.591  1.00  0.00    -0.014 A 
BRANCH  37  38
ATOM     38  C   UNL A   1      45.964  25.072  26.030  1.00  0.00     0.031 A 
ATOM     39  C   UNL A   1      44.776  25.855  26.523  1.00  0.00     0.074 A 
ATOM     40  C   UNL A   1      47.184  25.639  26.024  1.00  0.00     0.049 A 
ATOM     41  N   UNL A   1      44.709  27.093  26.941  1.00  0.00    -0.248 NA
ATOM     42  C   UNL A   1      43.488  25.142  26.547  1.00  0.00     0.031 C 
ATOM     43  C   UNL A   1      48.423  24.987  25.607  1.00  0.00     0.029 A 
ATOM     44  N   UNL A   1      47.576  26.909  26.379  1.00  0.00    -0.354 N 
ATOM     45  C   UNL A   1      43.377  27.309  27.271  1.00  0.00     0.074 A 
ATOM     46  C   UNL A   1      42.665  26.084  26.982  1.00  0.00     0.031 C 
ATOM     47  C   UNL A   1      49.439  25.863  25.722  1.00  0.00     0.029 A 
ATOM     48  C   UNL A   1      48.917  27.146  26.193  1.00  0.00     0.049 A 
ATOM     49  H   UNL A   1      46.954  27.585  26.733  1.00  0.00     0.167 HD
ATOM     50  C   UNL A   1      42.799  28.424  27.774  1.00  0.00     0.037 A 
ATOM     51  C   UNL A   1      49.634  28.275  26.366  1.00  0.00     0.037 A 
ATOM     52  C   UNL A   1      43.503  29.644  28.068  1.00  0.00     0.049 A 
ATOM     53  C   UNL A   1      48.947  29.525  26.861  1.00  0.00     0.074 A 
ATOM     54  C   UNL A   1      43.004  30.813  28.616  1.00  0.00     0.029 A 
ATOM     55  N   UNL A   1      44.851  29.856  27.832  1.00  0.00    -0.354 N 
ATOM     56  N   UNL A   1      47.697  29.702  27.212  1.00  0.00    -0.248 NA
ATOM     57  C   UNL A   1      49.778  30.733  26.982  1.00  0.00     0.031 C 
ATOM     58  C   UNL A   1      44.039  31.753  28.658  1.00  0.00     0.029 A 
ATOM     59  C   UNL A   1      45.194  31.149  28.191  1.00  0.00     0.049 A 
ATOM     60  H   UNL A   1      45.472  29.187  27.463  1.00  0.00     0.167 HD
ATOM     61  C   UNL A   1      47.601  31.027  27.627  1.00  0.00     0.074 A 
ATOM     62  C   UNL A   1      48.923  31.601  27.500  1.00  0.00     0.031 C 
ATOM     63  C   UNL A   1      46.516  31.708  28.070  1.00  0.00     0.037 A 
BRANCH  50  64
ATOM     64  C   UNL A   1      41.319  28.391  28.019  1.00  0.00     0.057 A 
ATOM     65  C   UNL A   1      40.779  27.935  29.227  1.00  0.00     0.134 A 
ATOM     66  C   UNL A   1      40.431  28.876  27.053  1.00  0.00     0.134 A 
ATOM     67  F   UNL A   1      41.576  27.442  30.187  1.00  0.00    -0.206 F 
ATOM     68  C   UNL A   1      39.403  27.956  29.463  1.00  0.00     0.040 A 
ATOM     69  C   UNL A   1      39.055  28.924  27.285  1.00  0.00     0.040 A 
ATOM     70  F   UNL A   1      40.885  29.327  25.874  1.00  0.00    -0.206 F 
ATOM     71  C   UNL A   1      38.538  28.461  28.493  1.00  0.00     0.006 A 
ENDBRANCH  50  64
BRANCH  51  72
ATOM     72  C   UNL A   1      51.087  28.306  26.052  1.00  0.00     0.057 A 
ATOM     73  C   UNL A   1      52.052  28.247  27.066  1.00  0.00     0.134 A 
ATOM     74  C   UNL A   1      51.545  28.471  24.739  1.00  0.00     0.134 A 
ATOM     75  F   UNL A   1      51.676  28.121  28.348  1.00  0.00    -0.206 F 
ATOM     76  C   UNL A   1      53.414  28.381  26.791  1.00  0.00     0.040 A 
ATOM     77  C   UNL A   1      52.906  28.577  24.446  1.00  0.00     0.040 A 
ATOM     78  F   UNL A   1      50.674  28.542  23.722  1.00  0.00    -0.206 F 
ATOM     79  C   UNL A   1      53.845  28.545  25.475  1.00  0.00     0.006 A 
ENDBRANCH  51  72
BRANCH  63  80
ATOM     80  C   UNL A   1      46.720  33.136  28.489  1.00  0.00     0.057 A 
ATOM     81  C   UNL A   1      47.078  33.482  29.799  1.00  0.00     0.134 A 
ATOM     82  C   UNL A   1      46.577  34.179  27.564  1.00  0.00     0.134 A 
ATOM     83  F   UNL A   1      47.219  32.534  30.738  1.00  0.00    -0.206 F 
ATOM     84  C   UNL A   1      47.253  34.813  30.181  1.00  0.00     0.040 A 
ATOM     85  C   UNL A   1      46.781  35.511  27.926  1.00  0.00     0.040 A 
ATOM     86  F   UNL A   1      46.249  33.919  26.290  1.00  0.00    -0.206 F 
ATOM     87  C   UNL A   1      47.110  35.833  29.242  1.00  0.00     0.006 A 
ENDBRANCH  63  80
ENDBRANCH  37  38
ENDBRANCH  30  32
ENDBRANCH  29  30
ENDBRANCH  28  29
ENDBRANCH  27  28
ENDBRANCH  26  27
ENDBRANCH  25  26
ENDBRANCH   1  25
TORSDOF 19
ENDMDL
