MODEL 1
REMARK VINA RESULT:     -11.2      0.000      0.000
REMARK SMILES O=C(COc1ccc(Br)cc1/C=C1\C(=O)Nc2ccc(Br)cc21)OCCOCCOCCOC(=O)c1ccc(-c2c3nc(c(-c4c(F)cccc4F)c4ccc([nH]4)c(-c4c(F)cccc4F)c4nc(c(-c5c(F)cccc5F)c5ccc2[nH]5)C=C4)C=C3)cc1
REMARK SMILES IDX 28 1 27 2 26 3 25 4 24 5 2 6 1 7 3 8 4 9 5 10 6 11 11 12
REMARK SMILES IDX 7 13 10 14 8 15 9 16 12 17 13 18 14 19 23 20 15 21 16 22
REMARK SMILES IDX 17 23 22 24 18 26 20 27 19 28 21 29 29 30 30 31 31 32 32 33
REMARK SMILES IDX 33 34 34 35 35 36 36 37 37 38 89 39 38 40 88 41 39 42 40 43
REMARK SMILES IDX 41 44 82 45 42 46 87 47 81 48 83 49 43 50 86 51 80 52 79 53
REMARK SMILES IDX 44 55 70 56 53 57 69 58 54 59 57 60 68 61 84 62 55 63 56 64
REMARK SMILES IDX 67 66 85 67 58 68 45 69 46 70 51 71 47 72 48 73 50 74 52 75
REMARK SMILES IDX 49 76 71 77 72 78 77 79 73 80 74 81 76 82 78 83 75 84 59 85
REMARK SMILES IDX 60 86 65 87 61 88 62 89 64 90 66 91 63 92
REMARK H PARENT 16 25 83 54 57 65
REMARK Flexibility Score: inf
ROOT
ATOM      1  C   UNL A   1      43.037  18.807  25.737  1.00  0.00     0.188 C 
ENDROOT
BRANCH   1   2
ATOM      2  O   UNL A   1      42.757  19.640  26.855  1.00  0.00    -0.376 OA
BRANCH   2   3
ATOM      3  C   UNL A   1      41.412  20.048  27.023  1.00  0.00     0.202 C 
BRANCH   3   4
ATOM      4  C   UNL A   1      41.055  21.237  26.140  1.00  0.00     0.261 C 
BRANCH   4   5
ATOM      5  O   UNL A   1      40.142  22.180  26.749  1.00  0.00    -0.461 OA
BRANCH   5   6
ATOM      6  C   UNL A   1      38.931  22.550  26.274  1.00  0.00     0.344 C 
ATOM      7  O   UNL A   1      38.460  23.641  26.592  1.00  0.00    -0.248 OA
BRANCH   6   8
ATOM      8  C   UNL A   1      38.149  21.581  25.394  1.00  0.00     0.351 C 
BRANCH   8   9
ATOM      9  O   UNL A   1      37.016  22.086  24.680  1.00  0.00    -0.481 OA
BRANCH   9  10
ATOM     10  C   UNL A   1      35.963  21.214  24.859  1.00  0.00     0.127 A 
ATOM     11  C   UNL A   1      36.252  19.836  24.860  1.00  0.00     0.048 A 
ATOM     12  C   UNL A   1      34.643  21.702  24.894  1.00  0.00     0.018 A 
ATOM     13  C   UNL A   1      35.232  18.909  24.714  1.00  0.00     0.019 A 
ATOM     14  C   UNL A   1      33.653  20.738  24.662  1.00  0.00     0.027 A 
ATOM     15  C   UNL A   1      33.937  19.370  24.576  1.00  0.00     0.018 A 
ATOM     16  Br  UNL A   1      32.535  18.145  24.242  1.00  0.00    -0.051 Br
BRANCH  12  17
ATOM     17  C   UNL A   1      34.360  23.165  25.041  1.00  0.00     0.026 C 
ATOM     18  C   UNL A   1      33.621  23.818  25.964  1.00  0.00     0.050 C 
ATOM     19  C   UNL A   1      32.824  23.217  27.085  1.00  0.00     0.256 C 
ATOM     20  C   UNL A   1      33.042  25.160  25.766  1.00  0.00     0.012 A 
ATOM     21  O   UNL A   1      33.167  22.392  27.909  1.00  0.00    -0.269 OA
ATOM     22  N   UNL A   1      31.619  23.891  27.044  1.00  0.00    -0.321 N 
ATOM     23  C   UNL A   1      31.748  25.061  26.302  1.00  0.00     0.049 A 
ATOM     24  C   UNL A   1      33.503  26.380  25.309  1.00  0.00     0.026 A 
ATOM     25  H   UNL A   1      30.789  23.589  27.477  1.00  0.00     0.170 HD
ATOM     26  C   UNL A   1      30.817  26.073  26.230  1.00  0.00     0.028 A 
ATOM     27  C   UNL A   1      32.600  27.455  25.324  1.00  0.00     0.018 A 
ATOM     28  C   UNL A   1      31.258  27.293  25.723  1.00  0.00     0.018 A 
ATOM     29  Br  UNL A   1      33.205  29.193  24.876  1.00  0.00    -0.051 Br
ENDBRANCH  12  17
ENDBRANCH   9  10
ENDBRANCH   8   9
ENDBRANCH   6   8
ENDBRANCH   5   6
ENDBRANCH   4   5
ENDBRANCH   3   4
ENDBRANCH   2   3
ENDBRANCH   1   2
BRANCH   1  30
ATOM     30  C   UNL A   1      44.474  18.972  25.212  1.00  0.00     0.188 C 
BRANCH  30  31
ATOM     31  O   UNL A   1      44.755  19.896  24.161  1.00  0.00    -0.376 OA
BRANCH  31  32
ATOM     32  C   UNL A   1      44.472  21.276  24.328  1.00  0.00     0.202 C 
BRANCH  32  33
ATOM     33  C   UNL A   1      44.982  21.916  25.623  1.00  0.00     0.261 C 
BRANCH  33  34
ATOM     34  O   UNL A   1      44.069  22.879  26.175  1.00  0.00    -0.460 OA
BRANCH  34  35
ATOM     35  C   UNL A   1      44.231  24.154  25.745  1.00  0.00     0.338 C 
ATOM     36  O   UNL A   1      44.846  24.521  24.758  1.00  0.00    -0.246 OA
BRANCH  35  37
ATOM     37  C   UNL A   1      43.420  25.083  26.572  1.00  0.00     0.060 A 
ATOM     38  C   UNL A   1      42.422  24.638  27.444  1.00  0.00     0.016 A 
ATOM     39  C   UNL A   1      43.713  26.452  26.489  1.00  0.00     0.016 A 
ATOM     40  C   UNL A   1      41.769  25.558  28.277  1.00  0.00     0.010 A 
ATOM     41  C   UNL A   1      43.060  27.369  27.319  1.00  0.00     0.010 A 
ATOM     42  C   UNL A   1      42.111  26.924  28.249  1.00  0.00    -0.014 A 
BRANCH  42  43
ATOM     43  C   UNL A   1      41.660  27.828  29.340  1.00  0.00     0.031 A 
ATOM     44  C   UNL A   1      40.463  28.721  29.220  1.00  0.00     0.074 A 
ATOM     45  C   UNL A   1      42.403  27.867  30.464  1.00  0.00     0.049 A 
ATOM     46  N   UNL A   1      39.890  29.452  30.146  1.00  0.00    -0.248 NA
ATOM     47  C   UNL A   1      39.835  28.824  27.897  1.00  0.00     0.031 C 
ATOM     48  C   UNL A   1      43.639  27.112  30.680  1.00  0.00     0.029 A 
ATOM     49  N   UNL A   1      42.227  28.564  31.632  1.00  0.00    -0.354 N 
ATOM     50  C   UNL A   1      38.821  30.086  29.529  1.00  0.00     0.074 A 
ATOM     51  C   UNL A   1      38.854  29.687  28.135  1.00  0.00     0.031 C 
ATOM     52  C   UNL A   1      44.092  27.361  31.918  1.00  0.00     0.029 A 
ATOM     53  C   UNL A   1      43.187  28.296  32.577  1.00  0.00     0.049 A 
ATOM     54  H   UNL A   1      41.486  29.194  31.779  1.00  0.00     0.167 HD
ATOM     55  C   UNL A   1      37.894  30.910  30.079  1.00  0.00     0.037 A 
ATOM     56  C   UNL A   1      43.315  28.735  33.841  1.00  0.00     0.037 A 
ATOM     57  C   UNL A   1      37.881  31.334  31.460  1.00  0.00     0.049 A 
ATOM     58  C   UNL A   1      42.280  29.653  34.420  1.00  0.00     0.074 A 
ATOM     59  C   UNL A   1      36.936  32.104  32.120  1.00  0.00     0.029 A 
ATOM     60  N   UNL A   1      38.875  31.055  32.386  1.00  0.00    -0.354 N 
ATOM     61  N   UNL A   1      41.190  30.124  33.868  1.00  0.00    -0.248 NA
ATOM     62  C   UNL A   1      42.489  30.084  35.809  1.00  0.00     0.031 C 
ATOM     63  C   UNL A   1      37.380  32.328  33.429  1.00  0.00     0.029 A 
ATOM     64  C   UNL A   1      38.581  31.661  33.600  1.00  0.00     0.049 A 
ATOM     65  H   UNL A   1      39.673  30.507  32.208  1.00  0.00     0.167 HD
ATOM     66  C   UNL A   1      40.565  30.879  34.852  1.00  0.00     0.074 A 
ATOM     67  C   UNL A   1      41.392  30.790  36.038  1.00  0.00     0.031 C 
ATOM     68  C   UNL A   1      39.406  31.578  34.778  1.00  0.00     0.037 A 
BRANCH  55  69
ATOM     69  C   UNL A   1      36.794  31.409  29.185  1.00  0.00     0.057 A 
ATOM     70  C   UNL A   1      36.781  32.733  28.727  1.00  0.00     0.134 A 
ATOM     71  C   UNL A   1      35.708  30.595  28.837  1.00  0.00     0.134 A 
ATOM     72  F   UNL A   1      37.782  33.571  29.034  1.00  0.00    -0.206 F 
ATOM     73  C   UNL A   1      35.727  33.228  27.956  1.00  0.00     0.040 A 
ATOM     74  C   UNL A   1      34.658  31.072  28.049  1.00  0.00     0.040 A 
ATOM     75  F   UNL A   1      35.658  29.317  29.243  1.00  0.00    -0.206 F 
ATOM     76  C   UNL A   1      34.663  32.396  27.612  1.00  0.00     0.006 A 
ENDBRANCH  55  69
BRANCH  56  77
ATOM     77  C   UNL A   1      44.439  28.251  34.678  1.00  0.00     0.057 A 
ATOM     78  C   UNL A   1      45.610  29.000  34.835  1.00  0.00     0.134 A 
ATOM     79  C   UNL A   1      44.353  27.028  35.352  1.00  0.00     0.134 A 
ATOM     80  F   UNL A   1      45.752  30.176  34.206  1.00  0.00    -0.206 F 
ATOM     81  C   UNL A   1      46.659  28.548  35.635  1.00  0.00     0.040 A 
ATOM     82  C   UNL A   1      45.384  26.575  36.174  1.00  0.00     0.040 A 
ATOM     83  F   UNL A   1      43.245  26.278  35.249  1.00  0.00    -0.206 F 
ATOM     84  C   UNL A   1      46.543  27.334  36.313  1.00  0.00     0.006 A 
ENDBRANCH  56  77
BRANCH  68  85
ATOM     85  C   UNL A   1      38.955  32.273  36.031  1.00  0.00     0.057 A 
ATOM     86  C   UNL A   1      38.171  31.601  36.977  1.00  0.00     0.134 A 
ATOM     87  C   UNL A   1      39.319  33.596  36.318  1.00  0.00     0.134 A 
ATOM     88  F   UNL A   1      37.783  30.335  36.765  1.00  0.00    -0.206 F 
ATOM     89  C   UNL A   1      37.776  32.214  38.168  1.00  0.00     0.040 A 
ATOM     90  C   UNL A   1      38.952  34.211  37.518  1.00  0.00     0.040 A 
ATOM     91  F   UNL A   1      40.085  34.291  35.464  1.00  0.00    -0.206 F 
ATOM     92  C   UNL A   1      38.176  33.519  38.445  1.00  0.00     0.006 A 
ENDBRANCH  68  85
ENDBRANCH  42  43
ENDBRANCH  35  37
ENDBRANCH  34  35
ENDBRANCH  33  34
ENDBRANCH  32  33
ENDBRANCH  31  32
ENDBRANCH  30  31
ENDBRANCH   1  30
TORSDOF 20
ENDMDL
MODEL 2
REMARK VINA RESULT:     -10.9      4.787     10.428
REMARK SMILES O=C(COc1ccc(Br)cc1/C=C1\C(=O)Nc2ccc(Br)cc21)OCCOCCOCCOC(=O)c1ccc(-c2c3nc(c(-c4c(F)cccc4F)c4ccc([nH]4)c(-c4c(F)cccc4F)c4nc(c(-c5c(F)cccc5F)c5ccc2[nH]5)C=C4)C=C3)cc1
REMARK SMILES IDX 28 1 27 2 26 3 25 4 24 5 2 6 1 7 3 8 4 9 5 10 6 11 11 12
REMARK SMILES IDX 7 13 10 14 8 15 9 16 12 17 13 18 14 19 23 20 15 21 16 22
REMARK SMILES IDX 17 23 22 24 18 26 20 27 19 28 21 29 29 30 30 31 31 32 32 33
REMARK SMILES IDX 33 34 34 35 35 36 36 37 37 38 89 39 38 40 88 41 39 42 40 43
REMARK SMILES IDX 41 44 82 45 42 46 87 47 81 48 83 49 43 50 86 51 80 52 79 53
REMARK SMILES IDX 44 55 70 56 53 57 69 58 54 59 57 60 68 61 84 62 55 63 56 64
REMARK SMILES IDX 67 66 85 67 58 68 45 69 46 70 51 71 47 72 48 73 50 74 52 75
REMARK SMILES IDX 49 76 71 77 72 78 77 79 73 80 74 81 76 82 78 83 75 84 59 85
REMARK SMILES IDX 60 86 65 87 61 88 62 89 64 90 66 91 63 92
REMARK H PARENT 16 25 83 54 57 65
REMARK Flexibility Score: inf
ROOT
ATOM      1  C   UNL A   1      35.316  32.310  28.403  1.00  0.00     0.188 C 
ENDROOT
BRANCH   1   2
ATOM      2  O   UNL A   1      34.330  32.076  27.404  1.00  0.00    -0.376 OA
BRANCH   2   3
ATOM      3  C   UNL A   1      33.452  30.987  27.621  1.00  0.00     0.202 C 
BRANCH   3   4
ATOM      4  C   UNL A   1      33.320  30.098  26.390  1.00  0.00     0.261 C 
BRANCH   4   5
ATOM      5  O   UNL A   1      33.446  28.682  26.661  1.00  0.00    -0.461 OA
BRANCH   5   6
ATOM      6  C   UNL A   1      33.634  27.703  25.748  1.00  0.00     0.344 C 
ATOM      7  O   UNL A   1      33.835  26.549  26.126  1.00  0.00    -0.248 OA
BRANCH   6   8
ATOM      8  C   UNL A   1      33.645  28.058  24.265  1.00  0.00     0.351 C 
BRANCH   8   9
ATOM      9  O   UNL A   1      33.134  27.094  23.339  1.00  0.00    -0.481 OA
BRANCH   9  10
ATOM     10  C   UNL A   1      31.831  27.428  23.035  1.00  0.00     0.127 A 
ATOM     11  C   UNL A   1      31.578  28.748  22.617  1.00  0.00     0.048 A 
ATOM     12  C   UNL A   1      30.794  26.508  23.279  1.00  0.00     0.018 A 
ATOM     13  C   UNL A   1      30.282  29.240  22.603  1.00  0.00     0.019 A 
ATOM     14  C   UNL A   1      29.511  27.069  23.334  1.00  0.00     0.027 A 
ATOM     15  C   UNL A   1      29.256  28.406  23.002  1.00  0.00     0.018 A 
ATOM     16  Br  UNL A   1      27.493  29.078  23.126  1.00  0.00    -0.051 Br
BRANCH  12  17
ATOM     17  C   UNL A   1      31.085  25.071  23.580  1.00  0.00     0.026 C 
ATOM     18  C   UNL A   1      31.069  24.409  24.757  1.00  0.00     0.050 C 
ATOM     19  C   UNL A   1      30.796  24.979  26.119  1.00  0.00     0.256 C 
ATOM     20  C   UNL A   1      31.792  23.149  25.012  1.00  0.00     0.012 A 
ATOM     21  O   UNL A   1      29.880  25.691  26.479  1.00  0.00    -0.269 OA
ATOM     22  N   UNL A   1      31.777  24.426  26.920  1.00  0.00    -0.321 N 
ATOM     23  C   UNL A   1      32.342  23.320  26.293  1.00  0.00     0.049 A 
ATOM     24  C   UNL A   1      31.932  21.938  24.362  1.00  0.00     0.026 A 
ATOM     25  H   UNL A   1      32.038  24.764  27.807  1.00  0.00     0.170 HD
ATOM     26  C   UNL A   1      33.190  22.409  26.882  1.00  0.00     0.028 A 
ATOM     27  C   UNL A   1      32.709  20.954  24.995  1.00  0.00     0.018 A 
ATOM     28  C   UNL A   1      33.379  21.204  26.210  1.00  0.00     0.018 A 
ATOM     29  Br  UNL A   1      32.805  19.215  24.252  1.00  0.00    -0.051 Br
ENDBRANCH  12  17
ENDBRANCH   9  10
ENDBRANCH   8   9
ENDBRANCH   6   8
ENDBRANCH   5   6
ENDBRANCH   4   5
ENDBRANCH   3   4
ENDBRANCH   2   3
ENDBRANCH   1   2
BRANCH   1  30
ATOM     30  C   UNL A   1      34.770  32.145  29.833  1.00  0.00     0.188 C 
BRANCH  30  31
ATOM     31  O   UNL A   1      34.617  33.283  30.680  1.00  0.00    -0.376 OA
BRANCH  31  32
ATOM     32  C   UNL A   1      34.403  33.115  32.072  1.00  0.00     0.202 C 
BRANCH  32  33
ATOM     33  C   UNL A   1      35.191  34.052  32.991  1.00  0.00     0.261 C 
BRANCH  33  34
ATOM     34  O   UNL A   1      36.614  33.856  32.912  1.00  0.00    -0.460 OA
BRANCH  34  35
ATOM     35  C   UNL A   1      37.087  32.743  33.523  1.00  0.00     0.338 C 
ATOM     36  O   UNL A   1      36.780  32.328  34.628  1.00  0.00    -0.246 OA
BRANCH  35  37
ATOM     37  C   UNL A   1      37.955  31.975  32.596  1.00  0.00     0.060 A 
ATOM     38  C   UNL A   1      37.752  31.963  31.212  1.00  0.00     0.016 A 
ATOM     39  C   UNL A   1      39.038  31.275  33.146  1.00  0.00     0.016 A 
ATOM     40  C   UNL A   1      38.673  31.308  30.382  1.00  0.00     0.010 A 
ATOM     41  C   UNL A   1      39.955  30.621  32.318  1.00  0.00     0.010 A 
ATOM     42  C   UNL A   1      39.802  30.665  30.926  1.00  0.00    -0.014 A 
BRANCH  42  43
ATOM     43  C   UNL A   1      40.928  30.261  30.042  1.00  0.00     0.031 A 
ATOM     44  C   UNL A   1      42.040  31.188  29.657  1.00  0.00     0.074 A 
ATOM     45  C   UNL A   1      40.904  29.011  29.536  1.00  0.00     0.049 A 
ATOM     46  N   UNL A   1      43.145  30.915  29.006  1.00  0.00    -0.248 NA
ATOM     47  C   UNL A   1      41.893  32.599  30.031  1.00  0.00     0.031 C 
ATOM     48  C   UNL A   1      39.838  28.033  29.763  1.00  0.00     0.029 A 
ATOM     49  N   UNL A   1      41.799  28.351  28.733  1.00  0.00    -0.354 N 
ATOM     50  C   UNL A   1      43.839  32.113  28.909  1.00  0.00     0.074 A 
ATOM     51  C   UNL A   1      43.006  33.124  29.531  1.00  0.00     0.031 C 
ATOM     52  C   UNL A   1      40.157  26.888  29.142  1.00  0.00     0.029 A 
ATOM     53  C   UNL A   1      41.440  27.053  28.469  1.00  0.00     0.049 A 
ATOM     54  H   UNL A   1      42.618  28.768  28.382  1.00  0.00     0.167 HD
ATOM     55  C   UNL A   1      45.062  32.341  28.367  1.00  0.00     0.037 A 
ATOM     56  C   UNL A   1      42.081  26.092  27.781  1.00  0.00     0.037 A 
ATOM     57  C   UNL A   1      45.877  31.340  27.718  1.00  0.00     0.049 A 
ATOM     58  C   UNL A   1      43.427  26.375  27.183  1.00  0.00     0.074 A 
ATOM     59  C   UNL A   1      47.161  31.466  27.211  1.00  0.00     0.029 A 
ATOM     60  N   UNL A   1      45.478  30.038  27.456  1.00  0.00    -0.354 N 
ATOM     61  N   UNL A   1      44.140  27.472  27.231  1.00  0.00    -0.248 NA
ATOM     62  C   UNL A   1      44.065  25.272  26.451  1.00  0.00     0.031 C 
ATOM     63  C   UNL A   1      47.520  30.256  26.603  1.00  0.00     0.029 A 
ATOM     64  C   UNL A   1      46.477  29.361  26.769  1.00  0.00     0.049 A 
ATOM     65  H   UNL A   1      44.613  29.650  27.718  1.00  0.00     0.167 HD
ATOM     66  C   UNL A   1      45.324  27.182  26.565  1.00  0.00     0.074 A 
ATOM     67  C   UNL A   1      45.237  25.801  26.136  1.00  0.00     0.031 C 
ATOM     68  C   UNL A   1      46.389  27.990  26.337  1.00  0.00     0.037 A 
BRANCH  55  69
ATOM     69  C   UNL A   1      45.610  33.737  28.458  1.00  0.00     0.057 A 
ATOM     70  C   UNL A   1      46.331  34.157  29.583  1.00  0.00     0.134 A 
ATOM     71  C   UNL A   1      45.360  34.688  27.459  1.00  0.00     0.134 A 
ATOM     72  F   UNL A   1      46.595  33.303  30.583  1.00  0.00    -0.206 F 
ATOM     73  C   UNL A   1      46.782  35.473  29.711  1.00  0.00     0.040 A 
ATOM     74  C   UNL A   1      45.825  36.000  27.566  1.00  0.00     0.040 A 
ATOM     75  F   UNL A   1      44.676  34.351  26.356  1.00  0.00    -0.206 F 
ATOM     76  C   UNL A   1      46.532  36.398  28.699  1.00  0.00     0.006 A 
ENDBRANCH  55  69
BRANCH  56  77
ATOM     77  C   UNL A   1      41.486  24.738  27.678  1.00  0.00     0.057 A 
ATOM     78  C   UNL A   1      40.460  24.456  26.771  1.00  0.00     0.134 A 
ATOM     79  C   UNL A   1      41.949  23.691  28.485  1.00  0.00     0.134 A 
ATOM     80  F   UNL A   1      39.971  25.422  25.979  1.00  0.00    -0.206 F 
ATOM     81  C   UNL A   1      39.914  23.177  26.668  1.00  0.00     0.040 A 
ATOM     82  C   UNL A   1      41.428  22.403  28.375  1.00  0.00     0.040 A 
ATOM     83  F   UNL A   1      42.943  23.904  29.360  1.00  0.00    -0.206 F 
ATOM     84  C   UNL A   1      40.404  22.145  27.467  1.00  0.00     0.006 A 
ENDBRANCH  56  77
BRANCH  68  85
ATOM     85  C   UNL A   1      47.556  27.379  25.614  1.00  0.00     0.057 A 
ATOM     86  C   UNL A   1      47.648  27.453  24.218  1.00  0.00     0.134 A 
ATOM     87  C   UNL A   1      48.603  26.745  26.297  1.00  0.00     0.134 A 
ATOM     88  F   UNL A   1      46.681  28.042  23.501  1.00  0.00    -0.206 F 
ATOM     89  C   UNL A   1      48.744  26.929  23.529  1.00  0.00     0.040 A 
ATOM     90  C   UNL A   1      49.716  26.240  25.621  1.00  0.00     0.040 A 
ATOM     91  F   UNL A   1      48.586  26.657  27.635  1.00  0.00    -0.206 F 
ATOM     92  C   UNL A   1      49.787  26.330  24.232  1.00  0.00     0.006 A 
ENDBRANCH  68  85
ENDBRANCH  42  43
ENDBRANCH  35  37
ENDBRANCH  34  35
ENDBRANCH  33  34
ENDBRANCH  32  33
ENDBRANCH  31  32
ENDBRANCH  30  31
ENDBRANCH   1  30
TORSDOF 20
ENDMDL
MODEL 3
REMARK VINA RESULT:     -10.6      1.221      6.038
REMARK SMILES O=C(COc1ccc(Br)cc1/C=C1\C(=O)Nc2ccc(Br)cc21)OCCOCCOCCOC(=O)c1ccc(-c2c3nc(c(-c4c(F)cccc4F)c4ccc([nH]4)c(-c4c(F)cccc4F)c4nc(c(-c5c(F)cccc5F)c5ccc2[nH]5)C=C4)C=C3)cc1
REMARK SMILES IDX 28 1 27 2 26 3 25 4 24 5 2 6 1 7 3 8 4 9 5 10 6 11 11 12
REMARK SMILES IDX 7 13 10 14 8 15 9 16 12 17 13 18 14 19 23 20 15 21 16 22
REMARK SMILES IDX 17 23 22 24 18 26 20 27 19 28 21 29 29 30 30 31 31 32 32 33
REMARK SMILES IDX 33 34 34 35 35 36 36 37 37 38 89 39 38 40 88 41 39 42 40 43
REMARK SMILES IDX 41 44 82 45 42 46 87 47 81 48 83 49 43 50 86 51 80 52 79 53
REMARK SMILES IDX 44 55 70 56 53 57 69 58 54 59 57 60 68 61 84 62 55 63 56 64
REMARK SMILES IDX 67 66 85 67 58 68 45 69 46 70 51 71 47 72 48 73 50 74 52 75
REMARK SMILES IDX 49 76 71 77 72 78 77 79 73 80 74 81 76 82 78 83 75 84 59 85
REMARK SMILES IDX 60 86 65 87 61 88 62 89 64 90 66 91 63 92
REMARK H PARENT 16 25 83 54 57 65
REMARK Flexibility Score: inf
ROOT
ATOM      1  C   UNL A   1      42.687  19.170  25.774  1.00  0.00     0.188 C 
ENDROOT
BRANCH   1   2
ATOM      2  O   UNL A   1      42.579  19.351  27.181  1.00  0.00    -0.376 OA
BRANCH   2   3
ATOM      3  C   UNL A   1      41.414  20.007  27.649  1.00  0.00     0.202 C 
BRANCH   3   4
ATOM      4  C   UNL A   1      40.687  20.754  26.537  1.00  0.00     0.261 C 
BRANCH   4   5
ATOM      5  O   UNL A   1      40.073  21.996  26.956  1.00  0.00    -0.461 OA
BRANCH   5   6
ATOM      6  C   UNL A   1      38.987  22.582  26.404  1.00  0.00     0.344 C 
ATOM      7  O   UNL A   1      38.706  23.743  26.701  1.00  0.00    -0.248 OA
BRANCH   6   8
ATOM      8  C   UNL A   1      38.101  21.773  25.463  1.00  0.00     0.351 C 
BRANCH   8   9
ATOM      9  O   UNL A   1      36.930  22.404  24.934  1.00  0.00    -0.481 OA
BRANCH   9  10
ATOM     10  C   UNL A   1      35.878  21.515  25.022  1.00  0.00     0.127 A 
ATOM     11  C   UNL A   1      36.179  20.142  24.953  1.00  0.00     0.048 A 
ATOM     12  C   UNL A   1      34.554  21.992  25.036  1.00  0.00     0.018 A 
ATOM     13  C   UNL A   1      35.174  19.218  24.715  1.00  0.00     0.019 A 
ATOM     14  C   UNL A   1      33.582  21.037  24.711  1.00  0.00     0.027 A 
ATOM     15  C   UNL A   1      33.881  19.677  24.555  1.00  0.00     0.018 A 
ATOM     16  Br  UNL A   1      32.503  18.466  24.097  1.00  0.00    -0.051 Br
BRANCH  12  17
ATOM     17  C   UNL A   1      34.253  23.442  25.258  1.00  0.00     0.026 C 
ATOM     18  C   UNL A   1      33.421  24.030  26.144  1.00  0.00     0.050 C 
ATOM     19  C   UNL A   1      32.515  23.353  27.132  1.00  0.00     0.256 C 
ATOM     20  C   UNL A   1      32.861  25.385  25.986  1.00  0.00     0.012 A 
ATOM     21  O   UNL A   1      32.774  22.470  27.926  1.00  0.00    -0.269 OA
ATOM     22  N   UNL A   1      31.318  24.034  27.016  1.00  0.00    -0.321 N 
ATOM     23  C   UNL A   1      31.519  25.253  26.378  1.00  0.00     0.049 A 
ATOM     24  C   UNL A   1      33.363  26.633  25.666  1.00  0.00     0.026 A 
ATOM     25  H   UNL A   1      30.449  23.705  27.339  1.00  0.00     0.170 HD
ATOM     26  C   UNL A   1      30.597  26.272  26.283  1.00  0.00     0.028 A 
ATOM     27  C   UNL A   1      32.459  27.708  25.665  1.00  0.00     0.018 A 
ATOM     28  C   UNL A   1      31.083  27.523  25.912  1.00  0.00     0.018 A 
ATOM     29  Br  UNL A   1      33.101  29.471  25.408  1.00  0.00    -0.051 Br
ENDBRANCH  12  17
ENDBRANCH   9  10
ENDBRANCH   8   9
ENDBRANCH   6   8
ENDBRANCH   5   6
ENDBRANCH   4   5
ENDBRANCH   3   4
ENDBRANCH   2   3
ENDBRANCH   1   2
BRANCH   1  30
ATOM     30  C   UNL A   1      44.005  19.719  25.199  1.00  0.00     0.188 C 
BRANCH  30  31
ATOM     31  O   UNL A   1      44.474  21.011  25.584  1.00  0.00    -0.376 OA
BRANCH  31  32
ATOM     32  C   UNL A   1      43.837  22.179  25.091  1.00  0.00     0.202 C 
BRANCH  32  33
ATOM     33  C   UNL A   1      43.580  23.288  26.115  1.00  0.00     0.261 C 
BRANCH  33  34
ATOM     34  O   UNL A   1      42.355  24.003  25.878  1.00  0.00    -0.460 OA
BRANCH  34  35
ATOM     35  C   UNL A   1      42.477  25.346  25.746  1.00  0.00     0.338 C 
ATOM     36  O   UNL A   1      42.489  25.981  24.705  1.00  0.00    -0.246 OA
BRANCH  35  37
ATOM     37  C   UNL A   1      42.454  26.000  27.079  1.00  0.00     0.060 A 
ATOM     38  C   UNL A   1      43.321  27.043  27.420  1.00  0.00     0.016 A 
ATOM     39  C   UNL A   1      41.489  25.567  27.999  1.00  0.00     0.016 A 
ATOM     40  C   UNL A   1      43.172  27.692  28.655  1.00  0.00     0.010 A 
ATOM     41  C   UNL A   1      41.344  26.214  29.231  1.00  0.00     0.010 A 
ATOM     42  C   UNL A   1      42.158  27.307  29.552  1.00  0.00    -0.014 A 
BRANCH  42  43
ATOM     43  C   UNL A   1      41.800  28.189  30.695  1.00  0.00     0.031 A 
ATOM     44  C   UNL A   1      42.524  28.165  32.006  1.00  0.00     0.074 A 
ATOM     45  C   UNL A   1      40.742  29.010  30.540  1.00  0.00     0.049 A 
ATOM     46  N   UNL A   1      42.395  28.976  33.028  1.00  0.00    -0.248 NA
ATOM     47  C   UNL A   1      43.503  27.090  32.208  1.00  0.00     0.031 C 
ATOM     48  C   UNL A   1      39.897  29.076  29.345  1.00  0.00     0.029 A 
ATOM     49  N   UNL A   1      40.200  29.945  31.385  1.00  0.00    -0.354 N 
ATOM     50  C   UNL A   1      43.290  28.528  33.989  1.00  0.00     0.074 A 
ATOM     51  C   UNL A   1      43.924  27.343  33.443  1.00  0.00     0.031 C 
ATOM     52  C   UNL A   1      38.965  30.024  29.521  1.00  0.00     0.029 A 
ATOM     53  C   UNL A   1      39.139  30.624  30.839  1.00  0.00     0.049 A 
ATOM     54  H   UNL A   1      40.538  30.111  32.294  1.00  0.00     0.167 HD
ATOM     55  C   UNL A   1      43.566  29.065  35.205  1.00  0.00     0.037 A 
ATOM     56  C   UNL A   1      38.402  31.634  31.331  1.00  0.00     0.037 A 
ATOM     57  C   UNL A   1      42.910  30.225  35.763  1.00  0.00     0.049 A 
ATOM     58  C   UNL A   1      38.722  32.202  32.682  1.00  0.00     0.074 A 
ATOM     59  C   UNL A   1      43.182  30.883  36.953  1.00  0.00     0.029 A 
ATOM     60  N   UNL A   1      41.832  30.881  35.189  1.00  0.00    -0.354 N 
ATOM     61  N   UNL A   1      39.673  31.864  33.517  1.00  0.00    -0.248 NA
ATOM     62  C   UNL A   1      37.873  33.307  33.148  1.00  0.00     0.031 C 
ATOM     63  C   UNL A   1      42.240  31.906  37.119  1.00  0.00     0.029 A 
ATOM     64  C   UNL A   1      41.408  31.915  36.013  1.00  0.00     0.049 A 
ATOM     65  H   UNL A   1      41.426  30.648  34.323  1.00  0.00     0.167 HD
ATOM     66  C   UNL A   1      39.558  32.737  34.592  1.00  0.00     0.074 A 
ATOM     67  C   UNL A   1      38.455  33.627  34.294  1.00  0.00     0.031 C 
ATOM     68  C   UNL A   1      40.307  32.796  35.721  1.00  0.00     0.037 A 
BRANCH  55  69
ATOM     69  C   UNL A   1      44.640  28.407  36.024  1.00  0.00     0.057 A 
ATOM     70  C   UNL A   1      44.322  27.443  36.990  1.00  0.00     0.134 A 
ATOM     71  C   UNL A   1      45.985  28.783  35.906  1.00  0.00     0.134 A 
ATOM     72  F   UNL A   1      43.053  27.047  37.166  1.00  0.00    -0.206 F 
ATOM     73  C   UNL A   1      45.303  26.880  37.809  1.00  0.00     0.040 A 
ATOM     74  C   UNL A   1      46.977  28.210  36.704  1.00  0.00     0.040 A 
ATOM     75  F   UNL A   1      46.356  29.701  35.001  1.00  0.00    -0.206 F 
ATOM     76  C   UNL A   1      46.636  27.260  37.664  1.00  0.00     0.006 A 
ENDBRANCH  55  69
BRANCH  56  77
ATOM     77  C   UNL A   1      37.322  32.228  30.507  1.00  0.00     0.057 A 
ATOM     78  C   UNL A   1      37.591  33.200  29.537  1.00  0.00     0.134 A 
ATOM     79  C   UNL A   1      35.993  31.819  30.668  1.00  0.00     0.134 A 
ATOM     80  F   UNL A   1      38.844  33.637  29.345  1.00  0.00    -0.206 F 
ATOM     81  C   UNL A   1      36.574  33.744  28.755  1.00  0.00     0.040 A 
ATOM     82  C   UNL A   1      34.970  32.338  29.876  1.00  0.00     0.040 A 
ATOM     83  F   UNL A   1      35.682  30.878  31.572  1.00  0.00    -0.206 F 
ATOM     84  C   UNL A   1      35.260  33.307  28.919  1.00  0.00     0.006 A 
ENDBRANCH  56  77
BRANCH  68  85
ATOM     85  C   UNL A   1      39.968  33.885  36.699  1.00  0.00     0.057 A 
ATOM     86  C   UNL A   1      38.975  33.690  37.667  1.00  0.00     0.134 A 
ATOM     87  C   UNL A   1      40.641  35.114  36.704  1.00  0.00     0.134 A 
ATOM     88  F   UNL A   1      38.288  32.540  37.718  1.00  0.00    -0.206 F 
ATOM     89  C   UNL A   1      38.672  34.673  38.612  1.00  0.00     0.040 A 
ATOM     90  C   UNL A   1      40.366  36.095  37.661  1.00  0.00     0.040 A 
ATOM     91  F   UNL A   1      41.616  35.359  35.816  1.00  0.00    -0.206 F 
ATOM     92  C   UNL A   1      39.377  35.875  38.617  1.00  0.00     0.006 A 
ENDBRANCH  68  85
ENDBRANCH  42  43
ENDBRANCH  35  37
ENDBRANCH  34  35
ENDBRANCH  33  34
ENDBRANCH  32  33
ENDBRANCH  31  32
ENDBRANCH  30  31
ENDBRANCH   1  30
TORSDOF 20
ENDMDL
