MODEL 1
REMARK VINA RESULT:     -10.8      0.000      0.000
REMARK SMILES O=C(OCCOCCOCCOC(=O)c1ccccc1Nc1cccc(C(F)(F)F)c1)c1ccc(-c2c3nc(c(-c4c(F)cccc4F)c4ccc([nH]4)c(-c4c(F)cccc4F)c4nc(c(-c5c(F)cccc5F)c5ccc2[nH]5)C=C4)C=C3)cc1
REMARK SMILES IDX 8 1 7 2 6 3 5 4 4 5 3 6 2 7 1 8 32 9 33 10 85 11 34 12 84 13
REMARK SMILES IDX 35 14 36 15 37 16 78 17 38 18 83 19 77 20 79 21 39 22 82 23
REMARK SMILES IDX 76 24 75 25 40 27 66 28 49 29 65 30 50 31 53 32 64 33 80 34
REMARK SMILES IDX 51 35 52 36 63 38 81 39 54 40 41 41 42 42 47 43 43 44 44 45
REMARK SMILES IDX 46 46 48 47 45 48 67 49 68 50 73 51 69 52 70 53 72 54 74 55
REMARK SMILES IDX 71 56 55 57 56 58 61 59 57 60 58 61 60 62 62 63 59 64 9 65
REMARK SMILES IDX 10 66 11 67 12 68 13 69 14 70 15 71 16 72 20 73 17 74 19 75
REMARK SMILES IDX 18 76 21 77 22 79 23 80 31 81 24 82 26 83 25 84 27 85 28 86
REMARK SMILES IDX 29 87 30 88
REMARK H PARENT 79 26 53 37 21 78
REMARK Flexibility Score: inf
ROOT
ATOM      1  C   UNL A   1      46.007  18.753  25.377  1.00  0.00     0.188 C 
ENDROOT
BRANCH   1   2
ATOM      2  C   UNL A   1      45.910  20.058  24.583  1.00  0.00     0.188 C 
BRANCH   2   3
ATOM      3  O   UNL A   1      46.367  21.153  25.394  1.00  0.00    -0.376 OA
BRANCH   3   4
ATOM      4  C   UNL A   1      45.373  22.157  25.607  1.00  0.00     0.202 C 
BRANCH   4   5
ATOM      5  C   UNL A   1      44.963  22.894  24.328  1.00  0.00     0.261 C 
BRANCH   5   6
ATOM      6  O   UNL A   1      44.295  24.131  24.626  1.00  0.00    -0.460 OA
BRANCH   6   7
ATOM      7  C   UNL A   1      44.844  25.243  25.174  1.00  0.00     0.338 C 
ATOM      8  O   UNL A   1      45.849  25.735  24.664  1.00  0.00    -0.246 OA
BRANCH   7   9
ATOM      9  C   UNL A   1      44.225  25.961  26.326  1.00  0.00     0.060 A 
ATOM     10  C   UNL A   1      43.529  25.337  27.364  1.00  0.00     0.016 A 
ATOM     11  C   UNL A   1      44.444  27.344  26.406  1.00  0.00     0.016 A 
ATOM     12  C   UNL A   1      42.964  26.086  28.399  1.00  0.00     0.010 A 
ATOM     13  C   UNL A   1      43.939  28.089  27.477  1.00  0.00     0.010 A 
ATOM     14  C   UNL A   1      43.170  27.466  28.469  1.00  0.00    -0.014 A 
BRANCH  14  15
ATOM     15  C   UNL A   1      42.585  28.255  29.581  1.00  0.00     0.031 A 
ATOM     16  C   UNL A   1      43.290  28.330  30.899  1.00  0.00     0.074 A 
ATOM     17  C   UNL A   1      41.424  28.913  29.403  1.00  0.00     0.049 A 
ATOM     18  N   UNL A   1      42.906  28.914  32.003  1.00  0.00    -0.248 NA
ATOM     19  C   UNL A   1      44.603  27.673  30.984  1.00  0.00     0.031 C 
ATOM     20  C   UNL A   1      40.683  28.968  28.146  1.00  0.00     0.029 A 
ATOM     21  N   UNL A   1      40.668  29.662  30.271  1.00  0.00    -0.354 N 
ATOM     22  C   UNL A   1      43.917  28.679  32.923  1.00  0.00     0.074 A 
ATOM     23  C   UNL A   1      44.930  27.892  32.251  1.00  0.00     0.031 C 
ATOM     24  C   UNL A   1      39.586  29.715  28.329  1.00  0.00     0.029 A 
ATOM     25  C   UNL A   1      39.501  30.132  29.716  1.00  0.00     0.049 A 
ATOM     26  H   UNL A   1      40.934  29.844  31.201  1.00  0.00     0.167 HD
ATOM     27  C   UNL A   1      43.991  29.088  34.210  1.00  0.00     0.037 A 
ATOM     28  C   UNL A   1      38.460  30.796  30.253  1.00  0.00     0.037 A 
ATOM     29  C   UNL A   1      42.994  29.891  34.865  1.00  0.00     0.049 A 
ATOM     30  C   UNL A   1      38.533  31.166  31.703  1.00  0.00     0.074 A 
ATOM     31  C   UNL A   1      43.001  30.393  36.154  1.00  0.00     0.029 A 
ATOM     32  N   UNL A   1      41.806  30.302  34.280  1.00  0.00    -0.354 N 
ATOM     33  N   UNL A   1      39.516  30.973  32.549  1.00  0.00    -0.248 NA
ATOM     34  C   UNL A   1      37.362  31.838  32.281  1.00  0.00     0.031 C 
ATOM     35  C   UNL A   1      41.796  31.075  36.362  1.00  0.00     0.029 A 
ATOM     36  C   UNL A   1      41.051  31.016  35.195  1.00  0.00     0.049 A 
ATOM     37  H   UNL A   1      41.538  30.115  33.351  1.00  0.00     0.167 HD
ATOM     38  C   UNL A   1      39.093  31.517  33.750  1.00  0.00     0.074 A 
ATOM     39  C   UNL A   1      37.772  32.065  33.521  1.00  0.00     0.031 C 
ATOM     40  C   UNL A   1      39.739  31.554  34.940  1.00  0.00     0.037 A 
BRANCH  27  41
ATOM     41  C   UNL A   1      45.177  28.631  34.997  1.00  0.00     0.057 A 
ATOM     42  C   UNL A   1      45.174  27.427  35.712  1.00  0.00     0.134 A 
ATOM     43  C   UNL A   1      46.337  29.413  35.044  1.00  0.00     0.134 A 
ATOM     44  F   UNL A   1      44.083  26.647  35.725  1.00  0.00    -0.206 F 
ATOM     45  C   UNL A   1      46.281  27.024  36.461  1.00  0.00     0.040 A 
ATOM     46  C   UNL A   1      47.455  29.014  35.778  1.00  0.00     0.040 A 
ATOM     47  F   UNL A   1      46.398  30.581  34.387  1.00  0.00    -0.206 F 
ATOM     48  C   UNL A   1      47.427  27.818  36.493  1.00  0.00     0.006 A 
ENDBRANCH  27  41
BRANCH  28  49
ATOM     49  C   UNL A   1      37.270  31.134  29.418  1.00  0.00     0.057 A 
ATOM     50  C   UNL A   1      37.131  32.392  28.822  1.00  0.00     0.134 A 
ATOM     51  C   UNL A   1      36.252  30.202  29.172  1.00  0.00     0.134 A 
ATOM     52  F   UNL A   1      38.038  33.351  29.054  1.00  0.00    -0.206 F 
ATOM     53  C   UNL A   1      36.047  32.706  28.000  1.00  0.00     0.040 A 
ATOM     54  C   UNL A   1      35.170  30.494  28.337  1.00  0.00     0.040 A 
ATOM     55  F   UNL A   1      36.307  28.976  29.717  1.00  0.00    -0.206 F 
ATOM     56  C   UNL A   1      35.067  31.749  27.747  1.00  0.00     0.006 A 
ENDBRANCH  28  49
BRANCH  40  57
ATOM     57  C   UNL A   1      39.015  32.211  36.072  1.00  0.00     0.057 A 
ATOM     58  C   UNL A   1      38.151  31.483  36.899  1.00  0.00     0.134 A 
ATOM     59  C   UNL A   1      39.191  33.572  36.343  1.00  0.00     0.134 A 
ATOM     60  F   UNL A   1      37.929  30.180  36.672  1.00  0.00    -0.206 F 
ATOM     61  C   UNL A   1      37.468  32.094  37.951  1.00  0.00     0.040 A 
ATOM     62  C   UNL A   1      38.529  34.189  37.405  1.00  0.00     0.040 A 
ATOM     63  F   UNL A   1      40.008  34.318  35.586  1.00  0.00    -0.206 F 
ATOM     64  C   UNL A   1      37.662  33.451  38.209  1.00  0.00     0.006 A 
ENDBRANCH  40  57
ENDBRANCH  14  15
ENDBRANCH   7   9
ENDBRANCH   6   7
ENDBRANCH   5   6
ENDBRANCH   4   5
ENDBRANCH   3   4
ENDBRANCH   2   3
ENDBRANCH   1   2
BRANCH   1  65
ATOM     65  O   UNL A   1      44.743  18.191  25.740  1.00  0.00    -0.376 OA
BRANCH  65  66
ATOM     66  C   UNL A   1      43.577  18.849  25.255  1.00  0.00     0.202 C 
BRANCH  66  67
ATOM     67  C   UNL A   1      42.609  19.375  26.318  1.00  0.00     0.261 C 
BRANCH  67  68
ATOM     68  O   UNL A   1      41.971  20.624  26.003  1.00  0.00    -0.460 OA
BRANCH  68  69
ATOM     69  C   UNL A   1      40.631  20.628  26.220  1.00  0.00     0.340 C 
ATOM     70  O   UNL A   1      39.863  19.688  26.126  1.00  0.00    -0.246 OA
BRANCH  69  71
ATOM     71  C   UNL A   1      40.162  21.991  26.500  1.00  0.00     0.083 A 
ATOM     72  C   UNL A   1      40.872  22.748  27.444  1.00  0.00     0.018 A 
ATOM     73  C   UNL A   1      38.921  22.413  25.986  1.00  0.00     0.053 A 
ATOM     74  C   UNL A   1      40.323  23.933  27.927  1.00  0.00     0.001 A 
ATOM     75  C   UNL A   1      38.359  23.561  26.556  1.00  0.00     0.027 A 
ATOM     76  C   UNL A   1      39.054  24.321  27.508  1.00  0.00     0.002 A 
BRANCH  73  77
ATOM     77  N   UNL A   1      38.241  21.675  24.998  1.00  0.00    -0.355 N 
ATOM     78  H   UNL A   1      38.786  20.994  24.542  1.00  0.00     0.167 HD
BRANCH  77  79
ATOM     79  C   UNL A   1      36.909  21.757  24.561  1.00  0.00     0.039 A 
ATOM     80  C   UNL A   1      36.581  22.721  23.604  1.00  0.00     0.026 A 
ATOM     81  C   UNL A   1      35.877  21.063  25.206  1.00  0.00     0.039 A 
ATOM     82  C   UNL A   1      35.254  22.953  23.248  1.00  0.00     0.003 A 
ATOM     83  C   UNL A   1      34.530  21.299  24.870  1.00  0.00     0.058 A 
ATOM     84  C   UNL A   1      34.233  22.247  23.879  1.00  0.00     0.013 A 
BRANCH  83  85
ATOM     85  C   UNL A   1      33.410  20.619  25.622  1.00  0.00     0.416 C 
ATOM     86  F   UNL A   1      33.347  19.286  25.349  1.00  0.00    -0.166 F 
ATOM     87  F   UNL A   1      33.552  20.711  26.974  1.00  0.00    -0.166 F 
ATOM     88  F   UNL A   1      32.183  21.122  25.329  1.00  0.00    -0.166 F 
ENDBRANCH  83  85
ENDBRANCH  77  79
ENDBRANCH  73  77
ENDBRANCH  69  71
ENDBRANCH  68  69
ENDBRANCH  67  68
ENDBRANCH  66  67
ENDBRANCH  65  66
ENDBRANCH   1  65
TORSDOF 20
ENDMDL
MODEL 2
REMARK VINA RESULT:     -10.6      0.419      6.116
REMARK SMILES O=C(OCCOCCOCCOC(=O)c1ccccc1Nc1cccc(C(F)(F)F)c1)c1ccc(-c2c3nc(c(-c4c(F)cccc4F)c4ccc([nH]4)c(-c4c(F)cccc4F)c4nc(c(-c5c(F)cccc5F)c5ccc2[nH]5)C=C4)C=C3)cc1
REMARK SMILES IDX 8 1 7 2 6 3 5 4 4 5 3 6 2 7 1 8 32 9 33 10 85 11 34 12 84 13
REMARK SMILES IDX 35 14 36 15 37 16 78 17 38 18 83 19 77 20 79 21 39 22 82 23
REMARK SMILES IDX 76 24 75 25 40 27 66 28 49 29 65 30 50 31 53 32 64 33 80 34
REMARK SMILES IDX 51 35 52 36 63 38 81 39 54 40 41 41 42 42 47 43 43 44 44 45
REMARK SMILES IDX 46 46 48 47 45 48 67 49 68 50 73 51 69 52 70 53 72 54 74 55
REMARK SMILES IDX 71 56 55 57 56 58 61 59 57 60 58 61 60 62 62 63 59 64 9 65
REMARK SMILES IDX 10 66 11 67 12 68 13 69 14 70 15 71 16 72 20 73 17 74 19 75
REMARK SMILES IDX 18 76 21 77 22 79 23 80 31 81 24 82 26 83 25 84 27 85 28 86
REMARK SMILES IDX 29 87 30 88
REMARK H PARENT 79 26 53 37 21 78
REMARK Flexibility Score: inf
ROOT
ATOM      1  C   UNL A   1      46.007  18.835  25.270  1.00  0.00     0.188 C 
ENDROOT
BRANCH   1   2
ATOM      2  C   UNL A   1      45.851  20.225  24.647  1.00  0.00     0.188 C 
BRANCH   2   3
ATOM      3  O   UNL A   1      46.060  21.231  25.651  1.00  0.00    -0.376 OA
BRANCH   3   4
ATOM      4  C   UNL A   1      45.047  22.238  25.667  1.00  0.00     0.202 C 
BRANCH   4   5
ATOM      5  C   UNL A   1      45.158  23.237  24.512  1.00  0.00     0.261 C 
BRANCH   5   6
ATOM      6  O   UNL A   1      44.388  24.424  24.766  1.00  0.00    -0.460 OA
BRANCH   6   7
ATOM      7  C   UNL A   1      44.828  25.577  25.328  1.00  0.00     0.338 C 
ATOM      8  O   UNL A   1      45.739  26.201  24.789  1.00  0.00    -0.246 OA
BRANCH   7   9
ATOM      9  C   UNL A   1      44.186  26.179  26.532  1.00  0.00     0.060 A 
ATOM     10  C   UNL A   1      43.703  25.448  27.620  1.00  0.00     0.016 A 
ATOM     11  C   UNL A   1      44.159  27.580  26.604  1.00  0.00     0.016 A 
ATOM     12  C   UNL A   1      43.100  26.090  28.703  1.00  0.00     0.010 A 
ATOM     13  C   UNL A   1      43.619  28.230  27.720  1.00  0.00     0.010 A 
ATOM     14  C   UNL A   1      43.059  27.486  28.767  1.00  0.00    -0.014 A 
BRANCH  14  15
ATOM     15  C   UNL A   1      42.435  28.164  29.929  1.00  0.00     0.031 A 
ATOM     16  C   UNL A   1      41.137  28.890  29.765  1.00  0.00     0.074 A 
ATOM     17  C   UNL A   1      43.029  28.119  31.136  1.00  0.00     0.049 A 
ATOM     18  N   UNL A   1      40.472  29.593  30.643  1.00  0.00    -0.248 NA
ATOM     19  C   UNL A   1      40.495  28.807  28.443  1.00  0.00     0.031 C 
ATOM     20  C   UNL A   1      44.258  27.388  31.431  1.00  0.00     0.029 A 
ATOM     21  N   UNL A   1      42.684  28.692  32.336  1.00  0.00    -0.354 N 
ATOM     22  C   UNL A   1      39.345  30.054  29.980  1.00  0.00     0.074 A 
ATOM     23  C   UNL A   1      39.418  29.559  28.622  1.00  0.00     0.031 C 
ATOM     24  C   UNL A   1      44.554  27.554  32.726  1.00  0.00     0.029 A 
ATOM     25  C   UNL A   1      43.592  28.452  33.339  1.00  0.00     0.049 A 
ATOM     26  H   UNL A   1      41.866  29.224  32.465  1.00  0.00     0.167 HD
ATOM     27  C   UNL A   1      38.341  30.819  30.466  1.00  0.00     0.037 A 
ATOM     28  C   UNL A   1      43.674  28.915  34.601  1.00  0.00     0.037 A 
ATOM     29  C   UNL A   1      38.261  31.288  31.823  1.00  0.00     0.049 A 
ATOM     30  C   UNL A   1      42.589  29.826  35.088  1.00  0.00     0.074 A 
ATOM     31  C   UNL A   1      37.259  32.032  32.421  1.00  0.00     0.029 A 
ATOM     32  N   UNL A   1      39.227  31.062  32.792  1.00  0.00    -0.354 N 
ATOM     33  N   UNL A   1      41.507  30.219  34.460  1.00  0.00    -0.248 NA
ATOM     34  C   UNL A   1      42.729  30.366  36.446  1.00  0.00     0.031 C 
ATOM     35  C   UNL A   1      37.641  32.290  33.744  1.00  0.00     0.029 A 
ATOM     36  C   UNL A   1      38.867  31.689  33.973  1.00  0.00     0.049 A 
ATOM     37  H   UNL A   1      40.048  30.534  32.659  1.00  0.00     0.167 HD
ATOM     38  C   UNL A   1      40.827  31.032  35.351  1.00  0.00     0.074 A 
ATOM     39  C   UNL A   1      41.609  31.063  36.571  1.00  0.00     0.031 C 
ATOM     40  C   UNL A   1      39.662  31.701  35.174  1.00  0.00     0.037 A 
BRANCH  27  41
ATOM     41  C   UNL A   1      37.274  31.226  29.500  1.00  0.00     0.057 A 
ATOM     42  C   UNL A   1      37.279  32.479  28.874  1.00  0.00     0.134 A 
ATOM     43  C   UNL A   1      36.222  30.352  29.201  1.00  0.00     0.134 A 
ATOM     44  F   UNL A   1      38.247  33.367  29.139  1.00  0.00    -0.206 F 
ATOM     45  C   UNL A   1      36.264  32.854  27.992  1.00  0.00     0.040 A 
ATOM     46  C   UNL A   1      35.210  30.710  28.311  1.00  0.00     0.040 A 
ATOM     47  F   UNL A   1      36.158  29.142  29.777  1.00  0.00    -0.206 F 
ATOM     48  C   UNL A   1      35.226  31.966  27.707  1.00  0.00     0.006 A 
ENDBRANCH  27  41
BRANCH  28  49
ATOM     49  C   UNL A   1      44.824  28.533  35.471  1.00  0.00     0.057 A 
ATOM     50  C   UNL A   1      46.006  29.281  35.488  1.00  0.00     0.134 A 
ATOM     51  C   UNL A   1      44.765  27.425  36.328  1.00  0.00     0.134 A 
ATOM     52  F   UNL A   1      46.155  30.324  34.659  1.00  0.00    -0.206 F 
ATOM     53  C   UNL A   1      47.072  28.963  36.332  1.00  0.00     0.040 A 
ATOM     54  C   UNL A   1      45.816  27.103  37.192  1.00  0.00     0.040 A 
ATOM     55  F   UNL A   1      43.670  26.650  36.362  1.00  0.00    -0.206 F 
ATOM     56  C   UNL A   1      46.973  27.875  37.197  1.00  0.00     0.006 A 
ENDBRANCH  28  49
BRANCH  40  57
ATOM     57  C   UNL A   1      39.176  32.513  36.332  1.00  0.00     0.057 A 
ATOM     58  C   UNL A   1      39.623  33.824  36.536  1.00  0.00     0.134 A 
ATOM     59  C   UNL A   1      38.251  31.987  37.240  1.00  0.00     0.134 A 
ATOM     60  F   UNL A   1      40.526  34.371  35.708  1.00  0.00    -0.206 F 
ATOM     61  C   UNL A   1      39.177  34.582  37.618  1.00  0.00     0.040 A 
ATOM     62  C   UNL A   1      37.783  32.743  38.315  1.00  0.00     0.040 A 
ATOM     63  F   UNL A   1      37.786  30.738  37.094  1.00  0.00    -0.206 F 
ATOM     64  C   UNL A   1      38.249  34.042  38.508  1.00  0.00     0.006 A 
ENDBRANCH  40  57
ENDBRANCH  14  15
ENDBRANCH   7   9
ENDBRANCH   6   7
ENDBRANCH   5   6
ENDBRANCH   4   5
ENDBRANCH   3   4
ENDBRANCH   2   3
ENDBRANCH   1   2
BRANCH   1  65
ATOM     65  O   UNL A   1      44.811  18.318  25.861  1.00  0.00    -0.376 OA
BRANCH  65  66
ATOM     66  C   UNL A   1      43.574  18.739  25.295  1.00  0.00     0.202 C 
BRANCH  66  67
ATOM     67  C   UNL A   1      42.582  19.396  26.258  1.00  0.00     0.261 C 
BRANCH  67  68
ATOM     68  O   UNL A   1      41.819  20.483  25.708  1.00  0.00    -0.460 OA
BRANCH  68  69
ATOM     69  C   UNL A   1      40.535  20.531  26.145  1.00  0.00     0.340 C 
ATOM     70  O   UNL A   1      39.753  19.604  26.250  1.00  0.00    -0.246 OA
BRANCH  69  71
ATOM     71  C   UNL A   1      40.133  21.920  26.399  1.00  0.00     0.083 A 
ATOM     72  C   UNL A   1      40.892  22.666  27.313  1.00  0.00     0.018 A 
ATOM     73  C   UNL A   1      38.904  22.387  25.895  1.00  0.00     0.053 A 
ATOM     74  C   UNL A   1      40.406  23.885  27.776  1.00  0.00     0.001 A 
ATOM     75  C   UNL A   1      38.404  23.572  26.446  1.00  0.00     0.027 A 
ATOM     76  C   UNL A   1      39.149  24.321  27.368  1.00  0.00     0.002 A 
BRANCH  73  77
ATOM     77  N   UNL A   1      38.175  21.657  24.936  1.00  0.00    -0.355 N 
ATOM     78  H   UNL A   1      38.671  20.924  24.508  1.00  0.00     0.167 HD
BRANCH  77  79
ATOM     79  C   UNL A   1      36.851  21.812  24.494  1.00  0.00     0.039 A 
ATOM     80  C   UNL A   1      36.562  22.853  23.609  1.00  0.00     0.026 A 
ATOM     81  C   UNL A   1      35.792  21.103  25.075  1.00  0.00     0.039 A 
ATOM     82  C   UNL A   1      35.246  23.151  23.259  1.00  0.00     0.003 A 
ATOM     83  C   UNL A   1      34.456  21.404  24.746  1.00  0.00     0.058 A 
ATOM     84  C   UNL A   1      34.198  22.432  23.825  1.00  0.00     0.013 A 
BRANCH  83  85
ATOM     85  C   UNL A   1      33.308  20.704  25.435  1.00  0.00     0.416 C 
ATOM     86  F   UNL A   1      32.147  21.411  25.338  1.00  0.00    -0.166 F 
ATOM     87  F   UNL A   1      33.039  19.481  24.899  1.00  0.00    -0.166 F 
ATOM     88  F   UNL A   1      33.518  20.505  26.762  1.00  0.00    -0.166 F 
ENDBRANCH  83  85
ENDBRANCH  77  79
ENDBRANCH  73  77
ENDBRANCH  69  71
ENDBRANCH  68  69
ENDBRANCH  67  68
ENDBRANCH  66  67
ENDBRANCH  65  66
ENDBRANCH   1  65
TORSDOF 20
ENDMDL
MODEL 3
REMARK VINA RESULT:     -10.6      1.932      3.464
REMARK SMILES O=C(OCCOCCOCCOC(=O)c1ccccc1Nc1cccc(C(F)(F)F)c1)c1ccc(-c2c3nc(c(-c4c(F)cccc4F)c4ccc([nH]4)c(-c4c(F)cccc4F)c4nc(c(-c5c(F)cccc5F)c5ccc2[nH]5)C=C4)C=C3)cc1
REMARK SMILES IDX 8 1 7 2 6 3 5 4 4 5 3 6 2 7 1 8 32 9 33 10 85 11 34 12 84 13
REMARK SMILES IDX 35 14 36 15 37 16 78 17 38 18 83 19 77 20 79 21 39 22 82 23
REMARK SMILES IDX 76 24 75 25 40 27 66 28 49 29 65 30 50 31 53 32 64 33 80 34
REMARK SMILES IDX 51 35 52 36 63 38 81 39 54 40 41 41 42 42 47 43 43 44 44 45
REMARK SMILES IDX 46 46 48 47 45 48 67 49 68 50 73 51 69 52 70 53 72 54 74 55
REMARK SMILES IDX 71 56 55 57 56 58 61 59 57 60 58 61 60 62 62 63 59 64 9 65
REMARK SMILES IDX 10 66 11 67 12 68 13 69 14 70 15 71 16 72 20 73 17 74 19 75
REMARK SMILES IDX 18 76 21 77 22 79 23 80 31 81 24 82 26 83 25 84 27 85 28 86
REMARK SMILES IDX 29 87 30 88
REMARK H PARENT 79 26 53 37 21 78
REMARK Flexibility Score: inf
ROOT
ATOM      1  C   UNL A   1      40.441  21.504  26.680  1.00  0.00     0.188 C 
ENDROOT
BRANCH   1   2
ATOM      2  C   UNL A   1      41.130  20.149  26.500  1.00  0.00     0.188 C 
BRANCH   2   3
ATOM      3  O   UNL A   1      42.031  20.210  25.382  1.00  0.00    -0.376 OA
BRANCH   3   4
ATOM      4  C   UNL A   1      43.407  20.249  25.762  1.00  0.00     0.202 C 
BRANCH   4   5
ATOM      5  C   UNL A   1      44.146  21.495  25.265  1.00  0.00     0.261 C 
BRANCH   5   6
ATOM      6  O   UNL A   1      43.292  22.651  25.276  1.00  0.00    -0.460 OA
BRANCH   6   7
ATOM      7  C   UNL A   1      43.680  23.951  25.267  1.00  0.00     0.338 C 
ATOM      8  O   UNL A   1      44.318  24.383  24.309  1.00  0.00    -0.246 OA
BRANCH   7   9
ATOM      9  C   UNL A   1      43.281  24.915  26.332  1.00  0.00     0.060 A 
ATOM     10  C   UNL A   1      43.715  26.242  26.400  1.00  0.00     0.016 A 
ATOM     11  C   UNL A   1      42.334  24.474  27.268  1.00  0.00     0.016 A 
ATOM     12  C   UNL A   1      43.307  27.076  27.443  1.00  0.00     0.010 A 
ATOM     13  C   UNL A   1      41.868  25.328  28.274  1.00  0.00     0.010 A 
ATOM     14  C   UNL A   1      42.374  26.630  28.384  1.00  0.00    -0.014 A 
BRANCH  14  15
ATOM     15  C   UNL A   1      41.928  27.527  29.479  1.00  0.00     0.031 A 
ATOM     16  C   UNL A   1      42.630  27.502  30.800  1.00  0.00     0.074 A 
ATOM     17  C   UNL A   1      40.899  28.371  29.281  1.00  0.00     0.049 A 
ATOM     18  N   UNL A   1      42.347  28.161  31.892  1.00  0.00    -0.248 NA
ATOM     19  C   UNL A   1      43.811  26.631  30.906  1.00  0.00     0.031 C 
ATOM     20  C   UNL A   1      40.184  28.531  28.019  1.00  0.00     0.029 A 
ATOM     21  N   UNL A   1      40.279  29.253  30.132  1.00  0.00    -0.354 N 
ATOM     22  C   UNL A   1      43.299  27.773  32.823  1.00  0.00     0.074 A 
ATOM     23  C   UNL A   1      44.164  26.812  32.171  1.00  0.00     0.031 C 
ATOM     24  C   UNL A   1      39.231  29.458  28.182  1.00  0.00     0.029 A 
ATOM     25  C   UNL A   1      39.213  29.907  29.561  1.00  0.00     0.049 A 
ATOM     26  H   UNL A   1      40.568  29.403  31.061  1.00  0.00     0.167 HD
ATOM     27  C   UNL A   1      43.436  28.184  34.104  1.00  0.00     0.037 A 
ATOM     28  C   UNL A   1      38.298  30.749  30.079  1.00  0.00     0.037 A 
ATOM     29  C   UNL A   1      42.589  29.157  34.739  1.00  0.00     0.049 A 
ATOM     30  C   UNL A   1      38.427  31.126  31.524  1.00  0.00     0.074 A 
ATOM     31  C   UNL A   1      42.676  29.673  36.020  1.00  0.00     0.029 A 
ATOM     32  N   UNL A   1      41.492  29.757  34.139  1.00  0.00    -0.354 N 
ATOM     33  N   UNL A   1      39.358  30.782  32.380  1.00  0.00    -0.248 NA
ATOM     34  C   UNL A   1      37.386  31.998  32.082  1.00  0.00     0.031 C 
ATOM     35  C   UNL A   1      41.606  30.555  36.207  1.00  0.00     0.029 A 
ATOM     36  C   UNL A   1      40.866  30.605  35.037  1.00  0.00     0.049 A 
ATOM     37  H   UNL A   1      41.200  29.602  33.211  1.00  0.00     0.167 HD
ATOM     38  C   UNL A   1      39.030  31.410  33.569  1.00  0.00     0.074 A 
ATOM     39  C   UNL A   1      37.823  32.172  33.321  1.00  0.00     0.031 C 
ATOM     40  C   UNL A   1      39.668  31.355  34.763  1.00  0.00     0.037 A 
BRANCH  27  41
ATOM     41  C   UNL A   1      44.522  27.543  34.907  1.00  0.00     0.057 A 
ATOM     42  C   UNL A   1      44.308  26.371  35.643  1.00  0.00     0.134 A 
ATOM     43  C   UNL A   1      45.800  28.115  34.949  1.00  0.00     0.134 A 
ATOM     44  F   UNL A   1      43.100  25.792  35.661  1.00  0.00    -0.206 F 
ATOM     45  C   UNL A   1      45.326  25.797  36.406  1.00  0.00     0.040 A 
ATOM     46  C   UNL A   1      46.829  27.542  35.697  1.00  0.00     0.040 A 
ATOM     47  F   UNL A   1      46.063  29.243  34.272  1.00  0.00    -0.206 F 
ATOM     48  C   UNL A   1      46.592  26.382  36.432  1.00  0.00     0.006 A 
ENDBRANCH  27  41
BRANCH  28  49
ATOM     49  C   UNL A   1      37.188  31.272  29.230  1.00  0.00     0.057 A 
ATOM     50  C   UNL A   1      36.085  30.477  28.902  1.00  0.00     0.134 A 
ATOM     51  C   UNL A   1      37.186  32.587  28.745  1.00  0.00     0.134 A 
ATOM     52  F   UNL A   1      36.041  29.194  29.287  1.00  0.00    -0.206 F 
ATOM     53  C   UNL A   1      35.017  30.967  28.148  1.00  0.00     0.040 A 
ATOM     54  C   UNL A   1      36.117  33.099  28.005  1.00  0.00     0.040 A 
ATOM     55  F   UNL A   1      38.214  33.409  29.007  1.00  0.00    -0.206 F 
ATOM     56  C   UNL A   1      35.027  32.288  27.706  1.00  0.00     0.006 A 
ENDBRANCH  28  49
BRANCH  40  57
ATOM     57  C   UNL A   1      39.062  32.146  35.879  1.00  0.00     0.057 A 
ATOM     58  C   UNL A   1      38.153  31.563  36.770  1.00  0.00     0.134 A 
ATOM     59  C   UNL A   1      39.396  33.491  36.070  1.00  0.00     0.134 A 
ATOM     60  F   UNL A   1      37.781  30.283  36.622  1.00  0.00    -0.206 F 
ATOM     61  C   UNL A   1      37.581  32.300  37.808  1.00  0.00     0.040 A 
ATOM     62  C   UNL A   1      38.846  34.232  37.116  1.00  0.00     0.040 A 
ATOM     63  F   UNL A   1      40.262  34.102  35.249  1.00  0.00    -0.206 F 
ATOM     64  C   UNL A   1      37.933  33.637  37.985  1.00  0.00     0.006 A 
ENDBRANCH  40  57
ENDBRANCH  14  15
ENDBRANCH   7   9
ENDBRANCH   6   7
ENDBRANCH   5   6
ENDBRANCH   4   5
ENDBRANCH   3   4
ENDBRANCH   2   3
ENDBRANCH   1   2
BRANCH   1  65
ATOM     65  O   UNL A   1      39.391  21.759  25.742  1.00  0.00    -0.376 OA
BRANCH  65  66
ATOM     66  C   UNL A   1      38.349  22.637  26.157  1.00  0.00     0.202 C 
BRANCH  66  67
ATOM     67  C   UNL A   1      36.939  22.284  25.675  1.00  0.00     0.261 C 
BRANCH  67  68
ATOM     68  O   UNL A   1      35.898  23.168  26.124  1.00  0.00    -0.460 OA
BRANCH  68  69
ATOM     69  C   UNL A   1      35.132  23.668  25.122  1.00  0.00     0.340 C 
ATOM     70  O   UNL A   1      35.503  24.075  24.036  1.00  0.00    -0.246 OA
BRANCH  69  71
ATOM     71  C   UNL A   1      33.730  23.766  25.550  1.00  0.00     0.083 A 
ATOM     72  C   UNL A   1      33.177  25.046  25.697  1.00  0.00     0.018 A 
ATOM     73  C   UNL A   1      33.063  22.609  25.996  1.00  0.00     0.053 A 
ATOM     74  C   UNL A   1      31.950  25.194  26.339  1.00  0.00     0.001 A 
ATOM     75  C   UNL A   1      31.877  22.801  26.714  1.00  0.00     0.027 A 
ATOM     76  C   UNL A   1      31.318  24.077  26.876  1.00  0.00     0.002 A 
BRANCH  73  77
ATOM     77  N   UNL A   1      33.600  21.323  25.796  1.00  0.00    -0.355 N 
ATOM     78  H   UNL A   1      34.224  21.022  26.494  1.00  0.00     0.167 HD
BRANCH  77  79
ATOM     79  C   UNL A   1      33.384  20.402  24.758  1.00  0.00     0.039 A 
ATOM     80  C   UNL A   1      32.519  20.759  23.721  1.00  0.00     0.026 A 
ATOM     81  C   UNL A   1      33.829  19.076  24.843  1.00  0.00     0.039 A 
ATOM     82  C   UNL A   1      32.146  19.833  22.748  1.00  0.00     0.003 A 
ATOM     83  C   UNL A   1      33.446  18.124  23.879  1.00  0.00     0.058 A 
ATOM     84  C   UNL A   1      32.605  18.521  22.828  1.00  0.00     0.013 A 
BRANCH  83  85
ATOM     85  C   UNL A   1      33.850  16.674  24.014  1.00  0.00     0.416 C 
ATOM     86  F   UNL A   1      34.348  16.173  22.850  1.00  0.00    -0.166 F 
ATOM     87  F   UNL A   1      34.828  16.484  24.944  1.00  0.00    -0.166 F 
ATOM     88  F   UNL A   1      32.821  15.860  24.366  1.00  0.00    -0.166 F 
ENDBRANCH  83  85
ENDBRANCH  77  79
ENDBRANCH  73  77
ENDBRANCH  69  71
ENDBRANCH  68  69
ENDBRANCH  67  68
ENDBRANCH  66  67
ENDBRANCH  65  66
ENDBRANCH   1  65
TORSDOF 20
ENDMDL
