MODEL 1
REMARK VINA RESULT:      -8.2      0.000      0.000
REMARK SMILES O=C(COCC[NH+]1CCCC1)OCCOCCOCCOC(=O)c1ccc(-c2c3nc(c(-c4c(F)cccc4F)c4ccc([nH]4)c(-c4c(F)cccc4F)c4nc(c(-c5c(F)cccc5F)c5ccc2[nH]5)C=C4)C=C3)cc1
REMARK SMILES IDX 16 1 15 2 14 3 13 4 12 5 2 6 1 7 3 8 4 9 5 10 6 11 7 12 8 13
REMARK SMILES IDX 11 14 9 16 10 17 17 18 18 19 19 20 20 21 21 22 22 23 23 24
REMARK SMILES IDX 24 25 25 26 77 27 26 28 76 29 27 30 28 31 29 32 70 33 30 34
REMARK SMILES IDX 75 35 69 36 71 37 31 38 74 39 68 40 67 41 32 43 58 44 41 45
REMARK SMILES IDX 57 46 42 47 45 48 56 49 72 50 43 51 44 52 55 54 73 55 46 56
REMARK SMILES IDX 33 57 34 58 39 59 35 60 36 61 38 62 40 63 37 64 59 65 60 66
REMARK SMILES IDX 65 67 61 68 62 69 64 70 66 71 63 72 47 73 48 74 53 75 49 76
REMARK SMILES IDX 50 77 52 78 54 79 51 80
REMARK H PARENT 7 15 71 42 45 53
REMARK Flexibility Score: inf
ROOT
ATOM      1  C   UNL A   1      32.931  36.568  30.311  1.00  0.00     0.188 C 
ENDROOT
BRANCH   1   2
ATOM      2  O   UNL A   1      32.163  36.877  31.459  1.00  0.00    -0.376 OA
BRANCH   2   3
ATOM      3  C   UNL A   1      32.527  36.416  32.752  1.00  0.00     0.202 C 
BRANCH   3   4
ATOM      4  C   UNL A   1      33.836  36.848  33.404  1.00  0.00     0.261 C 
BRANCH   4   5
ATOM      5  O   UNL A   1      34.949  36.022  33.054  1.00  0.00    -0.462 OA
BRANCH   5   6
ATOM      6  C   UNL A   1      34.998  34.758  33.554  1.00  0.00     0.332 C 
ATOM      7  O   UNL A   1      35.180  34.566  34.753  1.00  0.00    -0.250 OA
BRANCH   6   8
ATOM      8  C   UNL A   1      35.029  33.627  32.517  1.00  0.00     0.282 C 
BRANCH   8   9
ATOM      9  O   UNL A   1      36.093  33.650  31.589  1.00  0.00    -0.364 OA
BRANCH   9  10
ATOM     10  C   UNL A   1      37.094  32.670  31.869  1.00  0.00     0.222 C 
BRANCH  10  11
ATOM     11  C   UNL A   1      36.608  31.590  32.871  1.00  0.00     0.291 C 
BRANCH  11  12
ATOM     12  N   UNL A   1      37.407  31.252  34.058  1.00  0.00    -0.333 N 
ATOM     13  C   UNL A   1      38.026  32.353  34.786  1.00  0.00     0.262 C 
ATOM     14  C   UNL A   1      38.395  30.184  33.908  1.00  0.00     0.262 C 
ATOM     15  H   UNL A   1      36.637  30.898  34.626  1.00  0.00     0.348 HD
ATOM     16  C   UNL A   1      39.501  32.264  34.438  1.00  0.00     0.067 C 
ATOM     17  C   UNL A   1      39.744  30.772  34.312  1.00  0.00     0.067 C 
ENDBRANCH  11  12
ENDBRANCH  10  11
ENDBRANCH   9  10
ENDBRANCH   8   9
ENDBRANCH   6   8
ENDBRANCH   5   6
ENDBRANCH   4   5
ENDBRANCH   3   4
ENDBRANCH   2   3
ENDBRANCH   1   2
BRANCH   1  18
ATOM     18  C   UNL A   1      33.392  35.147  29.947  1.00  0.00     0.188 C 
BRANCH  18  19
ATOM     19  O   UNL A   1      33.017  34.547  28.727  1.00  0.00    -0.376 OA
BRANCH  19  20
ATOM     20  C   UNL A   1      34.010  34.190  27.781  1.00  0.00     0.202 C 
BRANCH  20  21
ATOM     21  C   UNL A   1      35.166  33.268  28.166  1.00  0.00     0.261 C 
BRANCH  21  22
ATOM     22  O   UNL A   1      34.770  32.165  28.997  1.00  0.00    -0.460 OA
BRANCH  22  23
ATOM     23  C   UNL A   1      34.623  30.997  28.336  1.00  0.00     0.338 C 
ATOM     24  O   UNL A   1      33.664  30.653  27.651  1.00  0.00    -0.246 OA
BRANCH  23  25
ATOM     25  C   UNL A   1      35.831  30.164  28.424  1.00  0.00     0.060 A 
ATOM     26  C   UNL A   1      36.124  29.587  29.667  1.00  0.00     0.016 A 
ATOM     27  C   UNL A   1      36.754  30.104  27.377  1.00  0.00     0.016 A 
ATOM     28  C   UNL A   1      37.382  29.037  29.901  1.00  0.00     0.010 A 
ATOM     29  C   UNL A   1      38.021  29.555  27.616  1.00  0.00     0.010 A 
ATOM     30  C   UNL A   1      38.360  29.081  28.897  1.00  0.00    -0.014 A 
BRANCH  30  31
ATOM     31  C   UNL A   1      39.781  28.857  29.271  1.00  0.00     0.031 A 
ATOM     32  C   UNL A   1      40.458  27.593  28.805  1.00  0.00     0.074 A 
ATOM     33  C   UNL A   1      40.483  29.776  29.955  1.00  0.00     0.049 A 
ATOM     34  N   UNL A   1      41.694  27.197  28.982  1.00  0.00    -0.248 NA
ATOM     35  C   UNL A   1      39.633  26.652  28.033  1.00  0.00     0.031 C 
ATOM     36  C   UNL A   1      39.967  31.058  30.430  1.00  0.00     0.029 A 
ATOM     37  N   UNL A   1      41.793  29.765  30.363  1.00  0.00    -0.354 N 
ATOM     38  C   UNL A   1      41.791  25.963  28.350  1.00  0.00     0.074 A 
ATOM     39  C   UNL A   1      40.483  25.660  27.812  1.00  0.00     0.031 C 
ATOM     40  C   UNL A   1      40.953  31.713  31.067  1.00  0.00     0.029 A 
ATOM     41  C   UNL A   1      42.161  30.886  31.064  1.00  0.00     0.049 A 
ATOM     42  H   UNL A   1      42.412  29.023  30.172  1.00  0.00     0.167 HD
ATOM     43  C   UNL A   1      42.870  25.157  28.217  1.00  0.00     0.037 A 
ATOM     44  C   UNL A   1      43.336  31.204  31.642  1.00  0.00     0.037 A 
ATOM     45  C   UNL A   1      44.178  25.450  28.739  1.00  0.00     0.049 A 
ATOM     46  C   UNL A   1      44.506  30.261  31.535  1.00  0.00     0.074 A 
ATOM     47  C   UNL A   1      45.338  24.701  28.631  1.00  0.00     0.029 A 
ATOM     48  N   UNL A   1      44.498  26.579  29.475  1.00  0.00    -0.354 N 
ATOM     49  N   UNL A   1      44.593  29.114  30.905  1.00  0.00    -0.248 NA
ATOM     50  C   UNL A   1      45.746  30.664  32.217  1.00  0.00     0.031 C 
ATOM     51  C   UNL A   1      46.349  25.358  29.340  1.00  0.00     0.029 A 
ATOM     52  C   UNL A   1      45.831  26.538  29.848  1.00  0.00     0.049 A 
ATOM     53  H   UNL A   1      43.871  27.304  29.699  1.00  0.00     0.167 HD
ATOM     54  C   UNL A   1      45.904  28.682  31.080  1.00  0.00     0.074 A 
ATOM     55  C   UNL A   1      46.576  29.690  31.872  1.00  0.00     0.031 C 
ATOM     56  C   UNL A   1      46.498  27.553  30.621  1.00  0.00     0.037 A 
BRANCH  43  57
ATOM     57  C   UNL A   1      42.672  23.859  27.490  1.00  0.00     0.057 A 
ATOM     58  C   UNL A   1      42.800  23.764  26.098  1.00  0.00     0.134 A 
ATOM     59  C   UNL A   1      42.370  22.688  28.195  1.00  0.00     0.134 A 
ATOM     60  F   UNL A   1      43.072  24.853  25.363  1.00  0.00    -0.206 F 
ATOM     61  C   UNL A   1      42.611  22.552  25.431  1.00  0.00     0.040 A 
ATOM     62  C   UNL A   1      42.204  21.466  27.542  1.00  0.00     0.040 A 
ATOM     63  F   UNL A   1      42.239  22.712  29.530  1.00  0.00    -0.206 F 
ATOM     64  C   UNL A   1      42.318  21.398  26.155  1.00  0.00     0.006 A 
ENDBRANCH  43  57
BRANCH  44  65
ATOM     65  C   UNL A   1      43.481  32.484  32.381  1.00  0.00     0.057 A 
ATOM     66  C   UNL A   1      43.285  32.547  33.764  1.00  0.00     0.134 A 
ATOM     67  C   UNL A   1      43.775  33.679  31.713  1.00  0.00     0.134 A 
ATOM     68  F   UNL A   1      42.972  31.440  34.453  1.00  0.00    -0.206 F 
ATOM     69  C   UNL A   1      43.353  33.757  34.458  1.00  0.00     0.040 A 
ATOM     70  C   UNL A   1      43.869  34.892  32.396  1.00  0.00     0.040 A 
ATOM     71  F   UNL A   1      43.969  33.684  30.386  1.00  0.00    -0.206 F 
ATOM     72  C   UNL A   1      43.649  34.934  33.772  1.00  0.00     0.006 A 
ENDBRANCH  44  65
BRANCH  56  73
ATOM     73  C   UNL A   1      47.959  27.370  30.913  1.00  0.00     0.057 A 
ATOM     74  C   UNL A   1      48.411  26.651  32.026  1.00  0.00     0.134 A 
ATOM     75  C   UNL A   1      48.928  27.894  30.047  1.00  0.00     0.134 A 
ATOM     76  F   UNL A   1      47.537  26.132  32.901  1.00  0.00    -0.206 F 
ATOM     77  C   UNL A   1      49.774  26.481  32.282  1.00  0.00     0.040 A 
ATOM     78  C   UNL A   1      50.293  27.710  30.277  1.00  0.00     0.040 A 
ATOM     79  F   UNL A   1      48.564  28.585  28.956  1.00  0.00    -0.206 F 
ATOM     80  C   UNL A   1      50.718  27.007  31.401  1.00  0.00     0.006 A 
ENDBRANCH  56  73
ENDBRANCH  30  31
ENDBRANCH  23  25
ENDBRANCH  22  23
ENDBRANCH  21  22
ENDBRANCH  20  21
ENDBRANCH  19  20
ENDBRANCH  18  19
ENDBRANCH   1  18
TORSDOF 21
ENDMDL
MODEL 2
REMARK VINA RESULT:      -8.1      5.094     10.143
REMARK SMILES O=C(COCC[NH+]1CCCC1)OCCOCCOCCOC(=O)c1ccc(-c2c3nc(c(-c4c(F)cccc4F)c4ccc([nH]4)c(-c4c(F)cccc4F)c4nc(c(-c5c(F)cccc5F)c5ccc2[nH]5)C=C4)C=C3)cc1
REMARK SMILES IDX 16 1 15 2 14 3 13 4 12 5 2 6 1 7 3 8 4 9 5 10 6 11 7 12 8 13
REMARK SMILES IDX 11 14 9 16 10 17 17 18 18 19 19 20 20 21 21 22 22 23 23 24
REMARK SMILES IDX 24 25 25 26 77 27 26 28 76 29 27 30 28 31 29 32 70 33 30 34
REMARK SMILES IDX 75 35 69 36 71 37 31 38 74 39 68 40 67 41 32 43 58 44 41 45
REMARK SMILES IDX 57 46 42 47 45 48 56 49 72 50 43 51 44 52 55 54 73 55 46 56
REMARK SMILES IDX 33 57 34 58 39 59 35 60 36 61 38 62 40 63 37 64 59 65 60 66
REMARK SMILES IDX 65 67 61 68 62 69 64 70 66 71 63 72 47 73 48 74 53 75 49 76
REMARK SMILES IDX 50 77 52 78 54 79 51 80
REMARK H PARENT 7 15 71 42 45 53
REMARK Flexibility Score: inf
ROOT
ATOM      1  C   UNL A   1      35.149  24.346  25.375  1.00  0.00     0.188 C 
ENDROOT
BRANCH   1   2
ATOM      2  O   UNL A   1      33.870  24.865  25.060  1.00  0.00    -0.376 OA
BRANCH   2   3
ATOM      3  C   UNL A   1      33.132  25.654  25.981  1.00  0.00     0.202 C 
BRANCH   3   4
ATOM      4  C   UNL A   1      31.639  25.430  26.192  1.00  0.00     0.261 C 
BRANCH   4   5
ATOM      5  O   UNL A   1      31.344  24.431  27.172  1.00  0.00    -0.462 OA
BRANCH   5   6
ATOM      6  C   UNL A   1      30.535  23.397  26.817  1.00  0.00     0.332 C 
ATOM      7  O   UNL A   1      29.690  22.968  27.597  1.00  0.00    -0.250 OA
BRANCH   6   8
ATOM      8  C   UNL A   1      30.890  22.688  25.503  1.00  0.00     0.282 C 
BRANCH   8   9
ATOM      9  O   UNL A   1      31.395  21.374  25.611  1.00  0.00    -0.364 OA
BRANCH   9  10
ATOM     10  C   UNL A   1      32.823  21.332  25.657  1.00  0.00     0.222 C 
BRANCH  10  11
ATOM     11  C   UNL A   1      33.393  19.956  25.219  1.00  0.00     0.291 C 
BRANCH  11  12
ATOM     12  N   UNL A   1      32.525  18.944  24.601  1.00  0.00    -0.333 N 
ATOM     13  C   UNL A   1      32.793  17.546  24.917  1.00  0.00     0.262 C 
ATOM     14  C   UNL A   1      32.301  19.057  23.160  1.00  0.00     0.262 C 
ATOM     15  H   UNL A   1      31.666  19.212  25.080  1.00  0.00     0.348 HD
ATOM     16  C   UNL A   1      33.430  16.982  23.660  1.00  0.00     0.067 C 
ATOM     17  C   UNL A   1      32.725  17.728  22.543  1.00  0.00     0.067 C 
ENDBRANCH  11  12
ENDBRANCH  10  11
ENDBRANCH   9  10
ENDBRANCH   8   9
ENDBRANCH   6   8
ENDBRANCH   5   6
ENDBRANCH   4   5
ENDBRANCH   3   4
ENDBRANCH   2   3
ENDBRANCH   1   2
BRANCH   1  18
ATOM     18  C   UNL A   1      35.909  23.344  24.490  1.00  0.00     0.188 C 
BRANCH  18  19
ATOM     19  O   UNL A   1      36.892  22.490  25.030  1.00  0.00    -0.376 OA
BRANCH  19  20
ATOM     20  C   UNL A   1      36.981  21.147  24.589  1.00  0.00     0.202 C 
BRANCH  20  21
ATOM     21  C   UNL A   1      38.161  20.264  24.992  1.00  0.00     0.261 C 
BRANCH  21  22
ATOM     22  O   UNL A   1      39.012  20.859  25.986  1.00  0.00    -0.460 OA
BRANCH  22  23
ATOM     23  C   UNL A   1      40.223  20.274  26.101  1.00  0.00     0.338 C 
ATOM     24  O   UNL A   1      40.527  19.133  25.765  1.00  0.00    -0.246 OA
BRANCH  23  25
ATOM     25  C   UNL A   1      41.239  21.216  26.594  1.00  0.00     0.060 A 
ATOM     26  C   UNL A   1      41.205  21.540  27.957  1.00  0.00     0.016 A 
ATOM     27  C   UNL A   1      42.077  21.910  25.718  1.00  0.00     0.016 A 
ATOM     28  C   UNL A   1      41.934  22.627  28.432  1.00  0.00     0.010 A 
ATOM     29  C   UNL A   1      42.806  23.007  26.198  1.00  0.00     0.010 A 
ATOM     30  C   UNL A   1      42.684  23.408  27.541  1.00  0.00    -0.014 A 
BRANCH  30  31
ATOM     31  C   UNL A   1      43.127  24.760  27.972  1.00  0.00     0.031 A 
ATOM     32  C   UNL A   1      42.079  25.810  28.240  1.00  0.00     0.074 A 
ATOM     33  C   UNL A   1      44.423  25.042  28.186  1.00  0.00     0.049 A 
ATOM     34  N   UNL A   1      42.224  27.045  28.653  1.00  0.00    -0.248 NA
ATOM     35  C   UNL A   1      40.680  25.414  28.016  1.00  0.00     0.031 C 
ATOM     36  C   UNL A   1      45.535  24.112  28.008  1.00  0.00     0.029 A 
ATOM     37  N   UNL A   1      45.018  26.205  28.607  1.00  0.00    -0.354 N 
ATOM     38  C   UNL A   1      40.940  27.571  28.731  1.00  0.00     0.074 A 
ATOM     39  C   UNL A   1      40.031  26.534  28.295  1.00  0.00     0.031 C 
ATOM     40  C   UNL A   1      46.682  24.741  28.319  1.00  0.00     0.029 A 
ATOM     41  C   UNL A   1      46.385  26.124  28.695  1.00  0.00     0.049 A 
ATOM     42  H   UNL A   1      44.512  27.021  28.826  1.00  0.00     0.167 HD
ATOM     43  C   UNL A   1      40.547  28.801  29.141  1.00  0.00     0.037 A 
ATOM     44  C   UNL A   1      47.292  27.061  29.033  1.00  0.00     0.037 A 
ATOM     45  C   UNL A   1      41.440  29.837  29.585  1.00  0.00     0.049 A 
ATOM     46  C   UNL A   1      46.835  28.443  29.423  1.00  0.00     0.074 A 
ATOM     47  C   UNL A   1      41.129  31.107  30.041  1.00  0.00     0.029 A 
ATOM     48  N   UNL A   1      42.820  29.726  29.623  1.00  0.00    -0.354 N 
ATOM     49  N   UNL A   1      45.616  28.917  29.527  1.00  0.00    -0.248 NA
ATOM     50  C   UNL A   1      47.885  29.420  29.751  1.00  0.00     0.031 C 
ATOM     51  C   UNL A   1      42.325  31.779  30.313  1.00  0.00     0.029 A 
ATOM     52  C   UNL A   1      43.377  30.912  30.073  1.00  0.00     0.049 A 
ATOM     53  H   UNL A   1      43.330  28.923  29.369  1.00  0.00     0.167 HD
ATOM     54  C   UNL A   1      45.753  30.229  29.970  1.00  0.00     0.074 A 
ATOM     55  C   UNL A   1      47.172  30.476  30.118  1.00  0.00     0.031 C 
ATOM     56  C   UNL A   1      44.789  31.144  30.235  1.00  0.00     0.037 A 
BRANCH  43  57
ATOM     57  C   UNL A   1      39.077  29.099  29.103  1.00  0.00     0.057 A 
ATOM     58  C   UNL A   1      38.433  29.495  27.924  1.00  0.00     0.134 A 
ATOM     59  C   UNL A   1      38.296  28.968  30.257  1.00  0.00     0.134 A 
ATOM     60  F   UNL A   1      39.129  29.655  26.789  1.00  0.00    -0.206 F 
ATOM     61  C   UNL A   1      37.065  29.772  27.900  1.00  0.00     0.040 A 
ATOM     62  C   UNL A   1      36.922  29.219  30.240  1.00  0.00     0.040 A 
ATOM     63  F   UNL A   1      38.851  28.589  31.417  1.00  0.00    -0.206 F 
ATOM     64  C   UNL A   1      36.305  29.628  29.059  1.00  0.00     0.006 A 
ENDBRANCH  43  57
BRANCH  44  65
ATOM     65  C   UNL A   1      48.740  26.734  29.026  1.00  0.00     0.057 A 
ATOM     66  C   UNL A   1      49.389  26.302  30.186  1.00  0.00     0.134 A 
ATOM     67  C   UNL A   1      49.514  26.890  27.870  1.00  0.00     0.134 A 
ATOM     68  F   UNL A   1      48.705  26.162  31.331  1.00  0.00    -0.206 F 
ATOM     69  C   UNL A   1      50.764  26.056  30.206  1.00  0.00     0.040 A 
ATOM     70  C   UNL A   1      50.885  26.625  27.869  1.00  0.00     0.040 A 
ATOM     71  F   UNL A   1      48.949  27.305  26.727  1.00  0.00    -0.206 F 
ATOM     72  C   UNL A   1      51.514  26.215  29.043  1.00  0.00     0.006 A 
ENDBRANCH  44  65
BRANCH  56  73
ATOM     73  C   UNL A   1      45.227  32.478  30.764  1.00  0.00     0.057 A 
ATOM     74  C   UNL A   1      45.466  33.572  29.922  1.00  0.00     0.134 A 
ATOM     75  C   UNL A   1      45.379  32.681  32.143  1.00  0.00     0.134 A 
ATOM     76  F   UNL A   1      45.350  33.443  28.592  1.00  0.00    -0.206 F 
ATOM     77  C   UNL A   1      45.865  34.811  30.429  1.00  0.00     0.040 A 
ATOM     78  C   UNL A   1      45.752  33.921  32.664  1.00  0.00     0.040 A 
ATOM     79  F   UNL A   1      45.155  31.680  33.007  1.00  0.00    -0.206 F 
ATOM     80  C   UNL A   1      46.003  34.989  31.805  1.00  0.00     0.006 A 
ENDBRANCH  56  73
ENDBRANCH  30  31
ENDBRANCH  23  25
ENDBRANCH  22  23
ENDBRANCH  21  22
ENDBRANCH  20  21
ENDBRANCH  19  20
ENDBRANCH  18  19
ENDBRANCH   1  18
TORSDOF 21
ENDMDL
MODEL 3
REMARK VINA RESULT:      -8.0      5.267     10.192
REMARK SMILES O=C(COCC[NH+]1CCCC1)OCCOCCOCCOC(=O)c1ccc(-c2c3nc(c(-c4c(F)cccc4F)c4ccc([nH]4)c(-c4c(F)cccc4F)c4nc(c(-c5c(F)cccc5F)c5ccc2[nH]5)C=C4)C=C3)cc1
REMARK SMILES IDX 16 1 15 2 14 3 13 4 12 5 2 6 1 7 3 8 4 9 5 10 6 11 7 12 8 13
REMARK SMILES IDX 11 14 9 16 10 17 17 18 18 19 19 20 20 21 21 22 22 23 23 24
REMARK SMILES IDX 24 25 25 26 77 27 26 28 76 29 27 30 28 31 29 32 70 33 30 34
REMARK SMILES IDX 75 35 69 36 71 37 31 38 74 39 68 40 67 41 32 43 58 44 41 45
REMARK SMILES IDX 57 46 42 47 45 48 56 49 72 50 43 51 44 52 55 54 73 55 46 56
REMARK SMILES IDX 33 57 34 58 39 59 35 60 36 61 38 62 40 63 37 64 59 65 60 66
REMARK SMILES IDX 65 67 61 68 62 69 64 70 66 71 63 72 47 73 48 74 53 75 49 76
REMARK SMILES IDX 50 77 52 78 54 79 51 80
REMARK H PARENT 7 15 71 42 45 53
REMARK Flexibility Score: inf
ROOT
ATOM      1  C   UNL A   1      36.152  23.691  24.927  1.00  0.00     0.188 C 
ENDROOT
BRANCH   1   2
ATOM      2  O   UNL A   1      34.937  24.230  24.442  1.00  0.00    -0.376 OA
BRANCH   2   3
ATOM      3  C   UNL A   1      34.075  25.001  25.266  1.00  0.00     0.202 C 
BRANCH   3   4
ATOM      4  C   UNL A   1      32.563  24.802  25.230  1.00  0.00     0.261 C 
BRANCH   4   5
ATOM      5  O   UNL A   1      32.004  24.443  26.496  1.00  0.00    -0.462 OA
BRANCH   5   6
ATOM      6  C   UNL A   1      31.255  23.310  26.573  1.00  0.00     0.332 C 
ATOM      7  O   UNL A   1      30.763  22.956  27.641  1.00  0.00    -0.250 OA
BRANCH   6   8
ATOM      8  C   UNL A   1      31.252  22.421  25.322  1.00  0.00     0.282 C 
BRANCH   8   9
ATOM      9  O   UNL A   1      31.849  21.148  25.449  1.00  0.00    -0.364 OA
BRANCH   9  10
ATOM     10  C   UNL A   1      33.267  21.182  25.273  1.00  0.00     0.222 C 
BRANCH  10  11
ATOM     11  C   UNL A   1      33.861  19.784  24.951  1.00  0.00     0.291 C 
BRANCH  11  12
ATOM     12  N   UNL A   1      32.984  18.655  24.612  1.00  0.00    -0.333 N 
ATOM     13  C   UNL A   1      32.593  17.760  25.696  1.00  0.00     0.262 C 
ATOM     14  C   UNL A   1      33.368  17.842  23.459  1.00  0.00     0.262 C 
ATOM     15  H   UNL A   1      32.166  19.208  24.356  1.00  0.00     0.348 HD
ATOM     16  C   UNL A   1      33.403  16.498  25.464  1.00  0.00     0.067 C 
ATOM     17  C   UNL A   1      33.483  16.403  23.952  1.00  0.00     0.067 C 
ENDBRANCH  11  12
ENDBRANCH  10  11
ENDBRANCH   9  10
ENDBRANCH   8   9
ENDBRANCH   6   8
ENDBRANCH   5   6
ENDBRANCH   4   5
ENDBRANCH   3   4
ENDBRANCH   2   3
ENDBRANCH   1   2
BRANCH   1  18
ATOM     18  C   UNL A   1      36.852  22.468  24.311  1.00  0.00     0.188 C 
BRANCH  18  19
ATOM     19  O   UNL A   1      37.685  21.635  25.087  1.00  0.00    -0.376 OA
BRANCH  19  20
ATOM     20  C   UNL A   1      37.765  20.250  24.797  1.00  0.00     0.202 C 
BRANCH  20  21
ATOM     21  C   UNL A   1      38.936  19.409  25.302  1.00  0.00     0.261 C 
BRANCH  21  22
ATOM     22  O   UNL A   1      39.795  20.107  26.219  1.00  0.00    -0.460 OA
BRANCH  22  23
ATOM     23  C   UNL A   1      41.094  19.750  26.144  1.00  0.00     0.338 C 
ATOM     24  O   UNL A   1      41.544  18.682  25.741  1.00  0.00    -0.246 OA
BRANCH  23  25
ATOM     25  C   UNL A   1      41.987  20.861  26.508  1.00  0.00     0.060 A 
ATOM     26  C   UNL A   1      42.123  21.155  27.870  1.00  0.00     0.016 A 
ATOM     27  C   UNL A   1      42.523  21.713  25.539  1.00  0.00     0.016 A 
ATOM     28  C   UNL A   1      42.708  22.354  28.270  1.00  0.00     0.010 A 
ATOM     29  C   UNL A   1      43.107  22.922  25.942  1.00  0.00     0.010 A 
ATOM     30  C   UNL A   1      43.140  23.274  27.304  1.00  0.00    -0.014 A 
BRANCH  30  31
ATOM     31  C   UNL A   1      43.392  24.680  27.717  1.00  0.00     0.031 A 
ATOM     32  C   UNL A   1      44.813  25.188  27.715  1.00  0.00     0.074 A 
ATOM     33  C   UNL A   1      42.387  25.515  28.028  1.00  0.00     0.049 A 
ATOM     34  N   UNL A   1      45.271  26.380  28.005  1.00  0.00    -0.248 NA
ATOM     35  C   UNL A   1      45.854  24.222  27.330  1.00  0.00     0.031 C 
ATOM     36  C   UNL A   1      40.968  25.171  28.031  1.00  0.00     0.029 A 
ATOM     37  N   UNL A   1      42.417  26.836  28.401  1.00  0.00    -0.354 N 
ATOM     38  C   UNL A   1      46.650  26.305  27.844  1.00  0.00     0.074 A 
ATOM     39  C   UNL A   1      46.957  24.944  27.460  1.00  0.00     0.031 C 
ATOM     40  C   UNL A   1      40.259  26.256  28.388  1.00  0.00     0.029 A 
ATOM     41  C   UNL A   1      41.177  27.363  28.661  1.00  0.00     0.049 A 
ATOM     42  H   UNL A   1      43.249  27.357  28.474  1.00  0.00     0.167 HD
ATOM     43  C   UNL A   1      47.578  27.280  27.988  1.00  0.00     0.037 A 
ATOM     44  C   UNL A   1      40.825  28.594  29.078  1.00  0.00     0.037 A 
ATOM     45  C   UNL A   1      47.285  28.637  28.361  1.00  0.00     0.049 A 
ATOM     46  C   UNL A   1      41.883  29.645  29.294  1.00  0.00     0.074 A 
ATOM     47  C   UNL A   1      48.161  29.700  28.508  1.00  0.00     0.029 A 
ATOM     48  N   UNL A   1      46.020  29.119  28.652  1.00  0.00    -0.354 N 
ATOM     49  N   UNL A   1      43.178  29.571  29.104  1.00  0.00    -0.248 NA
ATOM     50  C   UNL A   1      41.424  30.956  29.779  1.00  0.00     0.031 C 
ATOM     51  C   UNL A   1      47.429  30.814  28.932  1.00  0.00     0.029 A 
ATOM     52  C   UNL A   1      46.092  30.458  29.001  1.00  0.00     0.049 A 
ATOM     53  H   UNL A   1      45.191  28.589  28.616  1.00  0.00     0.167 HD
ATOM     54  C   UNL A   1      43.680  30.833  29.405  1.00  0.00     0.074 A 
ATOM     55  C   UNL A   1      42.551  31.655  29.787  1.00  0.00     0.031 C 
ATOM     56  C   UNL A   1      44.962  31.273  29.362  1.00  0.00     0.037 A 
BRANCH  43  57
ATOM     57  C   UNL A   1      49.012  26.900  27.763  1.00  0.00     0.057 A 
ATOM     58  C   UNL A   1      49.780  26.284  28.760  1.00  0.00     0.134 A 
ATOM     59  C   UNL A   1      49.624  27.135  26.526  1.00  0.00     0.134 A 
ATOM     60  F   UNL A   1      49.257  26.047  29.972  1.00  0.00    -0.206 F 
ATOM     61  C   UNL A   1      51.114  25.937  28.541  1.00  0.00     0.040 A 
ATOM     62  C   UNL A   1      50.950  26.770  26.287  1.00  0.00     0.040 A 
ATOM     63  F   UNL A   1      48.942  27.718  25.529  1.00  0.00    -0.206 F 
ATOM     64  C   UNL A   1      51.700  26.174  27.299  1.00  0.00     0.006 A 
ENDBRANCH  43  57
BRANCH  44  65
ATOM     65  C   UNL A   1      39.397  28.919  29.321  1.00  0.00     0.057 A 
ATOM     66  C   UNL A   1      38.806  28.694  30.568  1.00  0.00     0.134 A 
ATOM     67  C   UNL A   1      38.582  29.420  28.299  1.00  0.00     0.134 A 
ATOM     68  F   UNL A   1      39.530  28.188  31.577  1.00  0.00    -0.206 F 
ATOM     69  C   UNL A   1      37.448  28.933  30.788  1.00  0.00     0.040 A 
ATOM     70  C   UNL A   1      37.228  29.687  28.510  1.00  0.00     0.040 A 
ATOM     71  F   UNL A   1      39.090  29.654  27.080  1.00  0.00    -0.206 F 
ATOM     72  C   UNL A   1      36.656  29.435  29.756  1.00  0.00     0.006 A 
ENDBRANCH  44  65
BRANCH  56  73
ATOM     73  C   UNL A   1      45.210  32.718  29.684  1.00  0.00     0.057 A 
ATOM     74  C   UNL A   1      45.146  33.721  28.708  1.00  0.00     0.134 A 
ATOM     75  C   UNL A   1      45.482  33.117  31.000  1.00  0.00     0.134 A 
ATOM     76  F   UNL A   1      44.901  33.406  27.427  1.00  0.00    -0.206 F 
ATOM     77  C   UNL A   1      45.370  35.062  29.023  1.00  0.00     0.040 A 
ATOM     78  C   UNL A   1      45.682  34.458  31.333  1.00  0.00     0.040 A 
ATOM     79  F   UNL A   1      45.546  32.210  31.987  1.00  0.00    -0.206 F 
ATOM     80  C   UNL A   1      45.633  35.434  30.341  1.00  0.00     0.006 A 
ENDBRANCH  56  73
ENDBRANCH  30  31
ENDBRANCH  23  25
ENDBRANCH  22  23
ENDBRANCH  21  22
ENDBRANCH  20  21
ENDBRANCH  19  20
ENDBRANCH  18  19
ENDBRANCH   1  18
TORSDOF 21
ENDMDL
