MODEL 1
REMARK VINA RESULT:     -10.2      0.000      0.000
REMARK SMILES CC(C)(C)OC(=O)N1CCC(c2c(C(=O)OCCOCCOCCOC(=O)c3ccc(-c4c5nc(c(-c6c(F)cccc6F)c6ccc([nH]6)c(-c6c(F)cccc6F)c6nc(c(-c7c(F)cccc7F)c7ccc4[nH]7)C=C6)C=C5)cc3)cnn2-c2ccccc2)CC1
REMARK SMILES IDX 20 1 19 2 18 3 17 4 16 5 14 6 15 7 13 8 12 9 84 10 82 11
REMARK SMILES IDX 83 12 11 13 6 14 7 15 8 16 9 17 92 18 10 19 91 20 5 21 2 22
REMARK SMILES IDX 1 23 3 24 4 25 85 26 86 27 90 28 87 29 89 30 88 31 21 32
REMARK SMILES IDX 22 33 23 34 24 35 25 36 26 37 27 38 28 39 29 40 81 41 30 42
REMARK SMILES IDX 80 43 31 44 32 45 33 46 74 47 34 48 79 49 73 50 75 51 35 52
REMARK SMILES IDX 78 53 72 54 71 55 36 57 62 58 45 59 61 60 46 61 49 62 60 63
REMARK SMILES IDX 76 64 47 65 48 66 59 68 77 69 50 70 37 71 38 72 43 73 39 74
REMARK SMILES IDX 40 75 42 76 44 77 41 78 63 79 64 80 69 81 65 82 66 83 68 84
REMARK SMILES IDX 70 85 67 86 51 87 52 88 57 89 53 90 54 91 56 92 58 93 55 94
REMARK H PARENT 75 56 49 67
REMARK Flexibility Score: inf
ROOT
ATOM      1  C   UNL A   1      36.288  33.041  28.636  1.00  0.00     0.188 C 
ENDROOT
BRANCH   1   2
ATOM      2  O   UNL A   1      35.962  31.946  27.809  1.00  0.00    -0.376 OA
BRANCH   2   3
ATOM      3  C   UNL A   1      35.057  31.006  28.361  1.00  0.00     0.202 C 
BRANCH   3   4
ATOM      4  C   UNL A   1      35.062  29.549  27.847  1.00  0.00     0.261 C 
BRANCH   4   5
ATOM      5  O   UNL A   1      33.813  28.934  27.483  1.00  0.00    -0.460 OA
BRANCH   5   6
ATOM      6  C   UNL A   1      33.546  28.653  26.172  1.00  0.00     0.341 C 
ATOM      7  O   UNL A   1      34.120  27.797  25.527  1.00  0.00    -0.246 OA
BRANCH   6   8
ATOM      8  C   UNL A   1      32.417  29.445  25.678  1.00  0.00     0.102 A 
ATOM      9  C   UNL A   1      31.420  29.089  24.748  1.00  0.00     0.062 A 
ATOM     10  N   UNL A   1      30.579  30.201  24.687  1.00  0.00    -0.237 N 
ATOM     11  C   UNL A   1      32.034  30.721  26.139  1.00  0.00     0.151 A 
ATOM     12  N   UNL A   1      30.980  31.208  25.494  1.00  0.00    -0.175 NA
BRANCH   9  13
ATOM     13  C   UNL A   1      31.206  27.732  24.071  1.00  0.00     0.043 C 
ATOM     14  C   UNL A   1      33.189  24.364  22.964  1.00  0.00     0.410 C 
ATOM     15  O   UNL A   1      34.240  24.749  22.465  1.00  0.00    -0.224 OA
ATOM     16  N   UNL A   1      32.066  25.170  23.026  1.00  0.00    -0.308 N 
ATOM     17  C   UNL A   1      32.025  26.326  22.165  1.00  0.00     0.124 C 
ATOM     18  C   UNL A   1      31.058  25.144  24.082  1.00  0.00     0.124 C 
ATOM     19  C   UNL A   1      32.288  27.562  22.994  1.00  0.00     0.032 C 
ATOM     20  C   UNL A   1      31.138  26.442  24.924  1.00  0.00     0.032 C 
BRANCH  14  21
ATOM     21  O   UNL A   1      32.971  23.102  23.413  1.00  0.00    -0.444 OA
BRANCH  21  22
ATOM     22  C   UNL A   1      33.780  22.593  24.515  1.00  0.00     0.106 C 
ATOM     23  C   UNL A   1      33.864  23.750  25.522  1.00  0.00     0.056 C 
ATOM     24  C   UNL A   1      35.192  22.256  24.025  1.00  0.00     0.056 C 
ATOM     25  C   UNL A   1      33.139  21.396  25.245  1.00  0.00     0.056 C 
ENDBRANCH  21  22
ENDBRANCH  14  21
ENDBRANCH   9  13
BRANCH  10  26
ATOM     26  C   UNL A   1      29.534  30.457  23.784  1.00  0.00     0.065 A 
ATOM     27  C   UNL A   1      29.003  31.750  23.749  1.00  0.00     0.028 A 
ATOM     28  C   UNL A   1      29.118  29.472  22.883  1.00  0.00     0.028 A 
ATOM     29  C   UNL A   1      28.119  32.092  22.731  1.00  0.00     0.002 A 
ATOM     30  C   UNL A   1      28.232  29.829  21.864  1.00  0.00     0.002 A 
ATOM     31  C   UNL A   1      27.753  31.140  21.777  1.00  0.00     0.000 A 
ENDBRANCH  10  26
ENDBRANCH   6   8
ENDBRANCH   5   6
ENDBRANCH   4   5
ENDBRANCH   3   4
ENDBRANCH   2   3
ENDBRANCH   1   2
BRANCH   1  32
ATOM     32  C   UNL A   1      36.078  32.772  30.143  1.00  0.00     0.188 C 
BRANCH  32  33
ATOM     33  O   UNL A   1      35.006  33.376  30.858  1.00  0.00    -0.376 OA
BRANCH  33  34
ATOM     34  C   UNL A   1      34.383  32.707  31.941  1.00  0.00     0.202 C 
BRANCH  34  35
ATOM     35  C   UNL A   1      34.056  33.476  33.217  1.00  0.00     0.261 C 
BRANCH  35  36
ATOM     36  O   UNL A   1      35.056  33.440  34.220  1.00  0.00    -0.460 OA
BRANCH  36  37
ATOM     37  C   UNL A   1      36.122  34.233  33.975  1.00  0.00     0.338 C 
ATOM     38  O   UNL A   1      36.116  35.381  33.572  1.00  0.00    -0.246 OA
BRANCH  37  39
ATOM     39  C   UNL A   1      37.337  33.427  34.131  1.00  0.00     0.060 A 
ATOM     40  C   UNL A   1      38.540  34.009  33.722  1.00  0.00     0.016 A 
ATOM     41  C   UNL A   1      37.208  32.047  34.334  1.00  0.00     0.016 A 
ATOM     42  C   UNL A   1      39.538  33.176  33.267  1.00  0.00     0.010 A 
ATOM     43  C   UNL A   1      38.187  31.221  33.847  1.00  0.00     0.010 A 
ATOM     44  C   UNL A   1      39.294  31.800  33.232  1.00  0.00    -0.014 A 
BRANCH  44  45
ATOM     45  C   UNL A   1      40.282  30.937  32.626  1.00  0.00     0.031 A 
ATOM     46  C   UNL A   1      41.269  30.453  33.611  1.00  0.00     0.074 A 
ATOM     47  C   UNL A   1      40.211  30.540  31.342  1.00  0.00     0.049 A 
ATOM     48  N   UNL A   1      42.497  30.828  33.731  1.00  0.00    -0.248 NA
ATOM     49  C   UNL A   1      40.778  29.623  34.723  1.00  0.00     0.031 C 
ATOM     50  C   UNL A   1      39.120  30.747  30.387  1.00  0.00     0.029 A 
ATOM     51  N   UNL A   1      41.085  29.769  30.638  1.00  0.00    -0.354 N 
ATOM     52  C   UNL A   1      42.997  30.082  34.791  1.00  0.00     0.074 A 
ATOM     53  C   UNL A   1      41.856  29.582  35.507  1.00  0.00     0.031 C 
ATOM     54  C   UNL A   1      39.298  29.933  29.319  1.00  0.00     0.029 A 
ATOM     55  C   UNL A   1      40.570  29.244  29.456  1.00  0.00     0.049 A 
ATOM     56  H   UNL A   1      42.006  29.597  30.941  1.00  0.00     0.167 HD
ATOM     57  C   UNL A   1      44.287  29.655  34.773  1.00  0.00     0.037 A 
ATOM     58  C   UNL A   1      41.136  28.262  28.707  1.00  0.00     0.037 A 
ATOM     59  C   UNL A   1      45.071  30.434  33.839  1.00  0.00     0.049 A 
ATOM     60  C   UNL A   1      42.568  28.174  29.096  1.00  0.00     0.074 A 
ATOM     61  C   UNL A   1      45.344  31.780  33.679  1.00  0.00     0.029 A 
ATOM     62  N   UNL A   1      45.396  29.844  32.643  1.00  0.00    -0.354 N 
ATOM     63  N   UNL A   1      43.453  29.086  28.814  1.00  0.00    -0.248 NA
ATOM     64  C   UNL A   1      42.911  27.296  30.205  1.00  0.00     0.031 C 
ATOM     65  C   UNL A   1      45.372  31.991  32.269  1.00  0.00     0.029 A 
ATOM     66  C   UNL A   1      45.186  30.758  31.645  1.00  0.00     0.049 A 
ATOM     67  H   UNL A   1      45.723  28.923  32.523  1.00  0.00     0.167 HD
ATOM     68  C   UNL A   1      44.214  29.202  29.968  1.00  0.00     0.074 A 
ATOM     69  C   UNL A   1      43.892  28.015  30.757  1.00  0.00     0.031 C 
ATOM     70  C   UNL A   1      44.796  30.391  30.304  1.00  0.00     0.037 A 
BRANCH  57  71
ATOM     71  C   UNL A   1      44.709  28.270  35.220  1.00  0.00     0.057 A 
ATOM     72  C   UNL A   1      45.841  28.154  36.045  1.00  0.00     0.134 A 
ATOM     73  C   UNL A   1      44.269  27.055  34.648  1.00  0.00     0.134 A 
ATOM     74  F   UNL A   1      46.361  29.231  36.654  1.00  0.00    -0.206 F 
ATOM     75  C   UNL A   1      46.546  26.954  36.194  1.00  0.00     0.040 A 
ATOM     76  C   UNL A   1      44.933  25.841  34.834  1.00  0.00     0.040 A 
ATOM     77  F   UNL A   1      43.236  26.970  33.805  1.00  0.00    -0.206 F 
ATOM     78  C   UNL A   1      46.100  25.794  35.574  1.00  0.00     0.006 A 
ENDBRANCH  57  71
BRANCH  58  79
ATOM     79  C   UNL A   1      40.488  27.184  27.922  1.00  0.00     0.057 A 
ATOM     80  C   UNL A   1      40.934  26.860  26.630  1.00  0.00     0.134 A 
ATOM     81  C   UNL A   1      39.623  26.254  28.522  1.00  0.00     0.134 A 
ATOM     82  F   UNL A   1      41.794  27.662  25.985  1.00  0.00    -0.206 F 
ATOM     83  C   UNL A   1      40.570  25.667  25.989  1.00  0.00     0.040 A 
ATOM     84  C   UNL A   1      39.247  25.062  27.892  1.00  0.00     0.040 A 
ATOM     85  F   UNL A   1      39.191  26.421  29.780  1.00  0.00    -0.206 F 
ATOM     86  C   UNL A   1      39.734  24.756  26.626  1.00  0.00     0.006 A 
ENDBRANCH  58  79
BRANCH  70  87
ATOM     87  C   UNL A   1      44.841  31.470  29.256  1.00  0.00     0.057 A 
ATOM     88  C   UNL A   1      45.823  31.575  28.259  1.00  0.00     0.134 A 
ATOM     89  C   UNL A   1      43.778  32.377  29.194  1.00  0.00     0.134 A 
ATOM     90  F   UNL A   1      46.825  30.689  28.172  1.00  0.00    -0.206 F 
ATOM     91  C   UNL A   1      45.775  32.573  27.281  1.00  0.00     0.040 A 
ATOM     92  C   UNL A   1      43.699  33.355  28.201  1.00  0.00     0.040 A 
ATOM     93  F   UNL A   1      42.775  32.305  30.082  1.00  0.00    -0.206 F 
ATOM     94  C   UNL A   1      44.708  33.466  27.248  1.00  0.00     0.006 A 
ENDBRANCH  70  87
ENDBRANCH  44  45
ENDBRANCH  37  39
ENDBRANCH  36  37
ENDBRANCH  35  36
ENDBRANCH  34  35
ENDBRANCH  33  34
ENDBRANCH  32  33
ENDBRANCH   1  32
TORSDOF 21
ENDMDL
MODEL 2
REMARK VINA RESULT:      -9.5      3.060      6.607
REMARK SMILES CC(C)(C)OC(=O)N1CCC(c2c(C(=O)OCCOCCOCCOC(=O)c3ccc(-c4c5nc(c(-c6c(F)cccc6F)c6ccc([nH]6)c(-c6c(F)cccc6F)c6nc(c(-c7c(F)cccc7F)c7ccc4[nH]7)C=C6)C=C5)cc3)cnn2-c2ccccc2)CC1
REMARK SMILES IDX 20 1 19 2 18 3 17 4 16 5 14 6 15 7 13 8 12 9 84 10 82 11
REMARK SMILES IDX 83 12 11 13 6 14 7 15 8 16 9 17 92 18 10 19 91 20 5 21 2 22
REMARK SMILES IDX 1 23 3 24 4 25 85 26 86 27 90 28 87 29 89 30 88 31 21 32
REMARK SMILES IDX 22 33 23 34 24 35 25 36 26 37 27 38 28 39 29 40 81 41 30 42
REMARK SMILES IDX 80 43 31 44 32 45 33 46 74 47 34 48 79 49 73 50 75 51 35 52
REMARK SMILES IDX 78 53 72 54 71 55 36 57 62 58 45 59 61 60 46 61 49 62 60 63
REMARK SMILES IDX 76 64 47 65 48 66 59 68 77 69 50 70 37 71 38 72 43 73 39 74
REMARK SMILES IDX 40 75 42 76 44 77 41 78 63 79 64 80 69 81 65 82 66 83 68 84
REMARK SMILES IDX 70 85 67 86 51 87 52 88 57 89 53 90 54 91 56 92 58 93 55 94
REMARK H PARENT 75 56 49 67
REMARK Flexibility Score: inf
ROOT
ATOM      1  C   UNL A   1      36.614  31.723  28.981  1.00  0.00     0.188 C 
ENDROOT
BRANCH   1   2
ATOM      2  O   UNL A   1      36.962  30.357  29.023  1.00  0.00    -0.376 OA
BRANCH   2   3
ATOM      3  C   UNL A   1      36.109  29.481  28.307  1.00  0.00     0.202 C 
BRANCH   3   4
ATOM      4  C   UNL A   1      34.963  30.063  27.451  1.00  0.00     0.261 C 
BRANCH   4   5
ATOM      5  O   UNL A   1      33.707  29.363  27.401  1.00  0.00    -0.460 OA
BRANCH   5   6
ATOM      6  C   UNL A   1      33.259  28.846  26.217  1.00  0.00     0.341 C 
ATOM      7  O   UNL A   1      33.663  27.807  25.730  1.00  0.00    -0.246 OA
BRANCH   6   8
ATOM      8  C   UNL A   1      32.165  29.650  25.665  1.00  0.00     0.102 A 
ATOM      9  C   UNL A   1      31.254  29.329  24.640  1.00  0.00     0.062 A 
ATOM     10  N   UNL A   1      30.407  30.435  24.558  1.00  0.00    -0.237 N 
ATOM     11  C   UNL A   1      31.730  30.900  26.149  1.00  0.00     0.151 A 
ATOM     12  N   UNL A   1      30.728  31.407  25.440  1.00  0.00    -0.175 NA
BRANCH   9  13
ATOM     13  C   UNL A   1      31.114  28.002  23.888  1.00  0.00     0.043 C 
ATOM     14  C   UNL A   1      33.148  24.599  23.001  1.00  0.00     0.410 C 
ATOM     15  O   UNL A   1      34.280  24.961  22.698  1.00  0.00    -0.224 OA
ATOM     16  N   UNL A   1      32.056  25.443  22.906  1.00  0.00    -0.308 N 
ATOM     17  C   UNL A   1      32.196  26.627  22.093  1.00  0.00     0.124 C 
ATOM     18  C   UNL A   1      30.885  25.422  23.779  1.00  0.00     0.124 C 
ATOM     19  C   UNL A   1      32.355  27.826  22.999  1.00  0.00     0.032 C 
ATOM     20  C   UNL A   1      30.865  26.690  24.669  1.00  0.00     0.032 C 
BRANCH  14  21
ATOM     21  O   UNL A   1      32.819  23.332  23.362  1.00  0.00    -0.444 OA
BRANCH  21  22
ATOM     22  C   UNL A   1      33.157  22.867  24.702  1.00  0.00     0.106 C 
ATOM     23  C   UNL A   1      34.224  21.781  24.495  1.00  0.00     0.056 C 
ATOM     24  C   UNL A   1      31.931  22.240  25.372  1.00  0.00     0.056 C 
ATOM     25  C   UNL A   1      33.784  23.960  25.590  1.00  0.00     0.056 C 
ENDBRANCH  21  22
ENDBRANCH  14  21
ENDBRANCH   9  13
BRANCH  10  26
ATOM     26  C   UNL A   1      29.438  30.723  23.583  1.00  0.00     0.065 A 
ATOM     27  C   UNL A   1      29.187  32.067  23.290  1.00  0.00     0.028 A 
ATOM     28  C   UNL A   1      28.829  29.692  22.863  1.00  0.00     0.028 A 
ATOM     29  C   UNL A   1      28.393  32.383  22.192  1.00  0.00     0.002 A 
ATOM     30  C   UNL A   1      28.036  30.022  21.761  1.00  0.00     0.002 A 
ATOM     31  C   UNL A   1      27.839  31.363  21.416  1.00  0.00     0.000 A 
ENDBRANCH  10  26
ENDBRANCH   6   8
ENDBRANCH   5   6
ENDBRANCH   4   5
ENDBRANCH   3   4
ENDBRANCH   2   3
ENDBRANCH   1   2
BRANCH   1  32
ATOM     32  C   UNL A   1      37.782  32.677  29.318  1.00  0.00     0.188 C 
BRANCH  32  33
ATOM     33  O   UNL A   1      38.946  32.210  29.989  1.00  0.00    -0.376 OA
BRANCH  33  34
ATOM     34  C   UNL A   1      39.594  33.007  30.966  1.00  0.00     0.202 C 
BRANCH  34  35
ATOM     35  C   UNL A   1      40.967  32.595  31.487  1.00  0.00     0.261 C 
BRANCH  35  36
ATOM     36  O   UNL A   1      41.828  33.664  31.840  1.00  0.00    -0.460 OA
BRANCH  36  37
ATOM     37  C   UNL A   1      42.525  34.184  30.806  1.00  0.00     0.338 C 
ATOM     38  O   UNL A   1      42.358  35.261  30.264  1.00  0.00    -0.246 OA
BRANCH  37  39
ATOM     39  C   UNL A   1      43.451  33.158  30.316  1.00  0.00     0.060 A 
ATOM     40  C   UNL A   1      43.223  32.660  29.030  1.00  0.00     0.016 A 
ATOM     41  C   UNL A   1      44.265  32.490  31.239  1.00  0.00     0.016 A 
ATOM     42  C   UNL A   1      43.602  31.364  28.763  1.00  0.00     0.010 A 
ATOM     43  C   UNL A   1      44.609  31.188  30.984  1.00  0.00     0.010 A 
ATOM     44  C   UNL A   1      44.187  30.615  29.788  1.00  0.00    -0.014 A 
BRANCH  44  45
ATOM     45  C   UNL A   1      44.457  29.215  29.555  1.00  0.00     0.031 A 
ATOM     46  C   UNL A   1      45.334  29.010  28.387  1.00  0.00     0.074 A 
ATOM     47  C   UNL A   1      44.047  28.246  30.395  1.00  0.00     0.049 A 
ATOM     48  N   UNL A   1      44.996  28.554  27.229  1.00  0.00    -0.248 NA
ATOM     49  C   UNL A   1      46.691  29.580  28.438  1.00  0.00     0.031 C 
ATOM     50  C   UNL A   1      43.421  28.390  31.711  1.00  0.00     0.029 A 
ATOM     51  N   UNL A   1      44.196  26.897  30.278  1.00  0.00    -0.354 N 
ATOM     52  C   UNL A   1      46.170  28.551  26.487  1.00  0.00     0.074 A 
ATOM     53  C   UNL A   1      47.085  29.419  27.175  1.00  0.00     0.031 C 
ATOM     54  C   UNL A   1      43.454  27.199  32.355  1.00  0.00     0.029 A 
ATOM     55  C   UNL A   1      43.987  26.188  31.458  1.00  0.00     0.049 A 
ATOM     56  H   UNL A   1      44.433  26.459  29.429  1.00  0.00     0.167 HD
ATOM     57  C   UNL A   1      46.399  27.564  25.581  1.00  0.00     0.037 A 
ATOM     58  C   UNL A   1      44.307  24.886  31.672  1.00  0.00     0.037 A 
ATOM     59  C   UNL A   1      45.163  26.909  25.214  1.00  0.00     0.049 A 
ATOM     60  C   UNL A   1      44.482  24.245  30.343  1.00  0.00     0.074 A 
ATOM     61  C   UNL A   1      43.952  27.330  24.693  1.00  0.00     0.029 A 
ATOM     62  N   UNL A   1      44.927  25.665  25.744  1.00  0.00    -0.354 N 
ATOM     63  N   UNL A   1      43.503  24.008  29.518  1.00  0.00    -0.248 NA
ATOM     64  C   UNL A   1      45.806  24.298  29.740  1.00  0.00     0.031 C 
ATOM     65  C   UNL A   1      42.967  26.531  25.346  1.00  0.00     0.029 A 
ATOM     66  C   UNL A   1      43.626  25.622  26.172  1.00  0.00     0.049 A 
ATOM     67  H   UNL A   1      45.579  24.930  25.806  1.00  0.00     0.167 HD
ATOM     68  C   UNL A   1      44.009  24.348  28.271  1.00  0.00     0.074 A 
ATOM     69  C   UNL A   1      45.456  24.433  28.458  1.00  0.00     0.031 C 
ATOM     70  C   UNL A   1      43.186  24.820  27.288  1.00  0.00     0.037 A 
BRANCH  57  71
ATOM     71  C   UNL A   1      47.748  26.897  25.404  1.00  0.00     0.057 A 
ATOM     72  C   UNL A   1      48.387  26.378  26.544  1.00  0.00     0.134 A 
ATOM     73  C   UNL A   1      48.575  27.010  24.264  1.00  0.00     0.134 A 
ATOM     74  F   UNL A   1      47.715  26.214  27.693  1.00  0.00    -0.206 F 
ATOM     75  C   UNL A   1      49.760  26.107  26.580  1.00  0.00     0.040 A 
ATOM     76  C   UNL A   1      49.935  26.691  24.274  1.00  0.00     0.040 A 
ATOM     77  F   UNL A   1      48.159  27.520  23.100  1.00  0.00    -0.206 F 
ATOM     78  C   UNL A   1      50.542  26.277  25.445  1.00  0.00     0.006 A 
ENDBRANCH  57  71
BRANCH  58  79
ATOM     79  C   UNL A   1      44.786  24.226  32.911  1.00  0.00     0.057 A 
ATOM     80  C   UNL A   1      44.191  23.043  33.379  1.00  0.00     0.134 A 
ATOM     81  C   UNL A   1      46.018  24.564  33.496  1.00  0.00     0.134 A 
ATOM     82  F   UNL A   1      43.034  22.609  32.856  1.00  0.00    -0.206 F 
ATOM     83  C   UNL A   1      44.800  22.229  34.344  1.00  0.00     0.040 A 
ATOM     84  C   UNL A   1      46.635  23.764  34.465  1.00  0.00     0.040 A 
ATOM     85  F   UNL A   1      46.714  25.631  33.079  1.00  0.00    -0.206 F 
ATOM     86  C   UNL A   1      46.034  22.581  34.880  1.00  0.00     0.006 A 
ENDBRANCH  58  79
BRANCH  70  87
ATOM     87  C   UNL A   1      41.702  24.679  27.490  1.00  0.00     0.057 A 
ATOM     88  C   UNL A   1      40.902  25.590  28.197  1.00  0.00     0.134 A 
ATOM     89  C   UNL A   1      41.041  23.628  26.844  1.00  0.00     0.134 A 
ATOM     90  F   UNL A   1      41.428  26.685  28.764  1.00  0.00    -0.206 F 
ATOM     91  C   UNL A   1      39.517  25.427  28.302  1.00  0.00     0.040 A 
ATOM     92  C   UNL A   1      39.656  23.475  26.910  1.00  0.00     0.040 A 
ATOM     93  F   UNL A   1      41.734  22.748  26.105  1.00  0.00    -0.206 F 
ATOM     94  C   UNL A   1      38.889  24.368  27.653  1.00  0.00     0.006 A 
ENDBRANCH  70  87
ENDBRANCH  44  45
ENDBRANCH  37  39
ENDBRANCH  36  37
ENDBRANCH  35  36
ENDBRANCH  34  35
ENDBRANCH  33  34
ENDBRANCH  32  33
ENDBRANCH   1  32
TORSDOF 21
ENDMDL
MODEL 3
REMARK VINA RESULT:      -9.5      9.219     16.501
REMARK SMILES CC(C)(C)OC(=O)N1CCC(c2c(C(=O)OCCOCCOCCOC(=O)c3ccc(-c4c5nc(c(-c6c(F)cccc6F)c6ccc([nH]6)c(-c6c(F)cccc6F)c6nc(c(-c7c(F)cccc7F)c7ccc4[nH]7)C=C6)C=C5)cc3)cnn2-c2ccccc2)CC1
REMARK SMILES IDX 20 1 19 2 18 3 17 4 16 5 14 6 15 7 13 8 12 9 84 10 82 11
REMARK SMILES IDX 83 12 11 13 6 14 7 15 8 16 9 17 92 18 10 19 91 20 5 21 2 22
REMARK SMILES IDX 1 23 3 24 4 25 85 26 86 27 90 28 87 29 89 30 88 31 21 32
REMARK SMILES IDX 22 33 23 34 24 35 25 36 26 37 27 38 28 39 29 40 81 41 30 42
REMARK SMILES IDX 80 43 31 44 32 45 33 46 74 47 34 48 79 49 73 50 75 51 35 52
REMARK SMILES IDX 78 53 72 54 71 55 36 57 62 58 45 59 61 60 46 61 49 62 60 63
REMARK SMILES IDX 76 64 47 65 48 66 59 68 77 69 50 70 37 71 38 72 43 73 39 74
REMARK SMILES IDX 40 75 42 76 44 77 41 78 63 79 64 80 69 81 65 82 66 83 68 84
REMARK SMILES IDX 70 85 67 86 51 87 52 88 57 89 53 90 54 91 56 92 58 93 55 94
REMARK H PARENT 75 56 49 67
REMARK Flexibility Score: inf
ROOT
ATOM      1  C   UNL A   1      49.142  20.324  38.531  1.00  0.00     0.188 C 
ENDROOT
BRANCH   1   2
ATOM      2  O   UNL A   1      48.855  20.122  39.897  1.00  0.00    -0.376 OA
BRANCH   2   3
ATOM      3  C   UNL A   1      47.604  19.522  40.182  1.00  0.00     0.202 C 
BRANCH   3   4
ATOM      4  C   UNL A   1      47.544  18.024  40.557  1.00  0.00     0.261 C 
BRANCH   4   5
ATOM      5  O   UNL A   1      46.736  17.139  39.759  1.00  0.00    -0.460 OA
BRANCH   5   6
ATOM      6  C   UNL A   1      45.533  17.567  39.270  1.00  0.00     0.341 C 
ATOM      7  O   UNL A   1      45.388  18.571  38.599  1.00  0.00    -0.246 OA
BRANCH   6   8
ATOM      8  C   UNL A   1      44.465  16.610  39.571  1.00  0.00     0.102 A 
ATOM      9  C   UNL A   1      43.900  16.270  40.816  1.00  0.00     0.062 A 
ATOM     10  N   UNL A   1      42.899  15.347  40.511  1.00  0.00    -0.237 N 
ATOM     11  C   UNL A   1      43.696  15.902  38.626  1.00  0.00     0.151 A 
ATOM     12  N   UNL A   1      42.810  15.088  39.188  1.00  0.00    -0.175 NA
BRANCH   9  13
ATOM     13  C   UNL A   1      44.199  16.888  42.185  1.00  0.00     0.043 C 
ATOM     14  C   UNL A   1      47.217  18.504  44.373  1.00  0.00     0.410 C 
ATOM     15  O   UNL A   1      48.184  17.773  44.192  1.00  0.00    -0.224 OA
ATOM     16  N   UNL A   1      45.918  18.060  44.203  1.00  0.00    -0.308 N 
ATOM     17  C   UNL A   1      45.696  16.635  44.180  1.00  0.00     0.124 C 
ATOM     18  C   UNL A   1      44.794  18.872  43.743  1.00  0.00     0.124 C 
ATOM     19  C   UNL A   1      45.451  16.202  42.753  1.00  0.00     0.032 C 
ATOM     20  C   UNL A   1      44.358  18.421  42.326  1.00  0.00     0.032 C 
BRANCH  14  21
ATOM     21  O   UNL A   1      47.294  19.774  44.846  1.00  0.00    -0.444 OA
BRANCH  21  22
ATOM     22  C   UNL A   1      47.717  19.992  46.224  1.00  0.00     0.106 C 
ATOM     23  C   UNL A   1      46.931  21.224  46.698  1.00  0.00     0.056 C 
ATOM     24  C   UNL A   1      49.215  20.307  46.277  1.00  0.00     0.056 C 
ATOM     25  C   UNL A   1      47.355  18.828  47.168  1.00  0.00     0.056 C 
ENDBRANCH  21  22
ENDBRANCH  14  21
ENDBRANCH   9  13
BRANCH  10  26
ATOM     26  C   UNL A   1      42.150  14.549  41.391  1.00  0.00     0.065 A 
ATOM     27  C   UNL A   1      41.844  13.245  40.990  1.00  0.00     0.028 A 
ATOM     28  C   UNL A   1      41.816  15.018  42.665  1.00  0.00     0.028 A 
ATOM     29  C   UNL A   1      41.290  12.364  41.913  1.00  0.00     0.002 A 
ATOM     30  C   UNL A   1      41.262  14.124  43.584  1.00  0.00     0.002 A 
ATOM     31  C   UNL A   1      41.021  12.797  43.214  1.00  0.00     0.000 A 
ENDBRANCH  10  26
ENDBRANCH   6   8
ENDBRANCH   5   6
ENDBRANCH   4   5
ENDBRANCH   3   4
ENDBRANCH   2   3
ENDBRANCH   1   2
BRANCH   1  32
ATOM     32  C   UNL A   1      50.531  20.948  38.269  1.00  0.00     0.188 C 
BRANCH  32  33
ATOM     33  O   UNL A   1      50.727  21.904  37.233  1.00  0.00    -0.376 OA
BRANCH  33  34
ATOM     34  C   UNL A   1      50.910  21.496  35.888  1.00  0.00     0.202 C 
BRANCH  34  35
ATOM     35  C   UNL A   1      49.934  21.968  34.816  1.00  0.00     0.261 C 
BRANCH  35  36
ATOM     36  O   UNL A   1      49.239  23.167  35.114  1.00  0.00    -0.460 OA
BRANCH  36  37
ATOM     37  C   UNL A   1      47.929  22.998  35.398  1.00  0.00     0.338 C 
ATOM     38  O   UNL A   1      47.398  22.026  35.901  1.00  0.00    -0.246 OA
BRANCH  37  39
ATOM     39  C   UNL A   1      47.191  24.142  34.853  1.00  0.00     0.060 A 
ATOM     40  C   UNL A   1      45.854  24.273  35.235  1.00  0.00     0.016 A 
ATOM     41  C   UNL A   1      47.720  24.817  33.746  1.00  0.00     0.016 A 
ATOM     42  C   UNL A   1      44.987  24.878  34.352  1.00  0.00     0.010 A 
ATOM     43  C   UNL A   1      46.851  25.387  32.852  1.00  0.00     0.010 A 
ATOM     44  C   UNL A   1      45.487  25.322  33.125  1.00  0.00    -0.014 A 
BRANCH  44  45
ATOM     45  C   UNL A   1      44.558  25.829  32.141  1.00  0.00     0.031 A 
ATOM     46  C   UNL A   1      44.403  24.905  31.002  1.00  0.00     0.074 A 
ATOM     47  C   UNL A   1      43.840  26.952  32.330  1.00  0.00     0.049 A 
ATOM     48  N   UNL A   1      44.869  25.055  29.808  1.00  0.00    -0.248 NA
ATOM     49  C   UNL A   1      43.859  23.564  31.274  1.00  0.00     0.031 C 
ATOM     50  C   UNL A   1      43.729  27.765  33.543  1.00  0.00     0.029 A 
ATOM     51  N   UNL A   1      42.968  27.560  31.479  1.00  0.00    -0.354 N 
ATOM     52  C   UNL A   1      44.452  23.925  29.116  1.00  0.00     0.074 A 
ATOM     53  C   UNL A   1      44.086  22.955  30.110  1.00  0.00     0.031 C 
ATOM     54  C   UNL A   1      42.679  28.613  33.420  1.00  0.00     0.029 A 
ATOM     55  C   UNL A   1      42.126  28.491  32.082  1.00  0.00     0.049 A 
ATOM     56  H   UNL A   1      42.934  27.357  30.516  1.00  0.00     0.167 HD
ATOM     57  C   UNL A   1      44.113  24.019  27.804  1.00  0.00     0.037 A 
ATOM     58  C   UNL A   1      41.020  29.046  31.521  1.00  0.00     0.037 A 
ATOM     59  C   UNL A   1      44.670  25.216  27.214  1.00  0.00     0.049 A 
ATOM     60  C   UNL A   1      41.121  28.853  30.051  1.00  0.00     0.074 A 
ATOM     61  C   UNL A   1      45.944  25.741  27.090  1.00  0.00     0.029 A 
ATOM     62  N   UNL A   1      43.813  26.263  26.983  1.00  0.00    -0.354 N 
ATOM     63  N   UNL A   1      41.981  29.474  29.296  1.00  0.00    -0.248 NA
ATOM     64  C   UNL A   1      40.580  27.621  29.495  1.00  0.00     0.031 C 
ATOM     65  C   UNL A   1      45.787  27.149  27.253  1.00  0.00     0.029 A 
ATOM     66  C   UNL A   1      44.426  27.417  27.397  1.00  0.00     0.049 A 
ATOM     67  H   UNL A   1      42.914  26.197  26.588  1.00  0.00     0.167 HD
ATOM     68  C   UNL A   1      42.436  28.503  28.415  1.00  0.00     0.074 A 
ATOM     69  C   UNL A   1      41.474  27.408  28.526  1.00  0.00     0.031 C 
ATOM     70  C   UNL A   1      43.703  28.557  27.910  1.00  0.00     0.037 A 
BRANCH  57  71
ATOM     71  C   UNL A   1      42.917  23.307  27.203  1.00  0.00     0.057 A 
ATOM     72  C   UNL A   1      41.665  23.476  27.820  1.00  0.00     0.134 A 
ATOM     73  C   UNL A   1      42.977  22.247  26.271  1.00  0.00     0.134 A 
ATOM     74  F   UNL A   1      41.469  24.449  28.722  1.00  0.00    -0.206 F 
ATOM     75  C   UNL A   1      40.599  22.592  27.616  1.00  0.00     0.040 A 
ATOM     76  C   UNL A   1      41.903  21.392  26.019  1.00  0.00     0.040 A 
ATOM     77  F   UNL A   1      44.091  21.905  25.616  1.00  0.00    -0.206 F 
ATOM     78  C   UNL A   1      40.721  21.536  26.723  1.00  0.00     0.006 A 
ENDBRANCH  57  71
BRANCH  58  79
ATOM     79  C   UNL A   1      39.740  29.442  32.156  1.00  0.00     0.057 A 
ATOM     80  C   UNL A   1      39.400  30.794  32.321  1.00  0.00     0.134 A 
ATOM     81  C   UNL A   1      38.695  28.521  32.342  1.00  0.00     0.134 A 
ATOM     82  F   UNL A   1      40.315  31.756  32.126  1.00  0.00    -0.206 F 
ATOM     83  C   UNL A   1      38.094  31.208  32.618  1.00  0.00     0.040 A 
ATOM     84  C   UNL A   1      37.388  28.919  32.645  1.00  0.00     0.040 A 
ATOM     85  F   UNL A   1      38.883  27.209  32.141  1.00  0.00    -0.206 F 
ATOM     86  C   UNL A   1      37.079  30.269  32.767  1.00  0.00     0.006 A 
ENDBRANCH  58  79
BRANCH  70  87
ATOM     87  C   UNL A   1      44.477  29.834  28.094  1.00  0.00     0.057 A 
ATOM     88  C   UNL A   1      45.453  30.042  29.081  1.00  0.00     0.134 A 
ATOM     89  C   UNL A   1      44.299  30.857  27.156  1.00  0.00     0.134 A 
ATOM     90  F   UNL A   1      45.769  29.082  29.961  1.00  0.00    -0.206 F 
ATOM     91  C   UNL A   1      46.174  31.238  29.162  1.00  0.00     0.040 A 
ATOM     92  C   UNL A   1      45.038  32.040  27.205  1.00  0.00     0.040 A 
ATOM     93  F   UNL A   1      43.421  30.708  26.152  1.00  0.00    -0.206 F 
ATOM     94  C   UNL A   1      45.970  32.240  28.219  1.00  0.00     0.006 A 
ENDBRANCH  70  87
ENDBRANCH  44  45
ENDBRANCH  37  39
ENDBRANCH  36  37
ENDBRANCH  35  36
ENDBRANCH  34  35
ENDBRANCH  33  34
ENDBRANCH  32  33
ENDBRANCH   1  32
TORSDOF 21
ENDMDL
