MODEL 1
REMARK VINA RESULT:     -10.4      0.000      0.000
REMARK SMILES C[C@](NC(=O)c1ccc(Br)o1)(C(=O)OCCOCCOCCOC(=O)c1ccc(-c2c3nc(c(-c4c(F)cccc4F)c4ccc([nH]4)c(-c4c(F)cccc4F)c4nc(c(-c5c(F)cccc5F)c5ccc2[nH]5)C=C4)C=C3)cc1)C(F)(F)F
REMARK SMILES IDX 18 1 17 2 16 3 15 4 14 5 12 6 13 7 2 8 1 9 80 10 81 11 82 12
REMARK SMILES IDX 83 13 3 14 4 15 5 17 6 18 7 19 11 20 8 21 9 22 10 23 19 24
REMARK SMILES IDX 20 25 21 26 22 27 23 28 24 29 25 30 26 31 27 32 79 33 28 34
REMARK SMILES IDX 78 35 29 36 30 37 31 38 72 39 32 40 77 41 71 42 73 43 33 44
REMARK SMILES IDX 76 45 70 46 69 47 34 49 60 50 43 51 59 52 44 53 47 54 58 55
REMARK SMILES IDX 74 56 45 57 46 58 57 60 75 61 48 62 35 63 36 64 41 65 37 66
REMARK SMILES IDX 38 67 40 68 42 69 39 70 61 71 62 72 67 73 63 74 64 75 66 76
REMARK SMILES IDX 68 77 65 78 49 79 50 80 55 81 51 82 52 83 54 84 56 85 53 86
REMARK H PARENT 3 16 73 48 47 59
REMARK Flexibility Score: inf
ROOT
ATOM      1  C   UNL A   1      34.335  31.307  27.829  1.00  0.00     0.188 C 
ENDROOT
BRANCH   1   2
ATOM      2  O   UNL A   1      33.410  30.365  27.312  1.00  0.00    -0.376 OA
BRANCH   2   3
ATOM      3  C   UNL A   1      32.249  30.837  26.637  1.00  0.00     0.202 C 
BRANCH   3   4
ATOM      4  C   UNL A   1      31.608  30.049  25.471  1.00  0.00     0.261 C 
BRANCH   4   5
ATOM      5  O   UNL A   1      31.599  28.610  25.595  1.00  0.00    -0.461 OA
BRANCH   5   6
ATOM      6  C   UNL A   1      31.147  27.920  24.511  1.00  0.00     0.341 C 
ATOM      7  O   UNL A   1      30.233  28.321  23.798  1.00  0.00    -0.249 OA
BRANCH   6   8
ATOM      8  C   UNL A   1      31.942  26.626  24.215  1.00  0.00     0.231 C 
ATOM      9  C   UNL A   1      33.202  26.703  25.078  1.00  0.00     0.058 C 
BRANCH   8  10
ATOM     10  C   UNL A   1      30.971  25.524  24.697  1.00  0.00     0.422 C 
ATOM     11  F   UNL A   1      31.643  24.532  25.339  1.00  0.00    -0.168 F 
ATOM     12  F   UNL A   1      30.059  26.009  25.571  1.00  0.00    -0.168 F 
ATOM     13  F   UNL A   1      30.261  24.931  23.716  1.00  0.00    -0.168 F 
ENDBRANCH   8  10
BRANCH   8  14
ATOM     14  N   UNL A   1      32.365  26.523  22.778  1.00  0.00    -0.326 N 
ATOM     15  C   UNL A   1      33.034  25.535  22.087  1.00  0.00     0.288 C 
ATOM     16  H   UNL A   1      32.121  27.304  22.230  1.00  0.00     0.165 HD
ATOM     17  O   UNL A   1      33.197  25.701  20.879  1.00  0.00    -0.266 OA
BRANCH  15  18
ATOM     18  C   UNL A   1      33.449  24.335  22.766  1.00  0.00     0.192 A 
ATOM     19  C   UNL A   1      34.576  24.053  23.518  1.00  0.00     0.057 A 
ATOM     20  O   UNL A   1      32.623  23.247  22.753  1.00  0.00    -0.444 OA
ATOM     21  C   UNL A   1      34.453  22.707  23.944  1.00  0.00     0.059 A 
ATOM     22  C   UNL A   1      33.234  22.271  23.478  1.00  0.00     0.170 A 
ATOM     23  Br  UNL A   1      32.517  20.574  23.776  1.00  0.00    -0.008 Br
ENDBRANCH  15  18
ENDBRANCH   8  14
ENDBRANCH   6   8
ENDBRANCH   5   6
ENDBRANCH   4   5
ENDBRANCH   3   4
ENDBRANCH   2   3
ENDBRANCH   1   2
BRANCH   1  24
ATOM     24  C   UNL A   1      33.805  32.650  28.361  1.00  0.00     0.188 C 
BRANCH  24  25
ATOM     25  O   UNL A   1      34.778  33.467  28.965  1.00  0.00    -0.376 OA
BRANCH  25  26
ATOM     26  C   UNL A   1      34.396  34.255  30.084  1.00  0.00     0.202 C 
BRANCH  26  27
ATOM     27  C   UNL A   1      34.340  33.734  31.540  1.00  0.00     0.261 C 
BRANCH  27  28
ATOM     28  O   UNL A   1      34.745  32.382  31.798  1.00  0.00    -0.460 OA
BRANCH  28  29
ATOM     29  C   UNL A   1      35.804  32.207  32.618  1.00  0.00     0.338 C 
ATOM     30  O   UNL A   1      35.890  32.536  33.795  1.00  0.00    -0.246 OA
BRANCH  29  31
ATOM     31  C   UNL A   1      36.785  31.339  31.934  1.00  0.00     0.060 A 
ATOM     32  C   UNL A   1      37.839  30.786  32.678  1.00  0.00     0.016 A 
ATOM     33  C   UNL A   1      36.683  31.094  30.564  1.00  0.00     0.016 A 
ATOM     34  C   UNL A   1      38.819  30.020  32.046  1.00  0.00     0.010 A 
ATOM     35  C   UNL A   1      37.682  30.351  29.926  1.00  0.00     0.010 A 
ATOM     36  C   UNL A   1      38.776  29.849  30.657  1.00  0.00    -0.014 A 
BRANCH  36  37
ATOM     37  C   UNL A   1      39.992  29.387  29.946  1.00  0.00     0.031 A 
ATOM     38  C   UNL A   1      41.117  30.371  29.763  1.00  0.00     0.074 A 
ATOM     39  C   UNL A   1      40.122  28.126  29.498  1.00  0.00     0.049 A 
ATOM     40  N   UNL A   1      42.263  30.228  29.149  1.00  0.00    -0.248 NA
ATOM     41  C   UNL A   1      40.914  31.703  30.356  1.00  0.00     0.031 C 
ATOM     42  C   UNL A   1      39.136  27.062  29.659  1.00  0.00     0.029 A 
ATOM     43  N   UNL A   1      41.152  27.535  28.807  1.00  0.00    -0.354 N 
ATOM     44  C   UNL A   1      42.908  31.453  29.266  1.00  0.00     0.074 A 
ATOM     45  C   UNL A   1      42.014  32.336  29.984  1.00  0.00     0.031 C 
ATOM     46  C   UNL A   1      39.605  25.944  29.073  1.00  0.00     0.029 A 
ATOM     47  C   UNL A   1      40.908  26.227  28.472  1.00  0.00     0.049 A 
ATOM     48  H   UNL A   1      41.984  28.005  28.574  1.00  0.00     0.167 HD
ATOM     49  C   UNL A   1      44.135  31.812  28.824  1.00  0.00     0.037 A 
ATOM     50  C   UNL A   1      41.649  25.364  27.748  1.00  0.00     0.037 A 
ATOM     51  C   UNL A   1      45.023  30.935  28.106  1.00  0.00     0.049 A 
ATOM     52  C   UNL A   1      42.980  25.809  27.194  1.00  0.00     0.074 A 
ATOM     53  C   UNL A   1      46.294  31.199  27.627  1.00  0.00     0.029 A 
ATOM     54  N   UNL A   1      44.723  29.628  27.752  1.00  0.00    -0.354 N 
ATOM     55  N   UNL A   1      43.592  26.961  27.328  1.00  0.00    -0.248 NA
ATOM     56  C   UNL A   1      43.724  24.826  26.393  1.00  0.00     0.031 C 
ATOM     57  C   UNL A   1      46.739  30.070  26.931  1.00  0.00     0.029 A 
ATOM     58  C   UNL A   1      45.775  29.080  27.037  1.00  0.00     0.049 A 
ATOM     59  H   UNL A   1      43.887  29.160  27.975  1.00  0.00     0.167 HD
ATOM     60  C   UNL A   1      44.810  26.827  26.668  1.00  0.00     0.074 A 
ATOM     61  C   UNL A   1      44.849  25.480  26.137  1.00  0.00     0.031 C 
ATOM     62  C   UNL A   1      45.810  27.732  26.526  1.00  0.00     0.037 A 
BRANCH  49  63
ATOM     63  C   UNL A   1      44.562  33.232  29.065  1.00  0.00     0.057 A 
ATOM     64  C   UNL A   1      44.292  34.260  28.151  1.00  0.00     0.134 A 
ATOM     65  C   UNL A   1      45.265  33.572  30.227  1.00  0.00     0.134 A 
ATOM     66  F   UNL A   1      43.639  34.000  27.008  1.00  0.00    -0.206 F 
ATOM     67  C   UNL A   1      44.738  35.565  28.366  1.00  0.00     0.040 A 
ATOM     68  C   UNL A   1      45.688  34.880  30.470  1.00  0.00     0.040 A 
ATOM     69  F   UNL A   1      45.556  32.639  31.146  1.00  0.00    -0.206 F 
ATOM     70  C   UNL A   1      45.435  35.879  29.531  1.00  0.00     0.006 A 
ENDBRANCH  49  63
BRANCH  50  71
ATOM     71  C   UNL A   1      41.160  23.982  27.505  1.00  0.00     0.057 A 
ATOM     72  C   UNL A   1      40.152  23.728  26.568  1.00  0.00     0.134 A 
ATOM     73  C   UNL A   1      41.667  22.891  28.219  1.00  0.00     0.134 A 
ATOM     74  F   UNL A   1      39.608  24.735  25.871  1.00  0.00    -0.206 F 
ATOM     75  C   UNL A   1      39.655  22.440  26.359  1.00  0.00     0.040 A 
ATOM     76  C   UNL A   1      41.198  21.594  28.002  1.00  0.00     0.040 A 
ATOM     77  F   UNL A   1      42.631  23.069  29.134  1.00  0.00    -0.206 F 
ATOM     78  C   UNL A   1      40.183  21.367  27.075  1.00  0.00     0.006 A 
ENDBRANCH  50  71
BRANCH  62  79
ATOM     79  C   UNL A   1      47.062  27.281  25.825  1.00  0.00     0.057 A 
ATOM     80  C   UNL A   1      47.282  27.504  24.460  1.00  0.00     0.134 A 
ATOM     81  C   UNL A   1      48.081  26.639  26.544  1.00  0.00     0.134 A 
ATOM     82  F   UNL A   1      46.346  28.105  23.709  1.00  0.00    -0.206 F 
ATOM     83  C   UNL A   1      48.454  27.079  23.829  1.00  0.00     0.040 A 
ATOM     84  C   UNL A   1      49.269  26.238  25.932  1.00  0.00     0.040 A 
ATOM     85  F   UNL A   1      47.943  26.404  27.858  1.00  0.00    -0.206 F 
ATOM     86  C   UNL A   1      49.454  26.450  24.568  1.00  0.00     0.006 A 
ENDBRANCH  62  79
ENDBRANCH  36  37
ENDBRANCH  29  31
ENDBRANCH  28  29
ENDBRANCH  27  28
ENDBRANCH  26  27
ENDBRANCH  25  26
ENDBRANCH  24  25
ENDBRANCH   1  24
TORSDOF 20
ENDMDL
MODEL 2
REMARK VINA RESULT:     -10.0      4.649      9.736
REMARK SMILES C[C@](NC(=O)c1ccc(Br)o1)(C(=O)OCCOCCOCCOC(=O)c1ccc(-c2c3nc(c(-c4c(F)cccc4F)c4ccc([nH]4)c(-c4c(F)cccc4F)c4nc(c(-c5c(F)cccc5F)c5ccc2[nH]5)C=C4)C=C3)cc1)C(F)(F)F
REMARK SMILES IDX 18 1 17 2 16 3 15 4 14 5 12 6 13 7 2 8 1 9 80 10 81 11 82 12
REMARK SMILES IDX 83 13 3 14 4 15 5 17 6 18 7 19 11 20 8 21 9 22 10 23 19 24
REMARK SMILES IDX 20 25 21 26 22 27 23 28 24 29 25 30 26 31 27 32 79 33 28 34
REMARK SMILES IDX 78 35 29 36 30 37 31 38 72 39 32 40 77 41 71 42 73 43 33 44
REMARK SMILES IDX 76 45 70 46 69 47 34 49 60 50 43 51 59 52 44 53 47 54 58 55
REMARK SMILES IDX 74 56 45 57 46 58 57 60 75 61 48 62 35 63 36 64 41 65 37 66
REMARK SMILES IDX 38 67 40 68 42 69 39 70 61 71 62 72 67 73 63 74 64 75 66 76
REMARK SMILES IDX 68 77 65 78 49 79 50 80 55 81 51 82 52 83 54 84 56 85 53 86
REMARK H PARENT 3 16 73 48 47 59
REMARK Flexibility Score: inf
ROOT
ATOM      1  C   UNL A   1      40.303  21.671  26.482  1.00  0.00     0.188 C 
ENDROOT
BRANCH   1   2
ATOM      2  O   UNL A   1      38.959  21.942  26.119  1.00  0.00    -0.376 OA
BRANCH   2   3
ATOM      3  C   UNL A   1      38.566  23.290  25.887  1.00  0.00     0.202 C 
BRANCH   3   4
ATOM      4  C   UNL A   1      37.265  23.874  26.486  1.00  0.00     0.261 C 
BRANCH   4   5
ATOM      5  O   UNL A   1      36.185  24.122  25.558  1.00  0.00    -0.461 OA
BRANCH   5   6
ATOM      6  C   UNL A   1      35.069  23.359  25.724  1.00  0.00     0.341 C 
ATOM      7  O   UNL A   1      34.368  23.410  26.729  1.00  0.00    -0.249 OA
BRANCH   6   8
ATOM      8  C   UNL A   1      34.722  22.479  24.499  1.00  0.00     0.231 C 
ATOM      9  C   UNL A   1      35.508  23.069  23.326  1.00  0.00     0.058 C 
BRANCH   8  10
ATOM     10  C   UNL A   1      35.259  21.094  24.923  1.00  0.00     0.422 C 
ATOM     11  F   UNL A   1      35.329  20.993  26.277  1.00  0.00    -0.168 F 
ATOM     12  F   UNL A   1      34.453  20.093  24.497  1.00  0.00    -0.168 F 
ATOM     13  F   UNL A   1      36.489  20.800  24.455  1.00  0.00    -0.168 F 
ENDBRANCH   8  10
BRANCH   8  14
ATOM     14  N   UNL A   1      33.262  22.522  24.151  1.00  0.00    -0.326 N 
ATOM     15  C   UNL A   1      32.394  23.576  23.962  1.00  0.00     0.288 C 
ATOM     16  H   UNL A   1      32.850  21.635  24.037  1.00  0.00     0.165 HD
ATOM     17  O   UNL A   1      31.243  23.307  23.621  1.00  0.00    -0.266 OA
BRANCH  15  18
ATOM     18  C   UNL A   1      32.865  24.931  24.096  1.00  0.00     0.192 A 
ATOM     19  C   UNL A   1      33.486  25.776  23.195  1.00  0.00     0.057 A 
ATOM     20  O   UNL A   1      32.662  25.588  25.276  1.00  0.00    -0.444 OA
ATOM     21  C   UNL A   1      33.719  26.996  23.878  1.00  0.00     0.059 A 
ATOM     22  C   UNL A   1      33.172  26.840  25.131  1.00  0.00     0.170 A 
ATOM     23  Br  UNL A   1      33.146  28.151  26.459  1.00  0.00    -0.008 Br
ENDBRANCH  15  18
ENDBRANCH   8  14
ENDBRANCH   6   8
ENDBRANCH   5   6
ENDBRANCH   4   5
ENDBRANCH   3   4
ENDBRANCH   2   3
ENDBRANCH   1   2
BRANCH   1  24
ATOM     24  C   UNL A   1      40.831  20.232  26.348  1.00  0.00     0.188 C 
BRANCH  24  25
ATOM     25  O   UNL A   1      42.095  20.124  25.743  1.00  0.00    -0.376 OA
BRANCH  25  26
ATOM     26  C   UNL A   1      43.016  21.193  25.908  1.00  0.00     0.202 C 
BRANCH  26  27
ATOM     27  C   UNL A   1      43.682  21.959  24.740  1.00  0.00     0.261 C 
BRANCH  27  28
ATOM     28  O   UNL A   1      43.562  23.388  24.702  1.00  0.00    -0.460 OA
BRANCH  28  29
ATOM     29  C   UNL A   1      44.370  24.092  25.525  1.00  0.00     0.338 C 
ATOM     30  O   UNL A   1      45.595  24.118  25.513  1.00  0.00    -0.246 OA
BRANCH  29  31
ATOM     31  C   UNL A   1      43.536  25.022  26.315  1.00  0.00     0.060 A 
ATOM     32  C   UNL A   1      43.871  26.384  26.337  1.00  0.00     0.016 A 
ATOM     33  C   UNL A   1      42.450  24.549  27.053  1.00  0.00     0.016 A 
ATOM     34  C   UNL A   1      43.145  27.273  27.129  1.00  0.00     0.010 A 
ATOM     35  C   UNL A   1      41.741  25.436  27.870  1.00  0.00     0.010 A 
ATOM     36  C   UNL A   1      42.114  26.791  27.944  1.00  0.00    -0.014 A 
BRANCH  36  37
ATOM     37  C   UNL A   1      41.614  27.637  29.056  1.00  0.00     0.031 A 
ATOM     38  C   UNL A   1      42.338  27.567  30.373  1.00  0.00     0.074 A 
ATOM     39  C   UNL A   1      40.568  28.469  28.905  1.00  0.00     0.049 A 
ATOM     40  N   UNL A   1      42.080  28.173  31.503  1.00  0.00    -0.248 NA
ATOM     41  C   UNL A   1      43.517  26.687  30.418  1.00  0.00     0.031 C 
ATOM     42  C   UNL A   1      39.816  28.674  27.671  1.00  0.00     0.029 A 
ATOM     43  N   UNL A   1      39.961  29.298  29.816  1.00  0.00    -0.354 N 
ATOM     44  C   UNL A   1      43.051  27.736  32.395  1.00  0.00     0.074 A 
ATOM     45  C   UNL A   1      43.885  26.791  31.684  1.00  0.00     0.031 C 
ATOM     46  C   UNL A   1      38.837  29.568  27.903  1.00  0.00     0.029 A 
ATOM     47  C   UNL A   1      38.878  29.971  29.309  1.00  0.00     0.049 A 
ATOM     48  H   UNL A   1      40.271  29.399  30.744  1.00  0.00     0.167 HD
ATOM     49  C   UNL A   1      43.238  28.090  33.688  1.00  0.00     0.037 A 
ATOM     50  C   UNL A   1      38.010  30.804  29.917  1.00  0.00     0.037 A 
ATOM     51  C   UNL A   1      42.406  29.026  34.397  1.00  0.00     0.049 A 
ATOM     52  C   UNL A   1      38.189  31.125  31.381  1.00  0.00     0.074 A 
ATOM     53  C   UNL A   1      42.521  29.464  35.704  1.00  0.00     0.029 A 
ATOM     54  N   UNL A   1      41.295  29.658  33.858  1.00  0.00    -0.354 N 
ATOM     55  N   UNL A   1      39.122  30.724  32.211  1.00  0.00    -0.248 NA
ATOM     56  C   UNL A   1      37.194  32.021  31.987  1.00  0.00     0.031 C 
ATOM     57  C   UNL A   1      41.444  30.315  35.975  1.00  0.00     0.029 A 
ATOM     58  C   UNL A   1      40.699  30.462  34.816  1.00  0.00     0.049 A 
ATOM     59  H   UNL A   1      40.977  29.550  32.933  1.00  0.00     0.167 HD
ATOM     60  C   UNL A   1      38.852  31.354  33.422  1.00  0.00     0.074 A 
ATOM     61  C   UNL A   1      37.670  32.163  33.216  1.00  0.00     0.031 C 
ATOM     62  C   UNL A   1      39.529  31.277  34.595  1.00  0.00     0.037 A 
BRANCH  49  63
ATOM     63  C   UNL A   1      44.362  27.420  34.426  1.00  0.00     0.057 A 
ATOM     64  C   UNL A   1      45.651  27.967  34.483  1.00  0.00     0.134 A 
ATOM     65  C   UNL A   1      44.151  26.201  35.081  1.00  0.00     0.134 A 
ATOM     66  F   UNL A   1      45.927  29.124  33.861  1.00  0.00    -0.206 F 
ATOM     67  C   UNL A   1      46.697  27.308  35.131  1.00  0.00     0.040 A 
ATOM     68  C   UNL A   1      45.180  25.548  35.761  1.00  0.00     0.040 A 
ATOM     69  F   UNL A   1      42.941  25.621  35.070  1.00  0.00    -0.206 F 
ATOM     70  C   UNL A   1      46.461  26.096  35.777  1.00  0.00     0.006 A 
ENDBRANCH  49  63
BRANCH  50  71
ATOM     71  C   UNL A   1      36.892  31.409  29.148  1.00  0.00     0.057 A 
ATOM     72  C   UNL A   1      36.935  32.749  28.746  1.00  0.00     0.134 A 
ATOM     73  C   UNL A   1      35.749  30.672  28.818  1.00  0.00     0.134 A 
ATOM     74  F   UNL A   1      37.992  33.513  29.055  1.00  0.00    -0.206 F 
ATOM     75  C   UNL A   1      35.874  33.341  28.058  1.00  0.00     0.040 A 
ATOM     76  C   UNL A   1      34.691  31.245  28.107  1.00  0.00     0.040 A 
ATOM     77  F   UNL A   1      35.646  29.385  29.177  1.00  0.00    -0.206 F 
ATOM     78  C   UNL A   1      34.750  32.585  27.732  1.00  0.00     0.006 A 
ENDBRANCH  50  71
BRANCH  62  79
ATOM     79  C   UNL A   1      39.053  32.140  35.731  1.00  0.00     0.057 A 
ATOM     80  C   UNL A   1      38.230  31.650  36.753  1.00  0.00     0.134 A 
ATOM     81  C   UNL A   1      39.457  33.480  35.817  1.00  0.00     0.134 A 
ATOM     82  F   UNL A   1      37.798  30.380  36.730  1.00  0.00    -0.206 F 
ATOM     83  C   UNL A   1      37.801  32.469  37.801  1.00  0.00     0.040 A 
ATOM     84  C   UNL A   1      39.061  34.298  36.875  1.00  0.00     0.040 A 
ATOM     85  F   UNL A   1      40.256  34.012  34.879  1.00  0.00    -0.206 F 
ATOM     86  C   UNL A   1      38.223  33.796  37.867  1.00  0.00     0.006 A 
ENDBRANCH  62  79
ENDBRANCH  36  37
ENDBRANCH  29  31
ENDBRANCH  28  29
ENDBRANCH  27  28
ENDBRANCH  26  27
ENDBRANCH  25  26
ENDBRANCH  24  25
ENDBRANCH   1  24
TORSDOF 20
ENDMDL
MODEL 3
REMARK VINA RESULT:      -9.7      1.363      2.154
REMARK SMILES C[C@](NC(=O)c1ccc(Br)o1)(C(=O)OCCOCCOCCOC(=O)c1ccc(-c2c3nc(c(-c4c(F)cccc4F)c4ccc([nH]4)c(-c4c(F)cccc4F)c4nc(c(-c5c(F)cccc5F)c5ccc2[nH]5)C=C4)C=C3)cc1)C(F)(F)F
REMARK SMILES IDX 18 1 17 2 16 3 15 4 14 5 12 6 13 7 2 8 1 9 80 10 81 11 82 12
REMARK SMILES IDX 83 13 3 14 4 15 5 17 6 18 7 19 11 20 8 21 9 22 10 23 19 24
REMARK SMILES IDX 20 25 21 26 22 27 23 28 24 29 25 30 26 31 27 32 79 33 28 34
REMARK SMILES IDX 78 35 29 36 30 37 31 38 72 39 32 40 77 41 71 42 73 43 33 44
REMARK SMILES IDX 76 45 70 46 69 47 34 49 60 50 43 51 59 52 44 53 47 54 58 55
REMARK SMILES IDX 74 56 45 57 46 58 57 60 75 61 48 62 35 63 36 64 41 65 37 66
REMARK SMILES IDX 38 67 40 68 42 69 39 70 61 71 62 72 67 73 63 74 64 75 66 76
REMARK SMILES IDX 68 77 65 78 49 79 50 80 55 81 51 82 52 83 54 84 56 85 53 86
REMARK H PARENT 3 16 73 48 47 59
REMARK Flexibility Score: inf
ROOT
ATOM      1  C   UNL A   1      34.370  30.831  27.478  1.00  0.00     0.188 C 
ENDROOT
BRANCH   1   2
ATOM      2  O   UNL A   1      33.431  29.915  26.940  1.00  0.00    -0.376 OA
BRANCH   2   3
ATOM      3  C   UNL A   1      32.335  30.415  26.182  1.00  0.00     0.202 C 
BRANCH   3   4
ATOM      4  C   UNL A   1      31.384  29.475  25.405  1.00  0.00     0.261 C 
BRANCH   4   5
ATOM      5  O   UNL A   1      31.866  28.136  25.156  1.00  0.00    -0.461 OA
BRANCH   5   6
ATOM      6  C   UNL A   1      31.572  27.209  26.109  1.00  0.00     0.341 C 
ATOM      7  O   UNL A   1      31.172  27.507  27.229  1.00  0.00    -0.249 OA
BRANCH   6   8
ATOM      8  C   UNL A   1      31.714  25.745  25.627  1.00  0.00     0.231 C 
ATOM      9  C   UNL A   1      31.131  25.715  24.213  1.00  0.00     0.058 C 
BRANCH   8  10
ATOM     10  C   UNL A   1      33.246  25.542  25.630  1.00  0.00     0.422 C 
ATOM     11  F   UNL A   1      33.632  24.777  26.685  1.00  0.00    -0.168 F 
ATOM     12  F   UNL A   1      33.669  24.910  24.511  1.00  0.00    -0.168 F 
ATOM     13  F   UNL A   1      33.964  26.682  25.703  1.00  0.00    -0.168 F 
ENDBRANCH   8  10
BRANCH   8  14
ATOM     14  N   UNL A   1      30.937  24.779  26.473  1.00  0.00    -0.326 N 
ATOM     15  C   UNL A   1      30.891  23.401  26.485  1.00  0.00     0.288 C 
ATOM     16  H   UNL A   1      30.355  25.208  27.141  1.00  0.00     0.165 HD
ATOM     17  O   UNL A   1      30.193  22.866  27.345  1.00  0.00    -0.266 OA
BRANCH  15  18
ATOM     18  C   UNL A   1      31.694  22.645  25.560  1.00  0.00     0.192 A 
ATOM     19  C   UNL A   1      31.537  22.389  24.209  1.00  0.00     0.057 A 
ATOM     20  O   UNL A   1      32.859  22.083  26.000  1.00  0.00    -0.444 OA
ATOM     21  C   UNL A   1      32.639  21.587  23.818  1.00  0.00     0.059 A 
ATOM     22  C   UNL A   1      33.429  21.454  24.937  1.00  0.00     0.170 A 
ATOM     23  Br  UNL A   1      35.047  20.528  25.002  1.00  0.00    -0.008 Br
ENDBRANCH  15  18
ENDBRANCH   8  14
ENDBRANCH   6   8
ENDBRANCH   5   6
ENDBRANCH   4   5
ENDBRANCH   3   4
ENDBRANCH   2   3
ENDBRANCH   1   2
BRANCH   1  24
ATOM     24  C   UNL A   1      33.865  32.187  28.001  1.00  0.00     0.188 C 
BRANCH  24  25
ATOM     25  O   UNL A   1      34.860  33.171  28.137  1.00  0.00    -0.376 OA
BRANCH  25  26
ATOM     26  C   UNL A   1      34.758  34.089  29.217  1.00  0.00     0.202 C 
BRANCH  26  27
ATOM     27  C   UNL A   1      34.396  33.692  30.668  1.00  0.00     0.261 C 
BRANCH  27  28
ATOM     28  O   UNL A   1      34.702  32.361  31.109  1.00  0.00    -0.460 OA
BRANCH  28  29
ATOM     29  C   UNL A   1      35.732  32.224  31.972  1.00  0.00     0.338 C 
ATOM     30  O   UNL A   1      35.778  32.608  33.135  1.00  0.00    -0.246 OA
BRANCH  29  31
ATOM     31  C   UNL A   1      36.735  31.326  31.363  1.00  0.00     0.060 A 
ATOM     32  C   UNL A   1      37.671  30.690  32.193  1.00  0.00     0.016 A 
ATOM     33  C   UNL A   1      36.771  31.135  29.981  1.00  0.00     0.016 A 
ATOM     34  C   UNL A   1      38.672  29.892  31.639  1.00  0.00     0.010 A 
ATOM     35  C   UNL A   1      37.793  30.359  29.424  1.00  0.00     0.010 A 
ATOM     36  C   UNL A   1      38.772  29.771  30.248  1.00  0.00    -0.014 A 
BRANCH  36  37
ATOM     37  C   UNL A   1      40.034  29.266  29.653  1.00  0.00     0.031 A 
ATOM     38  C   UNL A   1      41.186  30.225  29.528  1.00  0.00     0.074 A 
ATOM     39  C   UNL A   1      40.176  27.988  29.261  1.00  0.00     0.049 A 
ATOM     40  N   UNL A   1      42.375  30.043  29.014  1.00  0.00    -0.248 NA
ATOM     41  C   UNL A   1      40.961  31.580  30.058  1.00  0.00     0.031 C 
ATOM     42  C   UNL A   1      39.161  26.945  29.378  1.00  0.00     0.029 A 
ATOM     43  N   UNL A   1      41.247  27.357  28.676  1.00  0.00    -0.354 N 
ATOM     44  C   UNL A   1      43.031  31.261  29.141  1.00  0.00     0.074 A 
ATOM     45  C   UNL A   1      42.099  32.182  29.754  1.00  0.00     0.031 C 
ATOM     46  C   UNL A   1      39.655  25.800  28.871  1.00  0.00     0.029 A 
ATOM     47  C   UNL A   1      41.007  26.042  28.367  1.00  0.00     0.049 A 
ATOM     48  H   UNL A   1      42.104  27.806  28.495  1.00  0.00     0.167 HD
ATOM     49  C   UNL A   1      44.296  31.585  28.787  1.00  0.00     0.037 A 
ATOM     50  C   UNL A   1      41.788  25.142  27.735  1.00  0.00     0.037 A 
ATOM     51  C   UNL A   1      45.222  30.670  28.173  1.00  0.00     0.049 A 
ATOM     52  C   UNL A   1      43.167  25.547  27.275  1.00  0.00     0.074 A 
ATOM     53  C   UNL A   1      46.532  30.897  27.790  1.00  0.00     0.029 A 
ATOM     54  N   UNL A   1      44.928  29.356  27.842  1.00  0.00    -0.354 N 
ATOM     55  N   UNL A   1      43.787  26.693  27.419  1.00  0.00    -0.248 NA
ATOM     56  C   UNL A   1      43.954  24.525  26.571  1.00  0.00     0.031 C 
ATOM     57  C   UNL A   1      47.011  29.737  27.171  1.00  0.00     0.029 A 
ATOM     58  C   UNL A   1      46.024  28.767  27.233  1.00  0.00     0.049 A 
ATOM     59  H   UNL A   1      44.068  28.909  28.013  1.00  0.00     0.167 HD
ATOM     60  C   UNL A   1      45.051  26.517  26.865  1.00  0.00     0.074 A 
ATOM     61  C   UNL A   1      45.108  25.152  26.385  1.00  0.00     0.031 C 
ATOM     62  C   UNL A   1      46.076  27.401  26.772  1.00  0.00     0.037 A 
BRANCH  49  63
ATOM     63  C   UNL A   1      44.728  33.007  29.014  1.00  0.00     0.057 A 
ATOM     64  C   UNL A   1      44.538  34.008  28.052  1.00  0.00     0.134 A 
ATOM     65  C   UNL A   1      45.354  33.374  30.211  1.00  0.00     0.134 A 
ATOM     66  F   UNL A   1      43.961  33.721  26.875  1.00  0.00    -0.206 F 
ATOM     67  C   UNL A   1      44.989  35.313  28.257  1.00  0.00     0.040 A 
ATOM     68  C   UNL A   1      45.780  34.683  30.441  1.00  0.00     0.040 A 
ATOM     69  F   UNL A   1      45.566  32.467  31.176  1.00  0.00    -0.206 F 
ATOM     70  C   UNL A   1      45.608  35.654  29.457  1.00  0.00     0.006 A 
ENDBRANCH  49  63
BRANCH  50  71
ATOM     71  C   UNL A   1      41.295  23.760  27.501  1.00  0.00     0.057 A 
ATOM     72  C   UNL A   1      41.796  22.681  28.238  1.00  0.00     0.134 A 
ATOM     73  C   UNL A   1      40.332  23.483  26.524  1.00  0.00     0.134 A 
ATOM     74  F   UNL A   1      42.739  22.880  29.170  1.00  0.00    -0.206 F 
ATOM     75  C   UNL A   1      41.371  21.373  28.001  1.00  0.00     0.040 A 
ATOM     76  C   UNL A   1      39.879  22.182  26.294  1.00  0.00     0.040 A 
ATOM     77  F   UNL A   1      39.814  24.472  25.782  1.00  0.00    -0.206 F 
ATOM     78  C   UNL A   1      40.404  21.122  27.029  1.00  0.00     0.006 A 
ENDBRANCH  50  71
BRANCH  62  79
ATOM     79  C   UNL A   1      47.371  26.907  26.191  1.00  0.00     0.057 A 
ATOM     80  C   UNL A   1      48.360  26.295  26.970  1.00  0.00     0.134 A 
ATOM     81  C   UNL A   1      47.615  27.018  24.814  1.00  0.00     0.134 A 
ATOM     82  F   UNL A   1      48.198  26.163  28.296  1.00  0.00    -0.206 F 
ATOM     83  C   UNL A   1      49.556  25.840  26.409  1.00  0.00     0.040 A 
ATOM     84  C   UNL A   1      48.791  26.539  24.237  1.00  0.00     0.040 A 
ATOM     85  F   UNL A   1      46.705  27.582  24.005  1.00  0.00    -0.206 F 
ATOM     86  C   UNL A   1      49.771  25.956  25.037  1.00  0.00     0.006 A 
ENDBRANCH  62  79
ENDBRANCH  36  37
ENDBRANCH  29  31
ENDBRANCH  28  29
ENDBRANCH  27  28
ENDBRANCH  26  27
ENDBRANCH  25  26
ENDBRANCH  24  25
ENDBRANCH   1  24
TORSDOF 20
ENDMDL
