MODEL 1
REMARK VINA RESULT:     -11.6      0.000      0.000
REMARK SMILES O=C(OCCOCCOCCOC(=O)c1ccc2nc(-c3c[nH]nc3-c3ccc(F)cc3F)[nH]c2c1)c1ccc(-c2c3nc(c(-c4c(F)cccc4F)c4ccc([nH]4)c(-c4c(F)cccc4F)c4nc(c(-c5c(F)cccc5F)c5ccc2[nH]5)C=C4)C=C3)cc1
REMARK SMILES IDX 7 1 6 2 5 3 4 4 3 5 2 6 1 7 37 8 38 9 90 10 39 11 89 12
REMARK SMILES IDX 40 13 41 14 42 15 83 16 43 17 88 18 82 19 84 20 44 21 87 22
REMARK SMILES IDX 81 23 80 24 45 26 71 27 54 28 70 29 55 30 58 31 69 32 85 33
REMARK SMILES IDX 56 34 57 35 68 37 86 38 59 39 46 40 47 41 52 42 48 43 49 44
REMARK SMILES IDX 51 45 53 46 50 47 72 48 73 49 78 50 74 51 75 52 77 53 79 54
REMARK SMILES IDX 76 55 60 56 61 57 66 58 62 59 63 60 65 61 67 62 64 63 8 64
REMARK SMILES IDX 9 65 10 66 11 67 12 68 13 69 14 70 15 71 16 72 36 73 17 74
REMARK SMILES IDX 35 75 18 76 34 77 19 78 20 79 21 81 22 82 25 83 23 84 24 85
REMARK SMILES IDX 26 87 27 88 32 89 28 90 31 91 33 92 29 93 30 94
REMARK H PARENT 84 25 58 36 34 80 23 86
REMARK Flexibility Score: inf
ROOT
ATOM      1  C   UNL A   1      32.657  29.274  27.196  1.00  0.00     0.188 C 
ENDROOT
BRANCH   1   2
ATOM      2  O   UNL A   1      32.765  30.539  26.531  1.00  0.00    -0.376 OA
BRANCH   2   3
ATOM      3  C   UNL A   1      31.566  31.319  26.588  1.00  0.00     0.202 C 
BRANCH   3   4
ATOM      4  C   UNL A   1      31.792  32.836  26.492  1.00  0.00     0.261 C 
BRANCH   4   5
ATOM      5  O   UNL A   1      31.921  33.457  27.785  1.00  0.00    -0.460 OA
BRANCH   5   6
ATOM      6  C   UNL A   1      32.990  34.131  28.280  1.00  0.00     0.338 C 
ATOM      7  O   UNL A   1      32.936  35.354  28.395  1.00  0.00    -0.246 OA
BRANCH   6   8
ATOM      8  C   UNL A   1      34.234  33.452  28.744  1.00  0.00     0.060 A 
ATOM      9  C   UNL A   1      34.288  32.122  29.147  1.00  0.00     0.016 A 
ATOM     10  C   UNL A   1      35.435  34.183  28.712  1.00  0.00     0.016 A 
ATOM     11  C   UNL A   1      35.453  31.574  29.656  1.00  0.00     0.010 A 
ATOM     12  C   UNL A   1      36.638  33.606  29.136  1.00  0.00     0.010 A 
ATOM     13  C   UNL A   1      36.642  32.306  29.652  1.00  0.00    -0.014 A 
BRANCH  13  14
ATOM     14  C   UNL A   1      37.829  31.682  30.276  1.00  0.00     0.031 A 
ATOM     15  C   UNL A   1      38.087  31.901  31.737  1.00  0.00     0.074 A 
ATOM     16  C   UNL A   1      38.543  30.779  29.575  1.00  0.00     0.049 A 
ATOM     17  N   UNL A   1      39.030  31.403  32.490  1.00  0.00    -0.248 NA
ATOM     18  C   UNL A   1      37.146  32.779  32.454  1.00  0.00     0.031 C 
ATOM     19  C   UNL A   1      38.288  30.415  28.181  1.00  0.00     0.029 A 
ATOM     20  N   UNL A   1      39.579  29.964  29.943  1.00  0.00    -0.354 N 
ATOM     21  C   UNL A   1      38.803  31.908  33.762  1.00  0.00     0.074 A 
ATOM     22  C   UNL A   1      37.647  32.772  33.681  1.00  0.00     0.031 C 
ATOM     23  C   UNL A   1      39.105  29.412  27.828  1.00  0.00     0.029 A 
ATOM     24  C   UNL A   1      39.989  29.113  28.944  1.00  0.00     0.049 A 
ATOM     25  H   UNL A   1      39.991  29.984  30.838  1.00  0.00     0.167 HD
ATOM     26  C   UNL A   1      39.496  31.662  34.896  1.00  0.00     0.037 A 
ATOM     27  C   UNL A   1      40.981  28.204  28.927  1.00  0.00     0.037 A 
ATOM     28  C   UNL A   1      40.638  30.791  34.958  1.00  0.00     0.049 A 
ATOM     29  C   UNL A   1      41.800  28.034  30.173  1.00  0.00     0.074 A 
ATOM     30  C   UNL A   1      41.468  30.530  36.032  1.00  0.00     0.029 A 
ATOM     31  N   UNL A   1      41.099  30.027  33.896  1.00  0.00    -0.354 N 
ATOM     32  N   UNL A   1      41.628  28.583  31.352  1.00  0.00    -0.248 NA
ATOM     33  C   UNL A   1      42.959  27.136  30.087  1.00  0.00     0.031 C 
ATOM     34  C   UNL A   1      42.452  29.629  35.610  1.00  0.00     0.029 A 
ATOM     35  C   UNL A   1      42.210  29.302  34.284  1.00  0.00     0.049 A 
ATOM     36  H   UNL A   1      40.694  30.005  32.998  1.00  0.00     0.167 HD
ATOM     37  C   UNL A   1      42.655  28.102  32.149  1.00  0.00     0.074 A 
ATOM     38  C   UNL A   1      43.425  27.187  31.327  1.00  0.00     0.031 C 
ATOM     39  C   UNL A   1      42.947  28.399  33.438  1.00  0.00     0.037 A 
BRANCH  26  40
ATOM     40  C   UNL A   1      39.056  32.374  36.138  1.00  0.00     0.057 A 
ATOM     41  C   UNL A   1      38.176  31.758  37.036  1.00  0.00     0.134 A 
ATOM     42  C   UNL A   1      39.499  33.667  36.445  1.00  0.00     0.134 A 
ATOM     43  F   UNL A   1      37.725  30.517  36.803  1.00  0.00    -0.206 F 
ATOM     44  C   UNL A   1      37.743  32.408  38.193  1.00  0.00     0.040 A 
ATOM     45  C   UNL A   1      39.087  34.319  37.609  1.00  0.00     0.040 A 
ATOM     46  F   UNL A   1      40.367  34.298  35.640  1.00  0.00    -0.206 F 
ATOM     47  C   UNL A   1      38.201  33.691  38.483  1.00  0.00     0.006 A 
ENDBRANCH  26  40
BRANCH  27  48
ATOM     48  C   UNL A   1      41.278  27.433  27.691  1.00  0.00     0.057 A 
ATOM     49  C   UNL A   1      40.788  26.131  27.512  1.00  0.00     0.134 A 
ATOM     50  C   UNL A   1      42.048  27.974  26.655  1.00  0.00     0.134 A 
ATOM     51  F   UNL A   1      40.043  25.552  28.463  1.00  0.00    -0.206 F 
ATOM     52  C   UNL A   1      41.065  25.393  26.360  1.00  0.00     0.040 A 
ATOM     53  C   UNL A   1      42.308  27.257  25.484  1.00  0.00     0.040 A 
ATOM     54  F   UNL A   1      42.532  29.220  26.754  1.00  0.00    -0.206 F 
ATOM     55  C   UNL A   1      41.821  25.959  25.338  1.00  0.00     0.006 A 
ENDBRANCH  27  48
BRANCH  39  56
ATOM     56  C   UNL A   1      44.144  27.722  34.029  1.00  0.00     0.057 A 
ATOM     57  C   UNL A   1      44.023  26.477  34.657  1.00  0.00     0.134 A 
ATOM     58  C   UNL A   1      45.405  28.330  34.017  1.00  0.00     0.134 A 
ATOM     59  F   UNL A   1      42.838  25.851  34.707  1.00  0.00    -0.206 F 
ATOM     60  C   UNL A   1      45.118  25.862  35.262  1.00  0.00     0.040 A 
ATOM     61  C   UNL A   1      46.512  27.713  34.598  1.00  0.00     0.040 A 
ATOM     62  F   UNL A   1      45.582  29.517  33.418  1.00  0.00    -0.206 F 
ATOM     63  C   UNL A   1      46.368  26.479  35.230  1.00  0.00     0.006 A 
ENDBRANCH  39  56
ENDBRANCH  13  14
ENDBRANCH   6   8
ENDBRANCH   5   6
ENDBRANCH   4   5
ENDBRANCH   3   4
ENDBRANCH   2   3
ENDBRANCH   1   2
BRANCH   1  64
ATOM     64  C   UNL A   1      33.701  28.285  26.673  1.00  0.00     0.188 C 
BRANCH  64  65
ATOM     65  O   UNL A   1      33.364  27.653  25.438  1.00  0.00    -0.376 OA
BRANCH  65  66
ATOM     66  C   UNL A   1      33.893  28.234  24.249  1.00  0.00     0.202 C 
BRANCH  66  67
ATOM     67  C   UNL A   1      32.882  28.918  23.326  1.00  0.00     0.261 C 
BRANCH  67  68
ATOM     68  O   UNL A   1      31.503  28.618  23.623  1.00  0.00    -0.460 OA
BRANCH  68  69
ATOM     69  C   UNL A   1      30.835  28.037  22.601  1.00  0.00     0.338 C 
ATOM     70  O   UNL A   1      29.925  28.527  21.941  1.00  0.00    -0.246 OA
BRANCH  69  71
ATOM     71  C   UNL A   1      31.221  26.627  22.412  1.00  0.00     0.062 A 
ATOM     72  C   UNL A   1      32.094  26.385  21.342  1.00  0.00     0.018 A 
ATOM     73  C   UNL A   1      30.886  25.623  23.343  1.00  0.00     0.044 A 
ATOM     74  C   UNL A   1      32.731  25.154  21.207  1.00  0.00     0.031 A 
ATOM     75  C   UNL A   1      31.548  24.393  23.179  1.00  0.00     0.067 A 
ATOM     76  C   UNL A   1      32.489  24.174  22.175  1.00  0.00     0.089 A 
ATOM     77  N   UNL A   1      31.520  23.195  23.863  1.00  0.00    -0.338 N 
ATOM     78  N   UNL A   1      33.103  22.970  22.330  1.00  0.00    -0.228 NA
ATOM     79  C   UNL A   1      32.520  22.398  23.358  1.00  0.00     0.142 A 
ATOM     80  H   UNL A   1      30.894  22.953  24.583  1.00  0.00     0.168 HD
BRANCH  79  81
ATOM     81  C   UNL A   1      32.968  21.087  23.884  1.00  0.00     0.063 A 
ATOM     82  C   UNL A   1      32.291  19.895  23.858  1.00  0.00     0.117 A 
ATOM     83  C   UNL A   1      34.213  20.812  24.522  1.00  0.00     0.106 A 
ATOM     84  N   UNL A   1      33.170  18.974  24.358  1.00  0.00    -0.284 N 
ATOM     85  N   UNL A   1      34.306  19.509  24.832  1.00  0.00    -0.175 NA
ATOM     86  H   UNL A   1      32.985  18.007  24.369  1.00  0.00     0.189 HD
BRANCH  83  87
ATOM     87  C   UNL A   1      35.200  21.781  24.981  1.00  0.00     0.039 A 
ATOM     88  C   UNL A   1      36.467  21.803  24.371  1.00  0.00     0.016 A 
ATOM     89  C   UNL A   1      34.935  22.671  26.025  1.00  0.00     0.135 A 
ATOM     90  C   UNL A   1      37.449  22.689  24.813  1.00  0.00     0.040 A 
ATOM     91  C   UNL A   1      35.913  23.560  26.469  1.00  0.00     0.079 A 
ATOM     92  F   UNL A   1      33.742  22.680  26.639  1.00  0.00    -0.206 F 
ATOM     93  C   UNL A   1      37.163  23.556  25.862  1.00  0.00     0.126 A 
ATOM     94  F   UNL A   1      38.110  24.400  26.291  1.00  0.00    -0.207 F 
ENDBRANCH  83  87
ENDBRANCH  79  81
ENDBRANCH  69  71
ENDBRANCH  68  69
ENDBRANCH  67  68
ENDBRANCH  66  67
ENDBRANCH  65  66
ENDBRANCH  64  65
ENDBRANCH   1  64
TORSDOF 19
ENDMDL
MODEL 2
REMARK VINA RESULT:     -11.0      4.095      7.105
REMARK SMILES O=C(OCCOCCOCCOC(=O)c1ccc2nc(-c3c[nH]nc3-c3ccc(F)cc3F)[nH]c2c1)c1ccc(-c2c3nc(c(-c4c(F)cccc4F)c4ccc([nH]4)c(-c4c(F)cccc4F)c4nc(c(-c5c(F)cccc5F)c5ccc2[nH]5)C=C4)C=C3)cc1
REMARK SMILES IDX 7 1 6 2 5 3 4 4 3 5 2 6 1 7 37 8 38 9 90 10 39 11 89 12
REMARK SMILES IDX 40 13 41 14 42 15 83 16 43 17 88 18 82 19 84 20 44 21 87 22
REMARK SMILES IDX 81 23 80 24 45 26 71 27 54 28 70 29 55 30 58 31 69 32 85 33
REMARK SMILES IDX 56 34 57 35 68 37 86 38 59 39 46 40 47 41 52 42 48 43 49 44
REMARK SMILES IDX 51 45 53 46 50 47 72 48 73 49 78 50 74 51 75 52 77 53 79 54
REMARK SMILES IDX 76 55 60 56 61 57 66 58 62 59 63 60 65 61 67 62 64 63 8 64
REMARK SMILES IDX 9 65 10 66 11 67 12 68 13 69 14 70 15 71 16 72 36 73 17 74
REMARK SMILES IDX 35 75 18 76 34 77 19 78 20 79 21 81 22 82 25 83 23 84 24 85
REMARK SMILES IDX 26 87 27 88 32 89 28 90 31 91 33 92 29 93 30 94
REMARK H PARENT 84 25 58 36 34 80 23 86
REMARK Flexibility Score: inf
ROOT
ATOM      1  C   UNL A   1      35.011  35.420  32.074  1.00  0.00     0.188 C 
ENDROOT
BRANCH   1   2
ATOM      2  O   UNL A   1      35.178  35.747  33.459  1.00  0.00    -0.376 OA
BRANCH   2   3
ATOM      3  C   UNL A   1      35.045  34.622  34.334  1.00  0.00     0.202 C 
BRANCH   3   4
ATOM      4  C   UNL A   1      36.293  33.731  34.415  1.00  0.00     0.261 C 
BRANCH   4   5
ATOM      5  O   UNL A   1      36.056  32.402  33.911  1.00  0.00    -0.460 OA
BRANCH   5   6
ATOM      6  C   UNL A   1      36.047  31.995  32.617  1.00  0.00     0.338 C 
ATOM      7  O   UNL A   1      34.980  31.936  32.007  1.00  0.00    -0.246 OA
BRANCH   6   8
ATOM      8  C   UNL A   1      37.288  31.654  31.864  1.00  0.00     0.060 A 
ATOM      9  C   UNL A   1      37.571  32.119  30.584  1.00  0.00     0.016 A 
ATOM     10  C   UNL A   1      38.257  30.867  32.511  1.00  0.00     0.016 A 
ATOM     11  C   UNL A   1      38.697  31.693  29.899  1.00  0.00     0.010 A 
ATOM     12  C   UNL A   1      39.444  30.509  31.861  1.00  0.00     0.010 A 
ATOM     13  C   UNL A   1      39.648  30.889  30.530  1.00  0.00    -0.014 A 
BRANCH  13  14
ATOM     14  C   UNL A   1      40.788  30.414  29.715  1.00  0.00     0.031 A 
ATOM     15  C   UNL A   1      41.993  31.293  29.561  1.00  0.00     0.074 A 
ATOM     16  C   UNL A   1      40.805  29.136  29.290  1.00  0.00     0.049 A 
ATOM     17  N   UNL A   1      43.117  31.048  28.943  1.00  0.00    -0.248 NA
ATOM     18  C   UNL A   1      41.939  32.616  30.207  1.00  0.00     0.031 C 
ATOM     19  C   UNL A   1      39.723  28.172  29.499  1.00  0.00     0.029 A 
ATOM     20  N   UNL A   1      41.774  28.408  28.653  1.00  0.00    -0.354 N 
ATOM     21  C   UNL A   1      43.898  32.181  29.119  1.00  0.00     0.074 A 
ATOM     22  C   UNL A   1      43.116  33.127  29.881  1.00  0.00     0.031 C 
ATOM     23  C   UNL A   1      40.109  26.968  29.052  1.00  0.00     0.029 A 
ATOM     24  C   UNL A   1      41.432  27.090  28.459  1.00  0.00     0.049 A 
ATOM     25  H   UNL A   1      42.634  28.790  28.364  1.00  0.00     0.167 HD
ATOM     26  C   UNL A   1      45.159  32.402  28.687  1.00  0.00     0.037 A 
ATOM     27  C   UNL A   1      42.107  26.095  27.854  1.00  0.00     0.037 A 
ATOM     28  C   UNL A   1      45.925  31.444  27.939  1.00  0.00     0.049 A 
ATOM     29  C   UNL A   1      43.463  26.406  27.293  1.00  0.00     0.074 A 
ATOM     30  C   UNL A   1      47.180  31.588  27.378  1.00  0.00     0.029 A 
ATOM     31  N   UNL A   1      45.504  30.151  27.660  1.00  0.00    -0.354 N 
ATOM     32  N   UNL A   1      44.161  27.513  27.391  1.00  0.00    -0.248 NA
ATOM     33  C   UNL A   1      44.120  25.344  26.520  1.00  0.00     0.031 C 
ATOM     34  C   UNL A   1      47.506  30.390  26.733  1.00  0.00     0.029 A 
ATOM     35  C   UNL A   1      46.469  29.489  26.925  1.00  0.00     0.049 A 
ATOM     36  H   UNL A   1      44.644  29.763  27.943  1.00  0.00     0.167 HD
ATOM     37  C   UNL A   1      45.337  27.284  26.694  1.00  0.00     0.074 A 
ATOM     38  C   UNL A   1      45.273  25.919  26.208  1.00  0.00     0.031 C 
ATOM     39  C   UNL A   1      46.371  28.128  26.462  1.00  0.00     0.037 A 
BRANCH  26  40
ATOM     40  C   UNL A   1      45.762  33.741  28.985  1.00  0.00     0.057 A 
ATOM     41  C   UNL A   1      46.529  33.934  30.141  1.00  0.00     0.134 A 
ATOM     42  C   UNL A   1      45.584  34.838  28.133  1.00  0.00     0.134 A 
ATOM     43  F   UNL A   1      46.745  32.919  30.991  1.00  0.00    -0.206 F 
ATOM     44  C   UNL A   1      47.089  35.175  30.444  1.00  0.00     0.040 A 
ATOM     45  C   UNL A   1      46.155  36.080  28.417  1.00  0.00     0.040 A 
ATOM     46  F   UNL A   1      44.886  34.709  26.995  1.00  0.00    -0.206 F 
ATOM     47  C   UNL A   1      46.905  36.252  29.580  1.00  0.00     0.006 A 
ENDBRANCH  26  40
BRANCH  27  48
ATOM     48  C   UNL A   1      41.498  24.747  27.711  1.00  0.00     0.057 A 
ATOM     49  C   UNL A   1      40.508  24.495  26.749  1.00  0.00     0.134 A 
ATOM     50  C   UNL A   1      41.890  23.674  28.519  1.00  0.00     0.134 A 
ATOM     51  F   UNL A   1      40.085  25.476  25.941  1.00  0.00    -0.206 F 
ATOM     52  C   UNL A   1      39.923  23.236  26.609  1.00  0.00     0.040 A 
ATOM     53  C   UNL A   1      41.334  22.401  28.369  1.00  0.00     0.040 A 
ATOM     54  F   UNL A   1      42.845  23.842  29.446  1.00  0.00    -0.206 F 
ATOM     55  C   UNL A   1      40.341  22.182  27.416  1.00  0.00     0.006 A 
ENDBRANCH  27  48
BRANCH  39  56
ATOM     56  C   UNL A   1      47.510  27.591  25.653  1.00  0.00     0.057 A 
ATOM     57  C   UNL A   1      47.473  27.626  24.255  1.00  0.00     0.134 A 
ATOM     58  C   UNL A   1      48.619  26.995  26.265  1.00  0.00     0.134 A 
ATOM     59  F   UNL A   1      46.432  28.177  23.614  1.00  0.00    -0.206 F 
ATOM     60  C   UNL A   1      48.501  27.079  23.489  1.00  0.00     0.040 A 
ATOM     61  C   UNL A   1      49.665  26.465  25.509  1.00  0.00     0.040 A 
ATOM     62  F   UNL A   1      48.713  26.945  27.602  1.00  0.00    -0.206 F 
ATOM     63  C   UNL A   1      49.602  26.499  24.118  1.00  0.00     0.006 A 
ENDBRANCH  39  56
ENDBRANCH  13  14
ENDBRANCH   6   8
ENDBRANCH   5   6
ENDBRANCH   4   5
ENDBRANCH   3   4
ENDBRANCH   2   3
ENDBRANCH   1   2
BRANCH   1  64
ATOM     64  C   UNL A   1      33.537  35.188  31.735  1.00  0.00     0.188 C 
BRANCH  64  65
ATOM     65  O   UNL A   1      33.305  34.514  30.498  1.00  0.00    -0.376 OA
BRANCH  65  66
ATOM     66  C   UNL A   1      33.767  35.160  29.313  1.00  0.00     0.202 C 
BRANCH  66  67
ATOM     67  C   UNL A   1      34.204  34.239  28.172  1.00  0.00     0.261 C 
BRANCH  67  68
ATOM     68  O   UNL A   1      33.365  33.082  27.982  1.00  0.00    -0.460 OA
BRANCH  68  69
ATOM     69  C   UNL A   1      34.035  31.908  28.006  1.00  0.00     0.338 C 
ATOM     70  O   UNL A   1      35.146  31.702  28.485  1.00  0.00    -0.246 OA
BRANCH  69  71
ATOM     71  C   UNL A   1      33.338  30.851  27.251  1.00  0.00     0.062 A 
ATOM     72  C   UNL A   1      32.059  31.192  26.788  1.00  0.00     0.018 A 
ATOM     73  C   UNL A   1      33.977  29.655  26.865  1.00  0.00     0.044 A 
ATOM     74  C   UNL A   1      31.403  30.391  25.857  1.00  0.00     0.031 A 
ATOM     75  C   UNL A   1      33.287  28.871  25.923  1.00  0.00     0.067 A 
ATOM     76  C   UNL A   1      32.059  29.250  25.385  1.00  0.00     0.089 A 
ATOM     77  N   UNL A   1      33.563  27.676  25.290  1.00  0.00    -0.338 N 
ATOM     78  N   UNL A   1      31.682  28.413  24.380  1.00  0.00    -0.228 NA
ATOM     79  C   UNL A   1      32.604  27.480  24.324  1.00  0.00     0.142 A 
ATOM     80  H   UNL A   1      34.312  27.071  25.495  1.00  0.00     0.168 HD
BRANCH  79  81
ATOM     81  C   UNL A   1      32.579  26.413  23.295  1.00  0.00     0.063 A 
ATOM     82  C   UNL A   1      32.380  26.552  21.945  1.00  0.00     0.117 A 
ATOM     83  C   UNL A   1      32.767  25.018  23.519  1.00  0.00     0.106 A 
ATOM     84  N   UNL A   1      32.564  25.300  21.428  1.00  0.00    -0.284 N 
ATOM     85  N   UNL A   1      32.726  24.345  22.358  1.00  0.00    -0.175 NA
ATOM     86  H   UNL A   1      32.576  25.116  20.461  1.00  0.00     0.189 HD
BRANCH  83  87
ATOM     87  C   UNL A   1      32.805  24.329  24.802  1.00  0.00     0.039 A 
ATOM     88  C   UNL A   1      34.053  23.992  25.357  1.00  0.00     0.016 A 
ATOM     89  C   UNL A   1      31.640  23.972  25.487  1.00  0.00     0.135 A 
ATOM     90  C   UNL A   1      34.125  23.296  26.563  1.00  0.00     0.040 A 
ATOM     91  C   UNL A   1      31.709  23.278  26.694  1.00  0.00     0.079 A 
ATOM     92  F   UNL A   1      30.430  24.269  24.991  1.00  0.00    -0.206 F 
ATOM     93  C   UNL A   1      32.951  22.942  27.218  1.00  0.00     0.126 A 
ATOM     94  F   UNL A   1      33.022  22.266  28.372  1.00  0.00    -0.207 F 
ENDBRANCH  83  87
ENDBRANCH  79  81
ENDBRANCH  69  71
ENDBRANCH  68  69
ENDBRANCH  67  68
ENDBRANCH  66  67
ENDBRANCH  65  66
ENDBRANCH  64  65
ENDBRANCH   1  64
TORSDOF 19
ENDMDL
MODEL 3
REMARK VINA RESULT:     -11.0      3.471      8.451
REMARK SMILES O=C(OCCOCCOCCOC(=O)c1ccc2nc(-c3c[nH]nc3-c3ccc(F)cc3F)[nH]c2c1)c1ccc(-c2c3nc(c(-c4c(F)cccc4F)c4ccc([nH]4)c(-c4c(F)cccc4F)c4nc(c(-c5c(F)cccc5F)c5ccc2[nH]5)C=C4)C=C3)cc1
REMARK SMILES IDX 7 1 6 2 5 3 4 4 3 5 2 6 1 7 37 8 38 9 90 10 39 11 89 12
REMARK SMILES IDX 40 13 41 14 42 15 83 16 43 17 88 18 82 19 84 20 44 21 87 22
REMARK SMILES IDX 81 23 80 24 45 26 71 27 54 28 70 29 55 30 58 31 69 32 85 33
REMARK SMILES IDX 56 34 57 35 68 37 86 38 59 39 46 40 47 41 52 42 48 43 49 44
REMARK SMILES IDX 51 45 53 46 50 47 72 48 73 49 78 50 74 51 75 52 77 53 79 54
REMARK SMILES IDX 76 55 60 56 61 57 66 58 62 59 63 60 65 61 67 62 64 63 8 64
REMARK SMILES IDX 9 65 10 66 11 67 12 68 13 69 14 70 15 71 16 72 36 73 17 74
REMARK SMILES IDX 35 75 18 76 34 77 19 78 20 79 21 81 22 82 25 83 23 84 24 85
REMARK SMILES IDX 26 87 27 88 32 89 28 90 31 91 33 92 29 93 30 94
REMARK H PARENT 84 25 58 36 34 80 23 86
REMARK Flexibility Score: inf
ROOT
ATOM      1  C   UNL A   1      40.387  20.583  26.297  1.00  0.00     0.188 C 
ENDROOT
BRANCH   1   2
ATOM      2  O   UNL A   1      41.507  20.924  25.470  1.00  0.00    -0.376 OA
BRANCH   2   3
ATOM      3  C   UNL A   1      42.773  20.675  26.090  1.00  0.00     0.202 C 
BRANCH   3   4
ATOM      4  C   UNL A   1      43.816  21.781  25.869  1.00  0.00     0.261 C 
BRANCH   4   5
ATOM      5  O   UNL A   1      43.230  23.001  25.377  1.00  0.00    -0.460 OA
BRANCH   5   6
ATOM      6  C   UNL A   1      43.719  24.262  25.491  1.00  0.00     0.338 C 
ATOM      7  O   UNL A   1      44.581  24.651  24.704  1.00  0.00    -0.246 OA
BRANCH   6   8
ATOM      8  C   UNL A   1      43.227  25.235  26.507  1.00  0.00     0.060 A 
ATOM      9  C   UNL A   1      43.693  26.541  26.621  1.00  0.00     0.016 A 
ATOM     10  C   UNL A   1      42.185  24.828  27.359  1.00  0.00     0.016 A 
ATOM     11  C   UNL A   1      43.264  27.369  27.645  1.00  0.00     0.010 A 
ATOM     12  C   UNL A   1      41.677  25.693  28.337  1.00  0.00     0.010 A 
ATOM     13  C   UNL A   1      42.249  26.958  28.510  1.00  0.00    -0.014 A 
BRANCH  13  14
ATOM     14  C   UNL A   1      41.892  27.866  29.623  1.00  0.00     0.031 A 
ATOM     15  C   UNL A   1      40.676  28.734  29.497  1.00  0.00     0.074 A 
ATOM     16  C   UNL A   1      42.546  27.757  30.795  1.00  0.00     0.049 A 
ATOM     17  N   UNL A   1      40.155  29.553  30.370  1.00  0.00    -0.248 NA
ATOM     18  C   UNL A   1      39.931  28.656  28.228  1.00  0.00     0.031 C 
ATOM     19  C   UNL A   1      43.668  26.850  31.045  1.00  0.00     0.029 A 
ATOM     20  N   UNL A   1      42.334  28.358  32.007  1.00  0.00    -0.354 N 
ATOM     21  C   UNL A   1      39.031  30.090  29.759  1.00  0.00     0.074 A 
ATOM     22  C   UNL A   1      38.953  29.525  28.431  1.00  0.00     0.031 C 
ATOM     23  C   UNL A   1      44.009  26.913  32.340  1.00  0.00     0.029 A 
ATOM     24  C   UNL A   1      43.182  27.915  32.995  1.00  0.00     0.049 A 
ATOM     25  H   UNL A   1      41.641  29.041  32.158  1.00  0.00     0.167 HD
ATOM     26  C   UNL A   1      38.141  30.969  30.271  1.00  0.00     0.037 A 
ATOM     27  C   UNL A   1      43.290  28.289  34.283  1.00  0.00     0.037 A 
ATOM     28  C   UNL A   1      38.230  31.512  31.598  1.00  0.00     0.049 A 
ATOM     29  C   UNL A   1      42.352  29.347  34.788  1.00  0.00     0.074 A 
ATOM     30  C   UNL A   1      37.435  32.472  32.195  1.00  0.00     0.029 A 
ATOM     31  N   UNL A   1      39.173  31.125  32.540  1.00  0.00    -0.354 N 
ATOM     32  N   UNL A   1      41.342  29.913  34.172  1.00  0.00    -0.248 NA
ATOM     33  C   UNL A   1      42.578  29.834  36.155  1.00  0.00     0.031 C 
ATOM     34  C   UNL A   1      37.916  32.688  33.491  1.00  0.00     0.029 A 
ATOM     35  C   UNL A   1      38.987  31.835  33.712  1.00  0.00     0.049 A 
ATOM     36  H   UNL A   1      39.871  30.445  32.396  1.00  0.00     0.167 HD
ATOM     37  C   UNL A   1      40.811  30.824  35.072  1.00  0.00     0.074 A 
ATOM     38  C   UNL A   1      41.590  30.708  36.290  1.00  0.00     0.031 C 
ATOM     39  C   UNL A   1      39.782  31.689  34.905  1.00  0.00     0.037 A 
BRANCH  26  40
ATOM     40  C   UNL A   1      37.028  31.419  29.375  1.00  0.00     0.057 A 
ATOM     41  C   UNL A   1      35.922  30.590  29.145  1.00  0.00     0.134 A 
ATOM     42  C   UNL A   1      37.048  32.666  28.739  1.00  0.00     0.134 A 
ATOM     43  F   UNL A   1      35.840  29.388  29.734  1.00  0.00    -0.206 F 
ATOM     44  C   UNL A   1      34.880  30.983  28.305  1.00  0.00     0.040 A 
ATOM     45  C   UNL A   1      36.002  33.077  27.910  1.00  0.00     0.040 A 
ATOM     46  F   UNL A   1      38.064  33.517  28.943  1.00  0.00    -0.206 F 
ATOM     47  C   UNL A   1      34.917  32.231  27.687  1.00  0.00     0.006 A 
ENDBRANCH  26  40
BRANCH  27  48
ATOM     48  C   UNL A   1      44.339  27.701  35.156  1.00  0.00     0.057 A 
ATOM     49  C   UNL A   1      44.091  26.548  35.915  1.00  0.00     0.134 A 
ATOM     50  C   UNL A   1      45.617  28.264  35.250  1.00  0.00     0.134 A 
ATOM     51  F   UNL A   1      42.889  25.956  35.873  1.00  0.00    -0.206 F 
ATOM     52  C   UNL A   1      45.064  25.989  36.744  1.00  0.00     0.040 A 
ATOM     53  C   UNL A   1      46.611  27.697  36.052  1.00  0.00     0.040 A 
ATOM     54  F   UNL A   1      45.928  29.356  34.536  1.00  0.00    -0.206 F 
ATOM     55  C   UNL A   1      46.332  26.560  36.808  1.00  0.00     0.006 A 
ENDBRANCH  27  48
BRANCH  39  56
ATOM     56  C   UNL A   1      39.446  32.568  36.069  1.00  0.00     0.057 A 
ATOM     57  C   UNL A   1      40.087  33.799  36.244  1.00  0.00     0.134 A 
ATOM     58  C   UNL A   1      38.520  32.166  37.041  1.00  0.00     0.134 A 
ATOM     59  F   UNL A   1      40.988  34.231  35.350  1.00  0.00    -0.206 F 
ATOM     60  C   UNL A   1      39.824  34.601  37.354  1.00  0.00     0.040 A 
ATOM     61  C   UNL A   1      38.232  32.971  38.142  1.00  0.00     0.040 A 
ATOM     62  F   UNL A   1      37.866  31.002  36.917  1.00  0.00    -0.206 F 
ATOM     63  C   UNL A   1      38.892  34.188  38.305  1.00  0.00     0.006 A 
ENDBRANCH  39  56
ENDBRANCH  13  14
ENDBRANCH   6   8
ENDBRANCH   5   6
ENDBRANCH   4   5
ENDBRANCH   3   4
ENDBRANCH   2   3
ENDBRANCH   1   2
BRANCH   1  64
ATOM     64  C   UNL A   1      39.490  21.799  26.540  1.00  0.00     0.188 C 
BRANCH  64  65
ATOM     65  O   UNL A   1      38.597  22.109  25.470  1.00  0.00    -0.376 OA
BRANCH  65  66
ATOM     66  C   UNL A   1      37.711  21.074  25.047  1.00  0.00     0.202 C 
BRANCH  66  67
ATOM     67  C   UNL A   1      36.279  21.505  24.724  1.00  0.00     0.261 C 
BRANCH  67  68
ATOM     68  O   UNL A   1      35.359  21.400  25.830  1.00  0.00    -0.460 OA
BRANCH  68  69
ATOM     69  C   UNL A   1      34.168  20.849  25.503  1.00  0.00     0.338 C 
ATOM     70  O   UNL A   1      33.975  19.726  25.048  1.00  0.00    -0.246 OA
BRANCH  69  71
ATOM     71  C   UNL A   1      33.057  21.809  25.621  1.00  0.00     0.062 A 
ATOM     72  C   UNL A   1      32.942  22.440  26.869  1.00  0.00     0.018 A 
ATOM     73  C   UNL A   1      32.278  22.201  24.513  1.00  0.00     0.044 A 
ATOM     74  C   UNL A   1      32.105  23.542  27.035  1.00  0.00     0.031 A 
ATOM     75  C   UNL A   1      31.446  23.316  24.715  1.00  0.00     0.067 A 
ATOM     76  C   UNL A   1      31.397  24.009  25.923  1.00  0.00     0.089 A 
ATOM     77  N   UNL A   1      30.566  24.009  23.910  1.00  0.00    -0.338 N 
ATOM     78  N   UNL A   1      30.649  25.139  25.813  1.00  0.00    -0.228 NA
ATOM     79  C   UNL A   1      30.167  25.135  24.591  1.00  0.00     0.142 A 
ATOM     80  H   UNL A   1      30.275  23.745  23.007  1.00  0.00     0.168 HD
BRANCH  79  81
ATOM     81  C   UNL A   1      29.349  26.254  24.066  1.00  0.00     0.063 A 
ATOM     82  C   UNL A   1      27.986  26.306  23.928  1.00  0.00     0.117 A 
ATOM     83  C   UNL A   1      29.835  27.512  23.605  1.00  0.00     0.106 A 
ATOM     84  N   UNL A   1      27.719  27.582  23.514  1.00  0.00    -0.284 N 
ATOM     85  N   UNL A   1      28.815  28.307  23.242  1.00  0.00    -0.175 NA
ATOM     86  H   UNL A   1      26.804  27.936  23.424  1.00  0.00     0.189 HD
BRANCH  83  87
ATOM     87  C   UNL A   1      31.222  27.880  23.349  1.00  0.00     0.039 A 
ATOM     88  C   UNL A   1      31.971  27.116  22.436  1.00  0.00     0.016 A 
ATOM     89  C   UNL A   1      31.837  28.952  24.002  1.00  0.00     0.135 A 
ATOM     90  C   UNL A   1      33.313  27.414  22.199  1.00  0.00     0.040 A 
ATOM     91  C   UNL A   1      33.177  29.254  23.765  1.00  0.00     0.079 A 
ATOM     92  F   UNL A   1      31.161  29.703  24.884  1.00  0.00    -0.206 F 
ATOM     93  C   UNL A   1      33.904  28.479  22.870  1.00  0.00     0.126 A 
ATOM     94  F   UNL A   1      35.194  28.759  22.648  1.00  0.00    -0.207 F 
ENDBRANCH  83  87
ENDBRANCH  79  81
ENDBRANCH  69  71
ENDBRANCH  68  69
ENDBRANCH  67  68
ENDBRANCH  66  67
ENDBRANCH  65  66
ENDBRANCH  64  65
ENDBRANCH   1  64
TORSDOF 19
ENDMDL
