MODEL 1
REMARK VINA RESULT:      -8.8      0.000      0.000
REMARK SMILES CSCC[C@H](C(=O)OCCOCCOCCOC(=O)c1ccc(-c2c3nc(c(-c4c(F)cccc4F)c4ccc([nH]4)c(-c4c(F)cccc4F)c4nc(c(-c5c(F)cccc5F)c5ccc2[nH]5)C=C4)C=C3)cc1)N1C(=O)/C(=C/c2cn(C)c3ccccc23)SC1=S
REMARK SMILES IDX 12 1 11 2 10 3 9 4 8 5 6 6 7 7 5 8 4 9 3 10 2 11 1 12 74 13
REMARK SMILES IDX 75 14 90 15 76 16 77 17 89 18 91 19 78 20 79 21 80 22 88 23
REMARK SMILES IDX 81 24 83 25 87 26 82 27 84 28 86 29 85 30 13 31 14 32 15 33
REMARK SMILES IDX 16 34 17 35 18 36 19 37 20 38 21 39 73 40 22 41 72 42 23 43
REMARK SMILES IDX 24 44 25 45 66 46 26 47 71 48 65 49 67 50 27 51 70 52 64 53
REMARK SMILES IDX 63 54 28 56 54 57 37 58 53 59 38 60 41 61 52 62 68 63 39 64
REMARK SMILES IDX 40 65 51 67 69 68 42 69 29 70 30 71 35 72 31 73 32 74 34 75
REMARK SMILES IDX 36 76 33 77 55 78 56 79 61 80 57 81 58 82 60 83 62 84 59 85
REMARK SMILES IDX 43 86 44 87 49 88 45 89 46 90 48 91 50 92 47 93
REMARK H PARENT 67 55 41 66
REMARK Flexibility Score: inf
ROOT
ATOM      1  C   UNL A   1      48.492  20.489  38.042  1.00  0.00     0.188 C 
ENDROOT
BRANCH   1   2
ATOM      2  O   UNL A   1      48.224  19.262  38.712  1.00  0.00    -0.376 OA
BRANCH   2   3
ATOM      3  C   UNL A   1      46.890  18.778  38.808  1.00  0.00     0.202 C 
BRANCH   3   4
ATOM      4  C   UNL A   1      46.104  19.104  40.076  1.00  0.00     0.261 C 
BRANCH   4   5
ATOM      5  O   UNL A   1      45.942  17.983  40.961  1.00  0.00    -0.462 OA
BRANCH   5   6
ATOM      6  C   UNL A   1      44.670  17.501  41.161  1.00  0.00     0.329 C 
ATOM      7  O   UNL A   1      43.860  17.326  40.266  1.00  0.00    -0.250 OA
BRANCH   6   8
ATOM      8  C   UNL A   1      44.518  17.092  42.671  1.00  0.00     0.202 C 
BRANCH   8   9
ATOM      9  C   UNL A   1      43.775  18.310  43.379  1.00  0.00     0.048 C 
BRANCH   9  10
ATOM     10  C   UNL A   1      44.707  19.480  43.758  1.00  0.00     0.072 C 
BRANCH  10  11
ATOM     11  S   UNL A   1      45.688  19.174  45.266  1.00  0.00    -0.165 SA
ATOM     12  C   UNL A   1      44.530  18.095  46.147  1.00  0.00     0.085 C 
ENDBRANCH  10  11
ENDBRANCH   9  10
ENDBRANCH   8   9
BRANCH   8  13
ATOM     13  N   UNL A   1      43.852  15.493  43.017  1.00  0.00    -0.278 N 
ATOM     14  C   UNL A   1      44.835  15.071  43.791  1.00  0.00     0.266 C 
ATOM     15  C   UNL A   1      42.539  14.317  42.059  1.00  0.00     0.149 C 
ATOM     16  O   UNL A   1      45.975  15.232  44.097  1.00  0.00    -0.268 OA
ATOM     17  C   UNL A   1      43.674  14.424  44.134  1.00  0.00     0.081 C 
ATOM     18  S   UNL A   1      42.191  13.016  42.709  1.00  0.00    -0.054 SA
ATOM     19  S   UNL A   1      41.521  14.218  40.375  1.00  0.00    -0.052 S 
ATOM     20  C   UNL A   1      43.950  14.098  45.499  1.00  0.00     0.031 C 
BRANCH  20  21
ATOM     21  C   UNL A   1      43.280  12.914  45.814  1.00  0.00     0.001 A 
ATOM     22  C   UNL A   1      43.804  11.626  45.627  1.00  0.00     0.094 A 
ATOM     23  C   UNL A   1      43.591  13.207  47.157  1.00  0.00     0.007 A 
ATOM     24  N   UNL A   1      45.109  11.497  46.145  1.00  0.00    -0.350 N 
ATOM     25  C   UNL A   1      45.459  12.723  46.721  1.00  0.00     0.048 A 
ATOM     26  C   UNL A   1      43.644  14.888  48.252  1.00  0.00     0.011 A 
ATOM     27  C   UNL A   1      45.641  10.224  46.603  1.00  0.00     0.149 C 
ATOM     28  C   UNL A   1      46.992  13.796  47.253  1.00  0.00     0.027 A 
ATOM     29  C   UNL A   1      45.192  15.913  48.905  1.00  0.00     0.001 A 
ATOM     30  C   UNL A   1      47.060  15.405  48.408  1.00  0.00     0.002 A 
ENDBRANCH  20  21
ENDBRANCH   8  13
ENDBRANCH   6   8
ENDBRANCH   5   6
ENDBRANCH   4   5
ENDBRANCH   3   4
ENDBRANCH   2   3
ENDBRANCH   1   2
BRANCH   1  31
ATOM     31  C   UNL A   1      48.389  21.808  38.825  1.00  0.00     0.188 C 
BRANCH  31  32
ATOM     32  O   UNL A   1      47.149  22.463  38.665  1.00  0.00    -0.376 OA
BRANCH  32  33
ATOM     33  C   UNL A   1      47.052  23.558  37.771  1.00  0.00     0.202 C 
BRANCH  33  34
ATOM     34  C   UNL A   1      47.709  24.893  38.147  1.00  0.00     0.261 C 
BRANCH  34  35
ATOM     35  O   UNL A   1      47.121  26.066  37.575  1.00  0.00    -0.460 OA
BRANCH  35  36
ATOM     36  C   UNL A   1      47.632  26.518  36.408  1.00  0.00     0.338 C 
ATOM     37  O   UNL A   1      48.782  26.437  36.021  1.00  0.00    -0.246 OA
BRANCH  36  38
ATOM     38  C   UNL A   1      46.474  26.917  35.579  1.00  0.00     0.060 A 
ATOM     39  C   UNL A   1      46.582  28.054  34.766  1.00  0.00     0.016 A 
ATOM     40  C   UNL A   1      45.319  26.131  35.554  1.00  0.00     0.016 A 
ATOM     41  C   UNL A   1      45.523  28.415  33.934  1.00  0.00     0.010 A 
ATOM     42  C   UNL A   1      44.254  26.504  34.739  1.00  0.00     0.010 A 
ATOM     43  C   UNL A   1      44.341  27.661  33.946  1.00  0.00    -0.014 A 
BRANCH  43  44
ATOM     44  C   UNL A   1      43.109  28.204  33.334  1.00  0.00     0.031 A 
ATOM     45  C   UNL A   1      42.841  27.860  31.895  1.00  0.00     0.074 A 
ATOM     46  C   UNL A   1      42.261  28.990  34.018  1.00  0.00     0.049 A 
ATOM     47  N   UNL A   1      41.901  28.292  31.096  1.00  0.00    -0.248 NA
ATOM     48  C   UNL A   1      43.767  26.895  31.276  1.00  0.00     0.031 C 
ATOM     49  C   UNL A   1      42.386  29.355  35.427  1.00  0.00     0.029 A 
ATOM     50  N   UNL A   1      41.128  29.640  33.598  1.00  0.00    -0.354 N 
ATOM     51  C   UNL A   1      42.125  27.655  29.882  1.00  0.00     0.074 A 
ATOM     52  C   UNL A   1      43.301  26.829  30.039  1.00  0.00     0.031 C 
ATOM     53  C   UNL A   1      41.379  30.187  35.750  1.00  0.00     0.029 A 
ATOM     54  C   UNL A   1      40.565  30.440  34.561  1.00  0.00     0.049 A 
ATOM     55  H   UNL A   1      40.755  29.542  32.692  1.00  0.00     0.167 HD
ATOM     56  C   UNL A   1      41.411  27.746  28.738  1.00  0.00     0.037 A 
ATOM     57  C   UNL A   1      39.533  31.301  34.473  1.00  0.00     0.037 A 
ATOM     58  C   UNL A   1      40.255  28.583  28.575  1.00  0.00     0.049 A 
ATOM     59  C   UNL A   1      38.814  31.466  33.158  1.00  0.00     0.074 A 
ATOM     60  C   UNL A   1      39.463  28.752  27.454  1.00  0.00     0.029 A 
ATOM     61  N   UNL A   1      39.735  29.402  29.564  1.00  0.00    -0.354 N 
ATOM     62  N   UNL A   1      39.020  30.852  32.017  1.00  0.00    -0.248 NA
ATOM     63  C   UNL A   1      37.718  32.447  33.119  1.00  0.00     0.031 C 
ATOM     64  C   UNL A   1      38.484  29.704  27.754  1.00  0.00     0.029 A 
ATOM     65  C   UNL A   1      38.641  30.093  29.075  1.00  0.00     0.049 A 
ATOM     66  H   UNL A   1      40.091  29.481  30.478  1.00  0.00     0.167 HD
ATOM     67  C   UNL A   1      38.064  31.347  31.137  1.00  0.00     0.074 A 
ATOM     68  C   UNL A   1      37.273  32.307  31.878  1.00  0.00     0.031 C 
ATOM     69  C   UNL A   1      37.856  31.032  29.835  1.00  0.00     0.037 A 
BRANCH  56  70
ATOM     70  C   UNL A   1      41.887  26.935  27.571  1.00  0.00     0.057 A 
ATOM     71  C   UNL A   1      42.691  27.490  26.567  1.00  0.00     0.134 A 
ATOM     72  C   UNL A   1      41.537  25.585  27.450  1.00  0.00     0.134 A 
ATOM     73  F   UNL A   1      43.038  28.786  26.613  1.00  0.00    -0.206 F 
ATOM     74  C   UNL A   1      43.113  26.736  25.472  1.00  0.00     0.040 A 
ATOM     75  C   UNL A   1      41.974  24.814  26.373  1.00  0.00     0.040 A 
ATOM     76  F   UNL A   1      40.766  24.995  28.375  1.00  0.00    -0.206 F 
ATOM     77  C   UNL A   1      42.759  25.391  25.376  1.00  0.00     0.006 A 
ENDBRANCH  56  70
BRANCH  57  78
ATOM     78  C   UNL A   1      39.121  32.097  35.656  1.00  0.00     0.057 A 
ATOM     79  C   UNL A   1      38.249  31.569  36.614  1.00  0.00     0.134 A 
ATOM     80  C   UNL A   1      39.557  33.416  35.836  1.00  0.00     0.134 A 
ATOM     81  F   UNL A   1      37.780  30.319  36.482  1.00  0.00    -0.206 F 
ATOM     82  C   UNL A   1      37.808  32.329  37.699  1.00  0.00     0.040 A 
ATOM     83  C   UNL A   1      39.144  34.179  36.928  1.00  0.00     0.040 A 
ATOM     84  F   UNL A   1      40.389  33.981  34.948  1.00  0.00    -0.206 F 
ATOM     85  C   UNL A   1      38.260  33.638  37.860  1.00  0.00     0.006 A 
ENDBRANCH  57  78
BRANCH  69  86
ATOM     86  C   UNL A   1      36.700  31.689  29.139  1.00  0.00     0.057 A 
ATOM     87  C   UNL A   1      36.763  33.012  28.684  1.00  0.00     0.134 A 
ATOM     88  C   UNL A   1      35.530  30.966  28.869  1.00  0.00     0.134 A 
ATOM     89  F   UNL A   1      37.851  33.761  28.919  1.00  0.00    -0.206 F 
ATOM     90  C   UNL A   1      35.696  33.598  28.001  1.00  0.00     0.040 A 
ATOM     91  C   UNL A   1      34.468  31.532  28.164  1.00  0.00     0.040 A 
ATOM     92  F   UNL A   1      35.411  29.691  29.268  1.00  0.00    -0.206 F 
ATOM     93  C   UNL A   1      34.547  32.854  27.732  1.00  0.00     0.006 A 
ENDBRANCH  69  86
ENDBRANCH  43  44
ENDBRANCH  36  38
ENDBRANCH  35  36
ENDBRANCH  34  35
ENDBRANCH  33  34
ENDBRANCH  32  33
ENDBRANCH  31  32
ENDBRANCH   1  31
TORSDOF 22
ENDMDL
MODEL 2
REMARK VINA RESULT:      -8.7      5.023     10.084
REMARK SMILES CSCC[C@H](C(=O)OCCOCCOCCOC(=O)c1ccc(-c2c3nc(c(-c4c(F)cccc4F)c4ccc([nH]4)c(-c4c(F)cccc4F)c4nc(c(-c5c(F)cccc5F)c5ccc2[nH]5)C=C4)C=C3)cc1)N1C(=O)/C(=C/c2cn(C)c3ccccc23)SC1=S
REMARK SMILES IDX 12 1 11 2 10 3 9 4 8 5 6 6 7 7 5 8 4 9 3 10 2 11 1 12 74 13
REMARK SMILES IDX 75 14 90 15 76 16 77 17 89 18 91 19 78 20 79 21 80 22 88 23
REMARK SMILES IDX 81 24 83 25 87 26 82 27 84 28 86 29 85 30 13 31 14 32 15 33
REMARK SMILES IDX 16 34 17 35 18 36 19 37 20 38 21 39 73 40 22 41 72 42 23 43
REMARK SMILES IDX 24 44 25 45 66 46 26 47 71 48 65 49 67 50 27 51 70 52 64 53
REMARK SMILES IDX 63 54 28 56 54 57 37 58 53 59 38 60 41 61 52 62 68 63 39 64
REMARK SMILES IDX 40 65 51 67 69 68 42 69 29 70 30 71 35 72 31 73 32 74 34 75
REMARK SMILES IDX 36 76 33 77 55 78 56 79 61 80 57 81 58 82 60 83 62 84 59 85
REMARK SMILES IDX 43 86 44 87 49 88 45 89 46 90 48 91 50 92 47 93
REMARK H PARENT 67 55 41 66
REMARK Flexibility Score: inf
ROOT
ATOM      1  C   UNL A   1      49.319  21.505  39.948  1.00  0.00     0.188 C 
ENDROOT
BRANCH   1   2
ATOM      2  O   UNL A   1      48.567  20.497  40.616  1.00  0.00    -0.376 OA
BRANCH   2   3
ATOM      3  C   UNL A   1      48.204  19.305  39.930  1.00  0.00     0.202 C 
BRANCH   3   4
ATOM      4  C   UNL A   1      47.126  19.403  38.854  1.00  0.00     0.261 C 
BRANCH   4   5
ATOM      5  O   UNL A   1      47.629  19.787  37.563  1.00  0.00    -0.462 OA
BRANCH   5   6
ATOM      6  C   UNL A   1      46.978  20.795  36.893  1.00  0.00     0.329 C 
ATOM      7  O   UNL A   1      45.810  21.095  37.082  1.00  0.00    -0.250 OA
BRANCH   6   8
ATOM      8  C   UNL A   1      48.017  21.554  35.991  1.00  0.00     0.202 C 
BRANCH   8   9
ATOM      9  C   UNL A   1      48.811  20.425  35.197  1.00  0.00     0.048 C 
BRANCH   9  10
ATOM     10  C   UNL A   1      50.109  20.924  34.526  1.00  0.00     0.072 C 
BRANCH  10  11
ATOM     11  S   UNL A   1      51.607  20.052  35.095  1.00  0.00    -0.165 SA
ATOM     12  C   UNL A   1      50.910  19.190  36.529  1.00  0.00     0.085 C 
ENDBRANCH  10  11
ENDBRANCH   9  10
ENDBRANCH   8   9
BRANCH   8  13
ATOM     13  N   UNL A   1      47.414  22.892  35.006  1.00  0.00    -0.278 N 
ATOM     14  C   UNL A   1      48.285  23.798  35.411  1.00  0.00     0.266 C 
ATOM     15  C   UNL A   1      45.636  23.283  34.164  1.00  0.00     0.149 C 
ATOM     16  O   UNL A   1      49.058  24.095  36.267  1.00  0.00    -0.268 OA
ATOM     17  C   UNL A   1      47.853  24.113  34.147  1.00  0.00     0.081 C 
ATOM     18  S   UNL A   1      45.528  24.533  33.351  1.00  0.00    -0.054 SA
ATOM     19  S   UNL A   1      43.793  22.589  34.093  1.00  0.00    -0.052 S 
ATOM     20  C   UNL A   1      48.968  24.871  33.670  1.00  0.00     0.031 C 
BRANCH  20  21
ATOM     21  C   UNL A   1      48.500  25.821  32.761  1.00  0.00     0.001 A 
ATOM     22  C   UNL A   1      48.252  27.167  33.069  1.00  0.00     0.094 A 
ATOM     23  C   UNL A   1      49.812  25.835  32.245  1.00  0.00     0.007 A 
ATOM     24  N   UNL A   1      49.327  27.767  33.757  1.00  0.00    -0.350 N 
ATOM     25  C   UNL A   1      50.335  26.806  33.887  1.00  0.00     0.048 A 
ATOM     26  C   UNL A   1      51.203  24.429  31.907  1.00  0.00     0.011 A 
ATOM     27  C   UNL A   1      49.595  29.194  33.686  1.00  0.00     0.149 C 
ATOM     28  C   UNL A   1      51.903  26.349  34.944  1.00  0.00     0.027 A 
ATOM     29  C   UNL A   1      52.860  24.039  32.895  1.00  0.00     0.001 A 
ATOM     30  C   UNL A   1      53.329  25.024  34.570  1.00  0.00     0.002 A 
ENDBRANCH  20  21
ENDBRANCH   8  13
ENDBRANCH   6   8
ENDBRANCH   5   6
ENDBRANCH   4   5
ENDBRANCH   3   4
ENDBRANCH   2   3
ENDBRANCH   1   2
BRANCH   1  31
ATOM     31  C   UNL A   1      48.626  22.820  39.556  1.00  0.00     0.188 C 
BRANCH  31  32
ATOM     32  O   UNL A   1      47.223  22.788  39.716  1.00  0.00    -0.376 OA
BRANCH  32  33
ATOM     33  C   UNL A   1      46.500  24.006  39.743  1.00  0.00     0.202 C 
BRANCH  33  34
ATOM     34  C   UNL A   1      45.299  24.184  38.804  1.00  0.00     0.261 C 
BRANCH  34  35
ATOM     35  O   UNL A   1      45.588  24.722  37.509  1.00  0.00    -0.460 OA
BRANCH  35  36
ATOM     36  C   UNL A   1      45.889  26.037  37.430  1.00  0.00     0.338 C 
ATOM     37  O   UNL A   1      46.817  26.619  37.957  1.00  0.00    -0.246 OA
BRANCH  36  38
ATOM     38  C   UNL A   1      45.012  26.597  36.378  1.00  0.00     0.060 A 
ATOM     39  C   UNL A   1      45.496  27.638  35.575  1.00  0.00     0.016 A 
ATOM     40  C   UNL A   1      43.749  26.045  36.145  1.00  0.00     0.016 A 
ATOM     41  C   UNL A   1      44.707  28.142  34.541  1.00  0.00     0.010 A 
ATOM     42  C   UNL A   1      42.953  26.563  35.125  1.00  0.00     0.010 A 
ATOM     43  C   UNL A   1      43.418  27.630  34.338  1.00  0.00    -0.014 A 
BRANCH  43  44
ATOM     44  C   UNL A   1      42.457  28.358  33.481  1.00  0.00     0.031 A 
ATOM     45  C   UNL A   1      41.554  29.357  34.147  1.00  0.00     0.074 A 
ATOM     46  C   UNL A   1      42.370  28.132  32.160  1.00  0.00     0.049 A 
ATOM     47  N   UNL A   1      40.558  30.042  33.651  1.00  0.00    -0.248 NA
ATOM     48  C   UNL A   1      41.815  29.616  35.575  1.00  0.00     0.031 C 
ATOM     49  C   UNL A   1      43.219  27.225  31.391  1.00  0.00     0.029 A 
ATOM     50  N   UNL A   1      41.497  28.646  31.233  1.00  0.00    -0.354 N 
ATOM     51  C   UNL A   1      40.072  30.807  34.703  1.00  0.00     0.074 A 
ATOM     52  C   UNL A   1      40.862  30.486  35.870  1.00  0.00     0.031 C 
ATOM     53  C   UNL A   1      42.809  27.228  30.110  1.00  0.00     0.029 A 
ATOM     54  C   UNL A   1      41.647  28.107  29.980  1.00  0.00     0.049 A 
ATOM     55  H   UNL A   1      40.827  29.335  31.448  1.00  0.00     0.167 HD
ATOM     56  C   UNL A   1      39.059  31.702  34.697  1.00  0.00     0.037 A 
ATOM     57  C   UNL A   1      40.903  28.282  28.871  1.00  0.00     0.037 A 
ATOM     58  C   UNL A   1      38.259  32.006  33.544  1.00  0.00     0.049 A 
ATOM     59  C   UNL A   1      39.713  29.207  28.913  1.00  0.00     0.074 A 
ATOM     60  C   UNL A   1      37.205  32.894  33.434  1.00  0.00     0.029 A 
ATOM     61  N   UNL A   1      38.422  31.416  32.300  1.00  0.00    -0.354 N 
ATOM     62  N   UNL A   1      39.267  29.939  29.906  1.00  0.00    -0.248 NA
ATOM     63  C   UNL A   1      38.923  29.328  27.678  1.00  0.00     0.031 C 
ATOM     64  C   UNL A   1      36.704  32.813  32.130  1.00  0.00     0.029 A 
ATOM     65  C   UNL A   1      37.475  31.908  31.419  1.00  0.00     0.049 A 
ATOM     66  H   UNL A   1      39.108  30.746  32.078  1.00  0.00     0.167 HD
ATOM     67  C   UNL A   1      38.166  30.628  29.408  1.00  0.00     0.074 A 
ATOM     68  C   UNL A   1      38.017  30.233  28.023  1.00  0.00     0.031 C 
ATOM     69  C   UNL A   1      37.355  31.513  30.038  1.00  0.00     0.037 A 
BRANCH  56  70
ATOM     70  C   UNL A   1      38.751  32.392  35.992  1.00  0.00     0.057 A 
ATOM     71  C   UNL A   1      39.159  33.709  36.240  1.00  0.00     0.134 A 
ATOM     72  C   UNL A   1      38.040  31.731  37.001  1.00  0.00     0.134 A 
ATOM     73  F   UNL A   1      39.866  34.386  35.322  1.00  0.00    -0.206 F 
ATOM     74  C   UNL A   1      38.887  34.338  37.455  1.00  0.00     0.040 A 
ATOM     75  C   UNL A   1      37.742  32.358  38.211  1.00  0.00     0.040 A 
ATOM     76  F   UNL A   1      37.627  30.467  36.828  1.00  0.00    -0.206 F 
ATOM     77  C   UNL A   1      38.172  33.664  38.443  1.00  0.00     0.006 A 
ENDBRANCH  56  70
BRANCH  57  78
ATOM     78  C   UNL A   1      41.241  27.553  27.622  1.00  0.00     0.057 A 
ATOM     79  C   UNL A   1      40.786  26.248  27.403  1.00  0.00     0.134 A 
ATOM     80  C   UNL A   1      42.055  28.128  26.639  1.00  0.00     0.134 A 
ATOM     81  F   UNL A   1      40.022  25.638  28.320  1.00  0.00    -0.206 F 
ATOM     82  C   UNL A   1      41.146  25.532  26.259  1.00  0.00     0.040 A 
ATOM     83  C   UNL A   1      42.403  27.433  25.481  1.00  0.00     0.040 A 
ATOM     84  F   UNL A   1      42.528  29.374  26.794  1.00  0.00    -0.206 F 
ATOM     85  C   UNL A   1      41.955  26.127  25.292  1.00  0.00     0.006 A 
ENDBRANCH  57  78
BRANCH  69  86
ATOM     86  C   UNL A   1      36.266  32.155  29.229  1.00  0.00     0.057 A 
ATOM     87  C   UNL A   1      35.112  31.457  28.854  1.00  0.00     0.134 A 
ATOM     88  C   UNL A   1      36.350  33.507  28.872  1.00  0.00     0.134 A 
ATOM     89  F   UNL A   1      34.974  30.158  29.157  1.00  0.00    -0.206 F 
ATOM     90  C   UNL A   1      34.087  32.077  28.138  1.00  0.00     0.040 A 
ATOM     91  C   UNL A   1      35.322  34.144  28.178  1.00  0.00     0.040 A 
ATOM     92  F   UNL A   1      37.426  34.234  29.210  1.00  0.00    -0.206 F 
ATOM     93  C   UNL A   1      34.187  33.428  27.805  1.00  0.00     0.006 A 
ENDBRANCH  69  86
ENDBRANCH  43  44
ENDBRANCH  36  38
ENDBRANCH  35  36
ENDBRANCH  34  35
ENDBRANCH  33  34
ENDBRANCH  32  33
ENDBRANCH  31  32
ENDBRANCH   1  31
TORSDOF 22
ENDMDL
MODEL 3
REMARK VINA RESULT:      -8.4     10.001     16.990
REMARK SMILES CSCC[C@H](C(=O)OCCOCCOCCOC(=O)c1ccc(-c2c3nc(c(-c4c(F)cccc4F)c4ccc([nH]4)c(-c4c(F)cccc4F)c4nc(c(-c5c(F)cccc5F)c5ccc2[nH]5)C=C4)C=C3)cc1)N1C(=O)/C(=C/c2cn(C)c3ccccc23)SC1=S
REMARK SMILES IDX 12 1 11 2 10 3 9 4 8 5 6 6 7 7 5 8 4 9 3 10 2 11 1 12 74 13
REMARK SMILES IDX 75 14 90 15 76 16 77 17 89 18 91 19 78 20 79 21 80 22 88 23
REMARK SMILES IDX 81 24 83 25 87 26 82 27 84 28 86 29 85 30 13 31 14 32 15 33
REMARK SMILES IDX 16 34 17 35 18 36 19 37 20 38 21 39 73 40 22 41 72 42 23 43
REMARK SMILES IDX 24 44 25 45 66 46 26 47 71 48 65 49 67 50 27 51 70 52 64 53
REMARK SMILES IDX 63 54 28 56 54 57 37 58 53 59 38 60 41 61 52 62 68 63 39 64
REMARK SMILES IDX 40 65 51 67 69 68 42 69 29 70 30 71 35 72 31 73 32 74 34 75
REMARK SMILES IDX 36 76 33 77 55 78 56 79 61 80 57 81 58 82 60 83 62 84 59 85
REMARK SMILES IDX 43 86 44 87 49 88 45 89 46 90 48 91 50 92 47 93
REMARK H PARENT 67 55 41 66
REMARK Flexibility Score: inf
ROOT
ATOM      1  C   UNL A   1      45.642  36.407  38.767  1.00  0.00     0.188 C 
ENDROOT
BRANCH   1   2
ATOM      2  O   UNL A   1      45.636  35.770  37.493  1.00  0.00    -0.376 OA
BRANCH   2   3
ATOM      3  C   UNL A   1      46.658  36.058  36.547  1.00  0.00     0.202 C 
BRANCH   3   4
ATOM      4  C   UNL A   1      46.232  36.407  35.123  1.00  0.00     0.261 C 
BRANCH   4   5
ATOM      5  O   UNL A   1      44.939  37.030  35.041  1.00  0.00    -0.462 OA
BRANCH   5   6
ATOM      6  C   UNL A   1      44.815  38.154  34.261  1.00  0.00     0.329 C 
ATOM      7  O   UNL A   1      45.227  39.257  34.585  1.00  0.00    -0.250 OA
BRANCH   6   8
ATOM      8  C   UNL A   1      44.207  37.741  32.872  1.00  0.00     0.202 C 
BRANCH   8   9
ATOM      9  C   UNL A   1      43.097  36.645  33.191  1.00  0.00     0.048 C 
BRANCH   9  10
ATOM     10  C   UNL A   1      43.396  35.254  32.593  1.00  0.00     0.072 C 
BRANCH  10  11
ATOM     11  S   UNL A   1      43.020  35.129  30.812  1.00  0.00    -0.165 SA
ATOM     12  C   UNL A   1      44.209  33.838  30.358  1.00  0.00     0.085 C 
ENDBRANCH  10  11
ENDBRANCH   9  10
ENDBRANCH   8   9
BRANCH   8  13
ATOM     13  N   UNL A   1      43.701  39.040  31.787  1.00  0.00    -0.278 N 
ATOM     14  C   UNL A   1      44.458  38.698  30.760  1.00  0.00     0.266 C 
ATOM     15  C   UNL A   1      42.914  40.859  32.098  1.00  0.00     0.149 C 
ATOM     16  O   UNL A   1      45.419  38.085  30.416  1.00  0.00    -0.268 OA
ATOM     17  C   UNL A   1      43.350  39.372  30.308  1.00  0.00     0.081 C 
ATOM     18  S   UNL A   1      42.575  41.669  30.888  1.00  0.00    -0.054 SA
ATOM     19  S   UNL A   1      42.470  42.102  33.560  1.00  0.00    -0.052 S 
ATOM     20  C   UNL A   1      43.249  38.848  28.981  1.00  0.00     0.031 C 
BRANCH  20  21
ATOM     21  C   UNL A   1      42.689  39.830  28.160  1.00  0.00     0.001 A 
ATOM     22  C   UNL A   1      43.420  40.825  27.495  1.00  0.00     0.094 A 
ATOM     23  C   UNL A   1      42.560  38.812  27.193  1.00  0.00     0.007 A 
ATOM     24  N   UNL A   1      44.528  40.303  26.796  1.00  0.00    -0.350 N 
ATOM     25  C   UNL A   1      44.523  38.915  26.973  1.00  0.00     0.048 A 
ATOM     26  C   UNL A   1      42.061  36.869  27.257  1.00  0.00     0.011 A 
ATOM     27  C   UNL A   1      45.079  40.951  25.617  1.00  0.00     0.149 C 
ATOM     28  C   UNL A   1      45.674  37.348  26.910  1.00  0.00     0.027 A 
ATOM     29  C   UNL A   1      43.199  35.274  27.066  1.00  0.00     0.001 A 
ATOM     30  C   UNL A   1      45.183  35.428  26.881  1.00  0.00     0.002 A 
ENDBRANCH  20  21
ENDBRANCH   8  13
ENDBRANCH   6   8
ENDBRANCH   5   6
ENDBRANCH   4   5
ENDBRANCH   3   4
ENDBRANCH   2   3
ENDBRANCH   1   2
BRANCH   1  31
ATOM     31  C   UNL A   1      44.343  36.457  39.586  1.00  0.00     0.188 C 
BRANCH  31  32
ATOM     32  O   UNL A   1      43.304  37.173  38.952  1.00  0.00    -0.376 OA
BRANCH  32  33
ATOM     33  C   UNL A   1      42.802  38.350  39.560  1.00  0.00     0.202 C 
BRANCH  33  34
ATOM     34  C   UNL A   1      41.320  38.415  39.956  1.00  0.00     0.261 C 
BRANCH  34  35
ATOM     35  O   UNL A   1      40.605  37.175  39.922  1.00  0.00    -0.460 OA
BRANCH  35  36
ATOM     36  C   UNL A   1      39.450  37.137  39.220  1.00  0.00     0.338 C 
ATOM     37  O   UNL A   1      38.532  37.932  39.259  1.00  0.00    -0.246 OA
BRANCH  36  38
ATOM     38  C   UNL A   1      39.618  36.069  38.210  1.00  0.00     0.060 A 
ATOM     39  C   UNL A   1      40.441  36.307  37.102  1.00  0.00     0.016 A 
ATOM     40  C   UNL A   1      39.021  34.819  38.399  1.00  0.00     0.016 A 
ATOM     41  C   UNL A   1      40.658  35.295  36.167  1.00  0.00     0.010 A 
ATOM     42  C   UNL A   1      39.221  33.815  37.454  1.00  0.00     0.010 A 
ATOM     43  C   UNL A   1      40.018  34.057  36.323  1.00  0.00    -0.014 A 
BRANCH  43  44
ATOM     44  C   UNL A   1      39.969  33.101  35.196  1.00  0.00     0.031 A 
ATOM     45  C   UNL A   1      41.017  32.024  35.154  1.00  0.00     0.074 A 
ATOM     46  C   UNL A   1      39.041  33.188  34.228  1.00  0.00     0.049 A 
ATOM     47  N   UNL A   1      41.265  31.137  34.228  1.00  0.00    -0.248 NA
ATOM     48  C   UNL A   1      41.910  31.944  36.324  1.00  0.00     0.031 C 
ATOM     49  C   UNL A   1      37.947  34.155  34.181  1.00  0.00     0.029 A 
ATOM     50  N   UNL A   1      38.891  32.450  33.081  1.00  0.00    -0.354 N 
ATOM     51  C   UNL A   1      42.341  30.398  34.700  1.00  0.00     0.074 A 
ATOM     52  C   UNL A   1      42.717  30.953  35.981  1.00  0.00     0.031 C 
ATOM     53  C   UNL A   1      37.250  33.966  33.046  1.00  0.00     0.029 A 
ATOM     54  C   UNL A   1      37.874  32.892  32.273  1.00  0.00     0.049 A 
ATOM     55  H   UNL A   1      39.461  31.678  32.858  1.00  0.00     0.167 HD
ATOM     56  C   UNL A   1      42.960  29.344  34.121  1.00  0.00     0.037 A 
ATOM     57  C   UNL A   1      37.517  32.493  31.037  1.00  0.00     0.037 A 
ATOM     58  C   UNL A   1      42.601  28.805  32.839  1.00  0.00     0.049 A 
ATOM     59  C   UNL A   1      38.286  31.384  30.364  1.00  0.00     0.074 A 
ATOM     60  C   UNL A   1      43.168  27.742  32.160  1.00  0.00     0.029 A 
ATOM     61  N   UNL A   1      41.584  29.300  32.037  1.00  0.00    -0.354 N 
ATOM     62  N   UNL A   1      39.294  30.679  30.821  1.00  0.00    -0.248 NA
ATOM     63  C   UNL A   1      37.868  31.018  29.002  1.00  0.00     0.031 C 
ATOM     64  C   UNL A   1      42.518  27.618  30.928  1.00  0.00     0.029 A 
ATOM     65  C   UNL A   1      41.518  28.575  30.861  1.00  0.00     0.049 A 
ATOM     66  H   UNL A   1      40.998  30.055  32.270  1.00  0.00     0.167 HD
ATOM     67  C   UNL A   1      39.609  29.768  29.818  1.00  0.00     0.074 A 
ATOM     68  C   UNL A   1      38.681  30.006  28.732  1.00  0.00     0.031 C 
ATOM     69  C   UNL A   1      40.574  28.817  29.799  1.00  0.00     0.037 A 
BRANCH  56  70
ATOM     70  C   UNL A   1      44.106  28.731  34.868  1.00  0.00     0.057 A 
ATOM     71  C   UNL A   1      43.907  27.737  35.834  1.00  0.00     0.134 A 
ATOM     72  C   UNL A   1      45.421  29.140  34.618  1.00  0.00     0.134 A 
ATOM     73  F   UNL A   1      42.667  27.321  36.137  1.00  0.00    -0.206 F 
ATOM     74  C   UNL A   1      44.976  27.185  36.541  1.00  0.00     0.040 A 
ATOM     75  C   UNL A   1      46.500  28.578  35.301  1.00  0.00     0.040 A 
ATOM     76  F   UNL A   1      45.678  30.092  33.709  1.00  0.00    -0.206 F 
ATOM     77  C   UNL A   1      46.278  27.601  36.271  1.00  0.00     0.006 A 
ENDBRANCH  56  70
BRANCH  57  78
ATOM     78  C   UNL A   1      36.388  33.154  30.334  1.00  0.00     0.057 A 
ATOM     79  C   UNL A   1      35.063  32.786  30.591  1.00  0.00     0.134 A 
ATOM     80  C   UNL A   1      36.610  34.139  29.364  1.00  0.00     0.134 A 
ATOM     81  F   UNL A   1      34.791  31.832  31.494  1.00  0.00    -0.206 F 
ATOM     82  C   UNL A   1      33.998  33.359  29.894  1.00  0.00     0.040 A 
ATOM     83  C   UNL A   1      35.553  34.736  28.676  1.00  0.00     0.040 A 
ATOM     84  F   UNL A   1      37.858  34.530  29.068  1.00  0.00    -0.206 F 
ATOM     85  C   UNL A   1      34.242  34.341  28.935  1.00  0.00     0.006 A 
ENDBRANCH  57  78
BRANCH  69  86
ATOM     86  C   UNL A   1      40.649  27.928  28.592  1.00  0.00     0.057 A 
ATOM     87  C   UNL A   1      39.962  26.709  28.526  1.00  0.00     0.134 A 
ATOM     88  C   UNL A   1      41.371  28.328  27.460  1.00  0.00     0.134 A 
ATOM     89  F   UNL A   1      39.261  26.265  29.580  1.00  0.00    -0.206 F 
ATOM     90  C   UNL A   1      40.006  25.911  27.381  1.00  0.00     0.040 A 
ATOM     91  C   UNL A   1      41.401  27.552  26.302  1.00  0.00     0.040 A 
ATOM     92  F   UNL A   1      42.041  29.489  27.456  1.00  0.00    -0.206 F 
ATOM     93  C   UNL A   1      40.720  26.336  26.261  1.00  0.00     0.006 A 
ENDBRANCH  69  86
ENDBRANCH  43  44
ENDBRANCH  36  38
ENDBRANCH  35  36
ENDBRANCH  34  35
ENDBRANCH  33  34
ENDBRANCH  32  33
ENDBRANCH  31  32
ENDBRANCH   1  31
TORSDOF 22
ENDMDL
