MODEL 1
REMARK VINA RESULT:     -10.1      0.000      0.000
REMARK SMILES CN(C)C(=O)c1cc(N(CC(=O)OCCOCCOCCOC(=O)c2ccc(-c3c4nc(c(-c5c(F)cccc5F)c5ccc([nH]5)c(-c5c(F)cccc5F)c5nc(c(-c6c(F)cccc6F)c6ccc3[nH]6)C=C5)C=C4)cc2)CC(F)(F)F)ccn1
REMARK SMILES IDX 17 1 16 2 15 3 14 4 13 5 11 6 12 7 10 8 9 9 8 10 6 11 7 12
REMARK SMILES IDX 86 13 85 14 84 15 4 16 1 17 2 18 3 19 5 20 79 21 80 22 81 23
REMARK SMILES IDX 82 24 83 25 18 26 19 27 20 28 21 29 22 30 23 31 24 32 25 33
REMARK SMILES IDX 26 34 78 35 27 36 77 37 28 38 29 39 30 40 71 41 31 42 76 43
REMARK SMILES IDX 70 44 72 45 32 46 75 47 69 48 68 49 33 51 59 52 42 53 58 54
REMARK SMILES IDX 43 55 46 56 57 57 73 58 44 59 45 60 56 62 74 63 47 64 34 65
REMARK SMILES IDX 35 66 40 67 36 68 37 69 39 70 41 71 38 72 60 73 61 74 66 75
REMARK SMILES IDX 62 76 63 77 65 78 67 79 64 80 48 81 49 82 54 83 50 84 51 85
REMARK SMILES IDX 53 86 55 87 52 88
REMARK H PARENT 72 50 46 61
REMARK Flexibility Score: inf
ROOT
ATOM      1  C   UNL A   1      40.043  21.070  26.565  1.00  0.00     0.188 C 
ENDROOT
BRANCH   1   2
ATOM      2  O   UNL A   1      38.931  21.755  25.998  1.00  0.00    -0.376 OA
BRANCH   2   3
ATOM      3  C   UNL A   1      38.082  21.036  25.108  1.00  0.00     0.202 C 
BRANCH   3   4
ATOM      4  C   UNL A   1      37.046  21.903  24.387  1.00  0.00     0.261 C 
BRANCH   4   5
ATOM      5  O   UNL A   1      36.951  23.221  24.969  1.00  0.00    -0.462 OA
BRANCH   5   6
ATOM      6  C   UNL A   1      35.694  23.656  25.250  1.00  0.00     0.325 C 
ATOM      7  O   UNL A   1      35.257  23.805  26.387  1.00  0.00    -0.250 OA
BRANCH   6   8
ATOM      8  C   UNL A   1      34.909  24.104  24.014  1.00  0.00     0.239 C 
BRANCH   8   9
ATOM      9  N   UNL A   1      33.491  23.661  23.889  1.00  0.00    -0.351 N 
BRANCH   9  10
ATOM     10  C   UNL A   1      32.448  24.576  24.044  1.00  0.00     0.041 A 
ATOM     11  C   UNL A   1      31.649  26.843  24.368  1.00  0.00     0.130 A 
ATOM     12  C   UNL A   1      32.678  25.908  24.393  1.00  0.00     0.060 A 
ATOM     13  N   UNL A   1      30.358  26.530  24.146  1.00  0.00    -0.251 NA
ATOM     14  C   UNL A   1      30.117  25.226  23.916  1.00  0.00     0.114 A 
ATOM     15  C   UNL A   1      31.106  24.243  23.831  1.00  0.00     0.046 A 
BRANCH  11  16
ATOM     16  C   UNL A   1      32.016  28.279  24.537  1.00  0.00     0.272 C 
ATOM     17  C   UNL A   1      31.991  30.308  25.904  1.00  0.00     0.146 C 
ATOM     18  N   UNL A   1      31.802  28.873  25.791  1.00  0.00    -0.343 N 
ATOM     19  C   UNL A   1      31.540  28.152  27.031  1.00  0.00     0.146 C 
ATOM     20  O   UNL A   1      32.419  28.909  23.560  1.00  0.00    -0.267 OA
ENDBRANCH  11  16
ENDBRANCH   9  10
BRANCH   9  21
ATOM     21  C   UNL A   1      33.266  22.387  23.141  1.00  0.00     0.232 C 
BRANCH  21  22
ATOM     22  C   UNL A   1      32.936  21.110  23.946  1.00  0.00     0.405 C 
ATOM     23  F   UNL A   1      32.196  20.229  23.236  1.00  0.00    -0.169 F 
ATOM     24  F   UNL A   1      34.084  20.471  24.257  1.00  0.00    -0.169 F 
ATOM     25  F   UNL A   1      32.292  21.357  25.106  1.00  0.00    -0.169 F 
ENDBRANCH  21  22
ENDBRANCH   9  21
ENDBRANCH   8   9
ENDBRANCH   6   8
ENDBRANCH   5   6
ENDBRANCH   4   5
ENDBRANCH   3   4
ENDBRANCH   2   3
ENDBRANCH   1   2
BRANCH   1  26
ATOM     26  C   UNL A   1      40.445  19.710  25.989  1.00  0.00     0.188 C 
BRANCH  26  27
ATOM     27  O   UNL A   1      41.799  19.694  25.554  1.00  0.00    -0.376 OA
BRANCH  27  28
ATOM     28  C   UNL A   1      42.637  20.566  26.312  1.00  0.00     0.202 C 
BRANCH  28  29
ATOM     29  C   UNL A   1      43.408  21.456  25.338  1.00  0.00     0.261 C 
BRANCH  29  30
ATOM     30  O   UNL A   1      42.718  22.697  25.086  1.00  0.00    -0.460 OA
BRANCH  30  31
ATOM     31  C   UNL A   1      43.483  23.807  25.069  1.00  0.00     0.338 C 
ATOM     32  O   UNL A   1      44.461  24.022  24.365  1.00  0.00    -0.246 OA
BRANCH  31  33
ATOM     33  C   UNL A   1      42.865  24.811  25.955  1.00  0.00     0.060 A 
ATOM     34  C   UNL A   1      43.184  26.166  25.792  1.00  0.00     0.016 A 
ATOM     35  C   UNL A   1      42.002  24.408  26.975  1.00  0.00     0.016 A 
ATOM     36  C   UNL A   1      42.666  27.121  26.667  1.00  0.00     0.010 A 
ATOM     37  C   UNL A   1      41.502  25.361  27.864  1.00  0.00     0.010 A 
ATOM     38  C   UNL A   1      41.855  26.716  27.734  1.00  0.00    -0.014 A 
BRANCH  38  39
ATOM     39  C   UNL A   1      41.521  27.658  28.828  1.00  0.00     0.031 A 
ATOM     40  C   UNL A   1      42.327  27.590  30.096  1.00  0.00     0.074 A 
ATOM     41  C   UNL A   1      40.511  28.536  28.713  1.00  0.00     0.049 A 
ATOM     42  N   UNL A   1      42.129  28.187  31.241  1.00  0.00    -0.248 NA
ATOM     43  C   UNL A   1      43.517  26.722  30.063  1.00  0.00     0.031 C 
ATOM     44  C   UNL A   1      39.695  28.740  27.518  1.00  0.00     0.029 A 
ATOM     45  N   UNL A   1      39.987  29.408  29.634  1.00  0.00    -0.354 N 
ATOM     46  C   UNL A   1      43.148  27.745  32.076  1.00  0.00     0.074 A 
ATOM     47  C   UNL A   1      43.958  26.824  31.308  1.00  0.00     0.031 C 
ATOM     48  C   UNL A   1      38.759  29.668  27.784  1.00  0.00     0.029 A 
ATOM     49  C   UNL A   1      38.881  30.084  29.180  1.00  0.00     0.049 A 
ATOM     50  H   UNL A   1      40.367  29.537  30.533  1.00  0.00     0.167 HD
ATOM     51  C   UNL A   1      43.384  28.074  33.368  1.00  0.00     0.037 A 
ATOM     52  C   UNL A   1      38.043  30.914  29.833  1.00  0.00     0.037 A 
ATOM     53  C   UNL A   1      42.578  28.994  34.124  1.00  0.00     0.049 A 
ATOM     54  C   UNL A   1      38.279  31.204  31.293  1.00  0.00     0.074 A 
ATOM     55  C   UNL A   1      42.742  29.409  35.435  1.00  0.00     0.029 A 
ATOM     56  N   UNL A   1      41.452  29.638  33.638  1.00  0.00    -0.354 N 
ATOM     57  N   UNL A   1      39.242  30.782  32.076  1.00  0.00    -0.248 NA
ATOM     58  C   UNL A   1      37.303  32.079  31.959  1.00  0.00     0.031 C 
ATOM     59  C   UNL A   1      41.687  30.271  35.753  1.00  0.00     0.029 A 
ATOM     60  C   UNL A   1      40.894  30.430  34.628  1.00  0.00     0.049 A 
ATOM     61  H   UNL A   1      41.099  29.546  32.723  1.00  0.00     0.167 HD
ATOM     62  C   UNL A   1      39.005  31.362  33.318  1.00  0.00     0.074 A 
ATOM     63  C   UNL A   1      37.812  32.171  33.181  1.00  0.00     0.031 C 
ATOM     64  C   UNL A   1      39.712  31.237  34.468  1.00  0.00     0.037 A 
BRANCH  51  65
ATOM     65  C   UNL A   1      44.536  27.399  34.050  1.00  0.00     0.057 A 
ATOM     66  C   UNL A   1      44.396  26.169  34.706  1.00  0.00     0.134 A 
ATOM     67  C   UNL A   1      45.808  27.986  34.041  1.00  0.00     0.134 A 
ATOM     68  F   UNL A   1      43.200  25.564  34.767  1.00  0.00    -0.206 F 
ATOM     69  C   UNL A   1      45.475  25.559  35.349  1.00  0.00     0.040 A 
ATOM     70  C   UNL A   1      46.899  27.373  34.659  1.00  0.00     0.040 A 
ATOM     71  F   UNL A   1      46.011  29.164  33.431  1.00  0.00    -0.206 F 
ATOM     72  C   UNL A   1      46.732  26.159  35.322  1.00  0.00     0.006 A 
ENDBRANCH  51  65
BRANCH  52  73
ATOM     73  C   UNL A   1      36.885  31.513  29.123  1.00  0.00     0.057 A 
ATOM     74  C   UNL A   1      35.740  30.758  28.845  1.00  0.00     0.134 A 
ATOM     75  C   UNL A   1      36.902  32.844  28.686  1.00  0.00     0.134 A 
ATOM     76  F   UNL A   1      35.676  29.470  29.214  1.00  0.00    -0.206 F 
ATOM     77  C   UNL A   1      34.658  31.299  28.148  1.00  0.00     0.040 A 
ATOM     78  C   UNL A   1      35.816  33.405  28.011  1.00  0.00     0.040 A 
ATOM     79  F   UNL A   1      37.970  33.620  28.918  1.00  0.00    -0.206 F 
ATOM     80  C   UNL A   1      34.693  32.629  27.734  1.00  0.00     0.006 A 
ENDBRANCH  52  73
BRANCH  64  81
ATOM     81  C   UNL A   1      39.242  32.027  35.654  1.00  0.00     0.057 A 
ATOM     82  C   UNL A   1      39.623  33.360  35.854  1.00  0.00     0.134 A 
ATOM     83  C   UNL A   1      38.362  31.459  36.583  1.00  0.00     0.134 A 
ATOM     84  F   UNL A   1      40.473  33.958  35.006  1.00  0.00    -0.206 F 
ATOM     85  C   UNL A   1      39.161  34.093  36.948  1.00  0.00     0.040 A 
ATOM     86  C   UNL A   1      37.874  32.189  37.667  1.00  0.00     0.040 A 
ATOM     87  F   UNL A   1      37.950  30.190  36.444  1.00  0.00    -0.206 F 
ATOM     88  C   UNL A   1      38.278  33.509  37.856  1.00  0.00     0.006 A 
ENDBRANCH  64  81
ENDBRANCH  38  39
ENDBRANCH  31  33
ENDBRANCH  30  31
ENDBRANCH  29  30
ENDBRANCH  28  29
ENDBRANCH  27  28
ENDBRANCH  26  27
ENDBRANCH   1  26
TORSDOF 22
ENDMDL
MODEL 2
REMARK VINA RESULT:     -10.0      4.439      9.836
REMARK SMILES CN(C)C(=O)c1cc(N(CC(=O)OCCOCCOCCOC(=O)c2ccc(-c3c4nc(c(-c5c(F)cccc5F)c5ccc([nH]5)c(-c5c(F)cccc5F)c5nc(c(-c6c(F)cccc6F)c6ccc3[nH]6)C=C5)C=C4)cc2)CC(F)(F)F)ccn1
REMARK SMILES IDX 17 1 16 2 15 3 14 4 13 5 11 6 12 7 10 8 9 9 8 10 6 11 7 12
REMARK SMILES IDX 86 13 85 14 84 15 4 16 1 17 2 18 3 19 5 20 79 21 80 22 81 23
REMARK SMILES IDX 82 24 83 25 18 26 19 27 20 28 21 29 22 30 23 31 24 32 25 33
REMARK SMILES IDX 26 34 78 35 27 36 77 37 28 38 29 39 30 40 71 41 31 42 76 43
REMARK SMILES IDX 70 44 72 45 32 46 75 47 69 48 68 49 33 51 59 52 42 53 58 54
REMARK SMILES IDX 43 55 46 56 57 57 73 58 44 59 45 60 56 62 74 63 47 64 34 65
REMARK SMILES IDX 35 66 40 67 36 68 37 69 39 70 41 71 38 72 60 73 61 74 66 75
REMARK SMILES IDX 62 76 63 77 65 78 67 79 64 80 48 81 49 82 54 83 50 84 51 85
REMARK SMILES IDX 53 86 55 87 52 88
REMARK H PARENT 72 50 46 61
REMARK Flexibility Score: inf
ROOT
ATOM      1  C   UNL A   1      33.429  32.767  28.033  1.00  0.00     0.188 C 
ENDROOT
BRANCH   1   2
ATOM      2  O   UNL A   1      33.189  31.553  27.328  1.00  0.00    -0.376 OA
BRANCH   2   3
ATOM      3  C   UNL A   1      34.227  30.578  27.297  1.00  0.00     0.202 C 
BRANCH   3   4
ATOM      4  C   UNL A   1      33.855  29.284  26.568  1.00  0.00     0.261 C 
BRANCH   4   5
ATOM      5  O   UNL A   1      33.490  28.235  27.490  1.00  0.00    -0.462 OA
BRANCH   5   6
ATOM      6  C   UNL A   1      32.276  27.660  27.284  1.00  0.00     0.325 C 
ATOM      7  O   UNL A   1      31.227  28.074  27.768  1.00  0.00    -0.250 OA
BRANCH   6   8
ATOM      8  C   UNL A   1      32.300  26.529  26.252  1.00  0.00     0.239 C 
BRANCH   8   9
ATOM      9  N   UNL A   1      32.036  26.878  24.827  1.00  0.00    -0.351 N 
BRANCH   9  10
ATOM     10  C   UNL A   1      32.548  26.086  23.798  1.00  0.00     0.041 A 
ATOM     11  C   UNL A   1      34.011  24.317  23.014  1.00  0.00     0.130 A 
ATOM     12  C   UNL A   1      33.631  25.225  23.995  1.00  0.00     0.060 A 
ATOM     13  N   UNL A   1      33.477  24.282  21.778  1.00  0.00    -0.251 NA
ATOM     14  C   UNL A   1      32.505  25.184  21.549  1.00  0.00     0.114 A 
ATOM     15  C   UNL A   1      32.003  26.064  22.510  1.00  0.00     0.046 A 
BRANCH  11  16
ATOM     16  C   UNL A   1      35.026  23.288  23.382  1.00  0.00     0.272 C 
ATOM     17  C   UNL A   1      35.716  21.440  24.830  1.00  0.00     0.146 C 
ATOM     18  N   UNL A   1      34.675  22.327  24.344  1.00  0.00    -0.343 N 
ATOM     19  C   UNL A   1      33.318  22.047  24.799  1.00  0.00     0.146 C 
ATOM     20  O   UNL A   1      36.152  23.361  22.891  1.00  0.00    -0.267 OA
ENDBRANCH  11  16
ENDBRANCH   9  10
BRANCH   9  21
ATOM     21  C   UNL A   1      30.858  27.763  24.576  1.00  0.00     0.232 C 
BRANCH  21  22
ATOM     22  C   UNL A   1      31.112  29.198  24.064  1.00  0.00     0.405 C 
ATOM     23  F   UNL A   1      30.172  29.607  23.184  1.00  0.00    -0.169 F 
ATOM     24  F   UNL A   1      31.051  30.058  25.104  1.00  0.00    -0.169 F 
ATOM     25  F   UNL A   1      32.321  29.357  23.487  1.00  0.00    -0.169 F 
ENDBRANCH  21  22
ENDBRANCH   9  21
ENDBRANCH   8   9
ENDBRANCH   6   8
ENDBRANCH   5   6
ENDBRANCH   4   5
ENDBRANCH   3   4
ENDBRANCH   2   3
ENDBRANCH   1   2
BRANCH   1  26
ATOM     26  C   UNL A   1      34.826  33.389  27.977  1.00  0.00     0.188 C 
BRANCH  26  27
ATOM     27  O   UNL A   1      34.962  34.478  28.882  1.00  0.00    -0.376 OA
BRANCH  27  28
ATOM     28  C   UNL A   1      33.858  34.596  29.779  1.00  0.00     0.202 C 
BRANCH  28  29
ATOM     29  C   UNL A   1      34.360  34.319  31.195  1.00  0.00     0.261 C 
BRANCH  29  30
ATOM     30  O   UNL A   1      35.699  33.785  31.193  1.00  0.00    -0.460 OA
BRANCH  30  31
ATOM     31  C   UNL A   1      35.932  32.766  32.044  1.00  0.00     0.338 C 
ATOM     32  O   UNL A   1      35.319  32.502  33.070  1.00  0.00    -0.246 OA
BRANCH  31  33
ATOM     33  C   UNL A   1      36.983  31.908  31.465  1.00  0.00     0.060 A 
ATOM     34  C   UNL A   1      37.828  31.182  32.315  1.00  0.00     0.016 A 
ATOM     35  C   UNL A   1      37.161  31.856  30.083  1.00  0.00     0.016 A 
ATOM     36  C   UNL A   1      38.874  30.423  31.788  1.00  0.00     0.010 A 
ATOM     37  C   UNL A   1      38.220  31.114  29.556  1.00  0.00     0.010 A 
ATOM     38  C   UNL A   1      39.099  30.420  30.407  1.00  0.00    -0.014 A 
BRANCH  38  39
ATOM     39  C   UNL A   1      40.352  29.858  29.849  1.00  0.00     0.031 A 
ATOM     40  C   UNL A   1      41.530  30.776  29.679  1.00  0.00     0.074 A 
ATOM     41  C   UNL A   1      40.436  28.570  29.475  1.00  0.00     0.049 A 
ATOM     42  N   UNL A   1      42.668  30.566  29.071  1.00  0.00    -0.248 NA
ATOM     43  C   UNL A   1      41.400  32.117  30.275  1.00  0.00     0.031 C 
ATOM     44  C   UNL A   1      39.386  27.567  29.642  1.00  0.00     0.029 A 
ATOM     45  N   UNL A   1      41.454  27.893  28.853  1.00  0.00    -0.354 N 
ATOM     46  C   UNL A   1      43.377  31.756  29.182  1.00  0.00     0.074 A 
ATOM     47  C   UNL A   1      42.539  32.685  29.909  1.00  0.00     0.031 C 
ATOM     48  C   UNL A   1      39.809  26.404  29.117  1.00  0.00     0.029 A 
ATOM     49  C   UNL A   1      41.138  26.595  28.536  1.00  0.00     0.049 A 
ATOM     50  H   UNL A   1      42.330  28.299  28.653  1.00  0.00     0.167 HD
ATOM     51  C   UNL A   1      44.614  32.047  28.716  1.00  0.00     0.037 A 
ATOM     52  C   UNL A   1      41.828  25.682  27.826  1.00  0.00     0.037 A 
ATOM     53  C   UNL A   1      45.445  31.118  28.000  1.00  0.00     0.049 A 
ATOM     54  C   UNL A   1      43.169  26.054  27.248  1.00  0.00     0.074 A 
ATOM     55  C   UNL A   1      46.722  31.309  27.499  1.00  0.00     0.029 A 
ATOM     56  N   UNL A   1      45.078  29.821  27.677  1.00  0.00    -0.354 N 
ATOM     57  N   UNL A   1      43.833  27.180  27.355  1.00  0.00    -0.248 NA
ATOM     58  C   UNL A   1      43.851  25.030  26.444  1.00  0.00     0.031 C 
ATOM     59  C   UNL A   1      47.108  30.140  26.835  1.00  0.00     0.029 A 
ATOM     60  C   UNL A   1      46.093  29.206  26.962  1.00  0.00     0.049 A 
ATOM     61  H   UNL A   1      44.222  29.400  27.918  1.00  0.00     0.167 HD
ATOM     62  C   UNL A   1      45.020  26.990  26.656  1.00  0.00     0.074 A 
ATOM     63  C   UNL A   1      44.988  25.639  26.138  1.00  0.00     0.031 C 
ATOM     64  C   UNL A   1      46.046  27.855  26.463  1.00  0.00     0.037 A 
BRANCH  51  65
ATOM     65  C   UNL A   1      45.120  33.443  28.934  1.00  0.00     0.057 A 
ATOM     66  C   UNL A   1      44.893  34.469  28.008  1.00  0.00     0.134 A 
ATOM     67  C   UNL A   1      45.835  33.765  30.094  1.00  0.00     0.134 A 
ATOM     68  F   UNL A   1      44.231  34.222  26.867  1.00  0.00    -0.206 F 
ATOM     69  C   UNL A   1      45.382  35.761  28.217  1.00  0.00     0.040 A 
ATOM     70  C   UNL A   1      46.307  35.058  30.326  1.00  0.00     0.040 A 
ATOM     71  F   UNL A   1      46.087  32.829  31.022  1.00  0.00    -0.206 F 
ATOM     72  C   UNL A   1      46.086  36.058  29.382  1.00  0.00     0.006 A 
ENDBRANCH  51  65
BRANCH  52  73
ATOM     73  C   UNL A   1      41.257  24.331  27.594  1.00  0.00     0.057 A 
ATOM     74  C   UNL A   1      40.216  24.135  26.679  1.00  0.00     0.134 A 
ATOM     75  C   UNL A   1      41.719  23.210  28.295  1.00  0.00     0.134 A 
ATOM     76  F   UNL A   1      39.713  25.175  25.998  1.00  0.00    -0.206 F 
ATOM     77  C   UNL A   1      39.647  22.877  26.476  1.00  0.00     0.040 A 
ATOM     78  C   UNL A   1      41.175  21.941  28.084  1.00  0.00     0.040 A 
ATOM     79  F   UNL A   1      42.711  23.331  29.188  1.00  0.00    -0.206 F 
ATOM     80  C   UNL A   1      40.131  21.774  27.177  1.00  0.00     0.006 A 
ENDBRANCH  52  73
BRANCH  64  81
ATOM     81  C   UNL A   1      47.235  27.353  25.699  1.00  0.00     0.057 A 
ATOM     82  C   UNL A   1      48.253  26.613  26.314  1.00  0.00     0.134 A 
ATOM     83  C   UNL A   1      47.340  27.577  24.320  1.00  0.00     0.134 A 
ATOM     84  F   UNL A   1      48.217  26.376  27.634  1.00  0.00    -0.206 F 
ATOM     85  C   UNL A   1      49.344  26.131  25.588  1.00  0.00     0.040 A 
ATOM     86  C   UNL A   1      48.413  27.080  23.580  1.00  0.00     0.040 A 
ATOM     87  F   UNL A   1      46.395  28.270  23.669  1.00  0.00    -0.206 F 
ATOM     88  C   UNL A   1      49.422  26.359  24.215  1.00  0.00     0.006 A 
ENDBRANCH  64  81
ENDBRANCH  38  39
ENDBRANCH  31  33
ENDBRANCH  30  31
ENDBRANCH  29  30
ENDBRANCH  28  29
ENDBRANCH  27  28
ENDBRANCH  26  27
ENDBRANCH   1  26
TORSDOF 22
ENDMDL
MODEL 3
REMARK VINA RESULT:      -9.9      2.124      7.030
REMARK SMILES CN(C)C(=O)c1cc(N(CC(=O)OCCOCCOCCOC(=O)c2ccc(-c3c4nc(c(-c5c(F)cccc5F)c5ccc([nH]5)c(-c5c(F)cccc5F)c5nc(c(-c6c(F)cccc6F)c6ccc3[nH]6)C=C5)C=C4)cc2)CC(F)(F)F)ccn1
REMARK SMILES IDX 17 1 16 2 15 3 14 4 13 5 11 6 12 7 10 8 9 9 8 10 6 11 7 12
REMARK SMILES IDX 86 13 85 14 84 15 4 16 1 17 2 18 3 19 5 20 79 21 80 22 81 23
REMARK SMILES IDX 82 24 83 25 18 26 19 27 20 28 21 29 22 30 23 31 24 32 25 33
REMARK SMILES IDX 26 34 78 35 27 36 77 37 28 38 29 39 30 40 71 41 31 42 76 43
REMARK SMILES IDX 70 44 72 45 32 46 75 47 69 48 68 49 33 51 59 52 42 53 58 54
REMARK SMILES IDX 43 55 46 56 57 57 73 58 44 59 45 60 56 62 74 63 47 64 34 65
REMARK SMILES IDX 35 66 40 67 36 68 37 69 39 70 41 71 38 72 60 73 61 74 66 75
REMARK SMILES IDX 62 76 63 77 65 78 67 79 64 80 48 81 49 82 54 83 50 84 51 85
REMARK SMILES IDX 53 86 55 87 52 88
REMARK H PARENT 72 50 46 61
REMARK Flexibility Score: inf
ROOT
ATOM      1  C   UNL A   1      41.567  21.870  27.577  1.00  0.00     0.188 C 
ENDROOT
BRANCH   1   2
ATOM      2  O   UNL A   1      40.238  22.382  27.611  1.00  0.00    -0.376 OA
BRANCH   2   3
ATOM      3  C   UNL A   1      39.559  22.568  26.373  1.00  0.00     0.202 C 
BRANCH   3   4
ATOM      4  C   UNL A   1      38.455  21.544  26.098  1.00  0.00     0.261 C 
BRANCH   4   5
ATOM      5  O   UNL A   1      38.046  21.554  24.713  1.00  0.00    -0.462 OA
BRANCH   5   6
ATOM      6  C   UNL A   1      36.966  22.323  24.419  1.00  0.00     0.325 C 
ATOM      7  O   UNL A   1      36.804  22.901  23.348  1.00  0.00    -0.250 OA
BRANCH   6   8
ATOM      8  C   UNL A   1      35.873  22.282  25.491  1.00  0.00     0.239 C 
BRANCH   8   9
ATOM      9  N   UNL A   1      34.469  22.545  25.067  1.00  0.00    -0.351 N 
BRANCH   9  10
ATOM     10  C   UNL A   1      33.729  21.555  24.418  1.00  0.00     0.041 A 
ATOM     11  C   UNL A   1      32.864  19.292  24.298  1.00  0.00     0.130 A 
ATOM     12  C   UNL A   1      33.740  20.224  24.842  1.00  0.00     0.060 A 
ATOM     13  N   UNL A   1      32.051  19.548  23.255  1.00  0.00    -0.251 NA
ATOM     14  C   UNL A   1      32.116  20.803  22.773  1.00  0.00     0.114 A 
ATOM     15  C   UNL A   1      32.898  21.820  23.323  1.00  0.00     0.046 A 
BRANCH  11  16
ATOM     16  C   UNL A   1      32.784  17.955  24.954  1.00  0.00     0.272 C 
ATOM     17  C   UNL A   1      33.147  15.537  24.847  1.00  0.00     0.146 C 
ATOM     18  N   UNL A   1      33.377  16.862  24.301  1.00  0.00    -0.343 N 
ATOM     19  C   UNL A   1      34.324  16.953  23.195  1.00  0.00     0.146 C 
ATOM     20  O   UNL A   1      32.142  17.841  25.997  1.00  0.00    -0.267 OA
ENDBRANCH  11  16
ENDBRANCH   9  10
BRANCH   9  21
ATOM     21  C   UNL A   1      33.770  23.663  25.770  1.00  0.00     0.232 C 
BRANCH  21  22
ATOM     22  C   UNL A   1      34.163  25.115  25.414  1.00  0.00     0.405 C 
ATOM     23  F   UNL A   1      33.571  26.022  26.223  1.00  0.00    -0.169 F 
ATOM     24  F   UNL A   1      35.493  25.270  25.587  1.00  0.00    -0.169 F 
ATOM     25  F   UNL A   1      33.885  25.450  24.137  1.00  0.00    -0.169 F 
ENDBRANCH  21  22
ENDBRANCH   9  21
ENDBRANCH   8   9
ENDBRANCH   6   8
ENDBRANCH   5   6
ENDBRANCH   4   5
ENDBRANCH   3   4
ENDBRANCH   2   3
ENDBRANCH   1   2
BRANCH   1  26
ATOM     26  C   UNL A   1      42.050  21.154  26.314  1.00  0.00     0.188 C 
BRANCH  26  27
ATOM     27  O   UNL A   1      42.604  22.059  25.366  1.00  0.00    -0.376 OA
BRANCH  27  28
ATOM     28  C   UNL A   1      44.009  21.885  25.186  1.00  0.00     0.202 C 
BRANCH  28  29
ATOM     29  C   UNL A   1      44.547  23.090  24.416  1.00  0.00     0.261 C 
BRANCH  29  30
ATOM     30  O   UNL A   1      43.799  24.287  24.708  1.00  0.00    -0.460 OA
BRANCH  30  31
ATOM     31  C   UNL A   1      44.516  25.343  25.140  1.00  0.00     0.338 C 
ATOM     32  O   UNL A   1      45.586  25.743  24.699  1.00  0.00    -0.246 OA
BRANCH  31  33
ATOM     33  C   UNL A   1      43.729  26.052  26.166  1.00  0.00     0.060 A 
ATOM     34  C   UNL A   1      44.053  27.375  26.494  1.00  0.00     0.016 A 
ATOM     35  C   UNL A   1      42.697  25.393  26.835  1.00  0.00     0.016 A 
ATOM     36  C   UNL A   1      43.367  28.036  27.514  1.00  0.00     0.010 A 
ATOM     37  C   UNL A   1      42.025  26.046  27.870  1.00  0.00     0.010 A 
ATOM     38  C   UNL A   1      42.377  27.358  28.235  1.00  0.00    -0.014 A 
BRANCH  38  39
ATOM     39  C   UNL A   1      41.831  27.931  29.488  1.00  0.00     0.031 A 
ATOM     40  C   UNL A   1      40.569  28.745  29.408  1.00  0.00     0.074 A 
ATOM     41  C   UNL A   1      42.452  27.757  30.666  1.00  0.00     0.049 A 
ATOM     42  N   UNL A   1      39.991  29.476  30.324  1.00  0.00    -0.248 NA
ATOM     43  C   UNL A   1      39.871  28.734  28.111  1.00  0.00     0.031 C 
ATOM     44  C   UNL A   1      43.646  26.943  30.885  1.00  0.00     0.029 A 
ATOM     45  N   UNL A   1      42.169  28.281  31.902  1.00  0.00    -0.354 N 
ATOM     46  C   UNL A   1      38.879  30.038  29.708  1.00  0.00     0.074 A 
ATOM     47  C   UNL A   1      38.868  29.569  28.340  1.00  0.00     0.031 C 
ATOM     48  C   UNL A   1      44.004  27.036  32.178  1.00  0.00     0.029 A 
ATOM     49  C   UNL A   1      43.095  27.954  32.862  1.00  0.00     0.049 A 
ATOM     50  H   UNL A   1      41.378  28.839  32.085  1.00  0.00     0.167 HD
ATOM     51  C   UNL A   1      37.954  30.873  30.237  1.00  0.00     0.037 A 
ATOM     52  C   UNL A   1      43.213  28.378  34.136  1.00  0.00     0.037 A 
ATOM     53  C   UNL A   1      37.966  31.331  31.599  1.00  0.00     0.049 A 
ATOM     54  C   UNL A   1      42.216  29.369  34.679  1.00  0.00     0.074 A 
ATOM     55  C   UNL A   1      37.065  32.165  32.239  1.00  0.00     0.029 A 
ATOM     56  N   UNL A   1      38.935  30.997  32.533  1.00  0.00    -0.354 N 
ATOM     57  N   UNL A   1      41.169  29.898  34.092  1.00  0.00    -0.248 NA
ATOM     58  C   UNL A   1      42.425  29.830  36.060  1.00  0.00     0.031 C 
ATOM     59  C   UNL A   1      37.515  32.370  33.548  1.00  0.00     0.029 A 
ATOM     60  C   UNL A   1      38.669  31.627  33.738  1.00  0.00     0.049 A 
ATOM     61  H   UNL A   1      39.700  30.401  32.365  1.00  0.00     0.167 HD
ATOM     62  C   UNL A   1      40.580  30.729  35.039  1.00  0.00     0.074 A 
ATOM     63  C   UNL A   1      41.382  30.628  36.241  1.00  0.00     0.031 C 
ATOM     64  C   UNL A   1      39.474  31.504  34.926  1.00  0.00     0.037 A 
BRANCH  51  65
ATOM     65  C   UNL A   1      36.877  31.374  29.320  1.00  0.00     0.057 A 
ATOM     66  C   UNL A   1      35.785  30.578  28.950  1.00  0.00     0.134 A 
ATOM     67  C   UNL A   1      36.930  32.677  28.810  1.00  0.00     0.134 A 
ATOM     68  F   UNL A   1      35.686  29.313  29.389  1.00  0.00    -0.206 F 
ATOM     69  C   UNL A   1      34.798  31.053  28.084  1.00  0.00     0.040 A 
ATOM     70  C   UNL A   1      35.935  33.171  27.964  1.00  0.00     0.040 A 
ATOM     71  F   UNL A   1      37.948  33.492  29.125  1.00  0.00    -0.206 F 
ATOM     72  C   UNL A   1      34.869  32.355  27.594  1.00  0.00     0.006 A 
ENDBRANCH  51  65
BRANCH  52  73
ATOM     73  C   UNL A   1      44.329  27.891  34.984  1.00  0.00     0.057 A 
ATOM     74  C   UNL A   1      44.227  26.687  35.689  1.00  0.00     0.134 A 
ATOM     75  C   UNL A   1      45.513  28.625  35.129  1.00  0.00     0.134 A 
ATOM     76  F   UNL A   1      43.107  25.953  35.611  1.00  0.00    -0.206 F 
ATOM     77  C   UNL A   1      45.256  26.234  36.518  1.00  0.00     0.040 A 
ATOM     78  C   UNL A   1      46.560  28.172  35.934  1.00  0.00     0.040 A 
ATOM     79  F   UNL A   1      45.673  29.789  34.483  1.00  0.00    -0.206 F 
ATOM     80  C   UNL A   1      46.429  26.975  36.637  1.00  0.00     0.006 A 
ENDBRANCH  52  73
BRANCH  64  81
ATOM     81  C   UNL A   1      39.040  32.267  36.143  1.00  0.00     0.057 A 
ATOM     82  C   UNL A   1      38.187  31.708  37.102  1.00  0.00     0.134 A 
ATOM     83  C   UNL A   1      39.519  33.562  36.378  1.00  0.00     0.134 A 
ATOM     84  F   UNL A   1      37.685  30.476  36.929  1.00  0.00    -0.206 F 
ATOM     85  C   UNL A   1      37.808  32.419  38.243  1.00  0.00     0.040 A 
ATOM     86  C   UNL A   1      39.167  34.273  37.526  1.00  0.00     0.040 A 
ATOM     87  F   UNL A   1      40.347  34.152  35.503  1.00  0.00    -0.206 F 
ATOM     88  C   UNL A   1      38.304  33.703  38.460  1.00  0.00     0.006 A 
ENDBRANCH  64  81
ENDBRANCH  38  39
ENDBRANCH  31  33
ENDBRANCH  30  31
ENDBRANCH  29  30
ENDBRANCH  28  29
ENDBRANCH  27  28
ENDBRANCH  26  27
ENDBRANCH   1  26
TORSDOF 22
ENDMDL
