MODEL 1
REMARK VINA RESULT:     -10.4      0.000      0.000
REMARK SMILES C[C@H](NC(=O)OCc1ccccc1)C(=O)NCC(=O)N1CCC[C@H]1C(=O)OCCOCCOCCOC(=O)c1ccc(-c2c3nc(c(-c4c(F)cccc4F)c4ccc([nH]4)c(-c4c(F)cccc4F)c4nc(c(-c5c(F)cccc5F)c5ccc2[nH]5)C=C4)C=C3)cc1
REMARK SMILES IDX 28 1 27 2 25 3 26 4 24 5 20 6 21 7 22 8 23 9 18 10 19 11
REMARK SMILES IDX 17 12 16 13 14 14 15 15 2 17 1 18 3 19 4 20 5 22 6 23 7 24
REMARK SMILES IDX 8 25 9 26 13 27 10 28 12 29 11 30 29 31 30 32 31 33 32 34
REMARK SMILES IDX 33 35 34 36 35 37 36 38 37 39 38 40 39 41 40 42 92 43 41 44
REMARK SMILES IDX 91 45 42 46 43 47 44 48 85 49 45 50 90 51 84 52 86 53 46 54
REMARK SMILES IDX 89 55 83 56 82 57 47 59 73 60 56 61 72 62 57 63 60 64 71 65
REMARK SMILES IDX 87 66 58 67 59 68 70 70 88 71 61 72 48 73 49 74 54 75 50 76
REMARK SMILES IDX 51 77 53 78 55 79 52 80 74 81 75 82 80 83 76 84 77 85 79 86
REMARK SMILES IDX 81 87 78 88 62 89 63 90 68 91 64 92 65 93 67 94 69 95 66 96
REMARK H PARENT 16 16 3 21 86 58 60 69
REMARK Flexibility Score: inf
ROOT
ATOM      1  C   UNL A   1      32.423  25.496  22.912  1.00  0.00     0.261 C 
ENDROOT
BRANCH   1   2
ATOM      2  O   UNL A   1      31.898  26.795  22.548  1.00  0.00    -0.462 OA
BRANCH   2   3
ATOM      3  C   UNL A   1      30.955  27.337  23.377  1.00  0.00     0.328 C 
ATOM      4  O   UNL A   1      29.757  27.087  23.294  1.00  0.00    -0.250 OA
BRANCH   3   5
ATOM      5  C   UNL A   1      31.547  28.290  24.457  1.00  0.00     0.195 C 
ATOM      6  N   UNL A   1      32.260  27.756  25.652  1.00  0.00    -0.327 N 
ATOM      7  C   UNL A   1      33.547  28.428  25.812  1.00  0.00     0.120 C 
ATOM      8  C   UNL A   1      33.381  29.730  25.054  1.00  0.00     0.024 C 
ATOM      9  C   UNL A   1      32.521  29.322  23.867  1.00  0.00     0.039 C 
BRANCH   6  10
ATOM     10  C   UNL A   1      31.594  26.928  26.528  1.00  0.00     0.242 C 
ATOM     11  O   UNL A   1      31.090  27.400  27.552  1.00  0.00    -0.273 OA
BRANCH  10  12
ATOM     12  C   UNL A   1      31.617  25.390  26.398  1.00  0.00     0.216 C 
BRANCH  12  13
ATOM     13  N   UNL A   1      30.519  24.570  26.888  1.00  0.00    -0.345 N 
ATOM     14  C   UNL A   1      30.369  23.217  26.964  1.00  0.00     0.242 C 
ATOM     15  O   UNL A   1      29.408  22.796  27.613  1.00  0.00    -0.273 OA
ATOM     16  H   UNL A   1      29.749  25.084  27.225  1.00  0.00     0.164 HD
BRANCH  14  17
ATOM     17  C   UNL A   1      31.421  22.264  26.389  1.00  0.00     0.171 C 
ATOM     18  C   UNL A   1      32.714  22.416  27.188  1.00  0.00     0.042 C 
BRANCH  17  19
ATOM     19  N   UNL A   1      31.608  22.498  24.964  1.00  0.00    -0.310 N 
ATOM     20  C   UNL A   1      31.953  21.574  24.040  1.00  0.00     0.408 C 
ATOM     21  H   UNL A   1      31.470  23.419  24.642  1.00  0.00     0.167 HD
ATOM     22  O   UNL A   1      32.150  21.892  22.874  1.00  0.00    -0.225 OA
BRANCH  20  23
ATOM     23  O   UNL A   1      32.032  20.334  24.563  1.00  0.00    -0.445 OA
BRANCH  23  24
ATOM     24  C   UNL A   1      33.351  19.799  24.667  1.00  0.00     0.270 C 
BRANCH  24  25
ATOM     25  C   UNL A   1      33.379  18.294  24.766  1.00  0.00    -0.011 A 
ATOM     26  C   UNL A   1      32.679  17.591  25.760  1.00  0.00     0.007 A 
ATOM     27  C   UNL A   1      34.146  17.574  23.842  1.00  0.00     0.007 A 
ATOM     28  C   UNL A   1      32.712  16.197  25.797  1.00  0.00     0.000 A 
ATOM     29  C   UNL A   1      34.189  16.181  23.887  1.00  0.00     0.000 A 
ATOM     30  C   UNL A   1      33.466  15.493  24.860  1.00  0.00     0.000 A 
ENDBRANCH  24  25
ENDBRANCH  23  24
ENDBRANCH  20  23
ENDBRANCH  17  19
ENDBRANCH  14  17
ENDBRANCH  12  13
ENDBRANCH  10  12
ENDBRANCH   6  10
ENDBRANCH   3   5
ENDBRANCH   2   3
ENDBRANCH   1   2
BRANCH   1  31
ATOM     31  C   UNL A   1      33.952  25.358  22.830  1.00  0.00     0.202 C 
BRANCH  31  32
ATOM     32  O   UNL A   1      34.512  24.047  22.863  1.00  0.00    -0.376 OA
BRANCH  32  33
ATOM     33  C   UNL A   1      35.315  23.687  23.983  1.00  0.00     0.188 C 
BRANCH  33  34
ATOM     34  C   UNL A   1      35.986  22.304  23.969  1.00  0.00     0.188 C 
BRANCH  34  35
ATOM     35  O   UNL A   1      37.306  22.314  24.462  1.00  0.00    -0.376 OA
BRANCH  35  36
ATOM     36  C   UNL A   1      37.643  21.380  25.466  1.00  0.00     0.202 C 
BRANCH  36  37
ATOM     37  C   UNL A   1      39.143  21.203  25.758  1.00  0.00     0.261 C 
BRANCH  37  38
ATOM     38  O   UNL A   1      39.627  19.851  25.845  1.00  0.00    -0.460 OA
BRANCH  38  39
ATOM     39  C   UNL A   1      40.953  19.690  26.052  1.00  0.00     0.338 C 
ATOM     40  O   UNL A   1      41.645  18.759  25.682  1.00  0.00    -0.246 OA
BRANCH  39  41
ATOM     41  C   UNL A   1      41.493  20.967  26.575  1.00  0.00     0.060 A 
ATOM     42  C   UNL A   1      41.318  21.242  27.935  1.00  0.00     0.016 A 
ATOM     43  C   UNL A   1      42.139  21.890  25.756  1.00  0.00     0.016 A 
ATOM     44  C   UNL A   1      41.761  22.447  28.478  1.00  0.00     0.010 A 
ATOM     45  C   UNL A   1      42.570  23.109  26.301  1.00  0.00     0.010 A 
ATOM     46  C   UNL A   1      42.362  23.406  27.661  1.00  0.00    -0.014 A 
BRANCH  46  47
ATOM     47  C   UNL A   1      42.550  24.786  28.177  1.00  0.00     0.031 A 
ATOM     48  C   UNL A   1      43.933  25.195  28.601  1.00  0.00     0.074 A 
ATOM     49  C   UNL A   1      41.559  25.695  28.207  1.00  0.00     0.049 A 
ATOM     50  N   UNL A   1      44.332  26.264  29.239  1.00  0.00    -0.248 NA
ATOM     51  C   UNL A   1      45.013  24.263  28.243  1.00  0.00     0.031 C 
ATOM     52  C   UNL A   1      40.211  25.508  27.675  1.00  0.00     0.029 A 
ATOM     53  N   UNL A   1      41.546  26.971  28.719  1.00  0.00    -0.354 N 
ATOM     54  C   UNL A   1      45.703  26.112  29.399  1.00  0.00     0.074 A 
ATOM     55  C   UNL A   1      46.064  24.848  28.795  1.00  0.00     0.031 C 
ATOM     56  C   UNL A   1      39.495  26.624  27.906  1.00  0.00     0.029 A 
ATOM     57  C   UNL A   1      40.313  27.576  28.658  1.00  0.00     0.049 A 
ATOM     58  H   UNL A   1      42.343  27.411  29.094  1.00  0.00     0.167 HD
ATOM     59  C   UNL A   1      46.584  26.945  30.004  1.00  0.00     0.037 A 
ATOM     60  C   UNL A   1      39.886  28.739  29.190  1.00  0.00     0.037 A 
ATOM     61  C   UNL A   1      46.222  28.204  30.598  1.00  0.00     0.049 A 
ATOM     62  C   UNL A   1      40.840  29.581  30.000  1.00  0.00     0.074 A 
ATOM     63  C   UNL A   1      47.031  29.108  31.264  1.00  0.00     0.029 A 
ATOM     64  N   UNL A   1      44.941  28.736  30.601  1.00  0.00    -0.354 N 
ATOM     65  N   UNL A   1      42.120  29.403  30.223  1.00  0.00    -0.248 NA
ATOM     66  C   UNL A   1      40.284  30.779  30.649  1.00  0.00     0.031 C 
ATOM     67  C   UNL A   1      46.227  30.157  31.724  1.00  0.00     0.029 A 
ATOM     68  C   UNL A   1      44.931  29.942  31.282  1.00  0.00     0.049 A 
ATOM     69  H   UNL A   1      44.155  28.318  30.180  1.00  0.00     0.167 HD
ATOM     70  C   UNL A   1      42.530  30.486  30.995  1.00  0.00     0.074 A 
ATOM     71  C   UNL A   1      41.361  31.312  31.210  1.00  0.00     0.031 C 
ATOM     72  C   UNL A   1      43.767  30.772  31.471  1.00  0.00     0.037 A 
BRANCH  59  73
ATOM     73  C   UNL A   1      48.001  26.466  30.120  1.00  0.00     0.057 A 
ATOM     74  C   UNL A   1      48.944  26.649  29.099  1.00  0.00     0.134 A 
ATOM     75  C   UNL A   1      48.415  25.770  31.263  1.00  0.00     0.134 A 
ATOM     76  F   UNL A   1      48.608  27.290  27.969  1.00  0.00    -0.206 F 
ATOM     77  C   UNL A   1      50.230  26.114  29.191  1.00  0.00     0.040 A 
ATOM     78  C   UNL A   1      49.710  25.262  31.382  1.00  0.00     0.040 A 
ATOM     79  F   UNL A   1      47.567  25.562  32.280  1.00  0.00    -0.206 F 
ATOM     80  C   UNL A   1      50.617  25.420  30.336  1.00  0.00     0.006 A 
ENDBRANCH  59  73
BRANCH  60  81
ATOM     81  C   UNL A   1      38.475  29.170  29.011  1.00  0.00     0.057 A 
ATOM     82  C   UNL A   1      38.027  29.683  27.788  1.00  0.00     0.134 A 
ATOM     83  C   UNL A   1      37.547  29.106  30.058  1.00  0.00     0.134 A 
ATOM     84  F   UNL A   1      38.876  29.804  26.756  1.00  0.00    -0.206 F 
ATOM     85  C   UNL A   1      36.713  30.123  27.614  1.00  0.00     0.040 A 
ATOM     86  C   UNL A   1      36.223  29.515  29.891  1.00  0.00     0.040 A 
ATOM     87  F   UNL A   1      37.915  28.638  31.261  1.00  0.00    -0.206 F 
ATOM     88  C   UNL A   1      35.805  30.031  28.666  1.00  0.00     0.006 A 
ENDBRANCH  60  81
BRANCH  72  89
ATOM     89  C   UNL A   1      43.954  32.068  32.212  1.00  0.00     0.057 A 
ATOM     90  C   UNL A   1      43.891  32.150  33.608  1.00  0.00     0.134 A 
ATOM     91  C   UNL A   1      44.280  33.237  31.511  1.00  0.00     0.134 A 
ATOM     92  F   UNL A   1      43.573  31.072  34.340  1.00  0.00    -0.206 F 
ATOM     93  C   UNL A   1      44.131  33.352  34.279  1.00  0.00     0.040 A 
ATOM     94  C   UNL A   1      44.552  34.436  32.173  1.00  0.00     0.040 A 
ATOM     95  F   UNL A   1      44.367  33.227  30.173  1.00  0.00    -0.206 F 
ATOM     96  C   UNL A   1      44.473  34.496  33.561  1.00  0.00     0.006 A 
ENDBRANCH  72  89
ENDBRANCH  46  47
ENDBRANCH  39  41
ENDBRANCH  38  39
ENDBRANCH  37  38
ENDBRANCH  36  37
ENDBRANCH  35  36
ENDBRANCH  34  35
ENDBRANCH  33  34
ENDBRANCH  32  33
ENDBRANCH  31  32
ENDBRANCH   1  31
TORSDOF 25
ENDMDL
MODEL 2
REMARK VINA RESULT:     -10.4      4.172      9.379
REMARK SMILES C[C@H](NC(=O)OCc1ccccc1)C(=O)NCC(=O)N1CCC[C@H]1C(=O)OCCOCCOCCOC(=O)c1ccc(-c2c3nc(c(-c4c(F)cccc4F)c4ccc([nH]4)c(-c4c(F)cccc4F)c4nc(c(-c5c(F)cccc5F)c5ccc2[nH]5)C=C4)C=C3)cc1
REMARK SMILES IDX 28 1 27 2 25 3 26 4 24 5 20 6 21 7 22 8 23 9 18 10 19 11
REMARK SMILES IDX 17 12 16 13 14 14 15 15 2 17 1 18 3 19 4 20 5 22 6 23 7 24
REMARK SMILES IDX 8 25 9 26 13 27 10 28 12 29 11 30 29 31 30 32 31 33 32 34
REMARK SMILES IDX 33 35 34 36 35 37 36 38 37 39 38 40 39 41 40 42 92 43 41 44
REMARK SMILES IDX 91 45 42 46 43 47 44 48 85 49 45 50 90 51 84 52 86 53 46 54
REMARK SMILES IDX 89 55 83 56 82 57 47 59 73 60 56 61 72 62 57 63 60 64 71 65
REMARK SMILES IDX 87 66 58 67 59 68 70 70 88 71 61 72 48 73 49 74 54 75 50 76
REMARK SMILES IDX 51 77 53 78 55 79 52 80 74 81 75 82 80 83 76 84 77 85 79 86
REMARK SMILES IDX 81 87 78 88 62 89 63 90 68 91 64 92 65 93 67 94 69 95 66 96
REMARK H PARENT 16 16 3 21 86 58 60 69
REMARK Flexibility Score: inf
ROOT
ATOM      1  C   UNL A   1      35.548  29.420  27.361  1.00  0.00     0.261 C 
ENDROOT
BRANCH   1   2
ATOM      2  O   UNL A   1      34.373  28.580  27.262  1.00  0.00    -0.462 OA
BRANCH   2   3
ATOM      3  C   UNL A   1      33.256  29.140  26.707  1.00  0.00     0.328 C 
ATOM      4  O   UNL A   1      32.681  30.116  27.179  1.00  0.00    -0.250 OA
BRANCH   3   5
ATOM      5  C   UNL A   1      32.789  28.436  25.399  1.00  0.00     0.195 C 
ATOM      6  N   UNL A   1      31.403  27.907  25.258  1.00  0.00    -0.327 N 
ATOM      7  C   UNL A   1      30.807  28.380  24.011  1.00  0.00     0.120 C 
ATOM      8  C   UNL A   1      31.999  28.740  23.146  1.00  0.00     0.024 C 
ATOM      9  C   UNL A   1      32.986  29.312  24.151  1.00  0.00     0.039 C 
BRANCH   6  10
ATOM     10  C   UNL A   1      30.956  26.932  26.122  1.00  0.00     0.242 C 
ATOM     11  O   UNL A   1      31.522  26.770  27.208  1.00  0.00    -0.273 OA
BRANCH  10  12
ATOM     12  C   UNL A   1      29.897  25.884  25.716  1.00  0.00     0.216 C 
BRANCH  12  13
ATOM     13  N   UNL A   1      29.559  24.769  26.588  1.00  0.00    -0.345 N 
ATOM     14  C   UNL A   1      30.194  23.587  26.828  1.00  0.00     0.242 C 
ATOM     15  O   UNL A   1      29.781  22.911  27.773  1.00  0.00    -0.273 OA
ATOM     16  H   UNL A   1      28.723  24.891  27.096  1.00  0.00     0.164 HD
BRANCH  14  17
ATOM     17  C   UNL A   1      31.450  23.185  26.048  1.00  0.00     0.171 C 
ATOM     18  C   UNL A   1      31.035  22.696  24.662  1.00  0.00     0.042 C 
BRANCH  17  19
ATOM     19  N   UNL A   1      32.223  22.195  26.787  1.00  0.00    -0.310 N 
ATOM     20  C   UNL A   1      33.512  22.315  27.175  1.00  0.00     0.408 C 
ATOM     21  H   UNL A   1      31.762  21.358  27.027  1.00  0.00     0.167 HD
ATOM     22  O   UNL A   1      34.089  21.392  27.736  1.00  0.00    -0.225 OA
BRANCH  20  23
ATOM     23  O   UNL A   1      34.024  23.527  26.878  1.00  0.00    -0.445 OA
BRANCH  23  24
ATOM     24  C   UNL A   1      34.999  23.537  25.835  1.00  0.00     0.270 C 
BRANCH  24  25
ATOM     25  C   UNL A   1      34.421  23.871  24.482  1.00  0.00    -0.011 A 
ATOM     26  C   UNL A   1      34.317  22.922  23.452  1.00  0.00     0.007 A 
ATOM     27  C   UNL A   1      33.988  25.181  24.241  1.00  0.00     0.007 A 
ATOM     28  C   UNL A   1      33.752  23.268  22.225  1.00  0.00     0.000 A 
ATOM     29  C   UNL A   1      33.435  25.529  23.009  1.00  0.00     0.000 A 
ATOM     30  C   UNL A   1      33.310  24.571  22.005  1.00  0.00     0.000 A 
ENDBRANCH  24  25
ENDBRANCH  23  24
ENDBRANCH  20  23
ENDBRANCH  17  19
ENDBRANCH  14  17
ENDBRANCH  12  13
ENDBRANCH  10  12
ENDBRANCH   6  10
ENDBRANCH   3   5
ENDBRANCH   2   3
ENDBRANCH   1   2
BRANCH   1  31
ATOM     31  C   UNL A   1      35.920  29.867  28.785  1.00  0.00     0.202 C 
BRANCH  31  32
ATOM     32  O   UNL A   1      35.613  31.204  29.172  1.00  0.00    -0.376 OA
BRANCH  32  33
ATOM     33  C   UNL A   1      36.149  32.269  28.394  1.00  0.00     0.188 C 
BRANCH  33  34
ATOM     34  C   UNL A   1      35.442  33.632  28.460  1.00  0.00     0.188 C 
BRANCH  34  35
ATOM     35  O   UNL A   1      34.037  33.541  28.394  1.00  0.00    -0.376 OA
BRANCH  35  36
ATOM     36  C   UNL A   1      33.298  34.743  28.364  1.00  0.00     0.202 C 
BRANCH  36  37
ATOM     37  C   UNL A   1      33.098  35.456  29.713  1.00  0.00     0.261 C 
BRANCH  37  38
ATOM     38  O   UNL A   1      33.029  34.617  30.881  1.00  0.00    -0.460 OA
BRANCH  38  39
ATOM     39  C   UNL A   1      33.182  35.225  32.078  1.00  0.00     0.338 C 
ATOM     40  O   UNL A   1      32.365  35.916  32.659  1.00  0.00    -0.246 OA
BRANCH  39  41
ATOM     41  C   UNL A   1      34.416  34.695  32.705  1.00  0.00     0.060 A 
ATOM     42  C   UNL A   1      35.606  35.401  32.505  1.00  0.00     0.016 A 
ATOM     43  C   UNL A   1      34.420  33.524  33.458  1.00  0.00     0.016 A 
ATOM     44  C   UNL A   1      36.808  34.930  33.029  1.00  0.00     0.010 A 
ATOM     45  C   UNL A   1      35.634  33.042  33.972  1.00  0.00     0.010 A 
ATOM     46  C   UNL A   1      36.840  33.729  33.741  1.00  0.00    -0.014 A 
BRANCH  46  47
ATOM     47  C   UNL A   1      38.150  33.088  34.027  1.00  0.00     0.031 A 
ATOM     48  C   UNL A   1      38.664  32.074  33.043  1.00  0.00     0.074 A 
ATOM     49  C   UNL A   1      38.916  33.431  35.077  1.00  0.00     0.049 A 
ATOM     50  N   UNL A   1      39.677  31.252  33.139  1.00  0.00    -0.248 NA
ATOM     51  C   UNL A   1      37.930  31.986  31.771  1.00  0.00     0.031 C 
ATOM     52  C   UNL A   1      38.639  34.511  36.021  1.00  0.00     0.029 A 
ATOM     53  N   UNL A   1      40.099  32.889  35.522  1.00  0.00    -0.354 N 
ATOM     54  C   UNL A   1      39.675  30.519  31.960  1.00  0.00     0.074 A 
ATOM     55  C   UNL A   1      38.559  30.992  31.169  1.00  0.00     0.031 C 
ATOM     56  C   UNL A   1      39.616  34.540  36.946  1.00  0.00     0.029 A 
ATOM     57  C   UNL A   1      40.549  33.442  36.697  1.00  0.00     0.049 A 
ATOM     58  H   UNL A   1      40.578  32.173  35.045  1.00  0.00     0.167 HD
ATOM     59  C   UNL A   1      40.519  29.534  31.573  1.00  0.00     0.037 A 
ATOM     60  C   UNL A   1      41.567  33.070  37.500  1.00  0.00     0.037 A 
ATOM     61  C   UNL A   1      41.631  29.072  32.360  1.00  0.00     0.049 A 
ATOM     62  C   UNL A   1      42.402  31.868  37.136  1.00  0.00     0.074 A 
ATOM     63  C   UNL A   1      42.527  28.057  32.075  1.00  0.00     0.029 A 
ATOM     64  N   UNL A   1      41.995  29.593  33.593  1.00  0.00    -0.354 N 
ATOM     65  N   UNL A   1      42.355  31.119  36.059  1.00  0.00    -0.248 NA
ATOM     66  C   UNL A   1      43.422  31.446  38.109  1.00  0.00     0.031 C 
ATOM     67  C   UNL A   1      43.397  27.924  33.164  1.00  0.00     0.029 A 
ATOM     68  C   UNL A   1      43.086  28.902  34.095  1.00  0.00     0.049 A 
ATOM     69  H   UNL A   1      41.545  30.343  34.045  1.00  0.00     0.167 HD
ATOM     70  C   UNL A   1      43.363  30.173  36.205  1.00  0.00     0.074 A 
ATOM     71  C   UNL A   1      44.002  30.435  37.477  1.00  0.00     0.031 C 
ATOM     72  C   UNL A   1      43.732  29.184  35.353  1.00  0.00     0.037 A 
BRANCH  59  73
ATOM     73  C   UNL A   1      40.207  28.843  30.278  1.00  0.00     0.057 A 
ATOM     74  C   UNL A   1      40.701  29.293  29.046  1.00  0.00     0.134 A 
ATOM     75  C   UNL A   1      39.360  27.727  30.264  1.00  0.00     0.134 A 
ATOM     76  F   UNL A   1      41.502  30.368  28.985  1.00  0.00    -0.206 F 
ATOM     77  C   UNL A   1      40.323  28.689  27.845  1.00  0.00     0.040 A 
ATOM     78  C   UNL A   1      39.005  27.092  29.072  1.00  0.00     0.040 A 
ATOM     79  F   UNL A   1      38.855  27.239  31.407  1.00  0.00    -0.206 F 
ATOM     80  C   UNL A   1      39.474  27.584  27.857  1.00  0.00     0.006 A 
ENDBRANCH  59  73
BRANCH  60  81
ATOM     81  C   UNL A   1      41.841  33.819  38.755  1.00  0.00     0.057 A 
ATOM     82  C   UNL A   1      42.845  34.793  38.809  1.00  0.00     0.134 A 
ATOM     83  C   UNL A   1      41.131  33.564  39.934  1.00  0.00     0.134 A 
ATOM     84  F   UNL A   1      43.586  35.059  37.722  1.00  0.00    -0.206 F 
ATOM     85  C   UNL A   1      43.136  35.481  39.988  1.00  0.00     0.040 A 
ATOM     86  C   UNL A   1      41.391  34.263  41.113  1.00  0.00     0.040 A 
ATOM     87  F   UNL A   1      40.165  32.632  39.955  1.00  0.00    -0.206 F 
ATOM     88  C   UNL A   1      42.402  35.222  41.143  1.00  0.00     0.006 A 
ENDBRANCH  60  81
BRANCH  72  89
ATOM     89  C   UNL A   1      44.927  28.348  35.719  1.00  0.00     0.057 A 
ATOM     90  C   UNL A   1      44.816  27.162  36.454  1.00  0.00     0.134 A 
ATOM     91  C   UNL A   1      46.203  28.704  35.258  1.00  0.00     0.134 A 
ATOM     92  F   UNL A   1      43.628  26.767  36.935  1.00  0.00    -0.206 F 
ATOM     93  C   UNL A   1      45.933  26.367  36.728  1.00  0.00     0.040 A 
ATOM     94  C   UNL A   1      47.320  27.903  35.501  1.00  0.00     0.040 A 
ATOM     95  F   UNL A   1      46.379  29.823  34.540  1.00  0.00    -0.206 F 
ATOM     96  C   UNL A   1      47.187  26.732  36.242  1.00  0.00     0.006 A 
ENDBRANCH  72  89
ENDBRANCH  46  47
ENDBRANCH  39  41
ENDBRANCH  38  39
ENDBRANCH  37  38
ENDBRANCH  36  37
ENDBRANCH  35  36
ENDBRANCH  34  35
ENDBRANCH  33  34
ENDBRANCH  32  33
ENDBRANCH  31  32
ENDBRANCH   1  31
TORSDOF 25
ENDMDL
MODEL 3
REMARK VINA RESULT:     -10.3      3.275      8.000
REMARK SMILES C[C@H](NC(=O)OCc1ccccc1)C(=O)NCC(=O)N1CCC[C@H]1C(=O)OCCOCCOCCOC(=O)c1ccc(-c2c3nc(c(-c4c(F)cccc4F)c4ccc([nH]4)c(-c4c(F)cccc4F)c4nc(c(-c5c(F)cccc5F)c5ccc2[nH]5)C=C4)C=C3)cc1
REMARK SMILES IDX 28 1 27 2 25 3 26 4 24 5 20 6 21 7 22 8 23 9 18 10 19 11
REMARK SMILES IDX 17 12 16 13 14 14 15 15 2 17 1 18 3 19 4 20 5 22 6 23 7 24
REMARK SMILES IDX 8 25 9 26 13 27 10 28 12 29 11 30 29 31 30 32 31 33 32 34
REMARK SMILES IDX 33 35 34 36 35 37 36 38 37 39 38 40 39 41 40 42 92 43 41 44
REMARK SMILES IDX 91 45 42 46 43 47 44 48 85 49 45 50 90 51 84 52 86 53 46 54
REMARK SMILES IDX 89 55 83 56 82 57 47 59 73 60 56 61 72 62 57 63 60 64 71 65
REMARK SMILES IDX 87 66 58 67 59 68 70 70 88 71 61 72 48 73 49 74 54 75 50 76
REMARK SMILES IDX 51 77 53 78 55 79 52 80 74 81 75 82 80 83 76 84 77 85 79 86
REMARK SMILES IDX 81 87 78 88 62 89 63 90 68 91 64 92 65 93 67 94 69 95 66 96
REMARK H PARENT 16 16 3 21 86 58 60 69
REMARK Flexibility Score: inf
ROOT
ATOM      1  C   UNL A   1      34.049  29.863  26.821  1.00  0.00     0.261 C 
ENDROOT
BRANCH   1   2
ATOM      2  O   UNL A   1      33.287  30.127  25.619  1.00  0.00    -0.462 OA
BRANCH   2   3
ATOM      3  C   UNL A   1      32.084  29.490  25.494  1.00  0.00     0.328 C 
ATOM      4  O   UNL A   1      31.405  29.131  26.450  1.00  0.00    -0.250 OA
BRANCH   3   5
ATOM      5  C   UNL A   1      31.639  29.279  24.016  1.00  0.00     0.195 C 
ATOM      6  N   UNL A   1      31.918  28.003  23.299  1.00  0.00    -0.327 N 
ATOM      7  C   UNL A   1      30.699  27.501  22.672  1.00  0.00     0.120 C 
ATOM      8  C   UNL A   1      29.817  28.727  22.543  1.00  0.00     0.024 C 
ATOM      9  C   UNL A   1      30.132  29.504  23.813  1.00  0.00     0.039 C 
BRANCH   6  10
ATOM     10  C   UNL A   1      33.221  27.591  23.126  1.00  0.00     0.242 C 
ATOM     11  O   UNL A   1      34.029  28.335  22.562  1.00  0.00    -0.273 OA
BRANCH  10  12
ATOM     12  C   UNL A   1      33.681  26.147  23.424  1.00  0.00     0.216 C 
BRANCH  12  13
ATOM     13  N   UNL A   1      33.726  25.134  22.379  1.00  0.00    -0.345 N 
ATOM     14  C   UNL A   1      33.297  23.840  22.360  1.00  0.00     0.242 C 
ATOM     15  O   UNL A   1      33.284  23.272  21.265  1.00  0.00    -0.273 OA
ATOM     16  H   UNL A   1      34.140  25.438  21.538  1.00  0.00     0.164 HD
BRANCH  14  17
ATOM     17  C   UNL A   1      32.727  23.170  23.614  1.00  0.00     0.171 C 
ATOM     18  C   UNL A   1      31.803  22.032  23.187  1.00  0.00     0.042 C 
BRANCH  17  19
ATOM     19  N   UNL A   1      32.063  24.147  24.466  1.00  0.00    -0.310 N 
ATOM     20  C   UNL A   1      31.964  24.097  25.813  1.00  0.00     0.408 C 
ATOM     21  H   UNL A   1      31.645  24.919  24.018  1.00  0.00     0.167 HD
ATOM     22  O   UNL A   1      31.323  24.940  26.429  1.00  0.00    -0.225 OA
BRANCH  20  23
ATOM     23  O   UNL A   1      32.640  23.054  26.336  1.00  0.00    -0.445 OA
BRANCH  23  24
ATOM     24  C   UNL A   1      33.936  23.364  26.849  1.00  0.00     0.270 C 
BRANCH  24  25
ATOM     25  C   UNL A   1      35.059  22.856  25.979  1.00  0.00    -0.011 A 
ATOM     26  C   UNL A   1      35.411  21.499  25.919  1.00  0.00     0.007 A 
ATOM     27  C   UNL A   1      35.787  23.778  25.216  1.00  0.00     0.007 A 
ATOM     28  C   UNL A   1      36.440  21.071  25.080  1.00  0.00     0.000 A 
ATOM     29  C   UNL A   1      36.824  23.352  24.388  1.00  0.00     0.000 A 
ATOM     30  C   UNL A   1      37.145  21.997  24.314  1.00  0.00     0.000 A 
ENDBRANCH  24  25
ENDBRANCH  23  24
ENDBRANCH  20  23
ENDBRANCH  17  19
ENDBRANCH  14  17
ENDBRANCH  12  13
ENDBRANCH  10  12
ENDBRANCH   6  10
ENDBRANCH   3   5
ENDBRANCH   2   3
ENDBRANCH   1   2
BRANCH   1  31
ATOM     31  C   UNL A   1      33.971  30.954  27.902  1.00  0.00     0.202 C 
BRANCH  31  32
ATOM     32  O   UNL A   1      35.156  31.689  28.203  1.00  0.00    -0.376 OA
BRANCH  32  33
ATOM     33  C   UNL A   1      35.167  33.087  27.933  1.00  0.00     0.188 C 
BRANCH  33  34
ATOM     34  C   UNL A   1      34.023  33.937  28.511  1.00  0.00     0.188 C 
BRANCH  34  35
ATOM     35  O   UNL A   1      34.460  34.929  29.412  1.00  0.00    -0.376 OA
BRANCH  35  36
ATOM     36  C   UNL A   1      33.801  35.029  30.656  1.00  0.00     0.202 C 
BRANCH  36  37
ATOM     37  C   UNL A   1      34.480  34.330  31.846  1.00  0.00     0.261 C 
BRANCH  37  38
ATOM     38  O   UNL A   1      35.847  33.919  31.657  1.00  0.00    -0.460 OA
BRANCH  38  39
ATOM     39  C   UNL A   1      36.316  32.962  32.489  1.00  0.00     0.338 C 
ATOM     40  O   UNL A   1      35.875  32.661  33.583  1.00  0.00    -0.246 OA
BRANCH  39  41
ATOM     41  C   UNL A   1      37.299  32.146  31.738  1.00  0.00     0.060 A 
ATOM     42  C   UNL A   1      37.979  31.140  32.432  1.00  0.00     0.016 A 
ATOM     43  C   UNL A   1      37.569  32.365  30.390  1.00  0.00     0.016 A 
ATOM     44  C   UNL A   1      38.950  30.370  31.795  1.00  0.00     0.010 A 
ATOM     45  C   UNL A   1      38.558  31.598  29.753  1.00  0.00     0.010 A 
ATOM     46  C   UNL A   1      39.272  30.612  30.459  1.00  0.00    -0.014 A 
BRANCH  46  47
ATOM     47  C   UNL A   1      40.500  30.003  29.885  1.00  0.00     0.031 A 
ATOM     48  C   UNL A   1      41.728  30.865  29.784  1.00  0.00     0.074 A 
ATOM     49  C   UNL A   1      40.575  28.709  29.528  1.00  0.00     0.049 A 
ATOM     50  N   UNL A   1      42.862  30.639  29.172  1.00  0.00    -0.248 NA
ATOM     51  C   UNL A   1      41.661  32.159  30.480  1.00  0.00     0.031 C 
ATOM     52  C   UNL A   1      39.530  27.707  29.723  1.00  0.00     0.029 A 
ATOM     53  N   UNL A   1      41.596  28.018  28.918  1.00  0.00    -0.354 N 
ATOM     54  C   UNL A   1      43.626  31.781  29.373  1.00  0.00     0.074 A 
ATOM     55  C   UNL A   1      42.826  32.696  30.158  1.00  0.00     0.031 C 
ATOM     56  C   UNL A   1      39.957  26.533  29.222  1.00  0.00     0.029 A 
ATOM     57  C   UNL A   1      41.276  26.716  28.616  1.00  0.00     0.049 A 
ATOM     58  H   UNL A   1      42.472  28.418  28.715  1.00  0.00     0.167 HD
ATOM     59  C   UNL A   1      44.880  32.050  28.935  1.00  0.00     0.037 A 
ATOM     60  C   UNL A   1      41.950  25.799  27.893  1.00  0.00     0.037 A 
ATOM     61  C   UNL A   1      45.674  31.135  28.160  1.00  0.00     0.049 A 
ATOM     62  C   UNL A   1      43.275  26.167  27.274  1.00  0.00     0.074 A 
ATOM     63  C   UNL A   1      46.942  31.322  27.638  1.00  0.00     0.029 A 
ATOM     64  N   UNL A   1      45.274  29.859  27.791  1.00  0.00    -0.354 N 
ATOM     65  N   UNL A   1      43.969  27.274  27.394  1.00  0.00    -0.248 NA
ATOM     66  C   UNL A   1      43.905  25.161  26.404  1.00  0.00     0.031 C 
ATOM     67  C   UNL A   1      47.283  30.182  26.901  1.00  0.00     0.029 A 
ATOM     68  C   UNL A   1      46.258  29.258  27.024  1.00  0.00     0.049 A 
ATOM     69  H   UNL A   1      44.416  29.442  28.038  1.00  0.00     0.167 HD
ATOM     70  C   UNL A   1      45.131  27.080  26.655  1.00  0.00     0.074 A 
ATOM     71  C   UNL A   1      45.048  25.753  26.083  1.00  0.00     0.031 C 
ATOM     72  C   UNL A   1      46.178  27.925  26.478  1.00  0.00     0.037 A 
BRANCH  59  73
ATOM     73  C   UNL A   1      45.417  33.422  29.218  1.00  0.00     0.057 A 
ATOM     74  C   UNL A   1      45.212  34.505  28.352  1.00  0.00     0.134 A 
ATOM     75  C   UNL A   1      46.191  33.650  30.363  1.00  0.00     0.134 A 
ATOM     76  F   UNL A   1      44.497  34.350  27.226  1.00  0.00    -0.206 F 
ATOM     77  C   UNL A   1      45.799  35.749  28.589  1.00  0.00     0.040 A 
ATOM     78  C   UNL A   1      46.752  34.900  30.630  1.00  0.00     0.040 A 
ATOM     79  F   UNL A   1      46.424  32.660  31.238  1.00  0.00    -0.206 F 
ATOM     80  C   UNL A   1      46.570  35.950  29.733  1.00  0.00     0.006 A 
ENDBRANCH  59  73
BRANCH  60  81
ATOM     81  C   UNL A   1      41.373  24.447  27.677  1.00  0.00     0.057 A 
ATOM     82  C   UNL A   1      40.317  24.249  26.779  1.00  0.00     0.134 A 
ATOM     83  C   UNL A   1      41.839  23.326  28.376  1.00  0.00     0.134 A 
ATOM     84  F   UNL A   1      39.800  25.287  26.105  1.00  0.00    -0.206 F 
ATOM     85  C   UNL A   1      39.743  22.990  26.589  1.00  0.00     0.040 A 
ATOM     86  C   UNL A   1      41.294  22.057  28.176  1.00  0.00     0.040 A 
ATOM     87  F   UNL A   1      42.840  23.450  29.261  1.00  0.00    -0.206 F 
ATOM     88  C   UNL A   1      40.238  21.888  27.283  1.00  0.00     0.006 A 
ENDBRANCH  60  81
BRANCH  72  89
ATOM     89  C   UNL A   1      47.361  27.427  25.695  1.00  0.00     0.057 A 
ATOM     90  C   UNL A   1      48.439  26.771  26.300  1.00  0.00     0.134 A 
ATOM     91  C   UNL A   1      47.378  27.542  24.297  1.00  0.00     0.134 A 
ATOM     92  F   UNL A   1      48.493  26.636  27.633  1.00  0.00    -0.206 F 
ATOM     93  C   UNL A   1      49.498  26.259  25.545  1.00  0.00     0.040 A 
ATOM     94  C   UNL A   1      48.416  27.008  23.531  1.00  0.00     0.040 A 
ATOM     95  F   UNL A   1      46.372  28.150  23.652  1.00  0.00    -0.206 F 
ATOM     96  C   UNL A   1      49.482  26.368  24.155  1.00  0.00     0.006 A 
ENDBRANCH  72  89
ENDBRANCH  46  47
ENDBRANCH  39  41
ENDBRANCH  38  39
ENDBRANCH  37  38
ENDBRANCH  36  37
ENDBRANCH  35  36
ENDBRANCH  34  35
ENDBRANCH  33  34
ENDBRANCH  32  33
ENDBRANCH  31  32
ENDBRANCH   1  31
TORSDOF 25
ENDMDL
