MODEL 1
REMARK VINA RESULT:     -10.3      0.000      0.000
REMARK SMILES C[C@]1(C(=O)NCc2ccc(C(=O)OCCOCCOCCOC(=O)c3ccc(-c4c5nc(c(-c6c(F)cccc6F)c6ccc([nH]6)c(-c6c(F)cccc6F)c6nc(c(-c7c(F)cccc7F)c7ccc4[nH]7)C=C6)C=C5)cc3)o2)CCC[NH2+]C1
REMARK SMILES IDX 17 1 16 2 15 3 14 4 13 5 11 6 12 7 10 8 7 9 8 10 79 11 9 12
REMARK SMILES IDX 6 13 5 14 3 15 4 16 2 18 1 19 80 20 84 21 81 22 83 23 82 24
REMARK SMILES IDX 18 27 19 28 20 29 21 30 22 31 23 32 24 33 25 34 26 35 78 36
REMARK SMILES IDX 27 37 77 38 28 39 29 40 30 41 71 42 31 43 76 44 70 45 72 46
REMARK SMILES IDX 32 47 75 48 69 49 68 50 33 52 59 53 42 54 58 55 43 56 46 57
REMARK SMILES IDX 57 58 73 59 44 60 45 61 56 63 74 64 47 65 34 66 35 67 40 68
REMARK SMILES IDX 36 69 37 70 39 71 41 72 38 73 60 74 61 75 66 76 62 77 63 78
REMARK SMILES IDX 65 79 67 80 64 81 48 82 49 83 54 84 50 85 51 86 53 87 55 88
REMARK SMILES IDX 52 89
REMARK H PARENT 5 17 83 25 83 26 72 51 46 62
REMARK Flexibility Score: inf
ROOT
ATOM      1  C   UNL A   1      33.255  36.716  31.433  1.00  0.00     0.188 C 
ENDROOT
BRANCH   1   2
ATOM      2  O   UNL A   1      32.556  36.135  30.336  1.00  0.00    -0.376 OA
BRANCH   2   3
ATOM      3  C   UNL A   1      33.217  35.970  29.088  1.00  0.00     0.202 C 
BRANCH   3   4
ATOM      4  C   UNL A   1      33.038  34.611  28.410  1.00  0.00     0.261 C 
BRANCH   4   5
ATOM      5  O   UNL A   1      33.821  33.592  29.050  1.00  0.00    -0.457 OA
BRANCH   5   6
ATOM      6  C   UNL A   1      34.906  33.142  28.355  1.00  0.00     0.374 C 
ATOM      7  O   UNL A   1      35.928  33.786  28.156  1.00  0.00    -0.242 OA
BRANCH   6   8
ATOM      8  C   UNL A   1      34.710  31.753  28.013  1.00  0.00     0.211 A 
ATOM      9  C   UNL A   1      33.701  30.107  26.939  1.00  0.00     0.124 A 
ATOM     10  C   UNL A   1      34.807  29.554  27.557  1.00  0.00     0.048 A 
ATOM     11  O   UNL A   1      33.625  31.433  27.240  1.00  0.00    -0.452 OA
ATOM     12  C   UNL A   1      35.461  30.612  28.236  1.00  0.00     0.058 A 
BRANCH   9  13
ATOM     13  C   UNL A   1      32.646  29.581  26.029  1.00  0.00     0.191 C 
BRANCH  13  14
ATOM     14  N   UNL A   1      33.156  29.543  24.678  1.00  0.00    -0.348 N 
ATOM     15  C   UNL A   1      33.614  28.546  23.881  1.00  0.00     0.232 C 
ATOM     16  O   UNL A   1      34.329  28.957  22.960  1.00  0.00    -0.274 OA
ATOM     17  H   UNL A   1      33.177  30.427  24.245  1.00  0.00     0.163 HD
BRANCH  15  18
ATOM     18  C   UNL A   1      33.190  27.054  23.983  1.00  0.00     0.095 C 
ATOM     19  C   UNL A   1      33.811  26.291  25.167  1.00  0.00     0.028 C 
ATOM     20  C   UNL A   1      31.650  26.985  24.114  1.00  0.00     0.028 C 
ATOM     21  C   UNL A   1      33.653  26.305  22.697  1.00  0.00     0.277 C 
ATOM     22  C   UNL A   1      30.928  27.264  22.794  1.00  0.00     0.063 C 
ATOM     23  N   UNL A   1      32.886  26.573  21.481  1.00  0.00    -0.345 N 
ATOM     24  C   UNL A   1      31.456  26.378  21.671  1.00  0.00     0.260 C 
ATOM     25  H   UNL A   1      33.049  27.539  21.197  1.00  0.00     0.346 HD
ATOM     26  H   UNL A   1      33.196  25.915  20.766  1.00  0.00     0.346 HD
ENDBRANCH  15  18
ENDBRANCH  13  14
ENDBRANCH   9  13
ENDBRANCH   6   8
ENDBRANCH   5   6
ENDBRANCH   4   5
ENDBRANCH   3   4
ENDBRANCH   2   3
ENDBRANCH   1   2
BRANCH   1  27
ATOM     27  C   UNL A   1      33.801  35.809  32.550  1.00  0.00     0.188 C 
BRANCH  27  28
ATOM     28  O   UNL A   1      33.099  34.579  32.680  1.00  0.00    -0.376 OA
BRANCH  28  29
ATOM     29  C   UNL A   1      33.863  33.477  33.151  1.00  0.00     0.202 C 
BRANCH  29  30
ATOM     30  C   UNL A   1      35.019  33.148  32.203  1.00  0.00     0.261 C 
BRANCH  30  31
ATOM     31  O   UNL A   1      35.639  31.878  32.459  1.00  0.00    -0.460 OA
BRANCH  31  32
ATOM     32  C   UNL A   1      36.734  31.892  33.250  1.00  0.00     0.338 C 
ATOM     33  O   UNL A   1      36.774  32.021  34.460  1.00  0.00    -0.246 OA
BRANCH  32  34
ATOM     34  C   UNL A   1      37.904  31.572  32.412  1.00  0.00     0.060 A 
ATOM     35  C   UNL A   1      37.705  31.298  31.054  1.00  0.00     0.016 A 
ATOM     36  C   UNL A   1      39.184  31.527  32.970  1.00  0.00     0.016 A 
ATOM     37  C   UNL A   1      38.793  30.952  30.253  1.00  0.00     0.010 A 
ATOM     38  C   UNL A   1      40.269  31.168  32.172  1.00  0.00     0.010 A 
ATOM     39  C   UNL A   1      40.075  30.856  30.816  1.00  0.00    -0.014 A 
BRANCH  39  40
ATOM     40  C   UNL A   1      41.196  30.290  30.031  1.00  0.00     0.031 A 
ATOM     41  C   UNL A   1      42.347  31.183  29.667  1.00  0.00     0.074 A 
ATOM     42  C   UNL A   1      41.181  29.007  29.630  1.00  0.00     0.049 A 
ATOM     43  N   UNL A   1      43.409  30.917  28.951  1.00  0.00    -0.248 NA
ATOM     44  C   UNL A   1      42.291  32.563  30.178  1.00  0.00     0.031 C 
ATOM     45  C   UNL A   1      40.130  28.037  29.929  1.00  0.00     0.029 A 
ATOM     46  N   UNL A   1      42.081  28.308  28.866  1.00  0.00    -0.354 N 
ATOM     47  C   UNL A   1      44.149  32.091  28.928  1.00  0.00     0.074 A 
ATOM     48  C   UNL A   1      43.404  33.079  29.679  1.00  0.00     0.031 C 
ATOM     49  C   UNL A   1      40.438  26.868  29.339  1.00  0.00     0.029 A 
ATOM     50  C   UNL A   1      41.694  27.017  28.605  1.00  0.00     0.049 A 
ATOM     51  H   UNL A   1      42.923  28.695  28.535  1.00  0.00     0.167 HD
ATOM     52  C   UNL A   1      45.345  32.325  28.340  1.00  0.00     0.037 A 
ATOM     53  C   UNL A   1      42.280  26.073  27.845  1.00  0.00     0.037 A 
ATOM     54  C   UNL A   1      46.081  31.353  27.578  1.00  0.00     0.049 A 
ATOM     55  C   UNL A   1      43.578  26.377  27.146  1.00  0.00     0.074 A 
ATOM     56  C   UNL A   1      47.310  31.494  26.958  1.00  0.00     0.029 A 
ATOM     57  N   UNL A   1      45.649  30.061  27.324  1.00  0.00    -0.354 N 
ATOM     58  N   UNL A   1      44.290  27.477  27.164  1.00  0.00    -0.248 NA
ATOM     59  C   UNL A   1      44.153  25.305  26.319  1.00  0.00     0.031 C 
ATOM     60  C   UNL A   1      47.606  30.297  26.297  1.00  0.00     0.029 A 
ATOM     61  C   UNL A   1      46.577  29.400  26.538  1.00  0.00     0.049 A 
ATOM     62  H   UNL A   1      44.807  29.671  27.654  1.00  0.00     0.167 HD
ATOM     63  C   UNL A   1      45.406  27.223  26.376  1.00  0.00     0.074 A 
ATOM     64  C   UNL A   1      45.281  25.862  25.899  1.00  0.00     0.031 C 
ATOM     65  C   UNL A   1      46.444  28.042  26.079  1.00  0.00     0.037 A 
BRANCH  52  66
ATOM     66  C   UNL A   1      45.921  33.699  28.489  1.00  0.00     0.057 A 
ATOM     67  C   UNL A   1      46.777  34.023  29.548  1.00  0.00     0.134 A 
ATOM     68  C   UNL A   1      45.631  34.700  27.555  1.00  0.00     0.134 A 
ATOM     69  F   UNL A   1      47.077  33.110  30.484  1.00  0.00    -0.206 F 
ATOM     70  C   UNL A   1      47.313  35.304  29.684  1.00  0.00     0.040 A 
ATOM     71  C   UNL A   1      46.176  35.980  27.669  1.00  0.00     0.040 A 
ATOM     72  F   UNL A   1      44.816  34.451  26.519  1.00  0.00    -0.206 F 
ATOM     73  C   UNL A   1      47.016  36.285  28.739  1.00  0.00     0.006 A 
ENDBRANCH  52  66
BRANCH  53  74
ATOM     74  C   UNL A   1      41.642  24.743  27.694  1.00  0.00     0.057 A 
ATOM     75  C   UNL A   1      40.602  24.539  26.781  1.00  0.00     0.134 A 
ATOM     76  C   UNL A   1      42.039  23.654  28.479  1.00  0.00     0.134 A 
ATOM     77  F   UNL A   1      40.163  25.554  26.022  1.00  0.00    -0.206 F 
ATOM     78  C   UNL A   1      39.968  23.302  26.662  1.00  0.00     0.040 A 
ATOM     79  C   UNL A   1      41.427  22.405  28.356  1.00  0.00     0.040 A 
ATOM     80  F   UNL A   1      43.027  23.789  29.375  1.00  0.00    -0.206 F 
ATOM     81  C   UNL A   1      40.384  22.230  27.448  1.00  0.00     0.006 A 
ENDBRANCH  53  74
BRANCH  65  82
ATOM     82  C   UNL A   1      47.542  27.482  25.228  1.00  0.00     0.057 A 
ATOM     83  C   UNL A   1      47.537  27.618  23.834  1.00  0.00     0.134 A 
ATOM     84  C   UNL A   1      48.643  26.845  25.814  1.00  0.00     0.134 A 
ATOM     85  F   UNL A   1      46.505  28.208  23.213  1.00  0.00    -0.206 F 
ATOM     86  C   UNL A   1      48.583  27.125  23.052  1.00  0.00     0.040 A 
ATOM     87  C   UNL A   1      49.704  26.366  25.044  1.00  0.00     0.040 A 
ATOM     88  F   UNL A   1      48.711  26.690  27.144  1.00  0.00    -0.206 F 
ATOM     89  C   UNL A   1      49.673  26.503  23.658  1.00  0.00     0.006 A 
ENDBRANCH  65  82
ENDBRANCH  39  40
ENDBRANCH  32  34
ENDBRANCH  31  32
ENDBRANCH  30  31
ENDBRANCH  29  30
ENDBRANCH  28  29
ENDBRANCH  27  28
ENDBRANCH   1  27
TORSDOF 20
ENDMDL
MODEL 2
REMARK VINA RESULT:     -10.3      3.848      7.594
REMARK SMILES C[C@]1(C(=O)NCc2ccc(C(=O)OCCOCCOCCOC(=O)c3ccc(-c4c5nc(c(-c6c(F)cccc6F)c6ccc([nH]6)c(-c6c(F)cccc6F)c6nc(c(-c7c(F)cccc7F)c7ccc4[nH]7)C=C6)C=C5)cc3)o2)CCC[NH2+]C1
REMARK SMILES IDX 17 1 16 2 15 3 14 4 13 5 11 6 12 7 10 8 7 9 8 10 79 11 9 12
REMARK SMILES IDX 6 13 5 14 3 15 4 16 2 18 1 19 80 20 84 21 81 22 83 23 82 24
REMARK SMILES IDX 18 27 19 28 20 29 21 30 22 31 23 32 24 33 25 34 26 35 78 36
REMARK SMILES IDX 27 37 77 38 28 39 29 40 30 41 71 42 31 43 76 44 70 45 72 46
REMARK SMILES IDX 32 47 75 48 69 49 68 50 33 52 59 53 42 54 58 55 43 56 46 57
REMARK SMILES IDX 57 58 73 59 44 60 45 61 56 63 74 64 47 65 34 66 35 67 40 68
REMARK SMILES IDX 36 69 37 70 39 71 41 72 38 73 60 74 61 75 66 76 62 77 63 78
REMARK SMILES IDX 65 79 67 80 64 81 48 82 49 83 54 84 50 85 51 86 53 87 55 88
REMARK SMILES IDX 52 89
REMARK H PARENT 5 17 83 25 83 26 72 51 46 62
REMARK Flexibility Score: inf
ROOT
ATOM      1  C   UNL A   1      34.539  33.085  33.102  1.00  0.00     0.188 C 
ENDROOT
BRANCH   1   2
ATOM      2  O   UNL A   1      35.183  33.117  34.373  1.00  0.00    -0.376 OA
BRANCH   2   3
ATOM      3  C   UNL A   1      36.274  34.002  34.587  1.00  0.00     0.202 C 
BRANCH   3   4
ATOM      4  C   UNL A   1      37.530  33.381  35.199  1.00  0.00     0.261 C 
BRANCH   4   5
ATOM      5  O   UNL A   1      37.666  31.997  34.840  1.00  0.00    -0.457 OA
BRANCH   5   6
ATOM      6  C   UNL A   1      38.186  31.176  35.799  1.00  0.00     0.374 C 
ATOM      7  O   UNL A   1      37.714  31.016  36.917  1.00  0.00    -0.242 OA
BRANCH   6   8
ATOM      8  C   UNL A   1      39.290  30.431  35.240  1.00  0.00     0.211 A 
ATOM      9  C   UNL A   1      41.058  29.115  35.386  1.00  0.00     0.124 A 
ATOM     10  C   UNL A   1      40.769  29.238  34.040  1.00  0.00     0.048 A 
ATOM     11  O   UNL A   1      40.180  29.862  36.112  1.00  0.00    -0.452 OA
ATOM     12  C   UNL A   1      39.628  30.072  33.947  1.00  0.00     0.058 A 
BRANCH   9  13
ATOM     13  C   UNL A   1      42.063  28.343  36.169  1.00  0.00     0.191 C 
BRANCH  13  14
ATOM     14  N   UNL A   1      41.645  26.963  36.253  1.00  0.00    -0.348 N 
ATOM     15  C   UNL A   1      41.986  25.841  35.571  1.00  0.00     0.232 C 
ATOM     16  O   UNL A   1      41.133  24.950  35.655  1.00  0.00    -0.274 OA
ATOM     17  H   UNL A   1      40.970  26.802  36.952  1.00  0.00     0.163 HD
BRANCH  15  18
ATOM     18  C   UNL A   1      43.354  25.600  34.874  1.00  0.00     0.095 C 
ATOM     19  C   UNL A   1      43.588  26.449  33.612  1.00  0.00     0.028 C 
ATOM     20  C   UNL A   1      44.485  25.907  35.883  1.00  0.00     0.028 C 
ATOM     21  C   UNL A   1      43.434  24.112  34.414  1.00  0.00     0.277 C 
ATOM     22  C   UNL A   1      44.651  24.813  36.940  1.00  0.00     0.063 C 
ATOM     23  N   UNL A   1      43.651  23.121  35.467  1.00  0.00    -0.345 N 
ATOM     24  C   UNL A   1      44.802  23.437  36.300  1.00  0.00     0.260 C 
ATOM     25  H   UNL A   1      42.820  23.083  36.057  1.00  0.00     0.346 HD
ATOM     26  H   UNL A   1      43.831  22.223  35.017  1.00  0.00     0.346 HD
ENDBRANCH  15  18
ENDBRANCH  13  14
ENDBRANCH   9  13
ENDBRANCH   6   8
ENDBRANCH   5   6
ENDBRANCH   4   5
ENDBRANCH   3   4
ENDBRANCH   2   3
ENDBRANCH   1   2
BRANCH   1  27
ATOM     27  C   UNL A   1      33.989  34.390  32.499  1.00  0.00     0.188 C 
BRANCH  27  28
ATOM     28  O   UNL A   1      33.633  34.278  31.127  1.00  0.00    -0.376 OA
BRANCH  28  29
ATOM     29  C   UNL A   1      34.714  34.304  30.203  1.00  0.00     0.202 C 
BRANCH  29  30
ATOM     30  C   UNL A   1      34.506  33.302  29.066  1.00  0.00     0.261 C 
BRANCH  30  31
ATOM     31  O   UNL A   1      34.601  31.928  29.474  1.00  0.00    -0.460 OA
BRANCH  31  32
ATOM     32  C   UNL A   1      34.725  31.015  28.488  1.00  0.00     0.338 C 
ATOM     33  O   UNL A   1      33.974  30.831  27.546  1.00  0.00    -0.246 OA
BRANCH  32  34
ATOM     34  C   UNL A   1      36.028  30.345  28.650  1.00  0.00     0.060 A 
ATOM     35  C   UNL A   1      36.317  29.719  29.867  1.00  0.00     0.016 A 
ATOM     36  C   UNL A   1      36.963  30.353  27.611  1.00  0.00     0.016 A 
ATOM     37  C   UNL A   1      37.561  29.116  30.056  1.00  0.00     0.010 A 
ATOM     38  C   UNL A   1      38.211  29.762  27.806  1.00  0.00     0.010 A 
ATOM     39  C   UNL A   1      38.523  29.162  29.037  1.00  0.00    -0.014 A 
BRANCH  39  40
ATOM     40  C   UNL A   1      39.910  28.715  29.297  1.00  0.00     0.031 A 
ATOM     41  C   UNL A   1      40.847  29.642  30.017  1.00  0.00     0.074 A 
ATOM     42  C   UNL A   1      40.337  27.509  28.882  1.00  0.00     0.049 A 
ATOM     43  N   UNL A   1      42.110  29.481  30.312  1.00  0.00    -0.248 NA
ATOM     44  C   UNL A   1      40.281  30.927  30.462  1.00  0.00     0.031 C 
ATOM     45  C   UNL A   1      39.524  26.515  28.187  1.00  0.00     0.029 A 
ATOM     46  N   UNL A   1      41.577  26.929  28.978  1.00  0.00    -0.354 N 
ATOM     47  C   UNL A   1      42.491  30.637  30.978  1.00  0.00     0.074 A 
ATOM     48  C   UNL A   1      41.332  31.503  31.023  1.00  0.00     0.031 C 
ATOM     49  C   UNL A   1      40.293  25.448  27.902  1.00  0.00     0.029 A 
ATOM     50  C   UNL A   1      41.654  25.698  28.376  1.00  0.00     0.049 A 
ATOM     51  H   UNL A   1      42.339  27.355  29.433  1.00  0.00     0.167 HD
ATOM     52  C   UNL A   1      43.695  30.948  31.512  1.00  0.00     0.037 A 
ATOM     53  C   UNL A   1      42.709  24.877  28.211  1.00  0.00     0.037 A 
ATOM     54  C   UNL A   1      44.853  30.099  31.457  1.00  0.00     0.049 A 
ATOM     55  C   UNL A   1      44.055  25.274  28.756  1.00  0.00     0.074 A 
ATOM     56  C   UNL A   1      46.114  30.323  31.983  1.00  0.00     0.029 A 
ATOM     57  N   UNL A   1      44.896  28.866  30.825  1.00  0.00    -0.354 N 
ATOM     58  N   UNL A   1      44.394  26.351  29.421  1.00  0.00    -0.248 NA
ATOM     59  C   UNL A   1      45.166  24.337  28.527  1.00  0.00     0.031 C 
ATOM     60  C   UNL A   1      46.929  29.239  31.640  1.00  0.00     0.029 A 
ATOM     61  C   UNL A   1      46.166  28.326  30.930  1.00  0.00     0.049 A 
ATOM     62  H   UNL A   1      44.136  28.438  30.370  1.00  0.00     0.167 HD
ATOM     63  C   UNL A   1      45.746  26.211  29.711  1.00  0.00     0.074 A 
ATOM     64  C   UNL A   1      46.165  24.942  29.155  1.00  0.00     0.031 C 
ATOM     65  C   UNL A   1      46.566  27.056  30.382  1.00  0.00     0.037 A 
BRANCH  52  66
ATOM     66  C   UNL A   1      43.817  32.277  32.191  1.00  0.00     0.057 A 
ATOM     67  C   UNL A   1      43.634  32.413  33.572  1.00  0.00     0.134 A 
ATOM     68  C   UNL A   1      44.138  33.426  31.459  1.00  0.00     0.134 A 
ATOM     69  F   UNL A   1      43.307  31.351  34.323  1.00  0.00    -0.206 F 
ATOM     70  C   UNL A   1      43.749  33.653  34.202  1.00  0.00     0.040 A 
ATOM     71  C   UNL A   1      44.275  34.668  32.081  1.00  0.00     0.040 A 
ATOM     72  F   UNL A   1      44.325  33.360  30.133  1.00  0.00    -0.206 F 
ATOM     73  C   UNL A   1      44.076  34.784  33.456  1.00  0.00     0.006 A 
ENDBRANCH  52  66
BRANCH  53  74
ATOM     74  C   UNL A   1      42.543  23.592  27.490  1.00  0.00     0.057 A 
ATOM     75  C   UNL A   1      42.232  22.413  28.176  1.00  0.00     0.134 A 
ATOM     76  C   UNL A   1      42.720  23.509  26.104  1.00  0.00     0.134 A 
ATOM     77  F   UNL A   1      42.077  22.429  29.508  1.00  0.00    -0.206 F 
ATOM     78  C   UNL A   1      42.114  21.191  27.511  1.00  0.00     0.040 A 
ATOM     79  C   UNL A   1      42.586  22.297  25.424  1.00  0.00     0.040 A 
ATOM     80  F   UNL A   1      43.025  24.604  25.393  1.00  0.00    -0.206 F 
ATOM     81  C   UNL A   1      42.288  21.133  26.130  1.00  0.00     0.006 A 
ENDBRANCH  53  74
BRANCH  65  82
ATOM     82  C   UNL A   1      47.986  26.624  30.582  1.00  0.00     0.057 A 
ATOM     83  C   UNL A   1      48.381  25.883  31.703  1.00  0.00     0.134 A 
ATOM     84  C   UNL A   1      48.960  26.909  29.616  1.00  0.00     0.134 A 
ATOM     85  F   UNL A   1      47.497  25.588  32.668  1.00  0.00    -0.206 F 
ATOM     86  C   UNL A   1      49.699  25.453  31.863  1.00  0.00     0.040 A 
ATOM     87  C   UNL A   1      50.276  26.468  29.756  1.00  0.00     0.040 A 
ATOM     88  F   UNL A   1      48.644  27.609  28.517  1.00  0.00    -0.206 F 
ATOM     89  C   UNL A   1      50.649  25.740  30.884  1.00  0.00     0.006 A 
ENDBRANCH  65  82
ENDBRANCH  39  40
ENDBRANCH  32  34
ENDBRANCH  31  32
ENDBRANCH  30  31
ENDBRANCH  29  30
ENDBRANCH  28  29
ENDBRANCH  27  28
ENDBRANCH   1  27
TORSDOF 20
ENDMDL
MODEL 3
REMARK VINA RESULT:     -10.2      5.381     10.775
REMARK SMILES C[C@]1(C(=O)NCc2ccc(C(=O)OCCOCCOCCOC(=O)c3ccc(-c4c5nc(c(-c6c(F)cccc6F)c6ccc([nH]6)c(-c6c(F)cccc6F)c6nc(c(-c7c(F)cccc7F)c7ccc4[nH]7)C=C6)C=C5)cc3)o2)CCC[NH2+]C1
REMARK SMILES IDX 17 1 16 2 15 3 14 4 13 5 11 6 12 7 10 8 7 9 8 10 79 11 9 12
REMARK SMILES IDX 6 13 5 14 3 15 4 16 2 18 1 19 80 20 84 21 81 22 83 23 82 24
REMARK SMILES IDX 18 27 19 28 20 29 21 30 22 31 23 32 24 33 25 34 26 35 78 36
REMARK SMILES IDX 27 37 77 38 28 39 29 40 30 41 71 42 31 43 76 44 70 45 72 46
REMARK SMILES IDX 32 47 75 48 69 49 68 50 33 52 59 53 42 54 58 55 43 56 46 57
REMARK SMILES IDX 57 58 73 59 44 60 45 61 56 63 74 64 47 65 34 66 35 67 40 68
REMARK SMILES IDX 36 69 37 70 39 71 41 72 38 73 60 74 61 75 66 76 62 77 63 78
REMARK SMILES IDX 65 79 67 80 64 81 48 82 49 83 54 84 50 85 51 86 53 87 55 88
REMARK SMILES IDX 52 89
REMARK H PARENT 5 17 83 25 83 26 72 51 46 62
REMARK Flexibility Score: inf
ROOT
ATOM      1  C   UNL A   1      41.275  21.731  27.554  1.00  0.00     0.188 C 
ENDROOT
BRANCH   1   2
ATOM      2  O   UNL A   1      39.863  21.834  27.396  1.00  0.00    -0.376 OA
BRANCH   2   3
ATOM      3  C   UNL A   1      39.304  21.917  26.091  1.00  0.00     0.202 C 
BRANCH   3   4
ATOM      4  C   UNL A   1      38.260  20.856  25.741  1.00  0.00     0.261 C 
BRANCH   4   5
ATOM      5  O   UNL A   1      37.749  21.034  24.411  1.00  0.00    -0.457 OA
BRANCH   5   6
ATOM      6  C   UNL A   1      36.724  21.926  24.275  1.00  0.00     0.374 C 
ATOM      7  O   UNL A   1      36.735  22.899  23.532  1.00  0.00    -0.242 OA
BRANCH   6   8
ATOM      8  C   UNL A   1      35.587  21.465  25.037  1.00  0.00     0.211 A 
ATOM      9  C   UNL A   1      34.042  21.677  26.601  1.00  0.00     0.124 A 
ATOM     10  C   UNL A   1      33.721  20.541  25.883  1.00  0.00     0.048 A 
ATOM     11  O   UNL A   1      35.190  22.221  26.108  1.00  0.00    -0.452 OA
ATOM     12  C   UNL A   1      34.705  20.411  24.872  1.00  0.00     0.058 A 
BRANCH   9  13
ATOM     13  C   UNL A   1      33.401  22.412  27.728  1.00  0.00     0.191 C 
BRANCH  13  14
ATOM     14  N   UNL A   1      32.013  22.656  27.411  1.00  0.00    -0.348 N 
ATOM     15  C   UNL A   1      31.361  23.674  26.797  1.00  0.00     0.232 C 
ATOM     16  O   UNL A   1      30.156  23.708  27.072  1.00  0.00    -0.274 OA
ATOM     17  H   UNL A   1      31.414  21.931  27.702  1.00  0.00     0.163 HD
BRANCH  15  18
ATOM     18  C   UNL A   1      31.985  24.624  25.738  1.00  0.00     0.095 C 
ATOM     19  C   UNL A   1      33.274  25.333  26.192  1.00  0.00     0.028 C 
ATOM     20  C   UNL A   1      32.302  23.807  24.464  1.00  0.00     0.028 C 
ATOM     21  C   UNL A   1      30.964  25.757  25.408  1.00  0.00     0.277 C 
ATOM     22  C   UNL A   1      31.052  23.463  23.651  1.00  0.00     0.063 C 
ATOM     23  N   UNL A   1      29.821  25.375  24.580  1.00  0.00    -0.345 N 
ATOM     24  C   UNL A   1      30.223  24.707  23.351  1.00  0.00     0.260 C 
ATOM     25  H   UNL A   1      29.225  24.744  25.116  1.00  0.00     0.346 HD
ATOM     26  H   UNL A   1      29.325  26.228  24.321  1.00  0.00     0.346 HD
ENDBRANCH  15  18
ENDBRANCH  13  14
ENDBRANCH   9  13
ENDBRANCH   6   8
ENDBRANCH   5   6
ENDBRANCH   4   5
ENDBRANCH   3   4
ENDBRANCH   2   3
ENDBRANCH   1   2
BRANCH   1  27
ATOM     27  C   UNL A   1      42.034  20.586  26.860  1.00  0.00     0.188 C 
BRANCH  27  28
ATOM     28  O   UNL A   1      42.333  20.846  25.494  1.00  0.00    -0.376 OA
BRANCH  28  29
ATOM     29  C   UNL A   1      42.981  22.083  25.227  1.00  0.00     0.202 C 
BRANCH  29  30
ATOM     30  C   UNL A   1      44.466  22.031  25.594  1.00  0.00     0.261 C 
BRANCH  30  31
ATOM     31  O   UNL A   1      44.907  23.136  26.399  1.00  0.00    -0.460 OA
BRANCH  31  32
ATOM     32  C   UNL A   1      44.859  24.356  25.823  1.00  0.00     0.338 C 
ATOM     33  O   UNL A   1      45.235  24.666  24.706  1.00  0.00    -0.246 OA
BRANCH  32  34
ATOM     34  C   UNL A   1      44.126  25.258  26.729  1.00  0.00     0.060 A 
ATOM     35  C   UNL A   1      44.463  26.616  26.745  1.00  0.00     0.016 A 
ATOM     36  C   UNL A   1      43.126  24.760  27.569  1.00  0.00     0.016 A 
ATOM     37  C   UNL A   1      43.811  27.480  27.626  1.00  0.00     0.010 A 
ATOM     38  C   UNL A   1      42.484  25.621  28.458  1.00  0.00     0.010 A 
ATOM     39  C   UNL A   1      42.840  26.979  28.507  1.00  0.00    -0.014 A 
BRANCH  39  40
ATOM     40  C   UNL A   1      42.294  27.837  29.583  1.00  0.00     0.031 A 
ATOM     41  C   UNL A   1      42.955  27.814  30.932  1.00  0.00     0.074 A 
ATOM     42  C   UNL A   1      41.214  28.609  29.371  1.00  0.00     0.049 A 
ATOM     43  N   UNL A   1      42.623  28.444  32.029  1.00  0.00    -0.248 NA
ATOM     44  C   UNL A   1      44.150  26.963  31.060  1.00  0.00     0.031 C 
ATOM     45  C   UNL A   1      40.492  28.729  28.107  1.00  0.00     0.029 A 
ATOM     46  N   UNL A   1      40.530  29.429  30.233  1.00  0.00    -0.354 N 
ATOM     47  C   UNL A   1      43.567  28.071  32.975  1.00  0.00     0.074 A 
ATOM     48  C   UNL A   1      44.470  27.141  32.332  1.00  0.00     0.031 C 
ATOM     49  C   UNL A   1      39.452  29.565  28.280  1.00  0.00     0.029 A 
ATOM     50  C   UNL A   1      39.425  30.017  29.670  1.00  0.00     0.049 A 
ATOM     51  H   UNL A   1      40.804  29.581  31.166  1.00  0.00     0.167 HD
ATOM     52  C   UNL A   1      43.678  28.472  34.263  1.00  0.00     0.037 A 
ATOM     53  C   UNL A   1      38.490  30.814  30.222  1.00  0.00     0.037 A 
ATOM     54  C   UNL A   1      42.775  29.383  34.912  1.00  0.00     0.049 A 
ATOM     55  C   UNL A   1      38.597  31.194  31.674  1.00  0.00     0.074 A 
ATOM     56  C   UNL A   1      42.815  29.860  36.210  1.00  0.00     0.029 A 
ATOM     57  N   UNL A   1      41.659  29.945  34.312  1.00  0.00    -0.354 N 
ATOM     58  N   UNL A   1      39.516  30.869  32.549  1.00  0.00    -0.248 NA
ATOM     59  C   UNL A   1      37.533  32.054  32.215  1.00  0.00     0.031 C 
ATOM     60  C   UNL A   1      41.703  30.685  36.407  1.00  0.00     0.029 A 
ATOM     61  C   UNL A   1      40.990  30.749  35.220  1.00  0.00     0.049 A 
ATOM     62  H   UNL A   1      41.382  29.796  33.379  1.00  0.00     0.167 HD
ATOM     63  C   UNL A   1      39.158  31.503  33.733  1.00  0.00     0.074 A 
ATOM     64  C   UNL A   1      37.940  32.236  33.464  1.00  0.00     0.031 C 
ATOM     65  C   UNL A   1      39.785  31.482  34.934  1.00  0.00     0.037 A 
BRANCH  52  66
ATOM     66  C   UNL A   1      44.815  27.909  35.058  1.00  0.00     0.057 A 
ATOM     67  C   UNL A   1      44.689  26.709  35.768  1.00  0.00     0.134 A 
ATOM     68  C   UNL A   1      46.052  28.563  35.098  1.00  0.00     0.134 A 
ATOM     69  F   UNL A   1      43.522  26.047  35.781  1.00  0.00    -0.206 F 
ATOM     70  C   UNL A   1      45.750  26.186  36.506  1.00  0.00     0.040 A 
ATOM     71  C   UNL A   1      47.127  28.040  35.817  1.00  0.00     0.040 A 
ATOM     72  F   UNL A   1      46.234  29.717  34.439  1.00  0.00    -0.206 F 
ATOM     73  C   UNL A   1      46.976  26.850  36.528  1.00  0.00     0.006 A 
ENDBRANCH  52  66
BRANCH  53  74
ATOM     74  C   UNL A   1      37.359  31.307  29.400  1.00  0.00     0.057 A 
ATOM     75  C   UNL A   1      37.369  32.595  28.853  1.00  0.00     0.134 A 
ATOM     76  C   UNL A   1      36.229  30.514  29.169  1.00  0.00     0.134 A 
ATOM     77  F   UNL A   1      38.414  33.408  29.065  1.00  0.00    -0.206 F 
ATOM     78  C   UNL A   1      36.291  33.083  28.114  1.00  0.00     0.040 A 
ATOM     79  C   UNL A   1      35.151  30.981  28.415  1.00  0.00     0.040 A 
ATOM     80  F   UNL A   1      36.158  29.273  29.672  1.00  0.00    -0.206 F 
ATOM     81  C   UNL A   1      35.180  32.272  27.890  1.00  0.00     0.006 A 
ENDBRANCH  53  74
BRANCH  65  82
ATOM     82  C   UNL A   1      39.187  32.300  36.038  1.00  0.00     0.057 A 
ATOM     83  C   UNL A   1      39.537  33.642  36.234  1.00  0.00     0.134 A 
ATOM     84  C   UNL A   1      38.210  31.754  36.881  1.00  0.00     0.134 A 
ATOM     85  F   UNL A   1      40.474  34.219  35.467  1.00  0.00    -0.206 F 
ATOM     86  C   UNL A   1      38.947  34.407  37.242  1.00  0.00     0.040 A 
ATOM     87  C   UNL A   1      37.600  32.514  37.878  1.00  0.00     0.040 A 
ATOM     88  F   UNL A   1      37.826  30.477  36.738  1.00  0.00    -0.206 F 
ATOM     89  C   UNL A   1      37.971  33.845  38.063  1.00  0.00     0.006 A 
ENDBRANCH  65  82
ENDBRANCH  39  40
ENDBRANCH  32  34
ENDBRANCH  31  32
ENDBRANCH  30  31
ENDBRANCH  29  30
ENDBRANCH  28  29
ENDBRANCH  27  28
ENDBRANCH   1  27
TORSDOF 20
ENDMDL
