MODEL 1
REMARK VINA RESULT:     -10.3      0.000      0.000
REMARK SMILES O=C(OCCOCCOCCOC(=O)[C@@H]1CS[C@H](c2cccc([N+](=O)[O-])c2)[NH2+]1)c1ccc(-c2c3nc(c(-c4c(F)cccc4F)c4ccc([nH]4)c(-c4c(F)cccc4F)c4nc(c(-c5c(F)cccc5F)c5ccc2[nH]5)C=C4)C=C3)cc1
REMARK SMILES IDX 7 1 6 2 5 3 4 4 3 5 2 6 1 7 29 8 30 9 82 10 31 11 81 12
REMARK SMILES IDX 32 13 33 14 34 15 75 16 35 17 80 18 74 19 76 20 36 21 79 22
REMARK SMILES IDX 73 23 72 24 37 26 63 27 46 28 62 29 47 30 50 31 61 32 77 33
REMARK SMILES IDX 48 34 49 35 60 37 78 38 51 39 38 40 39 41 44 42 40 43 41 44
REMARK SMILES IDX 43 45 45 46 42 47 64 48 65 49 70 50 66 51 67 52 69 53 71 54
REMARK SMILES IDX 68 55 52 56 53 57 58 58 54 59 55 60 57 61 59 62 56 63 8 64
REMARK SMILES IDX 9 65 10 66 11 67 12 68 13 69 14 70 15 71 16 72 28 73 17 74
REMARK SMILES IDX 18 75 19 78 20 79 27 80 21 81 23 82 22 83 24 84 25 85 26 86
REMARK H PARENT 76 25 50 36 28 76 28 77
REMARK Flexibility Score: inf
ROOT
ATOM      1  C   UNL A   1      34.347  32.682  28.774  1.00  0.00     0.188 C 
ENDROOT
BRANCH   1   2
ATOM      2  O   UNL A   1      34.110  32.795  30.177  1.00  0.00    -0.376 OA
BRANCH   2   3
ATOM      3  C   UNL A   1      34.738  33.930  30.784  1.00  0.00     0.202 C 
BRANCH   3   4
ATOM      4  C   UNL A   1      35.170  33.752  32.252  1.00  0.00     0.261 C 
BRANCH   4   5
ATOM      5  O   UNL A   1      35.486  32.398  32.631  1.00  0.00    -0.460 OA
BRANCH   5   6
ATOM      6  C   UNL A   1      36.626  31.884  33.156  1.00  0.00     0.338 C 
ATOM      7  O   UNL A   1      36.799  31.947  34.372  1.00  0.00    -0.246 OA
BRANCH   6   8
ATOM      8  C   UNL A   1      37.699  31.249  32.339  1.00  0.00     0.060 A 
ATOM      9  C   UNL A   1      38.707  30.443  32.855  1.00  0.00     0.016 A 
ATOM     10  C   UNL A   1      37.644  31.420  30.946  1.00  0.00     0.016 A 
ATOM     11  C   UNL A   1      39.709  29.926  32.056  1.00  0.00     0.010 A 
ATOM     12  C   UNL A   1      38.620  30.857  30.117  1.00  0.00     0.010 A 
ATOM     13  C   UNL A   1      39.683  30.148  30.685  1.00  0.00    -0.014 A 
BRANCH  13  14
ATOM     14  C   UNL A   1      40.889  29.779  29.927  1.00  0.00     0.031 A 
ATOM     15  C   UNL A   1      40.941  28.407  29.326  1.00  0.00     0.074 A 
ATOM     16  C   UNL A   1      41.804  30.719  29.635  1.00  0.00     0.049 A 
ATOM     17  N   UNL A   1      41.888  27.840  28.633  1.00  0.00    -0.248 NA
ATOM     18  C   UNL A   1      39.748  27.560  29.519  1.00  0.00     0.031 C 
ATOM     19  C   UNL A   1      41.736  32.124  30.054  1.00  0.00     0.029 A 
ATOM     20  N   UNL A   1      42.945  30.652  28.885  1.00  0.00    -0.354 N 
ATOM     21  C   UNL A   1      41.417  26.570  28.327  1.00  0.00     0.074 A 
ATOM     22  C   UNL A   1      40.111  26.436  28.926  1.00  0.00     0.031 C 
ATOM     23  C   UNL A   1      42.781  32.788  29.536  1.00  0.00     0.029 A 
ATOM     24  C   UNL A   1      43.628  31.842  28.819  1.00  0.00     0.049 A 
ATOM     25  H   UNL A   1      43.247  29.830  28.435  1.00  0.00     0.167 HD
ATOM     26  C   UNL A   1      42.030  25.606  27.604  1.00  0.00     0.037 A 
ATOM     27  C   UNL A   1      44.828  32.111  28.271  1.00  0.00     0.037 A 
ATOM     28  C   UNL A   1      43.334  25.776  27.025  1.00  0.00     0.049 A 
ATOM     29  C   UNL A   1      45.549  30.979  27.589  1.00  0.00     0.074 A 
ATOM     30  C   UNL A   1      44.112  24.859  26.349  1.00  0.00     0.029 A 
ATOM     31  N   UNL A   1      44.049  26.968  27.060  1.00  0.00    -0.354 N 
ATOM     32  N   UNL A   1      45.143  29.749  27.378  1.00  0.00    -0.248 NA
ATOM     33  C   UNL A   1      46.896  31.264  27.082  1.00  0.00     0.031 C 
ATOM     34  C   UNL A   1      45.319  25.483  26.014  1.00  0.00     0.029 A 
ATOM     35  C   UNL A   1      45.268  26.806  26.431  1.00  0.00     0.049 A 
ATOM     36  H   UNL A   1      43.733  27.804  27.472  1.00  0.00     0.167 HD
ATOM     37  C   UNL A   1      46.172  29.118  26.693  1.00  0.00     0.074 A 
ATOM     38  C   UNL A   1      47.211  30.114  26.507  1.00  0.00     0.031 C 
ATOM     39  C   UNL A   1      46.262  27.836  26.260  1.00  0.00     0.037 A 
BRANCH  26  40
ATOM     40  C   UNL A   1      41.320  24.290  27.477  1.00  0.00     0.057 A 
ATOM     41  C   UNL A   1      41.711  23.156  28.202  1.00  0.00     0.134 A 
ATOM     42  C   UNL A   1      40.257  24.144  26.578  1.00  0.00     0.134 A 
ATOM     43  F   UNL A   1      42.745  23.216  29.055  1.00  0.00    -0.206 F 
ATOM     44  C   UNL A   1      41.089  21.919  28.016  1.00  0.00     0.040 A 
ATOM     45  C   UNL A   1      39.610  22.919  26.401  1.00  0.00     0.040 A 
ATOM     46  F   UNL A   1      39.839  25.185  25.843  1.00  0.00    -0.206 F 
ATOM     47  C   UNL A   1      40.033  21.800  27.115  1.00  0.00     0.006 A 
ENDBRANCH  26  40
BRANCH  27  48
ATOM     48  C   UNL A   1      45.441  33.459  28.407  1.00  0.00     0.057 A 
ATOM     49  C   UNL A   1      45.253  34.455  27.442  1.00  0.00     0.134 A 
ATOM     50  C   UNL A   1      46.270  33.773  29.494  1.00  0.00     0.134 A 
ATOM     51  F   UNL A   1      44.485  34.217  26.368  1.00  0.00    -0.206 F 
ATOM     52  C   UNL A   1      45.887  35.697  27.535  1.00  0.00     0.040 A 
ATOM     53  C   UNL A   1      46.884  35.021  29.617  1.00  0.00     0.040 A 
ATOM     54  F   UNL A   1      46.491  32.871  30.462  1.00  0.00    -0.206 F 
ATOM     55  C   UNL A   1      46.703  35.983  28.627  1.00  0.00     0.006 A 
ENDBRANCH  27  48
BRANCH  39  56
ATOM     56  C   UNL A   1      47.505  27.467  25.507  1.00  0.00     0.057 A 
ATOM     57  C   UNL A   1      48.627  26.930  26.150  1.00  0.00     0.134 A 
ATOM     58  C   UNL A   1      47.557  27.614  24.116  1.00  0.00     0.134 A 
ATOM     59  F   UNL A   1      48.640  26.777  27.482  1.00  0.00    -0.206 F 
ATOM     60  C   UNL A   1      49.770  26.575  25.434  1.00  0.00     0.040 A 
ATOM     61  C   UNL A   1      48.682  27.233  23.386  1.00  0.00     0.040 A 
ATOM     62  F   UNL A   1      46.509  28.113  23.443  1.00  0.00    -0.206 F 
ATOM     63  C   UNL A   1      49.796  26.719  24.047  1.00  0.00     0.006 A 
ENDBRANCH  39  56
ENDBRANCH  13  14
ENDBRANCH   6   8
ENDBRANCH   5   6
ENDBRANCH   4   5
ENDBRANCH   3   4
ENDBRANCH   2   3
ENDBRANCH   1   2
BRANCH   1  64
ATOM     64  C   UNL A   1      35.056  31.392  28.379  1.00  0.00     0.188 C 
BRANCH  64  65
ATOM     65  O   UNL A   1      34.330  30.441  27.613  1.00  0.00    -0.376 OA
BRANCH  65  66
ATOM     66  C   UNL A   1      33.084  30.829  27.054  1.00  0.00     0.202 C 
BRANCH  66  67
ATOM     67  C   UNL A   1      31.920  29.823  27.033  1.00  0.00     0.261 C 
BRANCH  67  68
ATOM     68  O   UNL A   1      31.780  28.986  25.874  1.00  0.00    -0.459 OA
BRANCH  68  69
ATOM     69  C   UNL A   1      31.876  27.648  26.118  1.00  0.00     0.365 C 
ATOM     70  O   UNL A   1      31.171  27.051  26.931  1.00  0.00    -0.245 OA
BRANCH  69  71
ATOM     71  C   UNL A   1      32.933  26.980  25.229  1.00  0.00     0.304 C 
ATOM     72  C   UNL A   1      33.679  28.024  24.395  1.00  0.00     0.153 C 
ATOM     73  N   UNL A   1      32.352  25.929  24.333  1.00  0.00    -0.319 N 
ATOM     74  S   UNL A   1      33.172  27.748  22.676  1.00  0.00    -0.087 SA
ATOM     75  C   UNL A   1      31.835  26.597  23.117  1.00  0.00     0.274 C 
ATOM     76  H   UNL A   1      31.590  25.448  24.813  1.00  0.00     0.348 HD
ATOM     77  H   UNL A   1      33.064  25.243  24.084  1.00  0.00     0.348 HD
BRANCH  75  78
ATOM     78  C   UNL A   1      30.465  27.238  23.313  1.00  0.00     0.027 A 
ATOM     79  C   UNL A   1      29.388  26.550  23.904  1.00  0.00     0.011 A 
ATOM     80  C   UNL A   1      30.222  28.537  22.823  1.00  0.00     0.096 A 
ATOM     81  C   UNL A   1      28.087  27.063  23.856  1.00  0.00     0.008 A 
ATOM     82  C   UNL A   1      28.908  29.014  22.714  1.00  0.00     0.269 A 
ATOM     83  C   UNL A   1      27.835  28.278  23.223  1.00  0.00     0.085 A 
BRANCH  82  84
ATOM     84  N   UNL A   1      28.652  30.228  21.935  1.00  0.00     0.062 N 
ATOM     85  O   UNL A   1      28.021  30.115  20.874  1.00  0.00    -0.258 OA
ATOM     86  O   UNL A   1      29.113  31.298  22.362  1.00  0.00    -0.258 OA
ENDBRANCH  82  84
ENDBRANCH  75  78
ENDBRANCH  69  71
ENDBRANCH  68  69
ENDBRANCH  67  68
ENDBRANCH  66  67
ENDBRANCH  65  66
ENDBRANCH  64  65
ENDBRANCH   1  64
TORSDOF 19
ENDMDL
MODEL 2
REMARK VINA RESULT:     -10.3      4.956      9.881
REMARK SMILES O=C(OCCOCCOCCOC(=O)[C@@H]1CS[C@H](c2cccc([N+](=O)[O-])c2)[NH2+]1)c1ccc(-c2c3nc(c(-c4c(F)cccc4F)c4ccc([nH]4)c(-c4c(F)cccc4F)c4nc(c(-c5c(F)cccc5F)c5ccc2[nH]5)C=C4)C=C3)cc1
REMARK SMILES IDX 7 1 6 2 5 3 4 4 3 5 2 6 1 7 29 8 30 9 82 10 31 11 81 12
REMARK SMILES IDX 32 13 33 14 34 15 75 16 35 17 80 18 74 19 76 20 36 21 79 22
REMARK SMILES IDX 73 23 72 24 37 26 63 27 46 28 62 29 47 30 50 31 61 32 77 33
REMARK SMILES IDX 48 34 49 35 60 37 78 38 51 39 38 40 39 41 44 42 40 43 41 44
REMARK SMILES IDX 43 45 45 46 42 47 64 48 65 49 70 50 66 51 67 52 69 53 71 54
REMARK SMILES IDX 68 55 52 56 53 57 58 58 54 59 55 60 57 61 59 62 56 63 8 64
REMARK SMILES IDX 9 65 10 66 11 67 12 68 13 69 14 70 15 71 16 72 28 73 17 74
REMARK SMILES IDX 18 75 19 78 20 79 27 80 21 81 23 82 22 83 24 84 25 85 26 86
REMARK H PARENT 76 25 50 36 28 76 28 77
REMARK Flexibility Score: inf
ROOT
ATOM      1  C   UNL A   1      40.509  20.923  26.167  1.00  0.00     0.188 C 
ENDROOT
BRANCH   1   2
ATOM      2  O   UNL A   1      41.668  21.542  25.611  1.00  0.00    -0.376 OA
BRANCH   2   3
ATOM      3  C   UNL A   1      42.900  20.913  25.986  1.00  0.00     0.202 C 
BRANCH   3   4
ATOM      4  C   UNL A   1      44.175  21.508  25.357  1.00  0.00     0.261 C 
BRANCH   4   5
ATOM      5  O   UNL A   1      44.617  22.749  25.942  1.00  0.00    -0.460 OA
BRANCH   5   6
ATOM      6  C   UNL A   1      44.299  24.026  25.616  1.00  0.00     0.338 C 
ATOM      7  O   UNL A   1      44.615  24.450  24.506  1.00  0.00    -0.246 OA
BRANCH   6   8
ATOM      8  C   UNL A   1      43.590  24.962  26.534  1.00  0.00     0.060 A 
ATOM      9  C   UNL A   1      43.855  26.323  26.628  1.00  0.00     0.016 A 
ATOM     10  C   UNL A   1      42.535  24.444  27.304  1.00  0.00     0.016 A 
ATOM     11  C   UNL A   1      43.203  27.132  27.539  1.00  0.00     0.010 A 
ATOM     12  C   UNL A   1      41.828  25.262  28.191  1.00  0.00     0.010 A 
ATOM     13  C   UNL A   1      42.200  26.602  28.341  1.00  0.00    -0.014 A 
BRANCH  13  14
ATOM     14  C   UNL A   1      41.713  27.445  29.444  1.00  0.00     0.031 A 
ATOM     15  C   UNL A   1      42.517  27.468  30.709  1.00  0.00     0.074 A 
ATOM     16  C   UNL A   1      40.696  28.298  29.231  1.00  0.00     0.049 A 
ATOM     17  N   UNL A   1      42.295  28.112  31.821  1.00  0.00    -0.248 NA
ATOM     18  C   UNL A   1      43.755  26.667  30.714  1.00  0.00     0.031 C 
ATOM     19  C   UNL A   1      39.967  28.444  27.966  1.00  0.00     0.029 A 
ATOM     20  N   UNL A   1      40.127  29.232  30.051  1.00  0.00    -0.354 N 
ATOM     21  C   UNL A   1      43.350  27.778  32.661  1.00  0.00     0.074 A 
ATOM     22  C   UNL A   1      44.201  26.859  31.944  1.00  0.00     0.031 C 
ATOM     23  C   UNL A   1      39.060  29.426  28.092  1.00  0.00     0.029 A 
ATOM     24  C   UNL A   1      39.094  29.920  29.464  1.00  0.00     0.049 A 
ATOM     25  H   UNL A   1      40.430  29.396  30.974  1.00  0.00     0.167 HD
ATOM     26  C   UNL A   1      43.580  28.209  33.921  1.00  0.00     0.037 A 
ATOM     27  C   UNL A   1      38.247  30.817  30.002  1.00  0.00     0.037 A 
ATOM     28  C   UNL A   1      42.706  29.124  34.603  1.00  0.00     0.049 A 
ATOM     29  C   UNL A   1      38.447  31.177  31.450  1.00  0.00     0.074 A 
ATOM     30  C   UNL A   1      42.764  29.574  35.906  1.00  0.00     0.029 A 
ATOM     31  N   UNL A   1      41.605  29.731  34.012  1.00  0.00    -0.354 N 
ATOM     32  N   UNL A   1      39.392  30.791  32.276  1.00  0.00    -0.248 NA
ATOM     33  C   UNL A   1      37.459  32.082  32.048  1.00  0.00     0.031 C 
ATOM     34  C   UNL A   1      41.670  30.420  36.118  1.00  0.00     0.029 A 
ATOM     35  C   UNL A   1      40.963  30.542  34.929  1.00  0.00     0.049 A 
ATOM     36  H   UNL A   1      41.322  29.603  33.078  1.00  0.00     0.167 HD
ATOM     37  C   UNL A   1      39.130  31.423  33.482  1.00  0.00     0.074 A 
ATOM     38  C   UNL A   1      37.946  32.235  33.270  1.00  0.00     0.031 C 
ATOM     39  C   UNL A   1      39.794  31.342  34.662  1.00  0.00     0.037 A 
BRANCH  26  40
ATOM     40  C   UNL A   1      44.770  27.638  34.634  1.00  0.00     0.057 A 
ATOM     41  C   UNL A   1      46.030  28.251  34.598  1.00  0.00     0.134 A 
ATOM     42  C   UNL A   1      44.664  26.426  35.328  1.00  0.00     0.134 A 
ATOM     43  F   UNL A   1      46.210  29.395  33.920  1.00  0.00    -0.206 F 
ATOM     44  C   UNL A   1      47.145  27.666  35.201  1.00  0.00     0.040 A 
ATOM     45  C   UNL A   1      45.766  25.844  35.958  1.00  0.00     0.040 A 
ATOM     46  F   UNL A   1      43.491  25.779  35.393  1.00  0.00    -0.206 F 
ATOM     47  C   UNL A   1      47.014  26.460  35.887  1.00  0.00     0.006 A 
ENDBRANCH  26  40
BRANCH  27  48
ATOM     48  C   UNL A   1      37.117  31.368  29.209  1.00  0.00     0.057 A 
ATOM     49  C   UNL A   1      37.138  32.673  28.703  1.00  0.00     0.134 A 
ATOM     50  C   UNL A   1      35.960  30.611  28.970  1.00  0.00     0.134 A 
ATOM     51  F   UNL A   1      38.206  33.458  28.908  1.00  0.00    -0.206 F 
ATOM     52  C   UNL A   1      36.046  33.213  28.019  1.00  0.00     0.040 A 
ATOM     53  C   UNL A   1      34.874  31.127  28.261  1.00  0.00     0.040 A 
ATOM     54  F   UNL A   1      35.870  29.350  29.419  1.00  0.00    -0.206 F 
ATOM     55  C   UNL A   1      34.911  32.438  27.794  1.00  0.00     0.006 A 
ENDBRANCH  27  48
BRANCH  39  56
ATOM     56  C   UNL A   1      39.276  32.189  35.785  1.00  0.00     0.057 A 
ATOM     57  C   UNL A   1      39.696  33.511  35.969  1.00  0.00     0.134 A 
ATOM     58  C   UNL A   1      38.312  31.681  36.664  1.00  0.00     0.134 A 
ATOM     59  F   UNL A   1      40.626  34.048  35.166  1.00  0.00    -0.206 F 
ATOM     60  C   UNL A   1      39.191  34.293  37.009  1.00  0.00     0.040 A 
ATOM     61  C   UNL A   1      37.777  32.463  37.687  1.00  0.00     0.040 A 
ATOM     62  F   UNL A   1      37.862  30.424  36.531  1.00  0.00    -0.206 F 
ATOM     63  C   UNL A   1      38.224  33.771  37.866  1.00  0.00     0.006 A 
ENDBRANCH  39  56
ENDBRANCH  13  14
ENDBRANCH   6   8
ENDBRANCH   5   6
ENDBRANCH   4   5
ENDBRANCH   3   4
ENDBRANCH   2   3
ENDBRANCH   1   2
BRANCH   1  64
ATOM     64  C   UNL A   1      39.456  21.918  26.640  1.00  0.00     0.188 C 
BRANCH  64  65
ATOM     65  O   UNL A   1      38.431  22.287  25.728  1.00  0.00    -0.376 OA
BRANCH  65  66
ATOM     66  C   UNL A   1      37.959  23.626  25.743  1.00  0.00     0.202 C 
BRANCH  66  67
ATOM     67  C   UNL A   1      36.445  23.892  25.782  1.00  0.00     0.261 C 
BRANCH  67  68
ATOM     68  O   UNL A   1      35.606  22.896  26.388  1.00  0.00    -0.459 OA
BRANCH  68  69
ATOM     69  C   UNL A   1      34.661  22.363  25.563  1.00  0.00     0.365 C 
ATOM     70  O   UNL A   1      34.810  22.235  24.348  1.00  0.00    -0.245 OA
BRANCH  69  71
ATOM     71  C   UNL A   1      33.417  21.908  26.339  1.00  0.00     0.304 C 
ATOM     72  C   UNL A   1      32.346  21.378  25.383  1.00  0.00     0.153 C 
ATOM     73  N   UNL A   1      32.845  22.995  27.196  1.00  0.00    -0.319 N 
ATOM     74  S   UNL A   1      30.991  22.581  25.431  1.00  0.00    -0.087 SA
ATOM     75  C   UNL A   1      31.948  23.820  26.356  1.00  0.00     0.274 C 
ATOM     76  H   UNL A   1      33.598  23.575  27.570  1.00  0.00     0.348 HD
ATOM     77  H   UNL A   1      32.327  22.594  27.978  1.00  0.00     0.348 HD
BRANCH  75  78
ATOM     78  C   UNL A   1      32.690  24.840  25.497  1.00  0.00     0.027 A 
ATOM     79  C   UNL A   1      33.461  25.877  26.055  1.00  0.00     0.011 A 
ATOM     80  C   UNL A   1      32.549  24.810  24.095  1.00  0.00     0.096 A 
ATOM     81  C   UNL A   1      33.930  26.935  25.268  1.00  0.00     0.008 A 
ATOM     82  C   UNL A   1      32.960  25.906  23.323  1.00  0.00     0.269 A 
ATOM     83  C   UNL A   1      33.645  26.975  23.905  1.00  0.00     0.085 A 
BRANCH  82  84
ATOM     84  N   UNL A   1      32.539  25.989  21.922  1.00  0.00     0.062 N 
ATOM     85  O   UNL A   1      33.388  25.767  21.046  1.00  0.00    -0.258 OA
ATOM     86  O   UNL A   1      31.364  26.312  21.689  1.00  0.00    -0.258 OA
ENDBRANCH  82  84
ENDBRANCH  75  78
ENDBRANCH  69  71
ENDBRANCH  68  69
ENDBRANCH  67  68
ENDBRANCH  66  67
ENDBRANCH  65  66
ENDBRANCH  64  65
ENDBRANCH   1  64
TORSDOF 19
ENDMDL
MODEL 3
REMARK VINA RESULT:     -10.2      4.158      7.294
REMARK SMILES O=C(OCCOCCOCCOC(=O)[C@@H]1CS[C@H](c2cccc([N+](=O)[O-])c2)[NH2+]1)c1ccc(-c2c3nc(c(-c4c(F)cccc4F)c4ccc([nH]4)c(-c4c(F)cccc4F)c4nc(c(-c5c(F)cccc5F)c5ccc2[nH]5)C=C4)C=C3)cc1
REMARK SMILES IDX 7 1 6 2 5 3 4 4 3 5 2 6 1 7 29 8 30 9 82 10 31 11 81 12
REMARK SMILES IDX 32 13 33 14 34 15 75 16 35 17 80 18 74 19 76 20 36 21 79 22
REMARK SMILES IDX 73 23 72 24 37 26 63 27 46 28 62 29 47 30 50 31 61 32 77 33
REMARK SMILES IDX 48 34 49 35 60 37 78 38 51 39 38 40 39 41 44 42 40 43 41 44
REMARK SMILES IDX 43 45 45 46 42 47 64 48 65 49 70 50 66 51 67 52 69 53 71 54
REMARK SMILES IDX 68 55 52 56 53 57 58 58 54 59 55 60 57 61 59 62 56 63 8 64
REMARK SMILES IDX 9 65 10 66 11 67 12 68 13 69 14 70 15 71 16 72 28 73 17 74
REMARK SMILES IDX 18 75 19 78 20 79 27 80 21 81 23 82 22 83 24 84 25 85 26 86
REMARK H PARENT 76 25 50 36 28 76 28 77
REMARK Flexibility Score: inf
ROOT
ATOM      1  C   UNL A   1      30.426  28.118  23.883  1.00  0.00     0.188 C 
ENDROOT
BRANCH   1   2
ATOM      2  O   UNL A   1      30.685  29.427  24.390  1.00  0.00    -0.376 OA
BRANCH   2   3
ATOM      3  C   UNL A   1      31.974  29.571  24.998  1.00  0.00     0.202 C 
BRANCH   3   4
ATOM      4  C   UNL A   1      31.973  29.967  26.487  1.00  0.00     0.261 C 
BRANCH   4   5
ATOM      5  O   UNL A   1      31.950  31.387  26.736  1.00  0.00    -0.460 OA
BRANCH   5   6
ATOM      6  C   UNL A   1      32.889  32.187  27.298  1.00  0.00     0.338 C 
ATOM      7  O   UNL A   1      32.687  33.400  27.335  1.00  0.00    -0.246 OA
BRANCH   6   8
ATOM      8  C   UNL A   1      34.169  31.684  27.872  1.00  0.00     0.060 A 
ATOM      9  C   UNL A   1      34.467  30.341  28.071  1.00  0.00     0.016 A 
ATOM     10  C   UNL A   1      35.167  32.628  28.164  1.00  0.00     0.016 A 
ATOM     11  C   UNL A   1      35.650  29.936  28.660  1.00  0.00     0.010 A 
ATOM     12  C   UNL A   1      36.392  32.230  28.709  1.00  0.00     0.010 A 
ATOM     13  C   UNL A   1      36.611  30.880  29.002  1.00  0.00    -0.014 A 
BRANCH  13  14
ATOM     14  C   UNL A   1      37.734  30.417  29.833  1.00  0.00     0.031 A 
ATOM     15  C   UNL A   1      38.787  29.578  29.174  1.00  0.00     0.074 A 
ATOM     16  C   UNL A   1      37.886  30.905  31.076  1.00  0.00     0.049 A 
ATOM     17  N   UNL A   1      39.858  29.039  29.686  1.00  0.00    -0.248 NA
ATOM     18  C   UNL A   1      38.617  29.326  27.731  1.00  0.00     0.031 C 
ATOM     19  C   UNL A   1      36.979  31.857  31.727  1.00  0.00     0.029 A 
ATOM     20  N   UNL A   1      38.875  30.704  31.998  1.00  0.00    -0.354 N 
ATOM     21  C   UNL A   1      40.476  28.370  28.637  1.00  0.00     0.074 A 
ATOM     22  C   UNL A   1      39.653  28.548  27.465  1.00  0.00     0.031 C 
ATOM     23  C   UNL A   1      37.468  32.172  32.937  1.00  0.00     0.029 A 
ATOM     24  C   UNL A   1      38.674  31.386  33.174  1.00  0.00     0.049 A 
ATOM     25  H   UNL A   1      39.656  30.127  31.835  1.00  0.00     0.167 HD
ATOM     26  C   UNL A   1      41.632  27.671  28.661  1.00  0.00     0.037 A 
ATOM     27  C   UNL A   1      39.373  31.337  34.322  1.00  0.00     0.037 A 
ATOM     28  C   UNL A   1      42.423  27.514  29.850  1.00  0.00     0.049 A 
ATOM     29  C   UNL A   1      40.583  30.442  34.360  1.00  0.00     0.074 A 
ATOM     30  C   UNL A   1      43.564  26.761  30.043  1.00  0.00     0.029 A 
ATOM     31  N   UNL A   1      42.140  28.139  31.059  1.00  0.00    -0.354 N 
ATOM     32  N   UNL A   1      41.119  29.734  33.393  1.00  0.00    -0.248 NA
ATOM     33  C   UNL A   1      41.279  30.325  35.646  1.00  0.00     0.031 C 
ATOM     34  C   UNL A   1      43.945  26.895  31.383  1.00  0.00     0.029 A 
ATOM     35  C   UNL A   1      43.075  27.777  32.009  1.00  0.00     0.049 A 
ATOM     36  H   UNL A   1      41.384  28.750  31.216  1.00  0.00     0.167 HD
ATOM     37  C   UNL A   1      42.227  29.107  33.944  1.00  0.00     0.074 A 
ATOM     38  C   UNL A   1      42.295  29.539  35.327  1.00  0.00     0.031 C 
ATOM     39  C   UNL A   1      43.107  28.249  33.371  1.00  0.00     0.037 A 
BRANCH  26  40
ATOM     40  C   UNL A   1      42.045  26.987  27.391  1.00  0.00     0.057 A 
ATOM     41  C   UNL A   1      41.738  25.644  27.130  1.00  0.00     0.134 A 
ATOM     42  C   UNL A   1      42.805  27.671  26.434  1.00  0.00     0.134 A 
ATOM     43  F   UNL A   1      41.044  24.920  28.021  1.00  0.00    -0.206 F 
ATOM     44  C   UNL A   1      42.195  25.001  25.978  1.00  0.00     0.040 A 
ATOM     45  C   UNL A   1      43.246  27.046  25.266  1.00  0.00     0.040 A 
ATOM     46  F   UNL A   1      43.145  28.954  26.624  1.00  0.00    -0.206 F 
ATOM     47  C   UNL A   1      42.949  25.703  25.040  1.00  0.00     0.006 A 
ENDBRANCH  26  40
BRANCH  27  48
ATOM     48  C   UNL A   1      38.916  32.083  35.524  1.00  0.00     0.057 A 
ATOM     49  C   UNL A   1      39.259  33.424  35.734  1.00  0.00     0.134 A 
ATOM     50  C   UNL A   1      38.152  31.457  36.521  1.00  0.00     0.134 A 
ATOM     51  F   UNL A   1      40.002  34.080  34.830  1.00  0.00    -0.206 F 
ATOM     52  C   UNL A   1      38.889  34.103  36.898  1.00  0.00     0.040 A 
ATOM     53  C   UNL A   1      37.748  32.133  37.673  1.00  0.00     0.040 A 
ATOM     54  F   UNL A   1      37.779  30.176  36.385  1.00  0.00    -0.206 F 
ATOM     55  C   UNL A   1      38.128  33.457  37.870  1.00  0.00     0.006 A 
ENDBRANCH  27  48
BRANCH  39  56
ATOM     56  C   UNL A   1      44.234  27.768  34.234  1.00  0.00     0.057 A 
ATOM     57  C   UNL A   1      44.133  26.602  35.002  1.00  0.00     0.134 A 
ATOM     58  C   UNL A   1      45.449  28.463  34.258  1.00  0.00     0.134 A 
ATOM     59  F   UNL A   1      42.989  25.902  35.029  1.00  0.00    -0.206 F 
ATOM     60  C   UNL A   1      45.197  26.158  35.787  1.00  0.00     0.040 A 
ATOM     61  C   UNL A   1      46.530  28.010  35.013  1.00  0.00     0.040 A 
ATOM     62  F   UNL A   1      45.611  29.580  33.534  1.00  0.00    -0.206 F 
ATOM     63  C   UNL A   1      46.402  26.858  35.787  1.00  0.00     0.006 A 
ENDBRANCH  39  56
ENDBRANCH  13  14
ENDBRANCH   6   8
ENDBRANCH   5   6
ENDBRANCH   4   5
ENDBRANCH   3   4
ENDBRANCH   2   3
ENDBRANCH   1   2
BRANCH   1  64
ATOM     64  C   UNL A   1      30.407  28.049  22.361  1.00  0.00     0.188 C 
BRANCH  64  65
ATOM     65  O   UNL A   1      31.294  27.139  21.724  1.00  0.00    -0.376 OA
BRANCH  65  66
ATOM     66  C   UNL A   1      32.095  26.294  22.536  1.00  0.00     0.202 C 
BRANCH  66  67
ATOM     67  C   UNL A   1      33.024  25.266  21.868  1.00  0.00     0.261 C 
BRANCH  67  68
ATOM     68  O   UNL A   1      34.165  24.811  22.613  1.00  0.00    -0.459 OA
BRANCH  68  69
ATOM     69  C   UNL A   1      34.137  23.491  22.955  1.00  0.00     0.365 C 
ATOM     70  O   UNL A   1      33.210  22.732  22.670  1.00  0.00    -0.245 OA
BRANCH  69  71
ATOM     71  C   UNL A   1      35.413  23.066  23.694  1.00  0.00     0.304 C 
ATOM     72  C   UNL A   1      35.240  21.681  24.321  1.00  0.00     0.153 C 
ATOM     73  N   UNL A   1      35.827  24.055  24.741  1.00  0.00    -0.319 N 
ATOM     74  S   UNL A   1      35.210  21.943  26.115  1.00  0.00    -0.087 SA
ATOM     75  C   UNL A   1      35.078  23.752  25.981  1.00  0.00     0.274 C 
ATOM     76  H   UNL A   1      35.610  25.002  24.429  1.00  0.00     0.348 HD
ATOM     77  H   UNL A   1      36.831  23.991  24.910  1.00  0.00     0.348 HD
BRANCH  75  78
ATOM     78  C   UNL A   1      33.653  24.299  25.977  1.00  0.00     0.027 A 
ATOM     79  C   UNL A   1      33.376  25.680  25.981  1.00  0.00     0.011 A 
ATOM     80  C   UNL A   1      32.561  23.411  26.053  1.00  0.00     0.096 A 
ATOM     81  C   UNL A   1      32.083  26.158  26.220  1.00  0.00     0.008 A 
ATOM     82  C   UNL A   1      31.282  23.895  26.362  1.00  0.00     0.269 A 
ATOM     83  C   UNL A   1      31.038  25.267  26.454  1.00  0.00     0.085 A 
BRANCH  82  84
ATOM     84  N   UNL A   1      30.230  22.944  26.730  1.00  0.00     0.062 N 
ATOM     85  O   UNL A   1      30.190  21.861  26.129  1.00  0.00    -0.258 OA
ATOM     86  O   UNL A   1      29.415  23.289  27.600  1.00  0.00    -0.258 OA
ENDBRANCH  82  84
ENDBRANCH  75  78
ENDBRANCH  69  71
ENDBRANCH  68  69
ENDBRANCH  67  68
ENDBRANCH  66  67
ENDBRANCH  65  66
ENDBRANCH  64  65
ENDBRANCH   1  64
TORSDOF 19
ENDMDL
