MODEL 1
REMARK VINA RESULT:     -11.2      0.000      0.000
REMARK SMILES Cc1ccc(O[C@H](C)C(=O)NNC(=O)[C@@H]2[C@@H](C(=O)OCCOCCOCCOC(=O)c3ccc(-c4c5nc(c(-c6c(F)cccc6F)c6ccc([nH]6)c(-c6c(F)cccc6F)c6nc(c(-c7c(F)cccc7F)c7ccc4[nH]7)C=C6)C=C5)cc3)[C@@H]3C=C[C@H]2C3)cc1C
REMARK SMILES IDX 22 1 21 2 20 3 19 4 17 5 18 6 16 7 15 8 88 9 85 10 87 11
REMARK SMILES IDX 89 12 86 13 13 14 12 15 14 17 11 18 9 19 10 20 7 22 8 23
REMARK SMILES IDX 6 24 5 25 1 26 2 27 3 28 91 29 4 30 90 31 92 32 23 33 24 34
REMARK SMILES IDX 25 35 26 36 27 37 28 38 29 39 30 40 31 41 32 42 84 43 33 44
REMARK SMILES IDX 83 45 34 46 35 47 36 48 77 49 37 50 82 51 76 52 78 53 38 54
REMARK SMILES IDX 81 55 75 56 74 57 39 59 65 60 48 61 64 62 49 63 52 64 63 65
REMARK SMILES IDX 79 66 50 67 51 68 62 70 80 71 53 72 40 73 41 74 46 75 42 76
REMARK SMILES IDX 43 77 45 78 47 79 44 80 66 81 67 82 72 83 68 84 69 85 71 86
REMARK SMILES IDX 73 87 70 88 54 89 55 90 60 91 56 92 57 93 59 94 61 95 58 96
REMARK H PARENT 12 16 11 21 78 58 52 69
REMARK Flexibility Score: inf
ROOT
ATOM      1  O   UNL A   1      39.123  21.204  25.734  1.00  0.00    -0.376 OA
ENDROOT
BRANCH   1   2
ATOM      2  C   UNL A   1      38.371  22.418  25.751  1.00  0.00     0.202 C 
BRANCH   2   3
ATOM      3  C   UNL A   1      36.836  22.296  25.793  1.00  0.00     0.261 C 
BRANCH   3   4
ATOM      4  O   UNL A   1      36.092  23.290  25.038  1.00  0.00    -0.463 OA
BRANCH   4   5
ATOM      5  C   UNL A   1      35.697  22.903  23.794  1.00  0.00     0.310 C 
ATOM      6  O   UNL A   1      36.433  22.917  22.811  1.00  0.00    -0.252 OA
BRANCH   5   7
ATOM      7  C   UNL A   1      34.250  22.452  23.675  1.00  0.00     0.119 C 
ATOM      8  C   UNL A   1      33.102  23.254  24.408  1.00  0.00     0.102 C 
ATOM      9  C   UNL A   1      32.432  22.141  25.261  1.00  0.00     0.025 C 
ATOM     10  C   UNL A   1      34.110  21.032  24.299  1.00  0.00     0.027 C 
ATOM     11  C   UNL A   1      31.817  21.087  24.371  1.00  0.00    -0.027 C 
ATOM     12  C   UNL A   1      33.649  21.342  25.723  1.00  0.00     0.017 C 
ATOM     13  C   UNL A   1      32.824  20.427  23.785  1.00  0.00    -0.027 C 
BRANCH   8  14
ATOM     14  C   UNL A   1      32.261  23.990  23.356  1.00  0.00     0.242 C 
ATOM     15  N   UNL A   1      31.074  24.613  23.630  1.00  0.00    -0.267 N 
ATOM     16  H   UNL A   1      30.681  25.151  22.905  1.00  0.00     0.191 HD
ATOM     17  O   UNL A   1      32.702  24.123  22.207  1.00  0.00    -0.273 OA
BRANCH  15  18
ATOM     18  N   UNL A   1      30.366  24.565  24.817  1.00  0.00    -0.264 N 
ATOM     19  C   UNL A   1      30.222  25.626  25.682  1.00  0.00     0.279 C 
ATOM     20  O   UNL A   1      29.375  25.547  26.577  1.00  0.00    -0.269 OA
ATOM     21  H   UNL A   1      29.936  23.714  25.061  1.00  0.00     0.191 HD
BRANCH  19  22
ATOM     22  C   UNL A   1      31.203  26.812  25.616  1.00  0.00     0.260 C 
ATOM     23  C   UNL A   1      32.545  26.329  26.186  1.00  0.00     0.064 C 
BRANCH  22  24
ATOM     24  O   UNL A   1      31.333  27.326  24.292  1.00  0.00    -0.481 OA
BRANCH  24  25
ATOM     25  C   UNL A   1      30.375  28.197  23.833  1.00  0.00     0.120 A 
ATOM     26  C   UNL A   1      27.372  31.155  22.832  1.00  0.00     0.044 C 
ATOM     27  C   UNL A   1      28.454  30.166  23.168  1.00  0.00    -0.048 A 
ATOM     28  C   UNL A   1      28.300  28.833  22.761  1.00  0.00     0.007 A 
ATOM     29  C   UNL A   1      29.614  30.527  23.876  1.00  0.00    -0.045 A 
ATOM     30  C   UNL A   1      29.256  27.864  23.077  1.00  0.00     0.047 A 
ATOM     31  C   UNL A   1      30.559  29.532  24.204  1.00  0.00     0.050 A 
ATOM     32  C   UNL A   1      29.902  31.941  24.305  1.00  0.00     0.045 C 
ENDBRANCH  24  25
ENDBRANCH  22  24
ENDBRANCH  19  22
ENDBRANCH  15  18
ENDBRANCH   8  14
ENDBRANCH   5   7
ENDBRANCH   4   5
ENDBRANCH   3   4
ENDBRANCH   2   3
ENDBRANCH   1   2
BRANCH   1  33
ATOM     33  C   UNL A   1      40.329  21.216  26.483  1.00  0.00     0.188 C 
BRANCH  33  34
ATOM     34  C   UNL A   1      41.130  19.913  26.475  1.00  0.00     0.188 C 
BRANCH  34  35
ATOM     35  O   UNL A   1      42.504  20.049  26.151  1.00  0.00    -0.376 OA
BRANCH  35  36
ATOM     36  C   UNL A   1      42.957  21.337  25.727  1.00  0.00     0.202 C 
BRANCH  36  37
ATOM     37  C   UNL A   1      44.468  21.643  25.816  1.00  0.00     0.261 C 
BRANCH  37  38
ATOM     38  O   UNL A   1      44.833  22.929  26.362  1.00  0.00    -0.460 OA
BRANCH  38  39
ATOM     39  C   UNL A   1      44.504  24.042  25.661  1.00  0.00     0.338 C 
ATOM     40  O   UNL A   1      44.594  24.199  24.464  1.00  0.00    -0.246 OA
BRANCH  39  41
ATOM     41  C   UNL A   1      43.741  24.951  26.568  1.00  0.00     0.060 A 
ATOM     42  C   UNL A   1      44.027  26.323  26.512  1.00  0.00     0.016 A 
ATOM     43  C   UNL A   1      42.720  24.491  27.405  1.00  0.00     0.016 A 
ATOM     44  C   UNL A   1      43.329  27.229  27.316  1.00  0.00     0.010 A 
ATOM     45  C   UNL A   1      42.032  25.397  28.225  1.00  0.00     0.010 A 
ATOM     46  C   UNL A   1      42.357  26.766  28.212  1.00  0.00    -0.014 A 
BRANCH  46  47
ATOM     47  C   UNL A   1      41.852  27.660  29.287  1.00  0.00     0.031 A 
ATOM     48  C   UNL A   1      42.569  27.643  30.612  1.00  0.00     0.074 A 
ATOM     49  C   UNL A   1      40.809  28.492  29.109  1.00  0.00     0.049 A 
ATOM     50  N   UNL A   1      42.274  28.250  31.732  1.00  0.00    -0.248 NA
ATOM     51  C   UNL A   1      43.793  26.826  30.674  1.00  0.00     0.031 C 
ATOM     52  C   UNL A   1      40.066  28.670  27.864  1.00  0.00     0.029 A 
ATOM     53  N   UNL A   1      40.192  29.343  29.995  1.00  0.00    -0.354 N 
ATOM     54  C   UNL A   1      43.262  27.874  32.634  1.00  0.00     0.074 A 
ATOM     55  C   UNL A   1      44.151  26.970  31.939  1.00  0.00     0.031 C 
ATOM     56  C   UNL A   1      39.082  29.566  28.070  1.00  0.00     0.029 A 
ATOM     57  C   UNL A   1      39.098  29.990  29.469  1.00  0.00     0.049 A 
ATOM     58  H   UNL A   1      40.503  29.477  30.919  1.00  0.00     0.167 HD
ATOM     59  C   UNL A   1      43.420  28.251  33.925  1.00  0.00     0.037 A 
ATOM     60  C   UNL A   1      38.200  30.804  30.060  1.00  0.00     0.037 A 
ATOM     61  C   UNL A   1      42.542  29.151  34.621  1.00  0.00     0.049 A 
ATOM     62  C   UNL A   1      38.338  31.135  31.527  1.00  0.00     0.074 A 
ATOM     63  C   UNL A   1      42.618  29.588  35.931  1.00  0.00     0.029 A 
ATOM     64  N   UNL A   1      41.423  29.751  34.063  1.00  0.00    -0.354 N 
ATOM     65  N   UNL A   1      39.269  30.768  32.374  1.00  0.00    -0.248 NA
ATOM     66  C   UNL A   1      37.297  31.989  32.119  1.00  0.00     0.031 C 
ATOM     67  C   UNL A   1      41.515  30.410  36.183  1.00  0.00     0.029 A 
ATOM     68  C   UNL A   1      40.787  30.535  35.011  1.00  0.00     0.049 A 
ATOM     69  H   UNL A   1      41.125  29.637  33.131  1.00  0.00     0.167 HD
ATOM     70  C   UNL A   1      38.946  31.375  33.584  1.00  0.00     0.074 A 
ATOM     71  C   UNL A   1      37.737  32.139  33.360  1.00  0.00     0.031 C 
ATOM     72  C   UNL A   1      39.596  31.308  34.773  1.00  0.00     0.037 A 
BRANCH  59  73
ATOM     73  C   UNL A   1      44.569  27.649  34.680  1.00  0.00     0.057 A 
ATOM     74  C   UNL A   1      44.433  26.473  35.430  1.00  0.00     0.134 A 
ATOM     75  C   UNL A   1      45.834  28.250  34.643  1.00  0.00     0.134 A 
ATOM     76  F   UNL A   1      43.244  25.860  35.523  1.00  0.00    -0.206 F 
ATOM     77  C   UNL A   1      45.508  25.932  36.137  1.00  0.00     0.040 A 
ATOM     78  C   UNL A   1      46.923  27.701  35.321  1.00  0.00     0.040 A 
ATOM     79  F   UNL A   1      46.034  29.376  33.942  1.00  0.00    -0.206 F 
ATOM     80  C   UNL A   1      46.759  26.542  36.078  1.00  0.00     0.006 A 
ENDBRANCH  59  73
BRANCH  60  81
ATOM     81  C   UNL A   1      37.055  31.350  29.280  1.00  0.00     0.057 A 
ATOM     82  C   UNL A   1      35.933  30.566  28.985  1.00  0.00     0.134 A 
ATOM     83  C   UNL A   1      37.078  32.654  28.769  1.00  0.00     0.134 A 
ATOM     84  F   UNL A   1      35.864  29.298  29.416  1.00  0.00    -0.206 F 
ATOM     85  C   UNL A   1      34.887  31.050  28.196  1.00  0.00     0.040 A 
ATOM     86  C   UNL A   1      36.027  33.160  28.003  1.00  0.00     0.040 A 
ATOM     87  F   UNL A   1      38.127  33.456  29.007  1.00  0.00    -0.206 F 
ATOM     88  C   UNL A   1      34.930  32.354  27.707  1.00  0.00     0.006 A 
ENDBRANCH  60  81
BRANCH  72  89
ATOM     89  C   UNL A   1      39.056  32.124  35.914  1.00  0.00     0.057 A 
ATOM     90  C   UNL A   1      38.201  31.582  36.881  1.00  0.00     0.134 A 
ATOM     91  C   UNL A   1      39.451  33.460  36.079  1.00  0.00     0.134 A 
ATOM     92  F   UNL A   1      37.777  30.314  36.779  1.00  0.00    -0.206 F 
ATOM     93  C   UNL A   1      37.744  32.342  37.959  1.00  0.00     0.040 A 
ATOM     94  C   UNL A   1      39.023  34.221  37.168  1.00  0.00     0.040 A 
ATOM     95  F   UNL A   1      40.278  34.040  35.196  1.00  0.00    -0.206 F 
ATOM     96  C   UNL A   1      38.162  33.663  38.110  1.00  0.00     0.006 A 
ENDBRANCH  72  89
ENDBRANCH  46  47
ENDBRANCH  39  41
ENDBRANCH  38  39
ENDBRANCH  37  38
ENDBRANCH  36  37
ENDBRANCH  35  36
ENDBRANCH  34  35
ENDBRANCH  33  34
ENDBRANCH   1  33
TORSDOF 22
ENDMDL
MODEL 2
REMARK VINA RESULT:     -11.1      4.340     10.160
REMARK SMILES Cc1ccc(O[C@H](C)C(=O)NNC(=O)[C@@H]2[C@@H](C(=O)OCCOCCOCCOC(=O)c3ccc(-c4c5nc(c(-c6c(F)cccc6F)c6ccc([nH]6)c(-c6c(F)cccc6F)c6nc(c(-c7c(F)cccc7F)c7ccc4[nH]7)C=C6)C=C5)cc3)[C@@H]3C=C[C@H]2C3)cc1C
REMARK SMILES IDX 22 1 21 2 20 3 19 4 17 5 18 6 16 7 15 8 88 9 85 10 87 11
REMARK SMILES IDX 89 12 86 13 13 14 12 15 14 17 11 18 9 19 10 20 7 22 8 23
REMARK SMILES IDX 6 24 5 25 1 26 2 27 3 28 91 29 4 30 90 31 92 32 23 33 24 34
REMARK SMILES IDX 25 35 26 36 27 37 28 38 29 39 30 40 31 41 32 42 84 43 33 44
REMARK SMILES IDX 83 45 34 46 35 47 36 48 77 49 37 50 82 51 76 52 78 53 38 54
REMARK SMILES IDX 81 55 75 56 74 57 39 59 65 60 48 61 64 62 49 63 52 64 63 65
REMARK SMILES IDX 79 66 50 67 51 68 62 70 80 71 53 72 40 73 41 74 46 75 42 76
REMARK SMILES IDX 43 77 45 78 47 79 44 80 66 81 67 82 72 83 68 84 69 85 71 86
REMARK SMILES IDX 73 87 70 88 54 89 55 90 60 91 56 92 57 93 59 94 61 95 58 96
REMARK H PARENT 12 16 11 21 78 58 52 69
REMARK Flexibility Score: inf
ROOT
ATOM      1  O   UNL A   1      34.481  34.434  28.950  1.00  0.00    -0.376 OA
ENDROOT
BRANCH   1   2
ATOM      2  C   UNL A   1      33.906  33.425  28.119  1.00  0.00     0.202 C 
BRANCH   2   3
ATOM      3  C   UNL A   1      34.763  32.178  27.828  1.00  0.00     0.261 C 
BRANCH   3   4
ATOM      4  O   UNL A   1      34.145  30.894  28.109  1.00  0.00    -0.463 OA
BRANCH   4   5
ATOM      5  C   UNL A   1      34.679  29.831  27.448  1.00  0.00     0.310 C 
ATOM      6  O   UNL A   1      35.877  29.710  27.209  1.00  0.00    -0.252 OA
BRANCH   5   7
ATOM      7  C   UNL A   1      33.684  28.774  26.992  1.00  0.00     0.119 C 
ATOM      8  C   UNL A   1      33.373  28.584  25.454  1.00  0.00     0.102 C 
ATOM      9  C   UNL A   1      31.829  28.754  25.420  1.00  0.00     0.025 C 
ATOM     10  C   UNL A   1      32.281  29.116  27.573  1.00  0.00     0.027 C 
ATOM     11  C   UNL A   1      31.155  27.655  26.207  1.00  0.00    -0.027 C 
ATOM     12  C   UNL A   1      31.628  29.886  26.426  1.00  0.00     0.017 C 
ATOM     13  C   UNL A   1      31.435  27.866  27.499  1.00  0.00    -0.027 C 
BRANCH   8  14
ATOM     14  C   UNL A   1      33.984  27.257  24.984  1.00  0.00     0.242 C 
ATOM     15  N   UNL A   1      33.796  26.732  23.733  1.00  0.00    -0.267 N 
ATOM     16  H   UNL A   1      34.330  25.937  23.505  1.00  0.00     0.191 HD
ATOM     17  O   UNL A   1      34.768  26.650  25.725  1.00  0.00    -0.273 OA
BRANCH  15  18
ATOM     18  N   UNL A   1      32.936  27.202  22.758  1.00  0.00    -0.264 N 
ATOM     19  C   UNL A   1      31.892  26.479  22.226  1.00  0.00     0.279 C 
ATOM     20  O   UNL A   1      31.047  27.074  21.550  1.00  0.00    -0.269 OA
ATOM     21  H   UNL A   1      33.080  28.115  22.420  1.00  0.00     0.191 HD
BRANCH  19  22
ATOM     22  C   UNL A   1      31.875  24.944  22.352  1.00  0.00     0.260 C 
ATOM     23  C   UNL A   1      32.941  24.393  21.394  1.00  0.00     0.064 C 
BRANCH  22  24
ATOM     24  O   UNL A   1      32.085  24.515  23.697  1.00  0.00    -0.481 OA
BRANCH  24  25
ATOM     25  C   UNL A   1      32.387  23.195  23.921  1.00  0.00     0.120 A 
ATOM     26  C   UNL A   1      33.802  19.177  24.713  1.00  0.00     0.044 C 
ATOM     27  C   UNL A   1      33.306  20.579  24.493  1.00  0.00    -0.048 A 
ATOM     28  C   UNL A   1      32.412  20.822  23.440  1.00  0.00     0.007 A 
ATOM     29  C   UNL A   1      33.706  21.658  25.302  1.00  0.00    -0.045 A 
ATOM     30  C   UNL A   1      31.946  22.111  23.167  1.00  0.00     0.047 A 
ATOM     31  C   UNL A   1      33.242  22.955  25.000  1.00  0.00     0.050 A 
ATOM     32  C   UNL A   1      34.614  21.493  26.492  1.00  0.00     0.045 C 
ENDBRANCH  24  25
ENDBRANCH  22  24
ENDBRANCH  19  22
ENDBRANCH  15  18
ENDBRANCH   8  14
ENDBRANCH   5   7
ENDBRANCH   4   5
ENDBRANCH   3   4
ENDBRANCH   2   3
ENDBRANCH   1   2
BRANCH   1  33
ATOM     33  C   UNL A   1      33.823  35.691  28.938  1.00  0.00     0.188 C 
BRANCH  33  34
ATOM     34  C   UNL A   1      33.027  36.038  30.197  1.00  0.00     0.188 C 
BRANCH  34  35
ATOM     35  O   UNL A   1      32.836  34.967  31.107  1.00  0.00    -0.376 OA
BRANCH  35  36
ATOM     36  C   UNL A   1      33.769  34.838  32.181  1.00  0.00     0.202 C 
BRANCH  36  37
ATOM     37  C   UNL A   1      33.935  33.453  32.841  1.00  0.00     0.261 C 
BRANCH  37  38
ATOM     38  O   UNL A   1      34.983  32.609  32.316  1.00  0.00    -0.460 OA
BRANCH  38  39
ATOM     39  C   UNL A   1      36.093  32.418  33.071  1.00  0.00     0.338 C 
ATOM     40  O   UNL A   1      36.199  32.599  34.263  1.00  0.00    -0.246 OA
BRANCH  39  41
ATOM     41  C   UNL A   1      37.091  31.675  32.246  1.00  0.00     0.060 A 
ATOM     42  C   UNL A   1      37.882  30.709  32.888  1.00  0.00     0.016 A 
ATOM     43  C   UNL A   1      37.211  31.859  30.866  1.00  0.00     0.016 A 
ATOM     44  C   UNL A   1      38.816  29.960  32.166  1.00  0.00     0.010 A 
ATOM     45  C   UNL A   1      38.160  31.121  30.145  1.00  0.00     0.010 A 
ATOM     46  C   UNL A   1      38.993  30.193  30.797  1.00  0.00    -0.014 A 
BRANCH  46  47
ATOM     47  C   UNL A   1      40.188  29.650  30.099  1.00  0.00     0.031 A 
ATOM     48  C   UNL A   1      41.368  30.567  29.906  1.00  0.00     0.074 A 
ATOM     49  C   UNL A   1      40.260  28.378  29.668  1.00  0.00     0.049 A 
ATOM     50  N   UNL A   1      42.483  30.370  29.252  1.00  0.00    -0.248 NA
ATOM     51  C   UNL A   1      41.271  31.890  30.545  1.00  0.00     0.031 C 
ATOM     52  C   UNL A   1      39.230  27.358  29.848  1.00  0.00     0.029 A 
ATOM     53  N   UNL A   1      41.257  27.730  28.975  1.00  0.00    -0.354 N 
ATOM     54  C   UNL A   1      43.210  31.547  29.386  1.00  0.00     0.074 A 
ATOM     55  C   UNL A   1      42.400  32.460  30.163  1.00  0.00     0.031 C 
ATOM     56  C   UNL A   1      39.643  26.215  29.269  1.00  0.00     0.029 A 
ATOM     57  C   UNL A   1      40.945  26.434  28.639  1.00  0.00     0.049 A 
ATOM     58  H   UNL A   1      42.114  28.155  28.743  1.00  0.00     0.167 HD
ATOM     59  C   UNL A   1      44.442  31.842  28.910  1.00  0.00     0.037 A 
ATOM     60  C   UNL A   1      41.618  25.542  27.884  1.00  0.00     0.037 A 
ATOM     61  C   UNL A   1      45.253  30.939  28.140  1.00  0.00     0.049 A 
ATOM     62  C   UNL A   1      42.949  25.926  27.281  1.00  0.00     0.074 A 
ATOM     63  C   UNL A   1      46.513  31.150  27.610  1.00  0.00     0.029 A 
ATOM     64  N   UNL A   1      44.880  29.651  27.786  1.00  0.00    -0.354 N 
ATOM     65  N   UNL A   1      43.624  27.043  27.404  1.00  0.00    -0.248 NA
ATOM     66  C   UNL A   1      43.608  24.923  26.429  1.00  0.00     0.031 C 
ATOM     67  C   UNL A   1      46.882  30.010  26.890  1.00  0.00     0.029 A 
ATOM     68  C   UNL A   1      45.878  29.064  27.025  1.00  0.00     0.049 A 
ATOM     69  H   UNL A   1      44.034  29.217  28.040  1.00  0.00     0.167 HD
ATOM     70  C   UNL A   1      44.798  26.863  26.679  1.00  0.00     0.074 A 
ATOM     71  C   UNL A   1      44.746  25.528  26.124  1.00  0.00     0.031 C 
ATOM     72  C   UNL A   1      45.827  27.727  26.493  1.00  0.00     0.037 A 
BRANCH  59  73
ATOM     73  C   UNL A   1      44.969  33.222  29.176  1.00  0.00     0.057 A 
ATOM     74  C   UNL A   1      44.699  34.300  28.322  1.00  0.00     0.134 A 
ATOM     75  C   UNL A   1      45.745  33.478  30.314  1.00  0.00     0.134 A 
ATOM     76  F   UNL A   1      43.979  34.118  27.205  1.00  0.00    -0.206 F 
ATOM     77  C   UNL A   1      45.206  35.575  28.576  1.00  0.00     0.040 A 
ATOM     78  C   UNL A   1      46.232  34.756  30.594  1.00  0.00     0.040 A 
ATOM     79  F   UNL A   1      46.039  32.492  31.174  1.00  0.00    -0.206 F 
ATOM     80  C   UNL A   1      45.969  35.807  29.719  1.00  0.00     0.006 A 
ENDBRANCH  59  73
BRANCH  60  81
ATOM     81  C   UNL A   1      41.041  24.197  27.617  1.00  0.00     0.057 A 
ATOM     82  C   UNL A   1      41.544  23.049  28.243  1.00  0.00     0.134 A 
ATOM     83  C   UNL A   1      40.005  24.021  26.690  1.00  0.00     0.134 A 
ATOM     84  F   UNL A   1      42.558  23.146  29.115  1.00  0.00    -0.206 F 
ATOM     85  C   UNL A   1      41.052  21.777  27.945  1.00  0.00     0.040 A 
ATOM     86  C   UNL A   1      39.486  22.757  26.404  1.00  0.00     0.040 A 
ATOM     87  F   UNL A   1      39.485  25.076  26.048  1.00  0.00    -0.206 F 
ATOM     88  C   UNL A   1      40.015  21.629  27.025  1.00  0.00     0.006 A 
ENDBRANCH  60  81
BRANCH  72  89
ATOM     89  C   UNL A   1      47.014  27.245  25.707  1.00  0.00     0.057 A 
ATOM     90  C   UNL A   1      47.162  27.509  24.340  1.00  0.00     0.134 A 
ATOM     91  C   UNL A   1      48.055  26.558  26.348  1.00  0.00     0.134 A 
ATOM     92  F   UNL A   1      46.200  28.153  23.665  1.00  0.00    -0.206 F 
ATOM     93  C   UNL A   1      48.292  27.092  23.635  1.00  0.00     0.040 A 
ATOM     94  C   UNL A   1      49.203  26.160  25.660  1.00  0.00     0.040 A 
ATOM     95  F   UNL A   1      47.985  26.282  27.659  1.00  0.00    -0.206 F 
ATOM     96  C   UNL A   1      49.321  26.423  24.297  1.00  0.00     0.006 A 
ENDBRANCH  72  89
ENDBRANCH  46  47
ENDBRANCH  39  41
ENDBRANCH  38  39
ENDBRANCH  37  38
ENDBRANCH  36  37
ENDBRANCH  35  36
ENDBRANCH  34  35
ENDBRANCH  33  34
ENDBRANCH   1  33
TORSDOF 22
ENDMDL
MODEL 3
REMARK VINA RESULT:     -10.9      4.416     10.359
REMARK SMILES Cc1ccc(O[C@H](C)C(=O)NNC(=O)[C@@H]2[C@@H](C(=O)OCCOCCOCCOC(=O)c3ccc(-c4c5nc(c(-c6c(F)cccc6F)c6ccc([nH]6)c(-c6c(F)cccc6F)c6nc(c(-c7c(F)cccc7F)c7ccc4[nH]7)C=C6)C=C5)cc3)[C@@H]3C=C[C@H]2C3)cc1C
REMARK SMILES IDX 22 1 21 2 20 3 19 4 17 5 18 6 16 7 15 8 88 9 85 10 87 11
REMARK SMILES IDX 89 12 86 13 13 14 12 15 14 17 11 18 9 19 10 20 7 22 8 23
REMARK SMILES IDX 6 24 5 25 1 26 2 27 3 28 91 29 4 30 90 31 92 32 23 33 24 34
REMARK SMILES IDX 25 35 26 36 27 37 28 38 29 39 30 40 31 41 32 42 84 43 33 44
REMARK SMILES IDX 83 45 34 46 35 47 36 48 77 49 37 50 82 51 76 52 78 53 38 54
REMARK SMILES IDX 81 55 75 56 74 57 39 59 65 60 48 61 64 62 49 63 52 64 63 65
REMARK SMILES IDX 79 66 50 67 51 68 62 70 80 71 53 72 40 73 41 74 46 75 42 76
REMARK SMILES IDX 43 77 45 78 47 79 44 80 66 81 67 82 72 83 68 84 69 85 71 86
REMARK SMILES IDX 73 87 70 88 54 89 55 90 60 91 56 92 57 93 59 94 61 95 58 96
REMARK H PARENT 12 16 11 21 78 58 52 69
REMARK Flexibility Score: inf
ROOT
ATOM      1  O   UNL A   1      34.002  31.980  28.621  1.00  0.00    -0.376 OA
ENDROOT
BRANCH   1   2
ATOM      2  C   UNL A   1      34.593  31.251  27.546  1.00  0.00     0.202 C 
BRANCH   2   3
ATOM      3  C   UNL A   1      34.102  29.808  27.318  1.00  0.00     0.261 C 
BRANCH   3   4
ATOM      4  O   UNL A   1      33.544  29.520  26.008  1.00  0.00    -0.463 OA
BRANCH   4   5
ATOM      5  C   UNL A   1      32.197  29.680  25.900  1.00  0.00     0.310 C 
ATOM      6  O   UNL A   1      31.572  30.586  26.445  1.00  0.00    -0.252 OA
BRANCH   5   7
ATOM      7  C   UNL A   1      31.478  28.640  25.054  1.00  0.00     0.119 C 
ATOM      8  C   UNL A   1      32.304  27.580  24.223  1.00  0.00     0.102 C 
ATOM      9  C   UNL A   1      31.758  27.808  22.786  1.00  0.00     0.025 C 
ATOM     10  C   UNL A   1      30.663  29.367  23.944  1.00  0.00     0.027 C 
ATOM     11  C   UNL A   1      30.289  27.466  22.714  1.00  0.00    -0.027 C 
ATOM     12  C   UNL A   1      31.621  29.329  22.754  1.00  0.00     0.017 C 
ATOM     13  C   UNL A   1      29.632  28.396  23.418  1.00  0.00    -0.027 C 
BRANCH   8  14
ATOM     14  C   UNL A   1      32.134  26.199  24.870  1.00  0.00     0.242 C 
ATOM     15  N   UNL A   1      32.424  25.020  24.238  1.00  0.00    -0.267 N 
ATOM     16  H   UNL A   1      32.388  24.205  24.788  1.00  0.00     0.191 HD
ATOM     17  O   UNL A   1      31.805  26.120  26.061  1.00  0.00    -0.273 OA
BRANCH  15  18
ATOM     18  N   UNL A   1      32.761  24.853  22.907  1.00  0.00    -0.264 N 
ATOM     19  C   UNL A   1      33.380  23.736  22.394  1.00  0.00     0.279 C 
ATOM     20  O   UNL A   1      33.410  23.589  21.168  1.00  0.00    -0.269 OA
ATOM     21  H   UNL A   1      32.544  25.584  22.284  1.00  0.00     0.191 HD
BRANCH  19  22
ATOM     22  C   UNL A   1      34.144  22.780  23.331  1.00  0.00     0.260 C 
ATOM     23  C   UNL A   1      35.441  23.487  23.749  1.00  0.00     0.064 C 
BRANCH  22  24
ATOM     24  O   UNL A   1      33.356  22.389  24.454  1.00  0.00    -0.481 OA
BRANCH  24  25
ATOM     25  C   UNL A   1      33.196  21.048  24.703  1.00  0.00     0.120 A 
ATOM     26  C   UNL A   1      32.312  16.833  25.172  1.00  0.00     0.044 C 
ATOM     27  C   UNL A   1      32.648  18.284  24.963  1.00  0.00    -0.048 A 
ATOM     28  C   UNL A   1      32.980  19.066  26.077  1.00  0.00     0.007 A 
ATOM     29  C   UNL A   1      32.638  18.885  23.692  1.00  0.00    -0.045 A 
ATOM     30  C   UNL A   1      33.266  20.429  25.947  1.00  0.00     0.047 A 
ATOM     31  C   UNL A   1      32.909  20.265  23.581  1.00  0.00     0.050 A 
ATOM     32  C   UNL A   1      32.352  18.119  22.427  1.00  0.00     0.045 C 
ENDBRANCH  24  25
ENDBRANCH  22  24
ENDBRANCH  19  22
ENDBRANCH  15  18
ENDBRANCH   8  14
ENDBRANCH   5   7
ENDBRANCH   4   5
ENDBRANCH   3   4
ENDBRANCH   2   3
ENDBRANCH   1   2
BRANCH   1  33
ATOM     33  C   UNL A   1      34.283  33.371  28.651  1.00  0.00     0.188 C 
BRANCH  33  34
ATOM     34  C   UNL A   1      35.016  33.876  29.895  1.00  0.00     0.188 C 
BRANCH  34  35
ATOM     35  O   UNL A   1      34.222  34.617  30.807  1.00  0.00    -0.376 OA
BRANCH  35  36
ATOM     36  C   UNL A   1      34.011  34.058  32.104  1.00  0.00     0.202 C 
BRANCH  36  37
ATOM     37  C   UNL A   1      35.250  33.705  32.956  1.00  0.00     0.261 C 
BRANCH  37  38
ATOM     38  O   UNL A   1      35.780  32.371  32.800  1.00  0.00    -0.460 OA
BRANCH  38  39
ATOM     39  C   UNL A   1      36.890  32.035  33.502  1.00  0.00     0.338 C 
ATOM     40  O   UNL A   1      36.998  31.980  34.707  1.00  0.00    -0.246 OA
BRANCH  39  41
ATOM     41  C   UNL A   1      37.888  31.467  32.547  1.00  0.00     0.060 A 
ATOM     42  C   UNL A   1      38.980  30.765  33.081  1.00  0.00     0.016 A 
ATOM     43  C   UNL A   1      37.732  31.552  31.161  1.00  0.00     0.016 A 
ATOM     44  C   UNL A   1      39.933  30.186  32.239  1.00  0.00     0.010 A 
ATOM     45  C   UNL A   1      38.698  30.987  30.317  1.00  0.00     0.010 A 
ATOM     46  C   UNL A   1      39.823  30.332  30.851  1.00  0.00    -0.014 A 
BRANCH  46  47
ATOM     47  C   UNL A   1      40.982  30.014  29.976  1.00  0.00     0.031 A 
ATOM     48  C   UNL A   1      41.049  28.636  29.369  1.00  0.00     0.074 A 
ATOM     49  C   UNL A   1      41.943  30.911  29.689  1.00  0.00     0.049 A 
ATOM     50  N   UNL A   1      41.994  28.081  28.655  1.00  0.00    -0.248 NA
ATOM     51  C   UNL A   1      39.882  27.770  29.602  1.00  0.00     0.031 C 
ATOM     52  C   UNL A   1      41.973  32.300  30.143  1.00  0.00     0.029 A 
ATOM     53  N   UNL A   1      43.091  30.775  28.945  1.00  0.00    -0.354 N 
ATOM     54  C   UNL A   1      41.543  26.797  28.370  1.00  0.00     0.074 A 
ATOM     55  C   UNL A   1      40.253  26.648  29.007  1.00  0.00     0.031 C 
ATOM     56  C   UNL A   1      43.093  32.884  29.678  1.00  0.00     0.029 A 
ATOM     57  C   UNL A   1      43.879  31.902  28.932  1.00  0.00     0.049 A 
ATOM     58  H   UNL A   1      43.327  29.948  28.466  1.00  0.00     0.167 HD
ATOM     59  C   UNL A   1      42.145  25.829  27.640  1.00  0.00     0.037 A 
ATOM     60  C   UNL A   1      45.104  32.104  28.406  1.00  0.00     0.037 A 
ATOM     61  C   UNL A   1      43.425  25.971  27.002  1.00  0.00     0.049 A 
ATOM     62  C   UNL A   1      45.801  30.979  27.678  1.00  0.00     0.074 A 
ATOM     63  C   UNL A   1      44.119  25.044  26.246  1.00  0.00     0.029 A 
ATOM     64  N   UNL A   1      44.208  27.115  27.050  1.00  0.00    -0.354 N 
ATOM     65  N   UNL A   1      45.373  29.766  27.422  1.00  0.00    -0.248 NA
ATOM     66  C   UNL A   1      47.156  31.251  27.171  1.00  0.00     0.031 C 
ATOM     67  C   UNL A   1      45.345  25.607  25.880  1.00  0.00     0.029 A 
ATOM     68  C   UNL A   1      45.388  26.908  26.355  1.00  0.00     0.049 A 
ATOM     69  H   UNL A   1      43.961  27.951  27.508  1.00  0.00     0.167 HD
ATOM     70  C   UNL A   1      46.386  29.148  26.695  1.00  0.00     0.074 A 
ATOM     71  C   UNL A   1      47.447  30.120  26.546  1.00  0.00     0.031 C 
ATOM     72  C   UNL A   1      46.430  27.888  26.194  1.00  0.00     0.037 A 
BRANCH  59  73
ATOM     73  C   UNL A   1      41.437  24.510  27.532  1.00  0.00     0.057 A 
ATOM     74  C   UNL A   1      40.366  24.310  26.649  1.00  0.00     0.134 A 
ATOM     75  C   UNL A   1      41.843  23.421  28.312  1.00  0.00     0.134 A 
ATOM     76  F   UNL A   1      39.915  25.319  25.889  1.00  0.00    -0.206 F 
ATOM     77  C   UNL A   1      39.709  23.081  26.568  1.00  0.00     0.040 A 
ATOM     78  C   UNL A   1      41.214  22.179  28.217  1.00  0.00     0.040 A 
ATOM     79  F   UNL A   1      42.863  23.543  29.175  1.00  0.00    -0.206 F 
ATOM     80  C   UNL A   1      40.137  22.009  27.348  1.00  0.00     0.006 A 
ENDBRANCH  59  73
BRANCH  60  81
ATOM     81  C   UNL A   1      45.784  33.417  28.568  1.00  0.00     0.057 A 
ATOM     82  C   UNL A   1      46.622  33.676  29.660  1.00  0.00     0.134 A 
ATOM     83  C   UNL A   1      45.572  34.464  27.661  1.00  0.00     0.134 A 
ATOM     84  F   UNL A   1      46.839  32.726  30.583  1.00  0.00    -0.206 F 
ATOM     85  C   UNL A   1      47.208  34.928  29.855  1.00  0.00     0.040 A 
ATOM     86  C   UNL A   1      46.175  35.712  27.828  1.00  0.00     0.040 A 
ATOM     87  F   UNL A   1      44.774  34.287  26.599  1.00  0.00    -0.206 F 
ATOM     88  C   UNL A   1      46.989  35.950  28.933  1.00  0.00     0.006 A 
ENDBRANCH  60  81
BRANCH  72  89
ATOM     89  C   UNL A   1      47.635  27.497  25.385  1.00  0.00     0.057 A 
ATOM     90  C   UNL A   1      48.765  26.908  25.964  1.00  0.00     0.134 A 
ATOM     91  C   UNL A   1      47.634  27.659  23.991  1.00  0.00     0.134 A 
ATOM     92  F   UNL A   1      48.835  26.732  27.292  1.00  0.00    -0.206 F 
ATOM     93  C   UNL A   1      49.857  26.510  25.191  1.00  0.00     0.040 A 
ATOM     94  C   UNL A   1      48.709  27.239  23.205  1.00  0.00     0.040 A 
ATOM     95  F   UNL A   1      46.579  28.206  23.369  1.00  0.00    -0.206 F 
ATOM     96  C   UNL A   1      49.827  26.667  23.807  1.00  0.00     0.006 A 
ENDBRANCH  72  89
ENDBRANCH  46  47
ENDBRANCH  39  41
ENDBRANCH  38  39
ENDBRANCH  37  38
ENDBRANCH  36  37
ENDBRANCH  35  36
ENDBRANCH  34  35
ENDBRANCH  33  34
ENDBRANCH   1  33
TORSDOF 22
ENDMDL
