MODEL 1
REMARK VINA RESULT:     -10.2      0.000      0.000
REMARK SMILES CCOc1ncnc(N[C@@H]2C=C[C@H](C(=O)OCCOCCOCCOC(=O)c3ccc(-c4c5nc(c(-c6c(F)cccc6F)c6ccc([nH]6)c(-c6c(F)cccc6F)c6nc(c(-c7c(F)cccc7F)c7ccc4[nH]7)C=C6)C=C5)cc3)C2)c1C
REMARK SMILES IDX 20 1 19 2 18 3 17 4 16 5 14 6 15 7 13 8 10 9 11 10 82 11
REMARK SMILES IDX 12 12 9 13 8 15 4 16 5 17 83 18 6 19 84 20 7 21 3 22 2 23
REMARK SMILES IDX 1 24 21 25 22 26 23 27 24 28 25 29 26 30 27 31 28 32 29 33
REMARK SMILES IDX 81 34 30 35 80 36 31 37 32 38 33 39 74 40 34 41 79 42 73 43
REMARK SMILES IDX 75 44 35 45 78 46 72 47 71 48 36 50 62 51 45 52 61 53 46 54
REMARK SMILES IDX 49 55 60 56 76 57 47 58 48 59 59 61 77 62 50 63 37 64 38 65
REMARK SMILES IDX 43 66 39 67 40 68 42 69 44 70 41 71 63 72 64 73 69 74 65 75
REMARK SMILES IDX 66 76 68 77 70 78 67 79 51 80 52 81 57 82 53 83 54 84 56 85
REMARK SMILES IDX 58 86 55 87
REMARK H PARENT 9 14 75 49 49 60
REMARK Flexibility Score: inf
ROOT
ATOM      1  C   UNL A   1      40.056  21.517  26.929  1.00  0.00     0.188 C 
ENDROOT
BRANCH   1   2
ATOM      2  O   UNL A   1      39.104  21.359  25.889  1.00  0.00    -0.376 OA
BRANCH   2   3
ATOM      3  C   UNL A   1      38.104  22.363  25.800  1.00  0.00     0.202 C 
BRANCH   3   4
ATOM      4  C   UNL A   1      36.877  21.994  24.962  1.00  0.00     0.261 C 
BRANCH   4   5
ATOM      5  O   UNL A   1      35.677  22.584  25.496  1.00  0.00    -0.463 OA
BRANCH   5   6
ATOM      6  C   UNL A   1      34.471  22.233  24.980  1.00  0.00     0.312 C 
ATOM      7  O   UNL A   1      34.283  21.968  23.799  1.00  0.00    -0.252 OA
BRANCH   6   8
ATOM      8  C   UNL A   1      33.380  22.388  26.050  1.00  0.00     0.124 C 
ATOM      9  C   UNL A   1      31.139  23.302  25.580  1.00  0.00     0.104 C 
ATOM     10  C   UNL A   1      32.025  24.318  26.199  1.00  0.00    -0.006 C 
ATOM     11  C   UNL A   1      31.948  22.008  25.626  1.00  0.00     0.048 C 
ATOM     12  C   UNL A   1      33.232  23.818  26.484  1.00  0.00    -0.014 C 
BRANCH   9  13
ATOM     13  N   UNL A   1      30.691  23.724  24.273  1.00  0.00    -0.363 N 
ATOM     14  H   UNL A   1      30.448  23.001  23.650  1.00  0.00     0.162 HD
BRANCH  13  15
ATOM     15  C   UNL A   1      30.562  25.010  23.786  1.00  0.00     0.136 A 
ATOM     16  C   UNL A   1      31.464  26.861  22.632  1.00  0.00     0.221 A 
ATOM     17  N   UNL A   1      30.431  27.645  22.946  1.00  0.00    -0.201 NA
ATOM     18  C   UNL A   1      31.568  25.526  22.987  1.00  0.00     0.054 A 
ATOM     19  C   UNL A   1      29.487  27.030  23.662  1.00  0.00     0.228 A 
ATOM     20  C   UNL A   1      32.673  24.672  22.482  1.00  0.00     0.054 C 
ATOM     21  N   UNL A   1      29.529  25.776  24.144  1.00  0.00    -0.219 NA
BRANCH  16  22
ATOM     22  O   UNL A   1      32.564  27.485  22.089  1.00  0.00    -0.478 OA
BRANCH  22  23
ATOM     23  C   UNL A   1      32.949  28.648  22.821  1.00  0.00     0.228 C 
ATOM     24  C   UNL A   1      33.927  28.223  23.907  1.00  0.00     0.049 C 
ENDBRANCH  22  23
ENDBRANCH  16  22
ENDBRANCH  13  15
ENDBRANCH   9  13
ENDBRANCH   6   8
ENDBRANCH   5   6
ENDBRANCH   4   5
ENDBRANCH   3   4
ENDBRANCH   2   3
ENDBRANCH   1   2
BRANCH   1  25
ATOM     25  C   UNL A   1      41.046  20.336  27.060  1.00  0.00     0.188 C 
BRANCH  25  26
ATOM     26  O   UNL A   1      42.450  20.557  26.995  1.00  0.00    -0.376 OA
BRANCH  26  27
ATOM     27  C   UNL A   1      43.128  20.363  25.765  1.00  0.00     0.202 C 
BRANCH  27  28
ATOM     28  C   UNL A   1      43.931  21.539  25.194  1.00  0.00     0.261 C 
BRANCH  28  29
ATOM     29  O   UNL A   1      43.164  22.711  24.856  1.00  0.00    -0.460 OA
BRANCH  29  30
ATOM     30  C   UNL A   1      43.824  23.888  24.942  1.00  0.00     0.338 C 
ATOM     31  O   UNL A   1      44.847  24.207  24.339  1.00  0.00    -0.246 OA
BRANCH  30  32
ATOM     32  C   UNL A   1      43.096  24.851  25.793  1.00  0.00     0.060 A 
ATOM     33  C   UNL A   1      43.580  26.163  25.886  1.00  0.00     0.016 A 
ATOM     34  C   UNL A   1      42.033  24.442  26.600  1.00  0.00     0.016 A 
ATOM     35  C   UNL A   1      43.036  27.053  26.817  1.00  0.00     0.010 A 
ATOM     36  C   UNL A   1      41.502  25.329  27.550  1.00  0.00     0.010 A 
ATOM     37  C   UNL A   1      42.025  26.627  27.691  1.00  0.00    -0.014 A 
BRANCH  37  38
ATOM     38  C   UNL A   1      41.633  27.484  28.844  1.00  0.00     0.031 A 
ATOM     39  C   UNL A   1      42.424  27.416  30.118  1.00  0.00     0.074 A 
ATOM     40  C   UNL A   1      40.589  28.328  28.785  1.00  0.00     0.049 A 
ATOM     41  N   UNL A   1      42.208  28.032  31.252  1.00  0.00    -0.248 NA
ATOM     42  C   UNL A   1      43.594  26.527  30.121  1.00  0.00     0.031 C 
ATOM     43  C   UNL A   1      39.711  28.474  27.635  1.00  0.00     0.029 A 
ATOM     44  N   UNL A   1      40.080  29.209  29.713  1.00  0.00    -0.354 N 
ATOM     45  C   UNL A   1      43.201  27.594  32.113  1.00  0.00     0.074 A 
ATOM     46  C   UNL A   1      44.015  26.651  31.372  1.00  0.00     0.031 C 
ATOM     47  C   UNL A   1      38.778  29.396  27.927  1.00  0.00     0.029 A 
ATOM     48  C   UNL A   1      38.978  29.899  29.270  1.00  0.00     0.049 A 
ATOM     49  H   UNL A   1      40.470  29.333  30.608  1.00  0.00     0.167 HD
ATOM     50  C   UNL A   1      43.411  27.940  33.405  1.00  0.00     0.037 A 
ATOM     51  C   UNL A   1      38.185  30.817  29.857  1.00  0.00     0.037 A 
ATOM     52  C   UNL A   1      42.598  28.863  34.155  1.00  0.00     0.049 A 
ATOM     53  C   UNL A   1      38.435  31.180  31.285  1.00  0.00     0.074 A 
ATOM     54  C   UNL A   1      42.738  29.253  35.476  1.00  0.00     0.029 A 
ATOM     55  N   UNL A   1      41.495  29.538  33.658  1.00  0.00    -0.354 N 
ATOM     56  N   UNL A   1      39.368  30.739  32.089  1.00  0.00    -0.248 NA
ATOM     57  C   UNL A   1      37.506  32.139  31.898  1.00  0.00     0.031 C 
ATOM     58  C   UNL A   1      41.702  30.140  35.789  1.00  0.00     0.029 A 
ATOM     59  C   UNL A   1      40.942  30.338  34.649  1.00  0.00     0.049 A 
ATOM     60  H   UNL A   1      41.152  29.462  32.738  1.00  0.00     0.167 HD
ATOM     61  C   UNL A   1      39.135  31.358  33.306  1.00  0.00     0.074 A 
ATOM     62  C   UNL A   1      37.996  32.234  33.125  1.00  0.00     0.031 C 
ATOM     63  C   UNL A   1      39.801  31.196  34.472  1.00  0.00     0.037 A 
BRANCH  50  64
ATOM     64  C   UNL A   1      44.564  27.286  34.102  1.00  0.00     0.057 A 
ATOM     65  C   UNL A   1      45.832  27.877  34.137  1.00  0.00     0.134 A 
ATOM     66  C   UNL A   1      44.394  26.068  34.769  1.00  0.00     0.134 A 
ATOM     67  F   UNL A   1      46.062  29.034  33.498  1.00  0.00    -0.206 F 
ATOM     68  C   UNL A   1      46.898  27.271  34.805  1.00  0.00     0.040 A 
ATOM     69  C   UNL A   1      45.444  25.464  35.460  1.00  0.00     0.040 A 
ATOM     70  F   UNL A   1      43.202  25.451  34.770  1.00  0.00    -0.206 F 
ATOM     71  C   UNL A   1      46.702  26.064  35.475  1.00  0.00     0.006 A 
ENDBRANCH  50  64
BRANCH  51  72
ATOM     72  C   UNL A   1      37.050  31.435  29.120  1.00  0.00     0.057 A 
ATOM     73  C   UNL A   1      37.127  32.749  28.638  1.00  0.00     0.134 A 
ATOM     74  C   UNL A   1      35.849  30.746  28.918  1.00  0.00     0.134 A 
ATOM     75  F   UNL A   1      38.242  33.471  28.821  1.00  0.00    -0.206 F 
ATOM     76  C   UNL A   1      36.044  33.359  28.001  1.00  0.00     0.040 A 
ATOM     77  C   UNL A   1      34.768  31.335  28.261  1.00  0.00     0.040 A 
ATOM     78  F   UNL A   1      35.715  29.483  29.346  1.00  0.00    -0.206 F 
ATOM     79  C   UNL A   1      34.861  32.649  27.808  1.00  0.00     0.006 A 
ENDBRANCH  51  72
BRANCH  63  80
ATOM     80  C   UNL A   1      39.318  32.006  35.636  1.00  0.00     0.057 A 
ATOM     81  C   UNL A   1      38.371  31.509  36.538  1.00  0.00     0.134 A 
ATOM     82  C   UNL A   1      39.794  33.306  35.842  1.00  0.00     0.134 A 
ATOM     83  F   UNL A   1      37.856  30.279  36.377  1.00  0.00    -0.206 F 
ATOM     84  C   UNL A   1      37.892  32.287  37.593  1.00  0.00     0.040 A 
ATOM     85  C   UNL A   1      39.342  34.084  36.907  1.00  0.00     0.040 A 
ATOM     86  F   UNL A   1      40.700  33.840  35.010  1.00  0.00    -0.206 F 
ATOM     87  C   UNL A   1      38.382  33.579  37.781  1.00  0.00     0.006 A 
ENDBRANCH  63  80
ENDBRANCH  37  38
ENDBRANCH  30  32
ENDBRANCH  29  30
ENDBRANCH  28  29
ENDBRANCH  27  28
ENDBRANCH  26  27
ENDBRANCH  25  26
ENDBRANCH   1  25
TORSDOF 21
ENDMDL
MODEL 2
REMARK VINA RESULT:     -10.0      1.052      2.133
REMARK SMILES CCOc1ncnc(N[C@@H]2C=C[C@H](C(=O)OCCOCCOCCOC(=O)c3ccc(-c4c5nc(c(-c6c(F)cccc6F)c6ccc([nH]6)c(-c6c(F)cccc6F)c6nc(c(-c7c(F)cccc7F)c7ccc4[nH]7)C=C6)C=C5)cc3)C2)c1C
REMARK SMILES IDX 20 1 19 2 18 3 17 4 16 5 14 6 15 7 13 8 10 9 11 10 82 11
REMARK SMILES IDX 12 12 9 13 8 15 4 16 5 17 83 18 6 19 84 20 7 21 3 22 2 23
REMARK SMILES IDX 1 24 21 25 22 26 23 27 24 28 25 29 26 30 27 31 28 32 29 33
REMARK SMILES IDX 81 34 30 35 80 36 31 37 32 38 33 39 74 40 34 41 79 42 73 43
REMARK SMILES IDX 75 44 35 45 78 46 72 47 71 48 36 50 62 51 45 52 61 53 46 54
REMARK SMILES IDX 49 55 60 56 76 57 47 58 48 59 59 61 77 62 50 63 37 64 38 65
REMARK SMILES IDX 43 66 39 67 40 68 42 69 44 70 41 71 63 72 64 73 69 74 65 75
REMARK SMILES IDX 66 76 68 77 70 78 67 79 51 80 52 81 57 82 53 83 54 84 56 85
REMARK SMILES IDX 58 86 55 87
REMARK H PARENT 9 14 75 49 49 60
REMARK Flexibility Score: inf
ROOT
ATOM      1  C   UNL A   1      40.880  20.172  26.865  1.00  0.00     0.188 C 
ENDROOT
BRANCH   1   2
ATOM      2  O   UNL A   1      40.435  21.245  26.050  1.00  0.00    -0.376 OA
BRANCH   2   3
ATOM      3  C   UNL A   1      39.028  21.393  25.926  1.00  0.00     0.202 C 
BRANCH   3   4
ATOM      4  C   UNL A   1      38.504  22.824  26.079  1.00  0.00     0.261 C 
BRANCH   4   5
ATOM      5  O   UNL A   1      37.474  23.113  25.116  1.00  0.00    -0.463 OA
BRANCH   5   6
ATOM      6  C   UNL A   1      36.171  22.923  25.451  1.00  0.00     0.312 C 
ATOM      7  O   UNL A   1      35.676  23.294  26.509  1.00  0.00    -0.252 OA
BRANCH   6   8
ATOM      8  C   UNL A   1      35.483  22.042  24.398  1.00  0.00     0.124 C 
ATOM      9  C   UNL A   1      33.037  21.932  24.110  1.00  0.00     0.104 C 
ATOM     10  C   UNL A   1      33.550  20.774  24.883  1.00  0.00    -0.006 C 
ATOM     11  C   UNL A   1      34.291  22.673  23.652  1.00  0.00     0.048 C 
ATOM     12  C   UNL A   1      34.880  20.814  25.016  1.00  0.00    -0.014 C 
BRANCH   9  13
ATOM     13  N   UNL A   1      32.092  22.702  24.884  1.00  0.00    -0.363 N 
ATOM     14  H   UNL A   1      31.391  22.184  25.343  1.00  0.00     0.162 HD
BRANCH  13  15
ATOM     15  C   UNL A   1      32.046  24.071  25.063  1.00  0.00     0.136 A 
ATOM     16  C   UNL A   1      31.394  26.211  24.310  1.00  0.00     0.221 A 
ATOM     17  N   UNL A   1      32.079  26.831  25.273  1.00  0.00    -0.201 NA
ATOM     18  C   UNL A   1      31.305  24.835  24.178  1.00  0.00     0.054 A 
ATOM     19  C   UNL A   1      32.702  26.000  26.111  1.00  0.00     0.228 A 
ATOM     20  C   UNL A   1      30.408  24.209  23.174  1.00  0.00     0.054 C 
ATOM     21  N   UNL A   1      32.767  24.660  26.019  1.00  0.00    -0.219 NA
BRANCH  16  22
ATOM     22  O   UNL A   1      30.913  27.003  23.292  1.00  0.00    -0.478 OA
BRANCH  22  23
ATOM     23  C   UNL A   1      31.431  28.332  23.344  1.00  0.00     0.228 C 
ATOM     24  C   UNL A   1      30.310  29.260  23.790  1.00  0.00     0.049 C 
ENDBRANCH  22  23
ENDBRANCH  16  22
ENDBRANCH  13  15
ENDBRANCH   9  13
ENDBRANCH   6   8
ENDBRANCH   5   6
ENDBRANCH   4   5
ENDBRANCH   3   4
ENDBRANCH   2   3
ENDBRANCH   1   2
BRANCH   1  25
ATOM     25  C   UNL A   1      41.894  19.234  26.171  1.00  0.00     0.188 C 
BRANCH  25  26
ATOM     26  O   UNL A   1      42.893  19.762  25.305  1.00  0.00    -0.376 OA
BRANCH  26  27
ATOM     27  C   UNL A   1      43.666  20.871  25.731  1.00  0.00     0.202 C 
BRANCH  27  28
ATOM     28  C   UNL A   1      44.051  21.923  24.682  1.00  0.00     0.261 C 
BRANCH  28  29
ATOM     29  O   UNL A   1      43.265  23.130  24.695  1.00  0.00    -0.460 OA
BRANCH  29  30
ATOM     30  C   UNL A   1      43.941  24.266  24.982  1.00  0.00     0.338 C 
ATOM     31  O   UNL A   1      45.030  24.612  24.530  1.00  0.00    -0.246 OA
BRANCH  30  32
ATOM     32  C   UNL A   1      43.149  25.156  25.855  1.00  0.00     0.060 A 
ATOM     33  C   UNL A   1      43.467  26.521  25.888  1.00  0.00     0.016 A 
ATOM     34  C   UNL A   1      42.196  24.642  26.737  1.00  0.00     0.016 A 
ATOM     35  C   UNL A   1      42.872  27.363  26.831  1.00  0.00     0.010 A 
ATOM     36  C   UNL A   1      41.615  25.485  27.697  1.00  0.00     0.010 A 
ATOM     37  C   UNL A   1      41.976  26.842  27.776  1.00  0.00    -0.014 A 
BRANCH  37  38
ATOM     38  C   UNL A   1      41.548  27.677  28.932  1.00  0.00     0.031 A 
ATOM     39  C   UNL A   1      42.321  27.612  30.217  1.00  0.00     0.074 A 
ATOM     40  C   UNL A   1      40.488  28.500  28.865  1.00  0.00     0.049 A 
ATOM     41  N   UNL A   1      42.074  28.211  31.355  1.00  0.00    -0.248 NA
ATOM     42  C   UNL A   1      43.509  26.747  30.229  1.00  0.00     0.031 C 
ATOM     43  C   UNL A   1      39.625  28.640  27.704  1.00  0.00     0.029 A 
ATOM     44  N   UNL A   1      39.946  29.360  29.794  1.00  0.00    -0.354 N 
ATOM     45  C   UNL A   1      43.063  27.784  32.225  1.00  0.00     0.074 A 
ATOM     46  C   UNL A   1      43.908  26.866  31.488  1.00  0.00     0.031 C 
ATOM     47  C   UNL A   1      38.668  29.539  27.990  1.00  0.00     0.029 A 
ATOM     48  C   UNL A   1      38.837  30.031  29.342  1.00  0.00     0.049 A 
ATOM     49  H   UNL A   1      40.319  29.482  30.697  1.00  0.00     0.167 HD
ATOM     50  C   UNL A   1      43.246  28.120  33.524  1.00  0.00     0.037 A 
ATOM     51  C   UNL A   1      38.016  30.926  29.925  1.00  0.00     0.037 A 
ATOM     52  C   UNL A   1      42.402  29.018  34.272  1.00  0.00     0.049 A 
ATOM     53  C   UNL A   1      38.236  31.278  31.361  1.00  0.00     0.074 A 
ATOM     54  C   UNL A   1      42.514  29.397  35.599  1.00  0.00     0.029 A 
ATOM     55  N   UNL A   1      41.292  29.675  33.765  1.00  0.00    -0.354 N 
ATOM     56  N   UNL A   1      39.165  30.849  32.175  1.00  0.00    -0.248 NA
ATOM     57  C   UNL A   1      37.278  32.211  31.970  1.00  0.00     0.031 C 
ATOM     58  C   UNL A   1      41.454  30.258  35.905  1.00  0.00     0.029 A 
ATOM     59  C   UNL A   1      40.708  30.453  34.755  1.00  0.00     0.049 A 
ATOM     60  H   UNL A   1      40.966  29.602  32.838  1.00  0.00     0.167 HD
ATOM     61  C   UNL A   1      38.901  31.449  33.395  1.00  0.00     0.074 A 
ATOM     62  C   UNL A   1      37.746  32.303  33.205  1.00  0.00     0.031 C 
ATOM     63  C   UNL A   1      39.551  31.288  34.569  1.00  0.00     0.037 A 
BRANCH  50  64
ATOM     64  C   UNL A   1      44.401  27.483  34.232  1.00  0.00     0.057 A 
ATOM     65  C   UNL A   1      44.270  26.260  34.899  1.00  0.00     0.134 A 
ATOM     66  C   UNL A   1      45.664  28.087  34.220  1.00  0.00     0.134 A 
ATOM     67  F   UNL A   1      43.080  25.644  34.964  1.00  0.00    -0.206 F 
ATOM     68  C   UNL A   1      45.356  25.662  35.541  1.00  0.00     0.040 A 
ATOM     69  C   UNL A   1      46.762  27.488  34.837  1.00  0.00     0.040 A 
ATOM     70  F   UNL A   1      45.853  29.261  33.599  1.00  0.00    -0.206 F 
ATOM     71  C   UNL A   1      46.608  26.274  35.504  1.00  0.00     0.006 A 
ENDBRANCH  50  64
BRANCH  51  72
ATOM     72  C   UNL A   1      36.880  31.529  29.178  1.00  0.00     0.057 A 
ATOM     73  C   UNL A   1      35.740  30.779  28.860  1.00  0.00     0.134 A 
ATOM     74  C   UNL A   1      36.925  32.852  28.724  1.00  0.00     0.134 A 
ATOM     75  F   UNL A   1      35.646  29.497  29.244  1.00  0.00    -0.206 F 
ATOM     76  C   UNL A   1      34.696  31.318  28.105  1.00  0.00     0.040 A 
ATOM     77  C   UNL A   1      35.878  33.411  27.989  1.00  0.00     0.040 A 
ATOM     78  F   UNL A   1      37.984  33.626  29.003  1.00  0.00    -0.206 F 
ATOM     79  C   UNL A   1      34.763  32.640  27.670  1.00  0.00     0.006 A 
ENDBRANCH  51  72
BRANCH  63  80
ATOM     80  C   UNL A   1      39.034  32.076  35.734  1.00  0.00     0.057 A 
ATOM     81  C   UNL A   1      39.377  33.420  35.925  1.00  0.00     0.134 A 
ATOM     82  C   UNL A   1      38.200  31.475  36.683  1.00  0.00     0.134 A 
ATOM     83  F   UNL A   1      40.195  34.044  35.063  1.00  0.00    -0.206 F 
ATOM     84  C   UNL A   1      38.928  34.133  37.037  1.00  0.00     0.040 A 
ATOM     85  C   UNL A   1      37.725  32.184  37.785  1.00  0.00     0.040 A 
ATOM     86  F   UNL A   1      37.839  30.189  36.556  1.00  0.00    -0.206 F 
ATOM     87  C   UNL A   1      38.096  33.515  37.970  1.00  0.00     0.006 A 
ENDBRANCH  63  80
ENDBRANCH  37  38
ENDBRANCH  30  32
ENDBRANCH  29  30
ENDBRANCH  28  29
ENDBRANCH  27  28
ENDBRANCH  26  27
ENDBRANCH  25  26
ENDBRANCH   1  25
TORSDOF 21
ENDMDL
MODEL 3
REMARK VINA RESULT:      -9.9      4.481      9.700
REMARK SMILES CCOc1ncnc(N[C@@H]2C=C[C@H](C(=O)OCCOCCOCCOC(=O)c3ccc(-c4c5nc(c(-c6c(F)cccc6F)c6ccc([nH]6)c(-c6c(F)cccc6F)c6nc(c(-c7c(F)cccc7F)c7ccc4[nH]7)C=C6)C=C5)cc3)C2)c1C
REMARK SMILES IDX 20 1 19 2 18 3 17 4 16 5 14 6 15 7 13 8 10 9 11 10 82 11
REMARK SMILES IDX 12 12 9 13 8 15 4 16 5 17 83 18 6 19 84 20 7 21 3 22 2 23
REMARK SMILES IDX 1 24 21 25 22 26 23 27 24 28 25 29 26 30 27 31 28 32 29 33
REMARK SMILES IDX 81 34 30 35 80 36 31 37 32 38 33 39 74 40 34 41 79 42 73 43
REMARK SMILES IDX 75 44 35 45 78 46 72 47 71 48 36 50 62 51 45 52 61 53 46 54
REMARK SMILES IDX 49 55 60 56 76 57 47 58 48 59 59 61 77 62 50 63 37 64 38 65
REMARK SMILES IDX 43 66 39 67 40 68 42 69 44 70 41 71 63 72 64 73 69 74 65 75
REMARK SMILES IDX 66 76 68 77 70 78 67 79 51 80 52 81 57 82 53 83 54 84 56 85
REMARK SMILES IDX 58 86 55 87
REMARK H PARENT 9 14 75 49 49 60
REMARK Flexibility Score: inf
ROOT
ATOM      1  C   UNL A   1      33.838  31.983  28.104  1.00  0.00     0.188 C 
ENDROOT
BRANCH   1   2
ATOM      2  O   UNL A   1      34.784  31.271  27.322  1.00  0.00    -0.376 OA
BRANCH   2   3
ATOM      3  C   UNL A   1      34.693  29.854  27.369  1.00  0.00     0.202 C 
BRANCH   3   4
ATOM      4  C   UNL A   1      33.977  29.204  26.182  1.00  0.00     0.261 C 
BRANCH   4   5
ATOM      5  O   UNL A   1      33.886  27.776  26.341  1.00  0.00    -0.463 OA
BRANCH   5   6
ATOM      6  C   UNL A   1      33.182  27.045  25.438  1.00  0.00     0.312 C 
ATOM      7  O   UNL A   1      33.692  26.438  24.504  1.00  0.00    -0.252 OA
BRANCH   6   8
ATOM      8  C   UNL A   1      31.676  27.241  25.667  1.00  0.00     0.124 C 
ATOM      9  C   UNL A   1      29.972  25.604  24.963  1.00  0.00     0.104 C 
ATOM     10  C   UNL A   1      30.072  26.736  24.009  1.00  0.00    -0.006 C 
ATOM     11  C   UNL A   1      30.887  25.998  26.121  1.00  0.00     0.048 C 
ATOM     12  C   UNL A   1      30.974  27.642  24.402  1.00  0.00    -0.014 C 
BRANCH   9  13
ATOM     13  N   UNL A   1      30.271  24.347  24.318  1.00  0.00    -0.363 N 
ATOM     14  H   UNL A   1      29.500  23.757  24.151  1.00  0.00     0.162 HD
BRANCH  13  15
ATOM     15  C   UNL A   1      31.499  23.867  23.906  1.00  0.00     0.136 A 
ATOM     16  C   UNL A   1      33.494  22.691  24.364  1.00  0.00     0.221 A 
ATOM     17  N   UNL A   1      34.043  23.036  23.197  1.00  0.00    -0.201 NA
ATOM     18  C   UNL A   1      32.212  23.041  24.757  1.00  0.00     0.054 A 
ATOM     19  C   UNL A   1      33.245  23.777  22.425  1.00  0.00     0.228 A 
ATOM     20  C   UNL A   1      31.610  22.502  26.003  1.00  0.00     0.054 C 
ATOM     21  N   UNL A   1      32.030  24.255  22.745  1.00  0.00    -0.219 NA
BRANCH  16  22
ATOM     22  O   UNL A   1      34.335  22.118  25.291  1.00  0.00    -0.478 OA
BRANCH  22  23
ATOM     23  C   UNL A   1      35.697  22.121  24.868  1.00  0.00     0.228 C 
ATOM     24  C   UNL A   1      36.237  20.703  24.999  1.00  0.00     0.049 C 
ENDBRANCH  22  23
ENDBRANCH  16  22
ENDBRANCH  13  15
ENDBRANCH   9  13
ENDBRANCH   6   8
ENDBRANCH   5   6
ENDBRANCH   4   5
ENDBRANCH   3   4
ENDBRANCH   2   3
ENDBRANCH   1   2
BRANCH   1  25
ATOM     25  C   UNL A   1      34.334  33.367  28.585  1.00  0.00     0.188 C 
BRANCH  25  26
ATOM     26  O   UNL A   1      33.474  34.229  29.321  1.00  0.00    -0.376 OA
BRANCH  26  27
ATOM     27  C   UNL A   1      33.981  34.912  30.455  1.00  0.00     0.202 C 
BRANCH  27  28
ATOM     28  C   UNL A   1      34.361  34.079  31.686  1.00  0.00     0.261 C 
BRANCH  28  29
ATOM     29  O   UNL A   1      35.761  33.765  31.816  1.00  0.00    -0.460 OA
BRANCH  29  30
ATOM     30  C   UNL A   1      36.049  32.664  32.547  1.00  0.00     0.338 C 
ATOM     31  O   UNL A   1      35.540  32.334  33.616  1.00  0.00    -0.246 OA
BRANCH  30  32
ATOM     32  C   UNL A   1      37.007  31.788  31.843  1.00  0.00     0.060 A 
ATOM     33  C   UNL A   1      38.000  31.141  32.592  1.00  0.00     0.016 A 
ATOM     34  C   UNL A   1      37.023  31.707  30.449  1.00  0.00     0.016 A 
ATOM     35  C   UNL A   1      39.035  30.455  31.950  1.00  0.00     0.010 A 
ATOM     36  C   UNL A   1      38.075  31.036  29.806  1.00  0.00     0.010 A 
ATOM     37  C   UNL A   1      39.108  30.438  30.550  1.00  0.00    -0.014 A 
BRANCH  37  38
ATOM     38  C   UNL A   1      40.338  29.938  29.878  1.00  0.00     0.031 A 
ATOM     39  C   UNL A   1      41.508  30.860  29.693  1.00  0.00     0.074 A 
ATOM     40  C   UNL A   1      40.444  28.675  29.429  1.00  0.00     0.049 A 
ATOM     41  N   UNL A   1      42.642  30.635  29.080  1.00  0.00    -0.248 NA
ATOM     42  C   UNL A   1      41.375  32.212  30.253  1.00  0.00     0.031 C 
ATOM     43  C   UNL A   1      39.384  27.683  29.503  1.00  0.00     0.029 A 
ATOM     44  N   UNL A   1      41.482  28.015  28.810  1.00  0.00    -0.354 N 
ATOM     45  C   UNL A   1      43.354  31.821  29.161  1.00  0.00     0.074 A 
ATOM     46  C   UNL A   1      42.519  32.767  29.874  1.00  0.00     0.031 C 
ATOM     47  C   UNL A   1      39.833  26.539  28.957  1.00  0.00     0.029 A 
ATOM     48  C   UNL A   1      41.193  26.711  28.491  1.00  0.00     0.049 A 
ATOM     49  H   UNL A   1      42.350  28.438  28.616  1.00  0.00     0.167 HD
ATOM     50  C   UNL A   1      44.588  32.099  28.678  1.00  0.00     0.037 A 
ATOM     51  C   UNL A   1      41.905  25.748  27.874  1.00  0.00     0.037 A 
ATOM     52  C   UNL A   1      45.419  31.171  27.953  1.00  0.00     0.049 A 
ATOM     53  C   UNL A   1      43.264  26.080  27.347  1.00  0.00     0.074 A 
ATOM     54  C   UNL A   1      46.678  31.384  27.417  1.00  0.00     0.029 A 
ATOM     55  N   UNL A   1      45.080  29.860  27.659  1.00  0.00    -0.354 N 
ATOM     56  N   UNL A   1      43.912  27.214  27.416  1.00  0.00    -0.248 NA
ATOM     57  C   UNL A   1      43.976  25.014  26.629  1.00  0.00     0.031 C 
ATOM     58  C   UNL A   1      47.088  30.213  26.771  1.00  0.00     0.029 A 
ATOM     59  C   UNL A   1      46.104  29.255  26.944  1.00  0.00     0.049 A 
ATOM     60  H   UNL A   1      44.237  29.422  27.918  1.00  0.00     0.167 HD
ATOM     61  C   UNL A   1      45.104  27.003  26.743  1.00  0.00     0.074 A 
ATOM     62  C   UNL A   1      45.107  25.622  26.306  1.00  0.00     0.031 C 
ATOM     63  C   UNL A   1      46.098  27.887  26.497  1.00  0.00     0.037 A 
BRANCH  50  64
ATOM     64  C   UNL A   1      45.105  33.486  28.899  1.00  0.00     0.057 A 
ATOM     65  C   UNL A   1      44.812  34.530  28.013  1.00  0.00     0.134 A 
ATOM     66  C   UNL A   1      45.878  33.787  30.026  1.00  0.00     0.134 A 
ATOM     67  F   UNL A   1      44.092  34.299  26.904  1.00  0.00    -0.206 F 
ATOM     68  C   UNL A   1      45.280  35.825  28.235  1.00  0.00     0.040 A 
ATOM     69  C   UNL A   1      46.333  35.083  30.272  1.00  0.00     0.040 A 
ATOM     70  F   UNL A   1      46.195  32.830  30.911  1.00  0.00    -0.206 F 
ATOM     71  C   UNL A   1      46.037  36.105  29.372  1.00  0.00     0.006 A 
ENDBRANCH  50  64
BRANCH  51  72
ATOM     72  C   UNL A   1      41.344  24.384  27.678  1.00  0.00     0.057 A 
ATOM     73  C   UNL A   1      41.785  23.300  28.448  1.00  0.00     0.134 A 
ATOM     74  C   UNL A   1      40.389  24.123  26.689  1.00  0.00     0.134 A 
ATOM     75  F   UNL A   1      42.717  23.479  29.395  1.00  0.00    -0.206 F 
ATOM     76  C   UNL A   1      41.310  22.005  28.228  1.00  0.00     0.040 A 
ATOM     77  C   UNL A   1      39.887  22.839  26.475  1.00  0.00     0.040 A 
ATOM     78  F   UNL A   1      39.919  25.119  25.924  1.00  0.00    -0.206 F 
ATOM     79  C   UNL A   1      40.354  21.773  27.241  1.00  0.00     0.006 A 
ENDBRANCH  51  72
BRANCH  63  80
ATOM     80  C   UNL A   1      47.280  27.370  25.736  1.00  0.00     0.057 A 
ATOM     81  C   UNL A   1      47.382  27.512  24.347  1.00  0.00     0.134 A 
ATOM     82  C   UNL A   1      48.318  26.706  26.400  1.00  0.00     0.134 A 
ATOM     83  F   UNL A   1      46.406  28.115  23.650  1.00  0.00    -0.206 F 
ATOM     84  C   UNL A   1      48.465  26.987  23.640  1.00  0.00     0.040 A 
ATOM     85  C   UNL A   1      49.416  26.199  25.708  1.00  0.00     0.040 A 
ATOM     86  F   UNL A   1      48.276  26.536  27.730  1.00  0.00    -0.206 F 
ATOM     87  C   UNL A   1      49.488  26.331  24.323  1.00  0.00     0.006 A 
ENDBRANCH  63  80
ENDBRANCH  37  38
ENDBRANCH  30  32
ENDBRANCH  29  30
ENDBRANCH  28  29
ENDBRANCH  27  28
ENDBRANCH  26  27
ENDBRANCH  25  26
ENDBRANCH   1  25
TORSDOF 21
ENDMDL
