MODEL 1
REMARK VINA RESULT:     -10.6      0.000      0.000
REMARK SMILES CC1(C)CSC[C@H]([NH2+][C@H](C(=O)OCCOCCOCCOC(=O)c2ccc(-c3c4nc(c(-c5c(F)cccc5F)c5ccc([nH]5)c(-c5c(F)cccc5F)c5nc(c(-c6c(F)cccc6F)c6ccc3[nH]6)C=C5)C=C4)cc2)c2ccccc2)C1
REMARK SMILES IDX 16 1 15 2 14 3 13 4 12 5 10 6 11 7 9 8 8 9 7 12 1 13 2 14
REMARK SMILES IDX 3 15 4 16 84 17 5 18 6 19 78 20 79 21 83 22 80 23 82 24
REMARK SMILES IDX 81 25 17 26 18 27 19 28 20 29 21 30 22 31 23 32 24 33 25 34
REMARK SMILES IDX 77 35 26 36 76 37 27 38 28 39 29 40 70 41 30 42 75 43 69 44
REMARK SMILES IDX 71 45 31 46 74 47 68 48 67 49 32 51 58 52 41 53 57 54 42 55
REMARK SMILES IDX 45 56 56 57 72 58 43 59 44 60 55 62 73 63 46 64 33 65 34 66
REMARK SMILES IDX 39 67 35 68 36 69 38 70 40 71 37 72 59 73 60 74 65 75 61 76
REMARK SMILES IDX 62 77 64 78 66 79 63 80 47 81 48 82 53 83 49 84 50 85 52 86
REMARK SMILES IDX 54 87 51 88
REMARK H PARENT 8 10 8 11 71 50 45 61
REMARK Flexibility Score: inf
ROOT
ATOM      1  C   UNL A   1      34.925  32.267  28.750  1.00  0.00     0.188 C 
ENDROOT
BRANCH   1   2
ATOM      2  O   UNL A   1      34.847  31.576  27.517  1.00  0.00    -0.376 OA
BRANCH   2   3
ATOM      3  C   UNL A   1      33.776  30.677  27.271  1.00  0.00     0.202 C 
BRANCH   3   4
ATOM      4  C   UNL A   1      33.861  29.225  27.765  1.00  0.00     0.261 C 
BRANCH   4   5
ATOM      5  O   UNL A   1      33.387  28.257  26.815  1.00  0.00    -0.459 OA
BRANCH   5   6
ATOM      6  C   UNL A   1      32.170  27.713  27.120  1.00  0.00     0.369 C 
ATOM      7  O   UNL A   1      31.537  28.027  28.126  1.00  0.00    -0.245 OA
BRANCH   6   8
ATOM      8  C   UNL A   1      31.599  26.759  26.024  1.00  0.00     0.325 C 
BRANCH   8   9
ATOM      9  N   UNL A   1      31.083  25.513  26.668  1.00  0.00    -0.328 N 
ATOM     10  H   UNL A   1      31.068  25.673  27.675  1.00  0.00     0.347 HD
ATOM     11  H   UNL A   1      30.170  25.355  26.241  1.00  0.00     0.347 HD
BRANCH   9  12
ATOM     12  C   UNL A   1      31.832  24.270  26.431  1.00  0.00     0.193 C 
ATOM     13  C   UNL A   1      34.532  22.741  27.186  1.00  0.00     0.012 C 
ATOM     14  C   UNL A   1      34.247  23.452  25.844  1.00  0.00    -0.021 C 
ATOM     15  C   UNL A   1      35.602  23.932  25.283  1.00  0.00     0.012 C 
ATOM     16  C   UNL A   1      33.687  22.464  24.821  1.00  0.00     0.076 C 
ATOM     17  C   UNL A   1      33.284  24.654  26.030  1.00  0.00     0.073 C 
ATOM     18  S   UNL A   1      32.072  21.805  25.236  1.00  0.00    -0.155 SA
ATOM     19  C   UNL A   1      31.198  23.372  25.358  1.00  0.00     0.134 C 
ENDBRANCH   9  12
ENDBRANCH   8   9
BRANCH   8  20
ATOM     20  C   UNL A   1      30.726  27.359  24.910  1.00  0.00     0.021 A 
ATOM     21  C   UNL A   1      31.061  28.578  24.295  1.00  0.00     0.010 A 
ATOM     22  C   UNL A   1      29.606  26.677  24.391  1.00  0.00     0.010 A 
ATOM     23  C   UNL A   1      30.236  29.157  23.322  1.00  0.00     0.001 A 
ATOM     24  C   UNL A   1      28.773  27.257  23.426  1.00  0.00     0.001 A 
ATOM     25  C   UNL A   1      29.079  28.509  22.908  1.00  0.00     0.000 A 
ENDBRANCH   8  20
ENDBRANCH   6   8
ENDBRANCH   5   6
ENDBRANCH   4   5
ENDBRANCH   3   4
ENDBRANCH   2   3
ENDBRANCH   1   2
BRANCH   1  26
ATOM     26  C   UNL A   1      35.460  33.707  28.819  1.00  0.00     0.188 C 
BRANCH  26  27
ATOM     27  O   UNL A   1      34.662  34.791  28.374  1.00  0.00    -0.376 OA
BRANCH  27  28
ATOM     28  C   UNL A   1      33.305  34.815  28.778  1.00  0.00     0.202 C 
BRANCH  28  29
ATOM     29  C   UNL A   1      32.880  35.881  29.792  1.00  0.00     0.261 C 
BRANCH  29  30
ATOM     30  O   UNL A   1      32.208  35.361  30.951  1.00  0.00    -0.460 OA
BRANCH  30  31
ATOM     31  C   UNL A   1      32.653  35.838  32.143  1.00  0.00     0.338 C 
ATOM     32  O   UNL A   1      32.142  36.717  32.821  1.00  0.00    -0.246 OA
BRANCH  31  33
ATOM     33  C   UNL A   1      33.826  35.057  32.601  1.00  0.00     0.060 A 
ATOM     34  C   UNL A   1      35.089  35.652  32.521  1.00  0.00     0.016 A 
ATOM     35  C   UNL A   1      33.702  33.754  33.095  1.00  0.00     0.016 A 
ATOM     36  C   UNL A   1      36.216  34.960  32.976  1.00  0.00     0.010 A 
ATOM     37  C   UNL A   1      34.842  33.047  33.506  1.00  0.00     0.010 A 
ATOM     38  C   UNL A   1      36.110  33.644  33.472  1.00  0.00    -0.014 A 
BRANCH  38  39
ATOM     39  C   UNL A   1      37.344  32.907  33.889  1.00  0.00     0.031 A 
ATOM     40  C   UNL A   1      38.042  32.028  32.892  1.00  0.00     0.074 A 
ATOM     41  C   UNL A   1      37.871  33.014  35.127  1.00  0.00     0.049 A 
ATOM     42  N   UNL A   1      39.162  31.361  33.019  1.00  0.00    -0.248 NA
ATOM     43  C   UNL A   1      37.361  31.832  31.605  1.00  0.00     0.031 C 
ATOM     44  C   UNL A   1      37.279  33.751  36.234  1.00  0.00     0.029 A 
ATOM     45  N   UNL A   1      39.068  32.563  35.646  1.00  0.00    -0.354 N 
ATOM     46  C   UNL A   1      39.274  30.602  31.862  1.00  0.00     0.074 A 
ATOM     47  C   UNL A   1      38.163  30.966  31.008  1.00  0.00     0.031 C 
ATOM     48  C   UNL A   1      38.177  33.853  37.228  1.00  0.00     0.029 A 
ATOM     49  C   UNL A   1      39.388  33.135  36.862  1.00  0.00     0.049 A 
ATOM     50  H   UNL A   1      39.638  31.900  35.194  1.00  0.00     0.167 HD
ATOM     51  C   UNL A   1      40.163  29.623  31.578  1.00  0.00     0.037 A 
ATOM     52  C   UNL A   1      40.533  33.106  37.573  1.00  0.00     0.037 A 
ATOM     53  C   UNL A   1      41.225  29.201  32.450  1.00  0.00     0.049 A 
ATOM     54  C   UNL A   1      41.588  32.108  37.181  1.00  0.00     0.074 A 
ATOM     55  C   UNL A   1      42.126  28.166  32.276  1.00  0.00     0.029 A 
ATOM     56  N   UNL A   1      41.517  29.784  33.674  1.00  0.00    -0.354 N 
ATOM     57  N   UNL A   1      41.667  31.371  36.103  1.00  0.00    -0.248 NA
ATOM     58  C   UNL A   1      42.656  31.857  38.164  1.00  0.00     0.031 C 
ATOM     59  C   UNL A   1      42.935  28.092  33.418  1.00  0.00     0.029 A 
ATOM     60  C   UNL A   1      42.570  29.116  34.277  1.00  0.00     0.049 A 
ATOM     61  H   UNL A   1      41.045  30.557  34.058  1.00  0.00     0.167 HD
ATOM     62  C   UNL A   1      42.738  30.513  36.312  1.00  0.00     0.074 A 
ATOM     63  C   UNL A   1      43.341  30.888  37.573  1.00  0.00     0.031 C 
ATOM     64  C   UNL A   1      43.140  29.467  35.552  1.00  0.00     0.037 A 
BRANCH  51  65
ATOM     65  C   UNL A   1      39.896  28.843  30.327  1.00  0.00     0.057 A 
ATOM     66  C   UNL A   1      39.169  27.646  30.329  1.00  0.00     0.134 A 
ATOM     67  C   UNL A   1      40.461  29.259  29.114  1.00  0.00     0.134 A 
ATOM     68  F   UNL A   1      38.636  27.176  31.467  1.00  0.00    -0.206 F 
ATOM     69  C   UNL A   1      39.049  26.869  29.175  1.00  0.00     0.040 A 
ATOM     70  C   UNL A   1      40.327  28.505  27.950  1.00  0.00     0.040 A 
ATOM     71  F   UNL A   1      41.179  30.391  29.050  1.00  0.00    -0.206 F 
ATOM     72  C   UNL A   1      39.631  27.299  27.983  1.00  0.00     0.006 A 
ENDBRANCH  51  65
BRANCH  52  73
ATOM     73  C   UNL A   1      40.775  34.014  38.731  1.00  0.00     0.057 A 
ATOM     74  C   UNL A   1      41.425  35.244  38.529  1.00  0.00     0.134 A 
ATOM     75  C   UNL A   1      40.427  33.695  40.047  1.00  0.00     0.134 A 
ATOM     76  F   UNL A   1      41.819  35.604  37.298  1.00  0.00    -0.206 F 
ATOM     77  C   UNL A   1      41.721  36.109  39.585  1.00  0.00     0.040 A 
ATOM     78  C   UNL A   1      40.686  34.566  41.109  1.00  0.00     0.040 A 
ATOM     79  F   UNL A   1      39.830  32.527  40.326  1.00  0.00    -0.206 F 
ATOM     80  C   UNL A   1      41.342  35.773  40.881  1.00  0.00     0.006 A 
ENDBRANCH  52  73
BRANCH  64  81
ATOM     81  C   UNL A   1      44.234  28.603  36.103  1.00  0.00     0.057 A 
ATOM     82  C   UNL A   1      45.584  28.930  35.905  1.00  0.00     0.134 A 
ATOM     83  C   UNL A   1      43.949  27.473  36.876  1.00  0.00     0.134 A 
ATOM     84  F   UNL A   1      45.924  29.995  35.162  1.00  0.00    -0.206 F 
ATOM     85  C   UNL A   1      46.610  28.158  36.451  1.00  0.00     0.040 A 
ATOM     86  C   UNL A   1      44.966  26.704  37.443  1.00  0.00     0.040 A 
ATOM     87  F   UNL A   1      42.679  27.108  37.104  1.00  0.00    -0.206 F 
ATOM     88  C   UNL A   1      46.301  27.045  37.229  1.00  0.00     0.006 A 
ENDBRANCH  64  81
ENDBRANCH  38  39
ENDBRANCH  31  33
ENDBRANCH  30  31
ENDBRANCH  29  30
ENDBRANCH  28  29
ENDBRANCH  27  28
ENDBRANCH  26  27
ENDBRANCH   1  26
TORSDOF 20
ENDMDL
MODEL 2
REMARK VINA RESULT:     -10.4      7.164     12.099
REMARK SMILES CC1(C)CSC[C@H]([NH2+][C@H](C(=O)OCCOCCOCCOC(=O)c2ccc(-c3c4nc(c(-c5c(F)cccc5F)c5ccc([nH]5)c(-c5c(F)cccc5F)c5nc(c(-c6c(F)cccc6F)c6ccc3[nH]6)C=C5)C=C4)cc2)c2ccccc2)C1
REMARK SMILES IDX 16 1 15 2 14 3 13 4 12 5 10 6 11 7 9 8 8 9 7 12 1 13 2 14
REMARK SMILES IDX 3 15 4 16 84 17 5 18 6 19 78 20 79 21 83 22 80 23 82 24
REMARK SMILES IDX 81 25 17 26 18 27 19 28 20 29 21 30 22 31 23 32 24 33 25 34
REMARK SMILES IDX 77 35 26 36 76 37 27 38 28 39 29 40 70 41 30 42 75 43 69 44
REMARK SMILES IDX 71 45 31 46 74 47 68 48 67 49 32 51 58 52 41 53 57 54 42 55
REMARK SMILES IDX 45 56 56 57 72 58 43 59 44 60 55 62 73 63 46 64 33 65 34 66
REMARK SMILES IDX 39 67 35 68 36 69 38 70 40 71 37 72 59 73 60 74 65 75 61 76
REMARK SMILES IDX 62 77 64 78 66 79 63 80 47 81 48 82 53 83 49 84 50 85 52 86
REMARK SMILES IDX 54 87 51 88
REMARK H PARENT 8 10 8 11 71 50 45 61
REMARK Flexibility Score: inf
ROOT
ATOM      1  C   UNL A   1      40.673  22.143  27.348  1.00  0.00     0.188 C 
ENDROOT
BRANCH   1   2
ATOM      2  O   UNL A   1      39.524  22.875  26.964  1.00  0.00    -0.376 OA
BRANCH   2   3
ATOM      3  C   UNL A   1      38.635  22.347  25.990  1.00  0.00     0.202 C 
BRANCH   3   4
ATOM      4  C   UNL A   1      37.225  22.934  25.835  1.00  0.00     0.261 C 
BRANCH   4   5
ATOM      5  O   UNL A   1      36.170  22.004  26.130  1.00  0.00    -0.459 OA
BRANCH   5   6
ATOM      6  C   UNL A   1      35.396  21.667  25.055  1.00  0.00     0.369 C 
ATOM      7  O   UNL A   1      35.725  21.916  23.896  1.00  0.00    -0.245 OA
BRANCH   6   8
ATOM      8  C   UNL A   1      34.125  20.834  25.413  1.00  0.00     0.325 C 
BRANCH   8   9
ATOM      9  N   UNL A   1      32.974  21.758  25.649  1.00  0.00    -0.328 N 
ATOM     10  H   UNL A   1      32.132  21.290  25.315  1.00  0.00     0.347 HD
ATOM     11  H   UNL A   1      32.994  21.950  26.651  1.00  0.00     0.347 HD
BRANCH   9  12
ATOM     12  C   UNL A   1      33.027  23.080  25.009  1.00  0.00     0.193 C 
ATOM     13  C   UNL A   1      34.028  26.082  25.449  1.00  0.00     0.012 C 
ATOM     14  C   UNL A   1      32.563  25.599  25.544  1.00  0.00    -0.021 C 
ATOM     15  C   UNL A   1      31.839  26.528  26.542  1.00  0.00     0.012 C 
ATOM     16  C   UNL A   1      31.851  25.775  24.204  1.00  0.00     0.076 C 
ATOM     17  C   UNL A   1      32.479  24.125  26.022  1.00  0.00     0.073 C 
ATOM     18  S   UNL A   1      32.490  24.742  22.885  1.00  0.00    -0.155 SA
ATOM     19  C   UNL A   1      32.247  23.151  23.688  1.00  0.00     0.134 C 
ENDBRANCH   9  12
ENDBRANCH   8   9
BRANCH   8  20
ATOM     20  C   UNL A   1      33.822  19.568  24.595  1.00  0.00     0.021 A 
ATOM     21  C   UNL A   1      34.706  18.474  24.587  1.00  0.00     0.010 A 
ATOM     22  C   UNL A   1      32.610  19.405  23.892  1.00  0.00     0.010 A 
ATOM     23  C   UNL A   1      34.463  17.344  23.796  1.00  0.00     0.001 A 
ATOM     24  C   UNL A   1      32.369  18.282  23.092  1.00  0.00     0.001 A 
ATOM     25  C   UNL A   1      33.307  17.260  23.029  1.00  0.00     0.000 A 
ENDBRANCH   8  20
ENDBRANCH   6   8
ENDBRANCH   5   6
ENDBRANCH   4   5
ENDBRANCH   3   4
ENDBRANCH   2   3
ENDBRANCH   1   2
BRANCH   1  26
ATOM     26  C   UNL A   1      41.681  21.644  26.299  1.00  0.00     0.188 C 
BRANCH  26  27
ATOM     27  O   UNL A   1      41.555  20.345  25.745  1.00  0.00    -0.376 OA
BRANCH  27  28
ATOM     28  C   UNL A   1      42.250  19.289  26.383  1.00  0.00     0.202 C 
BRANCH  28  29
ATOM     29  C   UNL A   1      43.321  18.549  25.577  1.00  0.00     0.261 C 
BRANCH  29  30
ATOM     30  O   UNL A   1      43.561  19.095  24.270  1.00  0.00    -0.460 OA
BRANCH  30  31
ATOM     31  C   UNL A   1      44.828  19.532  24.046  1.00  0.00     0.338 C 
ATOM     32  O   UNL A   1      45.719  18.936  23.458  1.00  0.00    -0.246 OA
BRANCH  31  33
ATOM     33  C   UNL A   1      44.982  20.924  24.527  1.00  0.00     0.060 A 
ATOM     34  C   UNL A   1      45.623  21.134  25.751  1.00  0.00     0.016 A 
ATOM     35  C   UNL A   1      44.498  22.017  23.800  1.00  0.00     0.016 A 
ATOM     36  C   UNL A   1      45.818  22.438  26.222  1.00  0.00     0.010 A 
ATOM     37  C   UNL A   1      44.654  23.319  24.299  1.00  0.00     0.010 A 
ATOM     38  C   UNL A   1      45.333  23.550  25.504  1.00  0.00    -0.014 A 
BRANCH  38  39
ATOM     39  C   UNL A   1      45.499  24.926  26.068  1.00  0.00     0.031 A 
ATOM     40  C   UNL A   1      46.766  25.683  25.790  1.00  0.00     0.074 A 
ATOM     41  C   UNL A   1      44.543  25.529  26.807  1.00  0.00     0.049 A 
ATOM     42  N   UNL A   1      47.085  26.910  26.115  1.00  0.00    -0.248 NA
ATOM     43  C   UNL A   1      47.831  24.941  25.101  1.00  0.00     0.031 C 
ATOM     44  C   UNL A   1      43.299  24.911  27.240  1.00  0.00     0.029 A 
ATOM     45  N   UNL A   1      44.433  26.827  27.263  1.00  0.00    -0.354 N 
ATOM     46  C   UNL A   1      48.414  27.057  25.748  1.00  0.00     0.074 A 
ATOM     47  C   UNL A   1      48.809  25.831  25.087  1.00  0.00     0.031 C 
ATOM     48  C   UNL A   1      42.484  25.858  27.736  1.00  0.00     0.029 A 
ATOM     49  C   UNL A   1      43.168  27.141  27.719  1.00  0.00     0.049 A 
ATOM     50  H   UNL A   1      45.183  27.465  27.265  1.00  0.00     0.167 HD
ATOM     51  C   UNL A   1      49.258  28.079  26.021  1.00  0.00     0.037 A 
ATOM     52  C   UNL A   1      42.622  28.330  28.049  1.00  0.00     0.037 A 
ATOM     53  C   UNL A   1      48.897  29.270  26.742  1.00  0.00     0.049 A 
ATOM     54  C   UNL A   1      43.539  29.508  28.225  1.00  0.00     0.074 A 
ATOM     55  C   UNL A   1      49.706  30.323  27.130  1.00  0.00     0.029 A 
ATOM     56  N   UNL A   1      47.621  29.555  27.201  1.00  0.00    -0.354 N 
ATOM     57  N   UNL A   1      44.804  29.625  27.906  1.00  0.00    -0.248 NA
ATOM     58  C   UNL A   1      42.978  30.683  28.913  1.00  0.00     0.031 C 
ATOM     59  C   UNL A   1      48.927  31.225  27.866  1.00  0.00     0.029 A 
ATOM     60  C   UNL A   1      47.623  30.759  27.888  1.00  0.00     0.049 A 
ATOM     61  H   UNL A   1      46.829  28.987  27.060  1.00  0.00     0.167 HD
ATOM     62  C   UNL A   1      45.210  30.846  28.427  1.00  0.00     0.074 A 
ATOM     63  C   UNL A   1      44.037  31.478  28.993  1.00  0.00     0.031 C 
ATOM     64  C   UNL A   1      46.460  31.363  28.486  1.00  0.00     0.037 A 
BRANCH  51  65
ATOM     65  C   UNL A   1      50.696  27.850  25.668  1.00  0.00     0.057 A 
ATOM     66  C   UNL A   1      51.193  28.048  24.375  1.00  0.00     0.134 A 
ATOM     67  C   UNL A   1      51.573  27.331  26.630  1.00  0.00     0.134 A 
ATOM     68  F   UNL A   1      50.391  28.507  23.401  1.00  0.00    -0.206 F 
ATOM     69  C   UNL A   1      52.503  27.698  24.040  1.00  0.00     0.040 A 
ATOM     70  C   UNL A   1      52.890  27.002  26.314  1.00  0.00     0.040 A 
ATOM     71  F   UNL A   1      51.153  27.107  27.884  1.00  0.00    -0.206 F 
ATOM     72  C   UNL A   1      53.353  27.172  25.011  1.00  0.00     0.006 A 
ENDBRANCH  51  65
BRANCH  52  73
ATOM     73  C   UNL A   1      41.155  28.503  28.254  1.00  0.00     0.057 A 
ATOM     74  C   UNL A   1      40.583  28.184  29.498  1.00  0.00     0.134 A 
ATOM     75  C   UNL A   1      40.281  28.929  27.250  1.00  0.00     0.134 A 
ATOM     76  F   UNL A   1      41.354  27.736  30.500  1.00  0.00    -0.206 F 
ATOM     77  C   UNL A   1      39.208  28.279  29.729  1.00  0.00     0.040 A 
ATOM     78  C   UNL A   1      38.908  29.062  27.476  1.00  0.00     0.040 A 
ATOM     79  F   UNL A   1      40.746  29.224  26.027  1.00  0.00    -0.206 F 
ATOM     80  C   UNL A   1      38.367  28.729  28.716  1.00  0.00     0.006 A 
ENDBRANCH  52  73
BRANCH  64  81
ATOM     81  C   UNL A   1      46.639  32.636  29.256  1.00  0.00     0.057 A 
ATOM     82  C   UNL A   1      46.961  32.617  30.621  1.00  0.00     0.134 A 
ATOM     83  C   UNL A   1      46.542  33.883  28.631  1.00  0.00     0.134 A 
ATOM     84  F   UNL A   1      47.055  31.453  31.282  1.00  0.00    -0.206 F 
ATOM     85  C   UNL A   1      47.173  33.795  31.337  1.00  0.00     0.040 A 
ATOM     86  C   UNL A   1      46.771  35.068  29.332  1.00  0.00     0.040 A 
ATOM     87  F   UNL A   1      46.239  33.969  27.327  1.00  0.00    -0.206 F 
ATOM     88  C   UNL A   1      47.086  35.026  30.690  1.00  0.00     0.006 A 
ENDBRANCH  64  81
ENDBRANCH  38  39
ENDBRANCH  31  33
ENDBRANCH  30  31
ENDBRANCH  29  30
ENDBRANCH  28  29
ENDBRANCH  27  28
ENDBRANCH  26  27
ENDBRANCH   1  26
TORSDOF 20
ENDMDL
MODEL 3
REMARK VINA RESULT:     -10.2      7.325     12.474
REMARK SMILES CC1(C)CSC[C@H]([NH2+][C@H](C(=O)OCCOCCOCCOC(=O)c2ccc(-c3c4nc(c(-c5c(F)cccc5F)c5ccc([nH]5)c(-c5c(F)cccc5F)c5nc(c(-c6c(F)cccc6F)c6ccc3[nH]6)C=C5)C=C4)cc2)c2ccccc2)C1
REMARK SMILES IDX 16 1 15 2 14 3 13 4 12 5 10 6 11 7 9 8 8 9 7 12 1 13 2 14
REMARK SMILES IDX 3 15 4 16 84 17 5 18 6 19 78 20 79 21 83 22 80 23 82 24
REMARK SMILES IDX 81 25 17 26 18 27 19 28 20 29 21 30 22 31 23 32 24 33 25 34
REMARK SMILES IDX 77 35 26 36 76 37 27 38 28 39 29 40 70 41 30 42 75 43 69 44
REMARK SMILES IDX 71 45 31 46 74 47 68 48 67 49 32 51 58 52 41 53 57 54 42 55
REMARK SMILES IDX 45 56 56 57 72 58 43 59 44 60 55 62 73 63 46 64 33 65 34 66
REMARK SMILES IDX 39 67 35 68 36 69 38 70 40 71 37 72 59 73 60 74 65 75 61 76
REMARK SMILES IDX 62 77 64 78 66 79 63 80 47 81 48 82 53 83 49 84 50 85 52 86
REMARK SMILES IDX 54 87 51 88
REMARK H PARENT 8 10 8 11 71 50 45 61
REMARK Flexibility Score: inf
ROOT
ATOM      1  C   UNL A   1      40.809  21.819  26.129  1.00  0.00     0.188 C 
ENDROOT
BRANCH   1   2
ATOM      2  O   UNL A   1      39.457  21.798  26.547  1.00  0.00    -0.376 OA
BRANCH   2   3
ATOM      3  C   UNL A   1      38.435  21.429  25.632  1.00  0.00     0.202 C 
BRANCH   3   4
ATOM      4  C   UNL A   1      37.288  22.402  25.325  1.00  0.00     0.261 C 
BRANCH   4   5
ATOM      5  O   UNL A   1      36.155  21.788  24.691  1.00  0.00    -0.459 OA
BRANCH   5   6
ATOM      6  C   UNL A   1      35.109  21.525  25.531  1.00  0.00     0.369 C 
ATOM      7  O   UNL A   1      35.185  21.669  26.750  1.00  0.00    -0.245 OA
BRANCH   6   8
ATOM      8  C   UNL A   1      33.779  21.150  24.804  1.00  0.00     0.325 C 
BRANCH   8   9
ATOM      9  N   UNL A   1      33.382  22.260  23.886  1.00  0.00    -0.328 N 
ATOM     10  H   UNL A   1      34.161  22.424  23.249  1.00  0.00     0.347 HD
ATOM     11  H   UNL A   1      32.520  21.939  23.443  1.00  0.00     0.347 HD
BRANCH   9  12
ATOM     12  C   UNL A   1      33.033  23.550  24.499  1.00  0.00     0.193 C 
ATOM     13  C   UNL A   1      30.720  25.067  26.095  1.00  0.00     0.012 C 
ATOM     14  C   UNL A   1      31.061  25.266  24.601  1.00  0.00    -0.021 C 
ATOM     15  C   UNL A   1      29.757  25.680  23.886  1.00  0.00     0.012 C 
ATOM     16  C   UNL A   1      32.035  26.430  24.422  1.00  0.00     0.076 C 
ATOM     17  C   UNL A   1      31.632  23.969  23.970  1.00  0.00     0.073 C 
ATOM     18  S   UNL A   1      33.657  26.152  25.132  1.00  0.00    -0.155 SA
ATOM     19  C   UNL A   1      34.064  24.655  24.222  1.00  0.00     0.134 C 
ENDBRANCH   9  12
ENDBRANCH   8   9
BRANCH   8  20
ATOM     20  C   UNL A   1      33.621  19.724  24.253  1.00  0.00     0.021 A 
ATOM     21  C   UNL A   1      34.503  18.693  24.625  1.00  0.00     0.010 A 
ATOM     22  C   UNL A   1      32.538  19.358  23.426  1.00  0.00     0.010 A 
ATOM     23  C   UNL A   1      34.398  17.408  24.078  1.00  0.00     0.001 A 
ATOM     24  C   UNL A   1      32.437  18.078  22.869  1.00  0.00     0.001 A 
ATOM     25  C   UNL A   1      33.381  17.108  23.181  1.00  0.00     0.000 A 
ENDBRANCH   8  20
ENDBRANCH   6   8
ENDBRANCH   5   6
ENDBRANCH   4   5
ENDBRANCH   3   4
ENDBRANCH   2   3
ENDBRANCH   1   2
BRANCH   1  26
ATOM     26  C   UNL A   1      41.921  21.221  27.009  1.00  0.00     0.188 C 
BRANCH  26  27
ATOM     27  O   UNL A   1      41.744  19.957  27.626  1.00  0.00    -0.376 OA
BRANCH  27  28
ATOM     28  C   UNL A   1      42.609  18.908  27.232  1.00  0.00     0.202 C 
BRANCH  28  29
ATOM     29  C   UNL A   1      42.895  18.743  25.736  1.00  0.00     0.261 C 
BRANCH  29  30
ATOM     30  O   UNL A   1      44.287  18.812  25.388  1.00  0.00    -0.460 OA
BRANCH  30  31
ATOM     31  C   UNL A   1      44.573  19.531  24.272  1.00  0.00     0.338 C 
ATOM     32  O   UNL A   1      44.561  19.131  23.116  1.00  0.00    -0.246 OA
BRANCH  31  33
ATOM     33  C   UNL A   1      44.807  20.951  24.622  1.00  0.00     0.060 A 
ATOM     34  C   UNL A   1      45.580  21.234  25.752  1.00  0.00     0.016 A 
ATOM     35  C   UNL A   1      44.271  21.999  23.866  1.00  0.00     0.016 A 
ATOM     36  C   UNL A   1      45.852  22.563  26.096  1.00  0.00     0.010 A 
ATOM     37  C   UNL A   1      44.507  23.330  24.242  1.00  0.00     0.010 A 
ATOM     38  C   UNL A   1      45.316  23.632  25.347  1.00  0.00    -0.014 A 
BRANCH  38  39
ATOM     39  C   UNL A   1      45.571  25.041  25.780  1.00  0.00     0.031 A 
ATOM     40  C   UNL A   1      44.517  25.768  26.564  1.00  0.00     0.074 A 
ATOM     41  C   UNL A   1      46.725  25.688  25.509  1.00  0.00     0.049 A 
ATOM     42  N   UNL A   1      44.560  26.961  27.100  1.00  0.00    -0.248 NA
ATOM     43  C   UNL A   1      43.228  25.079  26.718  1.00  0.00     0.031 C 
ATOM     44  C   UNL A   1      47.811  25.165  24.692  1.00  0.00     0.029 A 
ATOM     45  N   UNL A   1      47.214  26.899  25.955  1.00  0.00    -0.354 N 
ATOM     46  C   UNL A   1      43.280  27.199  27.578  1.00  0.00     0.074 A 
ATOM     47  C   UNL A   1      42.514  25.990  27.358  1.00  0.00     0.031 C 
ATOM     48  C   UNL A   1      48.891  25.952  24.836  1.00  0.00     0.029 A 
ATOM     49  C   UNL A   1      48.560  27.074  25.701  1.00  0.00     0.049 A 
ATOM     50  H   UNL A   1      46.657  27.572  26.409  1.00  0.00     0.167 HD
ATOM     51  C   UNL A   1      42.761  28.349  28.068  1.00  0.00     0.037 A 
ATOM     52  C   UNL A   1      49.424  28.009  26.145  1.00  0.00     0.037 A 
ATOM     53  C   UNL A   1      43.492  29.577  28.222  1.00  0.00     0.049 A 
ATOM     54  C   UNL A   1      48.864  29.234  26.812  1.00  0.00     0.074 A 
ATOM     55  C   UNL A   1      43.027  30.812  28.638  1.00  0.00     0.029 A 
ATOM     56  N   UNL A   1      44.842  29.730  27.947  1.00  0.00    -0.354 N 
ATOM     57  N   UNL A   1      47.644  29.463  27.229  1.00  0.00    -0.248 NA
ATOM     58  C   UNL A   1      49.779  30.377  26.967  1.00  0.00     0.031 C 
ATOM     59  C   UNL A   1      44.087  31.725  28.570  1.00  0.00     0.029 A 
ATOM     60  C   UNL A   1      45.223  31.045  28.163  1.00  0.00     0.049 A 
ATOM     61  H   UNL A   1      45.441  29.011  27.642  1.00  0.00     0.167 HD
ATOM     62  C   UNL A   1      47.623  30.796  27.616  1.00  0.00     0.074 A 
ATOM     63  C   UNL A   1      48.974  31.297  27.481  1.00  0.00     0.031 C 
ATOM     64  C   UNL A   1      46.561  31.549  27.987  1.00  0.00     0.037 A 
BRANCH  51  65
ATOM     65  C   UNL A   1      41.282  28.347  28.308  1.00  0.00     0.057 A 
ATOM     66  C   UNL A   1      40.366  28.807  27.356  1.00  0.00     0.134 A 
ATOM     67  C   UNL A   1      40.782  27.960  29.559  1.00  0.00     0.134 A 
ATOM     68  F   UNL A   1      40.788  29.228  26.153  1.00  0.00    -0.206 F 
ATOM     69  C   UNL A   1      39.006  28.922  27.654  1.00  0.00     0.040 A 
ATOM     70  C   UNL A   1      39.424  28.046  29.860  1.00  0.00     0.040 A 
ATOM     71  F   UNL A   1      41.612  27.522  30.518  1.00  0.00    -0.206 F 
ATOM     72  C   UNL A   1      38.534  28.542  28.910  1.00  0.00     0.006 A 
ENDBRANCH  51  65
BRANCH  52  73
ATOM     73  C   UNL A   1      50.900  27.871  25.982  1.00  0.00     0.057 A 
ATOM     74  C   UNL A   1      51.686  27.453  27.070  1.00  0.00     0.134 A 
ATOM     75  C   UNL A   1      51.577  28.180  24.798  1.00  0.00     0.134 A 
ATOM     76  F   UNL A   1      51.110  27.170  28.248  1.00  0.00    -0.206 F 
ATOM     77  C   UNL A   1      53.077  27.355  26.986  1.00  0.00     0.040 A 
ATOM     78  C   UNL A   1      52.965  28.054  24.690  1.00  0.00     0.040 A 
ATOM     79  F   UNL A   1      50.901  28.614  23.724  1.00  0.00    -0.206 F 
ATOM     80  C   UNL A   1      53.720  27.648  25.788  1.00  0.00     0.006 A 
ENDBRANCH  52  73
BRANCH  64  81
ATOM     81  C   UNL A   1      46.801  33.014  28.196  1.00  0.00     0.057 A 
ATOM     82  C   UNL A   1      46.640  33.930  27.146  1.00  0.00     0.134 A 
ATOM     83  C   UNL A   1      47.140  33.523  29.453  1.00  0.00     0.134 A 
ATOM     84  F   UNL A   1      46.328  33.504  25.912  1.00  0.00    -0.206 F 
ATOM     85  C   UNL A   1      46.817  35.300  27.340  1.00  0.00     0.040 A 
ATOM     86  C   UNL A   1      47.300  34.893  29.664  1.00  0.00     0.040 A 
ATOM     87  F   UNL A   1      47.305  32.699  30.499  1.00  0.00    -0.206 F 
ATOM     88  C   UNL A   1      47.141  35.786  28.605  1.00  0.00     0.006 A 
ENDBRANCH  64  81
ENDBRANCH  38  39
ENDBRANCH  31  33
ENDBRANCH  30  31
ENDBRANCH  29  30
ENDBRANCH  28  29
ENDBRANCH  27  28
ENDBRANCH  26  27
ENDBRANCH   1  26
TORSDOF 20
ENDMDL
