MODEL 1
REMARK VINA RESULT:     -11.8      0.000      0.000
REMARK SMILES Cc1ccc(N2C(=O)C[C@H](Sc3ccccc3C(=O)OCCOCCOCCOC(=O)c3ccc(-c4c5nc(c(-c6c(F)cccc6F)c6ccc([nH]6)c(-c6c(F)cccc6F)c6nc(c(-c7c(F)cccc7F)c7ccc4[nH]7)C=C6)C=C5)cc3)C2=O)cc1
REMARK SMILES IDX 24 1 23 2 22 3 21 4 20 5 18 6 19 7 17 8 12 9 13 10 14 11
REMARK SMILES IDX 16 12 15 13 11 14 10 15 6 16 7 17 86 18 8 19 9 20 87 21 5 22
REMARK SMILES IDX 1 23 2 24 3 25 89 26 4 27 88 28 25 29 26 30 27 31 28 32
REMARK SMILES IDX 29 33 30 34 31 35 32 36 33 37 85 38 34 39 84 40 35 41 36 42
REMARK SMILES IDX 37 43 78 44 38 45 83 46 77 47 79 48 39 49 82 50 76 51 75 52
REMARK SMILES IDX 40 54 66 55 49 56 65 57 50 58 53 59 64 60 80 61 51 62 52 63
REMARK SMILES IDX 63 65 81 66 54 67 41 68 42 69 47 70 43 71 44 72 46 73 48 74
REMARK SMILES IDX 45 75 67 76 68 77 73 78 69 79 70 80 72 81 74 82 71 83 55 84
REMARK SMILES IDX 56 85 61 86 57 87 58 88 60 89 62 90 59 91
REMARK H PARENT 79 53 53 64
REMARK Flexibility Score: inf
ROOT
ATOM      1  C   UNL A   1      40.792  21.595  27.265  1.00  0.00     0.188 C 
ENDROOT
BRANCH   1   2
ATOM      2  O   UNL A   1      40.205  22.005  26.050  1.00  0.00    -0.376 OA
BRANCH   2   3
ATOM      3  C   UNL A   1      38.810  21.735  25.972  1.00  0.00     0.202 C 
BRANCH   3   4
ATOM      4  C   UNL A   1      37.782  22.882  25.797  1.00  0.00     0.261 C 
BRANCH   4   5
ATOM      5  O   UNL A   1      36.928  23.388  24.650  1.00  0.00    -0.460 OA
BRANCH   5   6
ATOM      6  C   UNL A   1      36.236  22.891  23.592  1.00  0.00     0.339 C 
ATOM      7  O   UNL A   1      36.628  22.973  22.471  1.00  0.00    -0.246 OA
BRANCH   6   8
ATOM      8  C   UNL A   1      34.901  22.290  23.920  1.00  0.00     0.073 A 
ATOM      9  C   UNL A   1      33.726  22.682  23.271  1.00  0.00     0.023 A 
ATOM     10  C   UNL A   1      32.542  21.950  23.485  1.00  0.00     0.016 A 
ATOM     11  C   UNL A   1      32.496  20.896  24.395  1.00  0.00     0.001 A 
ATOM     12  C   UNL A   1      34.780  21.380  24.983  1.00  0.00     0.017 A 
ATOM     13  C   UNL A   1      33.604  20.648  25.189  1.00  0.00     0.001 A 
BRANCH   9  14
ATOM     14  S   UNL A   1      33.514  24.266  22.470  1.00  0.00    -0.111 SA
BRANCH  14  15
ATOM     15  C   UNL A   1      32.093  24.962  23.301  1.00  0.00     0.151 C 
ATOM     16  N   UNL A   1      30.870  26.827  23.797  1.00  0.00    -0.250 N 
ATOM     17  C   UNL A   1      31.141  26.196  24.991  1.00  0.00     0.235 C 
ATOM     18  C   UNL A   1      31.506  26.230  22.728  1.00  0.00     0.247 C 
ATOM     19  O   UNL A   1      30.652  26.362  26.098  1.00  0.00    -0.274 OA
ATOM     20  C   UNL A   1      32.325  25.347  24.734  1.00  0.00     0.126 C 
ATOM     21  O   UNL A   1      31.492  26.560  21.553  1.00  0.00    -0.273 OA
BRANCH  16  22
ATOM     22  C   UNL A   1      29.985  27.901  23.728  1.00  0.00     0.052 A 
ATOM     23  C   UNL A   1      27.661  31.373  22.819  1.00  0.00     0.044 C 
ATOM     24  C   UNL A   1      28.438  30.145  23.179  1.00  0.00    -0.051 A 
ATOM     25  C   UNL A   1      29.730  30.297  23.684  1.00  0.00     0.005 A 
ATOM     26  C   UNL A   1      27.898  28.860  23.021  1.00  0.00     0.005 A 
ATOM     27  C   UNL A   1      30.505  29.179  23.935  1.00  0.00     0.027 A 
ATOM     28  C   UNL A   1      28.664  27.729  23.315  1.00  0.00     0.027 A 
ENDBRANCH  16  22
ENDBRANCH  14  15
ENDBRANCH   9  14
ENDBRANCH   6   8
ENDBRANCH   5   6
ENDBRANCH   4   5
ENDBRANCH   3   4
ENDBRANCH   2   3
ENDBRANCH   1   2
BRANCH   1  29
ATOM     29  C   UNL A   1      41.169  20.100  27.329  1.00  0.00     0.188 C 
BRANCH  29  30
ATOM     30  O   UNL A   1      41.730  19.634  26.100  1.00  0.00    -0.376 OA
BRANCH  30  31
ATOM     31  C   UNL A   1      42.630  18.544  26.145  1.00  0.00     0.202 C 
BRANCH  31  32
ATOM     32  C   UNL A   1      43.899  18.740  25.312  1.00  0.00     0.261 C 
BRANCH  32  33
ATOM     33  O   UNL A   1      43.771  19.949  24.539  1.00  0.00    -0.460 OA
BRANCH  33  34
ATOM     34  C   UNL A   1      44.699  20.904  24.792  1.00  0.00     0.338 C 
ATOM     35  O   UNL A   1      45.905  20.784  24.656  1.00  0.00    -0.246 OA
BRANCH  34  36
ATOM     36  C   UNL A   1      44.043  22.037  25.507  1.00  0.00     0.060 A 
ATOM     37  C   UNL A   1      43.406  23.025  24.763  1.00  0.00     0.016 A 
ATOM     38  C   UNL A   1      44.270  22.266  26.866  1.00  0.00     0.016 A 
ATOM     39  C   UNL A   1      43.165  24.281  25.348  1.00  0.00     0.010 A 
ATOM     40  C   UNL A   1      44.133  23.555  27.395  1.00  0.00     0.010 A 
ATOM     41  C   UNL A   1      43.706  24.628  26.599  1.00  0.00    -0.014 A 
BRANCH  41  42
ATOM     42  C   UNL A   1      43.838  26.015  27.212  1.00  0.00     0.031 A 
ATOM     43  C   UNL A   1      42.526  26.668  27.422  1.00  0.00     0.074 A 
ATOM     44  C   UNL A   1      44.931  26.755  27.652  1.00  0.00     0.049 A 
ATOM     45  N   UNL A   1      42.348  27.946  27.522  1.00  0.00    -0.248 NA
ATOM     46  C   UNL A   1      41.274  25.910  27.336  1.00  0.00     0.031 C 
ATOM     47  C   UNL A   1      44.939  27.536  28.895  1.00  0.00     0.029 A 
ATOM     48  N   UNL A   1      46.271  26.932  27.256  1.00  0.00    -0.354 N 
ATOM     49  C   UNL A   1      41.066  28.081  27.997  1.00  0.00     0.074 A 
ATOM     50  C   UNL A   1      40.397  26.887  27.552  1.00  0.00     0.031 C 
ATOM     51  C   UNL A   1      46.137  28.135  29.082  1.00  0.00     0.029 A 
ATOM     52  C   UNL A   1      46.999  27.909  27.927  1.00  0.00     0.049 A 
ATOM     53  H   UNL A   1      46.673  26.390  26.539  1.00  0.00     0.167 HD
ATOM     54  C   UNL A   1      40.829  28.966  29.009  1.00  0.00     0.037 A 
ATOM     55  C   UNL A   1      47.958  28.743  27.378  1.00  0.00     0.037 A 
ATOM     56  C   UNL A   1      42.004  29.823  29.262  1.00  0.00     0.049 A 
ATOM     57  C   UNL A   1      47.385  30.136  27.399  1.00  0.00     0.074 A 
ATOM     58  C   UNL A   1      42.913  29.867  30.309  1.00  0.00     0.029 A 
ATOM     59  N   UNL A   1      42.560  30.607  28.246  1.00  0.00    -0.354 N 
ATOM     60  N   UNL A   1      46.149  30.340  27.736  1.00  0.00    -0.248 NA
ATOM     61  C   UNL A   1      48.049  31.363  26.966  1.00  0.00     0.031 C 
ATOM     62  C   UNL A   1      43.996  30.691  29.934  1.00  0.00     0.029 A 
ATOM     63  C   UNL A   1      43.770  31.147  28.648  1.00  0.00     0.049 A 
ATOM     64  H   UNL A   1      42.147  30.755  27.365  1.00  0.00     0.167 HD
ATOM     65  C   UNL A   1      45.822  31.637  27.543  1.00  0.00     0.074 A 
ATOM     66  C   UNL A   1      47.039  32.249  27.045  1.00  0.00     0.031 C 
ATOM     67  C   UNL A   1      44.551  32.043  27.801  1.00  0.00     0.037 A 
BRANCH  54  68
ATOM     68  C   UNL A   1      39.715  28.746  30.040  1.00  0.00     0.057 A 
ATOM     69  C   UNL A   1      38.374  29.051  29.726  1.00  0.00     0.134 A 
ATOM     70  C   UNL A   1      39.885  28.326  31.375  1.00  0.00     0.134 A 
ATOM     71  F   UNL A   1      37.983  29.319  28.475  1.00  0.00    -0.206 F 
ATOM     72  C   UNL A   1      37.343  29.079  30.678  1.00  0.00     0.040 A 
ATOM     73  C   UNL A   1      38.874  28.381  32.347  1.00  0.00     0.040 A 
ATOM     74  F   UNL A   1      41.015  27.765  31.812  1.00  0.00    -0.206 F 
ATOM     75  C   UNL A   1      37.596  28.776  32.004  1.00  0.00     0.006 A 
ENDBRANCH  54  68
BRANCH  55  76
ATOM     76  C   UNL A   1      48.980  28.336  26.327  1.00  0.00     0.057 A 
ATOM     77  C   UNL A   1      50.345  28.289  26.653  1.00  0.00     0.134 A 
ATOM     78  C   UNL A   1      48.682  27.891  25.023  1.00  0.00     0.134 A 
ATOM     79  F   UNL A   1      50.777  28.840  27.799  1.00  0.00    -0.206 F 
ATOM     80  C   UNL A   1      51.309  27.647  25.850  1.00  0.00     0.040 A 
ATOM     81  C   UNL A   1      49.640  27.263  24.193  1.00  0.00     0.040 A 
ATOM     82  F   UNL A   1      47.426  27.925  24.554  1.00  0.00    -0.206 F 
ATOM     83  C   UNL A   1      50.950  27.096  24.628  1.00  0.00     0.006 A 
ENDBRANCH  55  76
BRANCH  67  84
ATOM     84  C   UNL A   1      44.031  33.385  27.429  1.00  0.00     0.057 A 
ATOM     85  C   UNL A   1      43.765  34.399  28.357  1.00  0.00     0.134 A 
ATOM     86  C   UNL A   1      43.870  33.721  26.074  1.00  0.00     0.134 A 
ATOM     87  F   UNL A   1      43.998  34.231  29.667  1.00  0.00    -0.206 F 
ATOM     88  C   UNL A   1      43.279  35.647  27.965  1.00  0.00     0.040 A 
ATOM     89  C   UNL A   1      43.434  34.979  25.667  1.00  0.00     0.040 A 
ATOM     90  F   UNL A   1      44.137  32.846  25.094  1.00  0.00    -0.206 F 
ATOM     91  C   UNL A   1      43.113  35.940  26.616  1.00  0.00     0.006 A 
ENDBRANCH  67  84
ENDBRANCH  41  42
ENDBRANCH  34  36
ENDBRANCH  33  34
ENDBRANCH  32  33
ENDBRANCH  31  32
ENDBRANCH  30  31
ENDBRANCH  29  30
ENDBRANCH   1  29
TORSDOF 20
ENDMDL
MODEL 2
REMARK VINA RESULT:     -11.8      5.143     10.980
REMARK SMILES Cc1ccc(N2C(=O)C[C@H](Sc3ccccc3C(=O)OCCOCCOCCOC(=O)c3ccc(-c4c5nc(c(-c6c(F)cccc6F)c6ccc([nH]6)c(-c6c(F)cccc6F)c6nc(c(-c7c(F)cccc7F)c7ccc4[nH]7)C=C6)C=C5)cc3)C2=O)cc1
REMARK SMILES IDX 24 1 23 2 22 3 21 4 20 5 18 6 19 7 17 8 12 9 13 10 14 11
REMARK SMILES IDX 16 12 15 13 11 14 10 15 6 16 7 17 86 18 8 19 9 20 87 21 5 22
REMARK SMILES IDX 1 23 2 24 3 25 89 26 4 27 88 28 25 29 26 30 27 31 28 32
REMARK SMILES IDX 29 33 30 34 31 35 32 36 33 37 85 38 34 39 84 40 35 41 36 42
REMARK SMILES IDX 37 43 78 44 38 45 83 46 77 47 79 48 39 49 82 50 76 51 75 52
REMARK SMILES IDX 40 54 66 55 49 56 65 57 50 58 53 59 64 60 80 61 51 62 52 63
REMARK SMILES IDX 63 65 81 66 54 67 41 68 42 69 47 70 43 71 44 72 46 73 48 74
REMARK SMILES IDX 45 75 67 76 68 77 73 78 69 79 70 80 72 81 74 82 71 83 55 84
REMARK SMILES IDX 56 85 61 86 57 87 58 88 60 89 62 90 59 91
REMARK H PARENT 79 53 53 64
REMARK Flexibility Score: inf
ROOT
ATOM      1  C   UNL A   1      34.392  32.751  28.521  1.00  0.00     0.188 C 
ENDROOT
BRANCH   1   2
ATOM      2  O   UNL A   1      34.852  31.887  27.505  1.00  0.00    -0.376 OA
BRANCH   2   3
ATOM      3  C   UNL A   1      34.552  30.517  27.744  1.00  0.00     0.202 C 
BRANCH   3   4
ATOM      4  C   UNL A   1      33.249  29.877  27.200  1.00  0.00     0.261 C 
BRANCH   4   5
ATOM      5  O   UNL A   1      32.567  29.823  25.847  1.00  0.00    -0.460 OA
BRANCH   5   6
ATOM      6  C   UNL A   1      32.686  29.162  24.666  1.00  0.00     0.339 C 
ATOM      7  O   UNL A   1      33.665  29.221  23.991  1.00  0.00    -0.246 OA
BRANCH   6   8
ATOM      8  C   UNL A   1      31.469  28.403  24.226  1.00  0.00     0.073 A 
ATOM      9  C   UNL A   1      31.041  27.239  24.873  1.00  0.00     0.023 A 
ATOM     10  C   UNL A   1      29.791  26.682  24.538  1.00  0.00     0.016 A 
ATOM     11  C   UNL A   1      29.011  27.218  23.515  1.00  0.00     0.001 A 
ATOM     12  C   UNL A   1      30.779  28.788  23.065  1.00  0.00     0.017 A 
ATOM     13  C   UNL A   1      29.533  28.239  22.737  1.00  0.00     0.001 A 
BRANCH   9  14
ATOM     14  S   UNL A   1      32.115  26.185  25.837  1.00  0.00    -0.111 SA
BRANCH  14  15
ATOM     15  C   UNL A   1      32.280  24.723  24.821  1.00  0.00     0.151 C 
ATOM     16  N   UNL A   1      33.212  22.655  24.554  1.00  0.00    -0.250 N 
ATOM     17  C   UNL A   1      33.484  23.368  23.407  1.00  0.00     0.235 C 
ATOM     18  C   UNL A   1      32.599  23.424  25.521  1.00  0.00     0.247 C 
ATOM     19  O   UNL A   1      33.886  22.986  22.319  1.00  0.00    -0.274 OA
ATOM     20  C   UNL A   1      33.367  24.794  23.786  1.00  0.00     0.126 C 
ATOM     21  O   UNL A   1      32.255  23.100  26.646  1.00  0.00    -0.273 OA
BRANCH  16  22
ATOM     22  C   UNL A   1      33.484  21.291  24.642  1.00  0.00     0.052 A 
ATOM     23  C   UNL A   1      34.388  17.148  24.101  1.00  0.00     0.044 C 
ATOM     24  C   UNL A   1      34.078  18.591  24.347  1.00  0.00    -0.051 A 
ATOM     25  C   UNL A   1      32.799  19.060  24.044  1.00  0.00     0.005 A 
ATOM     26  C   UNL A   1      35.037  19.471  24.871  1.00  0.00     0.005 A 
ATOM     27  C   UNL A   1      32.513  20.407  24.171  1.00  0.00     0.027 A 
ATOM     28  C   UNL A   1      34.737  20.825  25.041  1.00  0.00     0.027 A 
ENDBRANCH  16  22
ENDBRANCH  14  15
ENDBRANCH   9  14
ENDBRANCH   6   8
ENDBRANCH   5   6
ENDBRANCH   4   5
ENDBRANCH   3   4
ENDBRANCH   2   3
ENDBRANCH   1   2
BRANCH   1  29
ATOM     29  C   UNL A   1      33.931  34.139  28.030  1.00  0.00     0.188 C 
BRANCH  29  30
ATOM     30  O   UNL A   1      32.899  34.685  28.854  1.00  0.00    -0.376 OA
BRANCH  30  31
ATOM     31  C   UNL A   1      32.927  36.072  29.133  1.00  0.00     0.202 C 
BRANCH  31  32
ATOM     32  C   UNL A   1      32.897  36.416  30.624  1.00  0.00     0.261 C 
BRANCH  32  33
ATOM     33  O   UNL A   1      32.895  35.193  31.387  1.00  0.00    -0.460 OA
BRANCH  33  34
ATOM     34  C   UNL A   1      33.902  35.065  32.286  1.00  0.00     0.338 C 
ATOM     35  O   UNL A   1      34.145  35.832  33.202  1.00  0.00    -0.246 OA
BRANCH  34  36
ATOM     36  C   UNL A   1      34.821  33.983  31.828  1.00  0.00     0.060 A 
ATOM     37  C   UNL A   1      34.673  32.704  32.356  1.00  0.00     0.016 A 
ATOM     38  C   UNL A   1      35.972  34.273  31.091  1.00  0.00     0.016 A 
ATOM     39  C   UNL A   1      35.747  31.800  32.284  1.00  0.00     0.010 A 
ATOM     40  C   UNL A   1      37.071  33.407  31.134  1.00  0.00     0.010 A 
ATOM     41  C   UNL A   1      37.025  32.205  31.856  1.00  0.00    -0.014 A 
BRANCH  41  42
ATOM     42  C   UNL A   1      38.349  31.477  32.036  1.00  0.00     0.031 A 
ATOM     43  C   UNL A   1      38.403  30.204  31.281  1.00  0.00     0.074 A 
ATOM     44  C   UNL A   1      39.518  31.794  32.721  1.00  0.00     0.049 A 
ATOM     45  N   UNL A   1      39.187  29.214  31.562  1.00  0.00    -0.248 NA
ATOM     46  C   UNL A   1      37.410  29.887  30.249  1.00  0.00     0.031 C 
ATOM     47  C   UNL A   1      40.865  31.574  32.179  1.00  0.00     0.029 A 
ATOM     48  N   UNL A   1      39.852  32.452  33.920  1.00  0.00    -0.354 N 
ATOM     49  C   UNL A   1      39.119  28.395  30.462  1.00  0.00     0.074 A 
ATOM     50  C   UNL A   1      37.829  28.676  29.890  1.00  0.00     0.031 C 
ATOM     51  C   UNL A   1      41.810  31.994  33.050  1.00  0.00     0.029 A 
ATOM     52  C   UNL A   1      41.190  32.422  34.300  1.00  0.00     0.049 A 
ATOM     53  H   UNL A   1      39.172  32.912  34.463  1.00  0.00     0.167 HD
ATOM     54  C   UNL A   1      40.277  27.880  29.953  1.00  0.00     0.037 A 
ATOM     55  C   UNL A   1      41.677  32.326  35.592  1.00  0.00     0.037 A 
ATOM     56  C   UNL A   1      41.417  28.121  30.858  1.00  0.00     0.049 A 
ATOM     57  C   UNL A   1      42.328  30.974  35.712  1.00  0.00     0.074 A 
ATOM     58  C   UNL A   1      42.516  28.964  30.766  1.00  0.00     0.029 A 
ATOM     59  N   UNL A   1      41.397  27.672  32.183  1.00  0.00    -0.354 N 
ATOM     60  N   UNL A   1      42.224  30.100  34.758  1.00  0.00    -0.248 NA
ATOM     61  C   UNL A   1      43.025  30.437  36.878  1.00  0.00     0.031 C 
ATOM     62  C   UNL A   1      43.164  29.003  32.019  1.00  0.00     0.029 A 
ATOM     63  C   UNL A   1      42.461  28.196  32.896  1.00  0.00     0.049 A 
ATOM     64  H   UNL A   1      40.718  27.065  32.557  1.00  0.00     0.167 HD
ATOM     65  C   UNL A   1      42.760  28.921  35.146  1.00  0.00     0.074 A 
ATOM     66  C   UNL A   1      43.243  29.166  36.491  1.00  0.00     0.031 C 
ATOM     67  C   UNL A   1      42.711  27.863  34.296  1.00  0.00     0.037 A 
BRANCH  54  68
ATOM     68  C   UNL A   1      40.443  27.566  28.460  1.00  0.00     0.057 A 
ATOM     69  C   UNL A   1      40.357  26.240  27.990  1.00  0.00     0.134 A 
ATOM     70  C   UNL A   1      40.773  28.489  27.447  1.00  0.00     0.134 A 
ATOM     71  F   UNL A   1      39.908  25.243  28.761  1.00  0.00    -0.206 F 
ATOM     72  C   UNL A   1      40.708  25.856  26.686  1.00  0.00     0.040 A 
ATOM     73  C   UNL A   1      41.159  28.119  26.148  1.00  0.00     0.040 A 
ATOM     74  F   UNL A   1      40.671  29.809  27.617  1.00  0.00    -0.206 F 
ATOM     75  C   UNL A   1      41.145  26.792  25.767  1.00  0.00     0.006 A 
ENDBRANCH  54  68
BRANCH  55  76
ATOM     76  C   UNL A   1      41.078  33.015  36.810  1.00  0.00     0.057 A 
ATOM     77  C   UNL A   1      41.748  34.095  37.408  1.00  0.00     0.134 A 
ATOM     78  C   UNL A   1      39.819  32.731  37.376  1.00  0.00     0.134 A 
ATOM     79  F   UNL A   1      43.022  34.358  37.074  1.00  0.00    -0.206 F 
ATOM     80  C   UNL A   1      41.137  34.966  38.332  1.00  0.00     0.040 A 
ATOM     81  C   UNL A   1      39.197  33.581  38.320  1.00  0.00     0.040 A 
ATOM     82  F   UNL A   1      39.086  31.696  36.939  1.00  0.00    -0.206 F 
ATOM     83  C   UNL A   1      39.839  34.731  38.764  1.00  0.00     0.006 A 
ENDBRANCH  55  76
BRANCH  67  84
ATOM     84  C   UNL A   1      43.077  26.478  34.693  1.00  0.00     0.057 A 
ATOM     85  C   UNL A   1      44.396  26.018  34.778  1.00  0.00     0.134 A 
ATOM     86  C   UNL A   1      42.075  25.580  35.101  1.00  0.00     0.134 A 
ATOM     87  F   UNL A   1      45.439  26.824  34.530  1.00  0.00    -0.206 F 
ATOM     88  C   UNL A   1      44.696  24.709  35.158  1.00  0.00     0.040 A 
ATOM     89  C   UNL A   1      42.365  24.288  35.530  1.00  0.00     0.040 A 
ATOM     90  F   UNL A   1      40.780  25.924  35.105  1.00  0.00    -0.206 F 
ATOM     91  C   UNL A   1      43.679  23.840  35.537  1.00  0.00     0.006 A 
ENDBRANCH  67  84
ENDBRANCH  41  42
ENDBRANCH  34  36
ENDBRANCH  33  34
ENDBRANCH  32  33
ENDBRANCH  31  32
ENDBRANCH  30  31
ENDBRANCH  29  30
ENDBRANCH   1  29
TORSDOF 20
ENDMDL
MODEL 3
REMARK VINA RESULT:     -11.5      4.608      9.184
REMARK SMILES Cc1ccc(N2C(=O)C[C@H](Sc3ccccc3C(=O)OCCOCCOCCOC(=O)c3ccc(-c4c5nc(c(-c6c(F)cccc6F)c6ccc([nH]6)c(-c6c(F)cccc6F)c6nc(c(-c7c(F)cccc7F)c7ccc4[nH]7)C=C6)C=C5)cc3)C2=O)cc1
REMARK SMILES IDX 24 1 23 2 22 3 21 4 20 5 18 6 19 7 17 8 12 9 13 10 14 11
REMARK SMILES IDX 16 12 15 13 11 14 10 15 6 16 7 17 86 18 8 19 9 20 87 21 5 22
REMARK SMILES IDX 1 23 2 24 3 25 89 26 4 27 88 28 25 29 26 30 27 31 28 32
REMARK SMILES IDX 29 33 30 34 31 35 32 36 33 37 85 38 34 39 84 40 35 41 36 42
REMARK SMILES IDX 37 43 78 44 38 45 83 46 77 47 79 48 39 49 82 50 76 51 75 52
REMARK SMILES IDX 40 54 66 55 49 56 65 57 50 58 53 59 64 60 80 61 51 62 52 63
REMARK SMILES IDX 63 65 81 66 54 67 41 68 42 69 47 70 43 71 44 72 46 73 48 74
REMARK SMILES IDX 45 75 67 76 68 77 73 78 69 79 70 80 72 81 74 82 71 83 55 84
REMARK SMILES IDX 56 85 61 86 57 87 58 88 60 89 62 90 59 91
REMARK H PARENT 79 53 53 64
REMARK Flexibility Score: inf
ROOT
ATOM      1  C   UNL A   1      33.633  26.498  26.128  1.00  0.00     0.188 C 
ENDROOT
BRANCH   1   2
ATOM      2  O   UNL A   1      33.359  25.123  26.279  1.00  0.00    -0.376 OA
BRANCH   2   3
ATOM      3  C   UNL A   1      32.006  24.847  26.622  1.00  0.00     0.202 C 
BRANCH   3   4
ATOM      4  C   UNL A   1      31.437  23.407  26.536  1.00  0.00     0.261 C 
BRANCH   4   5
ATOM      5  O   UNL A   1      32.017  22.045  26.208  1.00  0.00    -0.460 OA
BRANCH   5   6
ATOM      6  C   UNL A   1      32.481  21.362  25.129  1.00  0.00     0.339 C 
ATOM      7  O   UNL A   1      31.914  20.423  24.669  1.00  0.00    -0.246 OA
BRANCH   6   8
ATOM      8  C   UNL A   1      33.802  21.827  24.592  1.00  0.00     0.073 A 
ATOM      9  C   UNL A   1      33.912  22.910  23.713  1.00  0.00     0.023 A 
ATOM     10  C   UNL A   1      35.188  23.417  23.398  1.00  0.00     0.016 A 
ATOM     11  C   UNL A   1      36.347  22.809  23.875  1.00  0.00     0.001 A 
ATOM     12  C   UNL A   1      34.973  21.105  24.878  1.00  0.00     0.017 A 
ATOM     13  C   UNL A   1      36.241  21.614  24.570  1.00  0.00     0.001 A 
BRANCH   9  14
ATOM     14  S   UNL A   1      32.581  23.478  22.664  1.00  0.00    -0.111 SA
BRANCH  14  15
ATOM     15  C   UNL A   1      32.447  25.213  23.071  1.00  0.00     0.151 C 
ATOM     16  N   UNL A   1      31.197  27.123  22.984  1.00  0.00    -0.250 N 
ATOM     17  C   UNL A   1      32.440  27.435  22.479  1.00  0.00     0.235 C 
ATOM     18  C   UNL A   1      31.058  25.777  23.253  1.00  0.00     0.247 C 
ATOM     19  O   UNL A   1      32.952  28.522  22.263  1.00  0.00    -0.274 OA
ATOM     20  C   UNL A   1      33.030  26.148  22.049  1.00  0.00     0.126 C 
ATOM     21  O   UNL A   1      30.081  25.183  23.679  1.00  0.00    -0.273 OA
BRANCH  16  22
ATOM     22  C   UNL A   1      30.249  28.112  23.241  1.00  0.00     0.052 A 
ATOM     23  C   UNL A   1      27.701  31.540  23.412  1.00  0.00     0.044 C 
ATOM     24  C   UNL A   1      28.557  30.314  23.389  1.00  0.00    -0.051 A 
ATOM     25  C   UNL A   1      29.851  30.394  23.906  1.00  0.00     0.005 A 
ATOM     26  C   UNL A   1      28.090  29.099  22.864  1.00  0.00     0.005 A 
ATOM     27  C   UNL A   1      30.697  29.304  23.811  1.00  0.00     0.027 A 
ATOM     28  C   UNL A   1      28.929  27.983  22.807  1.00  0.00     0.027 A 
ENDBRANCH  16  22
ENDBRANCH  14  15
ENDBRANCH   9  14
ENDBRANCH   6   8
ENDBRANCH   5   6
ENDBRANCH   4   5
ENDBRANCH   3   4
ENDBRANCH   2   3
ENDBRANCH   1   2
BRANCH   1  29
ATOM     29  C   UNL A   1      32.466  27.436  26.500  1.00  0.00     0.188 C 
BRANCH  29  30
ATOM     30  O   UNL A   1      32.904  28.561  27.266  1.00  0.00    -0.376 OA
BRANCH  30  31
ATOM     31  C   UNL A   1      32.181  29.771  27.150  1.00  0.00     0.202 C 
BRANCH  31  32
ATOM     32  C   UNL A   1      33.058  31.013  26.964  1.00  0.00     0.261 C 
BRANCH  32  33
ATOM     33  O   UNL A   1      33.598  31.401  28.242  1.00  0.00    -0.460 OA
BRANCH  33  34
ATOM     34  C   UNL A   1      34.011  32.689  28.333  1.00  0.00     0.338 C 
ATOM     35  O   UNL A   1      33.551  33.633  27.713  1.00  0.00    -0.246 OA
BRANCH  34  36
ATOM     36  C   UNL A   1      35.282  32.734  29.112  1.00  0.00     0.060 A 
ATOM     37  C   UNL A   1      36.439  33.192  28.490  1.00  0.00     0.016 A 
ATOM     38  C   UNL A   1      35.396  32.098  30.351  1.00  0.00     0.016 A 
ATOM     39  C   UNL A   1      37.692  32.854  29.031  1.00  0.00     0.010 A 
ATOM     40  C   UNL A   1      36.647  31.669  30.809  1.00  0.00     0.010 A 
ATOM     41  C   UNL A   1      37.817  31.922  30.077  1.00  0.00    -0.014 A 
BRANCH  41  42
ATOM     42  C   UNL A   1      39.071  31.195  30.541  1.00  0.00     0.031 A 
ATOM     43  C   UNL A   1      39.250  29.889  29.867  1.00  0.00     0.074 A 
ATOM     44  C   UNL A   1      40.091  31.535  31.425  1.00  0.00     0.049 A 
ATOM     45  N   UNL A   1      39.950  28.907  30.337  1.00  0.00    -0.248 NA
ATOM     46  C   UNL A   1      38.470  29.531  28.678  1.00  0.00     0.031 C 
ATOM     47  C   UNL A   1      41.513  31.283  31.164  1.00  0.00     0.029 A 
ATOM     48  N   UNL A   1      40.197  32.245  32.637  1.00  0.00    -0.354 N 
ATOM     49  C   UNL A   1      40.085  28.039  29.282  1.00  0.00     0.074 A 
ATOM     50  C   UNL A   1      38.933  28.302  28.460  1.00  0.00     0.031 C 
ATOM     51  C   UNL A   1      42.278  31.736  32.183  1.00  0.00     0.029 A 
ATOM     52  C   UNL A   1      41.436  32.224  33.269  1.00  0.00     0.049 A 
ATOM     53  H   UNL A   1      39.431  32.734  33.017  1.00  0.00     0.167 HD
ATOM     54  C   UNL A   1      41.311  27.495  29.029  1.00  0.00     0.037 A 
ATOM     55  C   UNL A   1      41.662  32.184  34.634  1.00  0.00     0.037 A 
ATOM     56  C   UNL A   1      42.258  27.769  30.127  1.00  0.00     0.049 A 
ATOM     57  C   UNL A   1      42.258  30.834  34.936  1.00  0.00     0.074 A 
ATOM     58  C   UNL A   1      43.366  28.600  30.212  1.00  0.00     0.029 A 
ATOM     59  N   UNL A   1      41.976  27.382  31.441  1.00  0.00    -0.354 N 
ATOM     60  N   UNL A   1      42.327  29.919  34.019  1.00  0.00    -0.248 NA
ATOM     61  C   UNL A   1      42.709  30.347  36.238  1.00  0.00     0.031 C 
ATOM     62  C   UNL A   1      43.761  28.692  31.564  1.00  0.00     0.029 A 
ATOM     63  C   UNL A   1      42.890  27.931  32.323  1.00  0.00     0.049 A 
ATOM     64  H   UNL A   1      41.229  26.797  31.703  1.00  0.00     0.167 HD
ATOM     65  C   UNL A   1      42.760  28.756  34.554  1.00  0.00     0.074 A 
ATOM     66  C   UNL A   1      42.978  29.059  35.955  1.00  0.00     0.031 C 
ATOM     67  C   UNL A   1      42.860  27.660  33.757  1.00  0.00     0.037 A 
BRANCH  54  68
ATOM     68  C   UNL A   1      41.757  27.112  27.612  1.00  0.00     0.057 A 
ATOM     69  C   UNL A   1      42.122  25.785  27.306  1.00  0.00     0.134 A 
ATOM     70  C   UNL A   1      41.937  27.996  26.529  1.00  0.00     0.134 A 
ATOM     71  F   UNL A   1      41.882  24.773  28.148  1.00  0.00    -0.206 F 
ATOM     72  C   UNL A   1      42.738  25.409  26.103  1.00  0.00     0.040 A 
ATOM     73  C   UNL A   1      42.583  27.645  25.332  1.00  0.00     0.040 A 
ATOM     74  F   UNL A   1      41.435  29.232  26.521  1.00  0.00    -0.206 F 
ATOM     75  C   UNL A   1      43.004  26.346  25.121  1.00  0.00     0.006 A 
ENDBRANCH  54  68
BRANCH  55  76
ATOM     76  C   UNL A   1      40.851  32.931  35.682  1.00  0.00     0.057 A 
ATOM     77  C   UNL A   1      41.279  34.189  36.140  1.00  0.00     0.134 A 
ATOM     78  C   UNL A   1      39.607  32.520  36.202  1.00  0.00     0.134 A 
ATOM     79  F   UNL A   1      42.519  34.617  35.852  1.00  0.00    -0.206 F 
ATOM     80  C   UNL A   1      40.452  35.067  36.868  1.00  0.00     0.040 A 
ATOM     81  C   UNL A   1      38.771  33.380  36.953  1.00  0.00     0.040 A 
ATOM     82  F   UNL A   1      39.094  31.320  35.892  1.00  0.00    -0.206 F 
ATOM     83  C   UNL A   1      39.174  34.677  37.246  1.00  0.00     0.006 A 
ENDBRANCH  55  76
BRANCH  67  84
ATOM     84  C   UNL A   1      43.122  26.293  34.278  1.00  0.00     0.057 A 
ATOM     85  C   UNL A   1      42.183  25.544  34.999  1.00  0.00     0.134 A 
ATOM     86  C   UNL A   1      44.333  25.649  33.974  1.00  0.00     0.134 A 
ATOM     87  F   UNL A   1      40.950  26.011  35.243  1.00  0.00    -0.206 F 
ATOM     88  C   UNL A   1      42.469  24.261  35.468  1.00  0.00     0.040 A 
ATOM     89  C   UNL A   1      44.611  24.351  34.394  1.00  0.00     0.040 A 
ATOM     90  F   UNL A   1      45.289  26.251  33.253  1.00  0.00    -0.206 F 
ATOM     91  C   UNL A   1      43.686  23.660  35.164  1.00  0.00     0.006 A 
ENDBRANCH  67  84
ENDBRANCH  41  42
ENDBRANCH  34  36
ENDBRANCH  33  34
ENDBRANCH  32  33
ENDBRANCH  31  32
ENDBRANCH  30  31
ENDBRANCH  29  30
ENDBRANCH   1  29
TORSDOF 20
ENDMDL
