MODEL 1
REMARK VINA RESULT:     -10.2      0.000      0.000
REMARK SMILES [NH3+][C@@H](CC1=C[C@H](S)c2ccccc2C1)C(=O)OCCOCCOCCOC(=O)c1ccc(-c2c3nc(c(-c4c(F)cccc4F)c4ccc([nH]4)c(-c4c(F)cccc4F)c4nc(c(-c5c(F)cccc5F)c5ccc2[nH]5)C=C4)C=C3)cc1
REMARK SMILES IDX 21 1 20 2 19 3 18 4 17 5 15 6 16 7 2 8 1 9 3 13 4 14 5 15
REMARK SMILES IDX 14 16 6 17 13 18 8 19 12 20 9 21 11 22 10 23 7 24 22 26
REMARK SMILES IDX 23 27 24 28 25 29 26 30 27 31 28 32 29 33 30 34 82 35 31 36
REMARK SMILES IDX 81 37 32 38 33 39 34 40 75 41 35 42 80 43 74 44 76 45 36 46
REMARK SMILES IDX 79 47 73 48 72 49 37 51 63 52 46 53 62 54 47 55 50 56 61 57
REMARK SMILES IDX 77 58 48 59 49 60 60 62 78 63 51 64 38 65 39 66 44 67 40 68
REMARK SMILES IDX 41 69 43 70 45 71 42 72 64 73 65 74 70 75 66 76 67 77 69 78
REMARK SMILES IDX 71 79 68 80 52 81 53 82 58 83 54 84 55 85 57 86 59 87 56 88
REMARK H PARENT 1 10 1 11 1 12 7 25 76 50 50 61
REMARK Flexibility Score: inf
ROOT
ATOM      1  C   UNL A   1      41.614  20.263  26.718  1.00  0.00     0.188 C 
ENDROOT
BRANCH   1   2
ATOM      2  O   UNL A   1      40.290  20.520  26.263  1.00  0.00    -0.376 OA
BRANCH   2   3
ATOM      3  C   UNL A   1      39.770  21.837  26.375  1.00  0.00     0.202 C 
BRANCH   3   4
ATOM      4  C   UNL A   1      38.386  22.172  25.790  1.00  0.00     0.261 C 
BRANCH   4   5
ATOM      5  O   UNL A   1      37.771  21.159  24.971  1.00  0.00    -0.459 OA
BRANCH   5   6
ATOM      6  C   UNL A   1      36.406  21.135  24.974  1.00  0.00     0.365 C 
ATOM      7  O   UNL A   1      35.726  20.113  24.994  1.00  0.00    -0.245 OA
BRANCH   6   8
ATOM      8  C   UNL A   1      35.766  22.533  24.878  1.00  0.00     0.295 C 
BRANCH   8   9
ATOM      9  N   UNL A   1      35.466  22.982  23.500  1.00  0.00    -0.346 N 
ATOM     10  H   UNL A   1      36.216  22.687  22.876  1.00  0.00     0.345 HD
ATOM     11  H   UNL A   1      35.390  23.999  23.484  1.00  0.00     0.345 HD
ATOM     12  H   UNL A   1      34.585  22.570  23.194  1.00  0.00     0.345 HD
ENDBRANCH   8   9
BRANCH   8  13
ATOM     13  C   UNL A   1      34.547  22.641  25.809  1.00  0.00     0.108 C 
BRANCH  13  14
ATOM     14  C   UNL A   1      33.671  23.871  25.647  1.00  0.00    -0.062 C 
ATOM     15  C   UNL A   1      32.349  23.738  25.425  1.00  0.00    -0.009 C 
ATOM     16  C   UNL A   1      34.310  25.233  25.768  1.00  0.00     0.066 C 
ATOM     17  C   UNL A   1      31.392  24.887  25.270  1.00  0.00     0.096 C 
ATOM     18  C   UNL A   1      33.352  26.397  25.871  1.00  0.00    -0.039 A 
ATOM     19  C   UNL A   1      31.975  26.240  25.631  1.00  0.00    -0.028 A 
ATOM     20  C   UNL A   1      33.867  27.672  26.158  1.00  0.00     0.004 A 
ATOM     21  C   UNL A   1      31.138  27.365  25.717  1.00  0.00     0.005 A 
ATOM     22  C   UNL A   1      33.024  28.780  26.224  1.00  0.00     0.000 A 
ATOM     23  C   UNL A   1      31.659  28.625  26.007  1.00  0.00     0.000 A 
BRANCH  17  24
ATOM     24  S   UNL A   1      30.810  24.869  23.537  1.00  0.00    -0.167 SA
ATOM     25  H   UNL A   1      30.250  26.071  23.234  1.00  0.00     0.103 HD
ENDBRANCH  17  24
ENDBRANCH  13  14
ENDBRANCH   8  13
ENDBRANCH   6   8
ENDBRANCH   5   6
ENDBRANCH   4   5
ENDBRANCH   3   4
ENDBRANCH   2   3
ENDBRANCH   1   2
BRANCH   1  26
ATOM     26  C   UNL A   1      42.562  19.410  25.854  1.00  0.00     0.188 C 
BRANCH  26  27
ATOM     27  O   UNL A   1      43.462  20.145  25.064  1.00  0.00    -0.376 OA
BRANCH  27  28
ATOM     28  C   UNL A   1      43.819  21.455  25.464  1.00  0.00     0.202 C 
BRANCH  28  29
ATOM     29  C   UNL A   1      44.288  22.544  24.476  1.00  0.00     0.261 C 
BRANCH  29  30
ATOM     30  O   UNL A   1      43.768  23.870  24.631  1.00  0.00    -0.460 OA
BRANCH  30  31
ATOM     31  C   UNL A   1      44.610  24.818  25.111  1.00  0.00     0.338 C 
ATOM     32  O   UNL A   1      45.685  25.153  24.641  1.00  0.00    -0.246 OA
BRANCH  31  33
ATOM     33  C   UNL A   1      43.893  25.554  26.177  1.00  0.00     0.060 A 
ATOM     34  C   UNL A   1      42.810  24.964  26.829  1.00  0.00     0.016 A 
ATOM     35  C   UNL A   1      44.280  26.865  26.496  1.00  0.00     0.016 A 
ATOM     36  C   UNL A   1      42.138  25.676  27.824  1.00  0.00     0.010 A 
ATOM     37  C   UNL A   1      43.599  27.579  27.490  1.00  0.00     0.010 A 
ATOM     38  C   UNL A   1      42.540  26.977  28.182  1.00  0.00    -0.014 A 
BRANCH  38  39
ATOM     39  C   UNL A   1      41.968  27.582  29.410  1.00  0.00     0.031 A 
ATOM     40  C   UNL A   1      42.622  27.472  30.753  1.00  0.00     0.074 A 
ATOM     41  C   UNL A   1      40.842  28.309  29.274  1.00  0.00     0.049 A 
ATOM     42  N   UNL A   1      42.356  28.137  31.850  1.00  0.00    -0.248 NA
ATOM     43  C   UNL A   1      43.698  26.483  30.890  1.00  0.00     0.031 C 
ATOM     44  C   UNL A   1      40.077  28.438  28.032  1.00  0.00     0.029 A 
ATOM     45  N   UNL A   1      40.166  29.098  30.167  1.00  0.00    -0.354 N 
ATOM     46  C   UNL A   1      43.261  27.684  32.800  1.00  0.00     0.074 A 
ATOM     47  C   UNL A   1      44.034  26.632  32.167  1.00  0.00     0.031 C 
ATOM     48  C   UNL A   1      39.070  29.303  28.226  1.00  0.00     0.029 A 
ATOM     49  C   UNL A   1      39.109  29.771  29.608  1.00  0.00     0.049 A 
ATOM     50  H   UNL A   1      40.416  29.175  31.117  1.00  0.00     0.167 HD
ATOM     51  C   UNL A   1      43.445  28.124  34.070  1.00  0.00     0.037 A 
ATOM     52  C   UNL A   1      38.275  30.683  30.138  1.00  0.00     0.037 A 
ATOM     53  C   UNL A   1      42.642  29.141  34.709  1.00  0.00     0.049 A 
ATOM     54  C   UNL A   1      38.479  31.126  31.559  1.00  0.00     0.074 A 
ATOM     55  C   UNL A   1      42.770  29.673  35.982  1.00  0.00     0.029 A 
ATOM     56  N   UNL A   1      41.546  29.766  34.130  1.00  0.00    -0.354 N 
ATOM     57  N   UNL A   1      39.410  30.774  32.412  1.00  0.00    -0.248 NA
ATOM     58  C   UNL A   1      37.522  32.108  32.084  1.00  0.00     0.031 C 
ATOM     59  C   UNL A   1      41.721  30.578  36.190  1.00  0.00     0.029 A 
ATOM     60  C   UNL A   1      40.971  30.653  35.029  1.00  0.00     0.049 A 
ATOM     61  H   UNL A   1      41.223  29.603  33.214  1.00  0.00     0.167 HD
ATOM     62  C   UNL A   1      39.160  31.501  33.568  1.00  0.00     0.074 A 
ATOM     63  C   UNL A   1      38.013  32.342  33.291  1.00  0.00     0.031 C 
ATOM     64  C   UNL A   1      39.816  31.471  34.755  1.00  0.00     0.037 A 
BRANCH  51  65
ATOM     65  C   UNL A   1      44.573  27.513  34.855  1.00  0.00     0.057 A 
ATOM     66  C   UNL A   1      45.877  28.017  34.768  1.00  0.00     0.134 A 
ATOM     67  C   UNL A   1      44.371  26.389  35.668  1.00  0.00     0.134 A 
ATOM     68  F   UNL A   1      46.148  29.080  33.997  1.00  0.00    -0.206 F 
ATOM     69  C   UNL A   1      46.935  27.430  35.467  1.00  0.00     0.040 A 
ATOM     70  C   UNL A   1      45.416  25.810  36.393  1.00  0.00     0.040 A 
ATOM     71  F   UNL A   1      43.148  25.851  35.793  1.00  0.00    -0.206 F 
ATOM     72  C   UNL A   1      46.703  26.330  36.289  1.00  0.00     0.006 A 
ENDBRANCH  51  65
BRANCH  52  73
ATOM     73  C   UNL A   1      37.180  31.257  29.317  1.00  0.00     0.057 A 
ATOM     74  C   UNL A   1      36.008  30.535  29.066  1.00  0.00     0.134 A 
ATOM     75  C   UNL A   1      37.266  32.553  28.793  1.00  0.00     0.134 A 
ATOM     76  F   UNL A   1      35.870  29.286  29.531  1.00  0.00    -0.206 F 
ATOM     77  C   UNL A   1      34.958  31.081  28.329  1.00  0.00     0.040 A 
ATOM     78  C   UNL A   1      36.211  33.122  28.080  1.00  0.00     0.040 A 
ATOM     79  F   UNL A   1      38.360  33.299  29.011  1.00  0.00    -0.206 F 
ATOM     80  C   UNL A   1      35.053  32.384  27.844  1.00  0.00     0.006 A 
ENDBRANCH  52  73
BRANCH  64  81
ATOM     81  C   UNL A   1      39.299  32.381  35.835  1.00  0.00     0.057 A 
ATOM     82  C   UNL A   1      38.345  31.933  36.757  1.00  0.00     0.134 A 
ATOM     83  C   UNL A   1      39.760  33.698  35.975  1.00  0.00     0.134 A 
ATOM     84  F   UNL A   1      37.854  30.687  36.681  1.00  0.00    -0.206 F 
ATOM     85  C   UNL A   1      37.875  32.757  37.782  1.00  0.00     0.040 A 
ATOM     86  C   UNL A   1      39.321  34.521  37.015  1.00  0.00     0.040 A 
ATOM     87  F   UNL A   1      40.687  34.187  35.136  1.00  0.00    -0.206 F 
ATOM     88  C   UNL A   1      38.373  34.051  37.920  1.00  0.00     0.006 A 
ENDBRANCH  64  81
ENDBRANCH  38  39
ENDBRANCH  31  33
ENDBRANCH  30  31
ENDBRANCH  29  30
ENDBRANCH  28  29
ENDBRANCH  27  28
ENDBRANCH  26  27
ENDBRANCH   1  26
TORSDOF 21
ENDMDL
MODEL 2
REMARK VINA RESULT:     -10.0      4.576      8.471
REMARK SMILES [NH3+][C@@H](CC1=C[C@H](S)c2ccccc2C1)C(=O)OCCOCCOCCOC(=O)c1ccc(-c2c3nc(c(-c4c(F)cccc4F)c4ccc([nH]4)c(-c4c(F)cccc4F)c4nc(c(-c5c(F)cccc5F)c5ccc2[nH]5)C=C4)C=C3)cc1
REMARK SMILES IDX 21 1 20 2 19 3 18 4 17 5 15 6 16 7 2 8 1 9 3 13 4 14 5 15
REMARK SMILES IDX 14 16 6 17 13 18 8 19 12 20 9 21 11 22 10 23 7 24 22 26
REMARK SMILES IDX 23 27 24 28 25 29 26 30 27 31 28 32 29 33 30 34 82 35 31 36
REMARK SMILES IDX 81 37 32 38 33 39 34 40 75 41 35 42 80 43 74 44 76 45 36 46
REMARK SMILES IDX 79 47 73 48 72 49 37 51 63 52 46 53 62 54 47 55 50 56 61 57
REMARK SMILES IDX 77 58 48 59 49 60 60 62 78 63 51 64 38 65 39 66 44 67 40 68
REMARK SMILES IDX 41 69 43 70 45 71 42 72 64 73 65 74 70 75 66 76 67 77 69 78
REMARK SMILES IDX 71 79 68 80 52 81 53 82 58 83 54 84 55 85 57 86 59 87 56 88
REMARK H PARENT 1 10 1 11 1 12 7 25 76 50 50 61
REMARK Flexibility Score: inf
ROOT
ATOM      1  C   UNL A   1      39.838  22.017  26.507  1.00  0.00     0.188 C 
ENDROOT
BRANCH   1   2
ATOM      2  O   UNL A   1      38.790  21.826  25.562  1.00  0.00    -0.376 OA
BRANCH   2   3
ATOM      3  C   UNL A   1      37.596  22.582  25.701  1.00  0.00     0.202 C 
BRANCH   3   4
ATOM      4  C   UNL A   1      37.014  23.333  24.490  1.00  0.00     0.261 C 
BRANCH   4   5
ATOM      5  O   UNL A   1      36.083  22.604  23.667  1.00  0.00    -0.459 OA
BRANCH   5   6
ATOM      6  C   UNL A   1      34.857  23.181  23.497  1.00  0.00     0.365 C 
ATOM      7  O   UNL A   1      34.631  24.133  22.755  1.00  0.00    -0.245 OA
BRANCH   6   8
ATOM      8  C   UNL A   1      33.760  22.570  24.389  1.00  0.00     0.295 C 
BRANCH   8   9
ATOM      9  N   UNL A   1      33.761  21.092  24.446  1.00  0.00    -0.346 N 
ATOM     10  H   UNL A   1      33.356  20.786  25.330  1.00  0.00     0.345 HD
ATOM     11  H   UNL A   1      34.719  20.750  24.373  1.00  0.00     0.345 HD
ATOM     12  H   UNL A   1      33.208  20.723  23.672  1.00  0.00     0.345 HD
ENDBRANCH   8   9
BRANCH   8  13
ATOM     13  C   UNL A   1      33.774  23.211  25.786  1.00  0.00     0.108 C 
BRANCH  13  14
ATOM     14  C   UNL A   1      33.153  24.591  25.912  1.00  0.00    -0.062 C 
ATOM     15  C   UNL A   1      31.823  24.725  26.076  1.00  0.00    -0.009 C 
ATOM     16  C   UNL A   1      34.062  25.796  25.876  1.00  0.00     0.066 C 
ATOM     17  C   UNL A   1      31.112  26.041  26.228  1.00  0.00     0.096 C 
ATOM     18  C   UNL A   1      33.424  27.107  26.277  1.00  0.00    -0.039 A 
ATOM     19  C   UNL A   1      32.032  27.228  26.438  1.00  0.00    -0.028 A 
ATOM     20  C   UNL A   1      34.244  28.237  26.433  1.00  0.00     0.004 A 
ATOM     21  C   UNL A   1      31.495  28.479  26.787  1.00  0.00     0.005 A 
ATOM     22  C   UNL A   1      33.693  29.473  26.763  1.00  0.00     0.000 A 
ATOM     23  C   UNL A   1      32.319  29.593  26.944  1.00  0.00     0.000 A 
BRANCH  17  24
ATOM     24  S   UNL A   1      30.082  26.269  24.735  1.00  0.00    -0.167 SA
ATOM     25  H   UNL A   1      30.315  27.501  24.207  1.00  0.00     0.103 HD
ENDBRANCH  17  24
ENDBRANCH  13  14
ENDBRANCH   8  13
ENDBRANCH   6   8
ENDBRANCH   5   6
ENDBRANCH   4   5
ENDBRANCH   3   4
ENDBRANCH   2   3
ENDBRANCH   1   2
BRANCH   1  26
ATOM     26  C   UNL A   1      41.291  21.702  26.105  1.00  0.00     0.188 C 
BRANCH  26  27
ATOM     27  O   UNL A   1      41.857  20.593  26.757  1.00  0.00    -0.376 OA
BRANCH  27  28
ATOM     28  C   UNL A   1      41.839  19.333  26.113  1.00  0.00     0.202 C 
BRANCH  28  29
ATOM     29  C   UNL A   1      43.116  18.601  25.647  1.00  0.00     0.261 C 
BRANCH  29  30
ATOM     30  O   UNL A   1      43.679  18.961  24.380  1.00  0.00    -0.460 OA
BRANCH  30  31
ATOM     31  C   UNL A   1      44.949  19.436  24.375  1.00  0.00     0.338 C 
ATOM     32  O   UNL A   1      45.944  18.873  23.949  1.00  0.00    -0.246 OA
BRANCH  31  33
ATOM     33  C   UNL A   1      44.892  20.865  24.760  1.00  0.00     0.060 A 
ATOM     34  C   UNL A   1      45.279  21.261  26.041  1.00  0.00     0.016 A 
ATOM     35  C   UNL A   1      44.405  21.811  23.845  1.00  0.00     0.016 A 
ATOM     36  C   UNL A   1      45.208  22.611  26.391  1.00  0.00     0.010 A 
ATOM     37  C   UNL A   1      44.329  23.163  24.202  1.00  0.00     0.010 A 
ATOM     38  C   UNL A   1      44.758  23.576  25.470  1.00  0.00    -0.014 A 
BRANCH  38  39
ATOM     39  C   UNL A   1      44.950  25.011  25.799  1.00  0.00     0.031 A 
ATOM     40  C   UNL A   1      43.862  25.868  26.370  1.00  0.00     0.074 A 
ATOM     41  C   UNL A   1      46.182  25.526  25.622  1.00  0.00     0.049 A 
ATOM     42  N   UNL A   1      43.957  27.058  26.911  1.00  0.00    -0.248 NA
ATOM     43  C   UNL A   1      42.496  25.334  26.316  1.00  0.00     0.031 C 
ATOM     44  C   UNL A   1      47.307  24.810  25.015  1.00  0.00     0.029 A 
ATOM     45  N   UNL A   1      46.706  26.744  25.964  1.00  0.00    -0.354 N 
ATOM     46  C   UNL A   1      42.672  27.401  27.307  1.00  0.00     0.074 A 
ATOM     47  C   UNL A   1      41.804  26.321  26.874  1.00  0.00     0.031 C 
ATOM     48  C   UNL A   1      48.402  25.582  25.078  1.00  0.00     0.029 A 
ATOM     49  C   UNL A   1      48.052  26.849  25.712  1.00  0.00     0.049 A 
ATOM     50  H   UNL A   1      46.170  27.473  26.354  1.00  0.00     0.167 HD
ATOM     51  C   UNL A   1      42.262  28.499  27.990  1.00  0.00     0.037 A 
ATOM     52  C   UNL A   1      48.916  27.843  25.982  1.00  0.00     0.037 A 
ATOM     53  C   UNL A   1      43.125  29.591  28.378  1.00  0.00     0.049 A 
ATOM     54  C   UNL A   1      48.428  29.063  26.708  1.00  0.00     0.074 A 
ATOM     55  C   UNL A   1      42.807  30.733  29.097  1.00  0.00     0.029 A 
ATOM     56  N   UNL A   1      44.473  29.688  28.062  1.00  0.00    -0.354 N 
ATOM     57  N   UNL A   1      47.233  29.326  27.179  1.00  0.00    -0.248 NA
ATOM     58  C   UNL A   1      49.417  30.121  26.953  1.00  0.00     0.031 C 
ATOM     59  C   UNL A   1      43.948  31.542  29.167  1.00  0.00     0.029 A 
ATOM     60  C   UNL A   1      44.992  30.882  28.542  1.00  0.00     0.049 A 
ATOM     61  H   UNL A   1      44.986  29.008  27.568  1.00  0.00     0.167 HD
ATOM     62  C   UNL A   1      47.330  30.570  27.787  1.00  0.00     0.074 A 
ATOM     63  C   UNL A   1      48.710  30.990  27.659  1.00  0.00     0.031 C 
ATOM     64  C   UNL A   1      46.363  31.303  28.392  1.00  0.00     0.037 A 
BRANCH  51  65
ATOM     65  C   UNL A   1      40.810  28.569  28.374  1.00  0.00     0.057 A 
ATOM     66  C   UNL A   1      39.839  29.022  27.472  1.00  0.00     0.134 A 
ATOM     67  C   UNL A   1      40.378  28.225  29.663  1.00  0.00     0.134 A 
ATOM     68  F   UNL A   1      40.181  29.385  26.226  1.00  0.00    -0.206 F 
ATOM     69  C   UNL A   1      38.494  29.124  27.835  1.00  0.00     0.040 A 
ATOM     70  C   UNL A   1      39.033  28.297  30.030  1.00  0.00     0.040 A 
ATOM     71  F   UNL A   1      41.255  27.788  30.579  1.00  0.00    -0.206 F 
ATOM     72  C   UNL A   1      38.087  28.751  29.114  1.00  0.00     0.006 A 
ENDBRANCH  51  65
BRANCH  52  73
ATOM     73  C   UNL A   1      50.340  27.719  25.584  1.00  0.00     0.057 A 
ATOM     74  C   UNL A   1      50.743  27.927  24.260  1.00  0.00     0.134 A 
ATOM     75  C   UNL A   1      51.335  27.423  26.523  1.00  0.00     0.134 A 
ATOM     76  F   UNL A   1      49.836  28.203  23.312  1.00  0.00    -0.206 F 
ATOM     77  C   UNL A   1      52.083  27.852  23.884  1.00  0.00     0.040 A 
ATOM     78  C   UNL A   1      52.683  27.375  26.167  1.00  0.00     0.040 A 
ATOM     79  F   UNL A   1      51.013  27.226  27.810  1.00  0.00    -0.206 F 
ATOM     80  C   UNL A   1      53.060  27.588  24.842  1.00  0.00     0.006 A 
ENDBRANCH  52  73
BRANCH  64  81
ATOM     81  C   UNL A   1      46.778  32.633  28.960  1.00  0.00     0.057 A 
ATOM     82  C   UNL A   1      46.691  33.801  28.192  1.00  0.00     0.134 A 
ATOM     83  C   UNL A   1      47.248  32.761  30.274  1.00  0.00     0.134 A 
ATOM     84  F   UNL A   1      46.254  33.754  26.925  1.00  0.00    -0.206 F 
ATOM     85  C   UNL A   1      47.046  35.047  28.713  1.00  0.00     0.040 A 
ATOM     86  C   UNL A   1      47.578  34.005  30.816  1.00  0.00     0.040 A 
ATOM     87  F   UNL A   1      47.342  31.685  31.071  1.00  0.00    -0.206 F 
ATOM     88  C   UNL A   1      47.479  35.153  30.033  1.00  0.00     0.006 A 
ENDBRANCH  64  81
ENDBRANCH  38  39
ENDBRANCH  31  33
ENDBRANCH  30  31
ENDBRANCH  29  30
ENDBRANCH  28  29
ENDBRANCH  27  28
ENDBRANCH  26  27
ENDBRANCH   1  26
TORSDOF 21
ENDMDL
MODEL 3
REMARK VINA RESULT:     -10.0      1.957      6.743
REMARK SMILES [NH3+][C@@H](CC1=C[C@H](S)c2ccccc2C1)C(=O)OCCOCCOCCOC(=O)c1ccc(-c2c3nc(c(-c4c(F)cccc4F)c4ccc([nH]4)c(-c4c(F)cccc4F)c4nc(c(-c5c(F)cccc5F)c5ccc2[nH]5)C=C4)C=C3)cc1
REMARK SMILES IDX 21 1 20 2 19 3 18 4 17 5 15 6 16 7 2 8 1 9 3 13 4 14 5 15
REMARK SMILES IDX 14 16 6 17 13 18 8 19 12 20 9 21 11 22 10 23 7 24 22 26
REMARK SMILES IDX 23 27 24 28 25 29 26 30 27 31 28 32 29 33 30 34 82 35 31 36
REMARK SMILES IDX 81 37 32 38 33 39 34 40 75 41 35 42 80 43 74 44 76 45 36 46
REMARK SMILES IDX 79 47 73 48 72 49 37 51 63 52 46 53 62 54 47 55 50 56 61 57
REMARK SMILES IDX 77 58 48 59 49 60 60 62 78 63 51 64 38 65 39 66 44 67 40 68
REMARK SMILES IDX 41 69 43 70 45 71 42 72 64 73 65 74 70 75 66 76 67 77 69 78
REMARK SMILES IDX 71 79 68 80 52 81 53 82 58 83 54 84 55 85 57 86 59 87 56 88
REMARK H PARENT 1 10 1 11 1 12 7 25 76 50 50 61
REMARK Flexibility Score: inf
ROOT
ATOM      1  C   UNL A   1      37.787  23.372  26.094  1.00  0.00     0.188 C 
ENDROOT
BRANCH   1   2
ATOM      2  O   UNL A   1      36.472  23.449  25.555  1.00  0.00    -0.376 OA
BRANCH   2   3
ATOM      3  C   UNL A   1      35.521  22.461  25.924  1.00  0.00     0.202 C 
BRANCH   3   4
ATOM      4  C   UNL A   1      34.142  22.881  26.462  1.00  0.00     0.261 C 
BRANCH   4   5
ATOM      5  O   UNL A   1      33.150  23.241  25.481  1.00  0.00    -0.459 OA
BRANCH   5   6
ATOM      6  C   UNL A   1      32.454  24.390  25.729  1.00  0.00     0.365 C 
ATOM      7  O   UNL A   1      32.954  25.436  26.130  1.00  0.00    -0.245 OA
BRANCH   6   8
ATOM      8  C   UNL A   1      30.934  24.244  25.524  1.00  0.00     0.295 C 
BRANCH   8   9
ATOM      9  N   UNL A   1      30.105  25.009  26.482  1.00  0.00    -0.346 N 
ATOM     10  H   UNL A   1      29.327  24.430  26.796  1.00  0.00     0.345 HD
ATOM     11  H   UNL A   1      29.743  25.846  26.025  1.00  0.00     0.345 HD
ATOM     12  H   UNL A   1      30.675  25.278  27.284  1.00  0.00     0.345 HD
ENDBRANCH   8   9
BRANCH   8  13
ATOM     13  C   UNL A   1      30.550  24.524  24.062  1.00  0.00     0.108 C 
BRANCH  13  14
ATOM     14  C   UNL A   1      30.456  25.982  23.647  1.00  0.00    -0.062 C 
ATOM     15  C   UNL A   1      31.522  26.605  23.111  1.00  0.00    -0.009 C 
ATOM     16  C   UNL A   1      29.139  26.699  23.827  1.00  0.00     0.066 C 
ATOM     17  C   UNL A   1      31.529  28.037  22.651  1.00  0.00     0.096 C 
ATOM     18  C   UNL A   1      29.032  28.046  23.150  1.00  0.00    -0.039 A 
ATOM     19  C   UNL A   1      30.158  28.684  22.599  1.00  0.00    -0.028 A 
ATOM     20  C   UNL A   1      27.785  28.693  23.127  1.00  0.00     0.004 A 
ATOM     21  C   UNL A   1      30.000  29.948  22.006  1.00  0.00     0.005 A 
ATOM     22  C   UNL A   1      27.650  29.953  22.549  1.00  0.00     0.000 A 
ATOM     23  C   UNL A   1      28.757  30.578  21.984  1.00  0.00     0.000 A 
BRANCH  17  24
ATOM     24  S   UNL A   1      32.642  28.955  23.774  1.00  0.00    -0.167 SA
ATOM     25  H   UNL A   1      31.902  29.727  24.615  1.00  0.00     0.103 HD
ENDBRANCH  17  24
ENDBRANCH  13  14
ENDBRANCH   8  13
ENDBRANCH   6   8
ENDBRANCH   5   6
ENDBRANCH   4   5
ENDBRANCH   3   4
ENDBRANCH   2   3
ENDBRANCH   1   2
BRANCH   1  26
ATOM     26  C   UNL A   1      38.561  22.043  26.023  1.00  0.00     0.188 C 
BRANCH  26  27
ATOM     27  O   UNL A   1      39.934  22.172  25.747  1.00  0.00    -0.376 OA
BRANCH  27  28
ATOM     28  C   UNL A   1      40.838  21.239  26.307  1.00  0.00     0.202 C 
BRANCH  28  29
ATOM     29  C   UNL A   1      42.359  21.272  26.044  1.00  0.00     0.261 C 
BRANCH  29  30
ATOM     30  O   UNL A   1      43.128  22.322  26.641  1.00  0.00    -0.460 OA
BRANCH  30  31
ATOM     31  C   UNL A   1      43.258  23.476  25.940  1.00  0.00     0.338 C 
ATOM     32  O   UNL A   1      43.533  23.591  24.757  1.00  0.00    -0.246 OA
BRANCH  31  33
ATOM     33  C   UNL A   1      42.770  24.578  26.801  1.00  0.00     0.060 A 
ATOM     34  C   UNL A   1      41.786  24.336  27.759  1.00  0.00     0.016 A 
ATOM     35  C   UNL A   1      43.273  25.876  26.617  1.00  0.00     0.016 A 
ATOM     36  C   UNL A   1      41.329  25.389  28.554  1.00  0.00     0.010 A 
ATOM     37  C   UNL A   1      42.808  26.931  27.411  1.00  0.00     0.010 A 
ATOM     38  C   UNL A   1      41.852  26.688  28.407  1.00  0.00    -0.014 A 
BRANCH  38  39
ATOM     39  C   UNL A   1      41.529  27.703  29.441  1.00  0.00     0.031 A 
ATOM     40  C   UNL A   1      40.387  28.663  29.311  1.00  0.00     0.074 A 
ATOM     41  C   UNL A   1      42.274  27.699  30.563  1.00  0.00     0.049 A 
ATOM     42  N   UNL A   1      39.859  29.435  30.230  1.00  0.00    -0.248 NA
ATOM     43  C   UNL A   1      39.769  28.787  27.986  1.00  0.00     0.031 C 
ATOM     44  C   UNL A   1      43.452  26.855  30.781  1.00  0.00     0.029 A 
ATOM     45  N   UNL A   1      42.137  28.391  31.737  1.00  0.00    -0.354 N 
ATOM     46  C   UNL A   1      38.813  30.105  29.609  1.00  0.00     0.074 A 
ATOM     47  C   UNL A   1      38.832  29.701  28.215  1.00  0.00     0.031 C 
ATOM     48  C   UNL A   1      43.896  27.039  32.033  1.00  0.00     0.029 A 
ATOM     49  C   UNL A   1      43.047  28.023  32.696  1.00  0.00     0.049 A 
ATOM     50  H   UNL A   1      41.452  29.084  31.879  1.00  0.00     0.167 HD
ATOM     51  C   UNL A   1      37.909  30.954  30.159  1.00  0.00     0.037 A 
ATOM     52  C   UNL A   1      43.173  28.414  33.977  1.00  0.00     0.037 A 
ATOM     53  C   UNL A   1      37.924  31.386  31.537  1.00  0.00     0.049 A 
ATOM     54  C   UNL A   1      42.179  29.383  34.549  1.00  0.00     0.074 A 
ATOM     55  C   UNL A   1      37.034  32.222  32.193  1.00  0.00     0.029 A 
ATOM     56  N   UNL A   1      38.891  31.033  32.469  1.00  0.00    -0.354 N 
ATOM     57  N   UNL A   1      41.126  29.922  33.985  1.00  0.00    -0.248 NA
ATOM     58  C   UNL A   1      42.385  29.786  35.947  1.00  0.00     0.031 C 
ATOM     59  C   UNL A   1      37.492  32.415  33.502  1.00  0.00     0.029 A 
ATOM     60  C   UNL A   1      38.637  31.658  33.682  1.00  0.00     0.049 A 
ATOM     61  H   UNL A   1      39.647  30.427  32.294  1.00  0.00     0.167 HD
ATOM     62  C   UNL A   1      40.537  30.715  34.961  1.00  0.00     0.074 A 
ATOM     63  C   UNL A   1      41.328  30.554  36.163  1.00  0.00     0.031 C 
ATOM     64  C   UNL A   1      39.442  31.510  34.869  1.00  0.00     0.037 A 
BRANCH  51  65
ATOM     65  C   UNL A   1      36.814  31.466  29.265  1.00  0.00     0.057 A 
ATOM     66  C   UNL A   1      36.841  32.769  28.753  1.00  0.00     0.134 A 
ATOM     67  C   UNL A   1      35.702  30.673  28.945  1.00  0.00     0.134 A 
ATOM     68  F   UNL A   1      37.864  33.590  29.031  1.00  0.00    -0.206 F 
ATOM     69  C   UNL A   1      35.808  33.261  27.952  1.00  0.00     0.040 A 
ATOM     70  C   UNL A   1      34.676  31.145  28.124  1.00  0.00     0.040 A 
ATOM     71  F   UNL A   1      35.609  29.416  29.406  1.00  0.00    -0.206 F 
ATOM     72  C   UNL A   1      34.726  32.445  27.628  1.00  0.00     0.006 A 
ENDBRANCH  51  65
BRANCH  52  73
ATOM     73  C   UNL A   1      44.272  27.873  34.816  1.00  0.00     0.057 A 
ATOM     74  C   UNL A   1      44.080  26.741  35.615  1.00  0.00     0.134 A 
ATOM     75  C   UNL A   1      45.545  28.454  34.811  1.00  0.00     0.134 A 
ATOM     76  F   UNL A   1      42.881  26.146  35.672  1.00  0.00    -0.206 F 
ATOM     77  C   UNL A   1      45.117  26.202  36.377  1.00  0.00     0.040 A 
ATOM     78  C   UNL A   1      46.599  27.907  35.544  1.00  0.00     0.040 A 
ATOM     79  F   UNL A   1      45.793  29.533  34.054  1.00  0.00    -0.206 F 
ATOM     80  C   UNL A   1      46.385  26.778  36.332  1.00  0.00     0.006 A 
ENDBRANCH  52  73
BRANCH  64  81
ATOM     81  C   UNL A   1      39.045  32.260  36.111  1.00  0.00     0.057 A 
ATOM     82  C   UNL A   1      39.546  33.543  36.366  1.00  0.00     0.134 A 
ATOM     83  C   UNL A   1      38.153  31.720  37.047  1.00  0.00     0.134 A 
ATOM     84  F   UNL A   1      40.408  34.121  35.517  1.00  0.00    -0.206 F 
ATOM     85  C   UNL A   1      39.167  34.263  37.500  1.00  0.00     0.040 A 
ATOM     86  C   UNL A   1      37.742  32.443  38.169  1.00  0.00     0.040 A 
ATOM     87  F   UNL A   1      37.622  30.502  36.857  1.00  0.00    -0.206 F 
ATOM     88  C   UNL A   1      38.253  33.719  38.399  1.00  0.00     0.006 A 
ENDBRANCH  64  81
ENDBRANCH  38  39
ENDBRANCH  31  33
ENDBRANCH  30  31
ENDBRANCH  29  30
ENDBRANCH  28  29
ENDBRANCH  27  28
ENDBRANCH  26  27
ENDBRANCH   1  26
TORSDOF 21
ENDMDL
