MODEL 1
REMARK VINA RESULT:     -10.8      0.000      0.000
REMARK SMILES O=C(OCCOCCOCCOC(=O)[C@H]1C=C[C@H](NS(=O)(=O)c2ccc(F)c(F)c2F)C1)c1ccc(-c2c3nc(c(-c4c(F)cccc4F)c4ccc([nH]4)c(-c4c(F)cccc4F)c4nc(c(-c5c(F)cccc5F)c5ccc2[nH]5)C=C4)C=C3)cc1
REMARK SMILES IDX 8 1 7 2 6 3 5 4 4 5 3 6 2 7 1 8 33 9 34 10 86 11 35 12 85 13
REMARK SMILES IDX 36 14 37 15 38 16 79 17 39 18 84 19 78 20 80 21 40 22 83 23
REMARK SMILES IDX 77 24 76 25 41 27 67 28 50 29 66 30 51 31 54 32 65 33 81 34
REMARK SMILES IDX 52 35 53 36 64 38 82 39 55 40 42 41 43 42 48 43 44 44 45 45
REMARK SMILES IDX 47 46 49 47 46 48 68 49 69 50 74 51 70 52 71 53 73 54 75 55
REMARK SMILES IDX 72 56 56 57 57 58 62 59 58 60 59 61 61 62 63 63 60 64 9 65
REMARK SMILES IDX 10 66 11 67 12 68 13 69 14 70 15 71 16 72 32 73 17 74 18 75
REMARK SMILES IDX 19 76 20 78 21 79 22 80 23 81 24 82 30 83 25 84 28 85 31 86
REMARK SMILES IDX 26 87 29 88 27 89
REMARK H PARENT 80 26 54 37 19 77
REMARK Flexibility Score: inf
ROOT
ATOM      1  C   UNL A   1      42.342  19.456  26.757  1.00  0.00     0.188 C 
ENDROOT
BRANCH   1   2
ATOM      2  C   UNL A   1      43.060  19.406  25.406  1.00  0.00     0.188 C 
BRANCH   2   3
ATOM      3  O   UNL A   1      44.486  19.359  25.548  1.00  0.00    -0.376 OA
BRANCH   3   4
ATOM      4  C   UNL A   1      45.154  20.503  24.999  1.00  0.00     0.202 C 
BRANCH   4   5
ATOM      5  C   UNL A   1      44.243  21.707  24.711  1.00  0.00     0.261 C 
BRANCH   5   6
ATOM      6  O   UNL A   1      44.316  22.721  25.726  1.00  0.00    -0.460 OA
BRANCH   6   7
ATOM      7  C   UNL A   1      44.311  24.069  25.576  1.00  0.00     0.338 C 
ATOM      8  O   UNL A   1      44.902  24.545  24.606  1.00  0.00    -0.246 OA
BRANCH   7   9
ATOM      9  C   UNL A   1      43.642  25.028  26.513  1.00  0.00     0.060 A 
ATOM     10  C   UNL A   1      43.962  26.377  26.662  1.00  0.00     0.016 A 
ATOM     11  C   UNL A   1      42.568  24.528  27.275  1.00  0.00     0.016 A 
ATOM     12  C   UNL A   1      43.320  27.184  27.591  1.00  0.00     0.010 A 
ATOM     13  C   UNL A   1      41.884  25.342  28.186  1.00  0.00     0.010 A 
ATOM     14  C   UNL A   1      42.293  26.665  28.371  1.00  0.00    -0.014 A 
BRANCH  14  15
ATOM     15  C   UNL A   1      41.791  27.495  29.479  1.00  0.00     0.031 A 
ATOM     16  C   UNL A   1      42.531  27.453  30.778  1.00  0.00     0.074 A 
ATOM     17  C   UNL A   1      40.790  28.367  29.268  1.00  0.00     0.049 A 
ATOM     18  N   UNL A   1      42.297  28.101  31.886  1.00  0.00    -0.248 NA
ATOM     19  C   UNL A   1      43.719  26.582  30.827  1.00  0.00     0.031 C 
ATOM     20  C   UNL A   1      40.114  28.572  27.987  1.00  0.00     0.029 A 
ATOM     21  N   UNL A   1      40.177  29.253  30.109  1.00  0.00    -0.354 N 
ATOM     22  C   UNL A   1      43.299  27.712  32.763  1.00  0.00     0.074 A 
ATOM     23  C   UNL A   1      44.134  26.758  32.070  1.00  0.00     0.031 C 
ATOM     24  C   UNL A   1      39.157  29.501  28.132  1.00  0.00     0.029 A 
ATOM     25  C   UNL A   1      39.136  29.932  29.525  1.00  0.00     0.049 A 
ATOM     26  H   UNL A   1      40.457  29.391  31.044  1.00  0.00     0.167 HD
ATOM     27  C   UNL A   1      43.498  28.123  34.036  1.00  0.00     0.037 A 
ATOM     28  C   UNL A   1      38.250  30.783  30.070  1.00  0.00     0.037 A 
ATOM     29  C   UNL A   1      42.635  29.060  34.702  1.00  0.00     0.049 A 
ATOM     30  C   UNL A   1      38.415  31.130  31.522  1.00  0.00     0.074 A 
ATOM     31  C   UNL A   1      42.693  29.518  36.004  1.00  0.00     0.029 A 
ATOM     32  N   UNL A   1      41.540  29.674  34.105  1.00  0.00    -0.354 N 
ATOM     33  N   UNL A   1      39.348  30.738  32.360  1.00  0.00    -0.248 NA
ATOM     34  C   UNL A   1      37.419  32.034  32.107  1.00  0.00     0.031 C 
ATOM     35  C   UNL A   1      41.600  30.368  36.210  1.00  0.00     0.029 A 
ATOM     36  C   UNL A   1      40.895  30.485  35.019  1.00  0.00     0.049 A 
ATOM     37  H   UNL A   1      41.264  29.548  33.168  1.00  0.00     0.167 HD
ATOM     38  C   UNL A   1      39.065  31.362  33.566  1.00  0.00     0.074 A 
ATOM     39  C   UNL A   1      37.883  32.173  33.342  1.00  0.00     0.031 C 
ATOM     40  C   UNL A   1      39.719  31.277  34.750  1.00  0.00     0.037 A 
BRANCH  27  41
ATOM     41  C   UNL A   1      44.637  27.492  34.780  1.00  0.00     0.057 A 
ATOM     42  C   UNL A   1      44.488  26.308  35.515  1.00  0.00     0.134 A 
ATOM     43  C   UNL A   1      45.891  28.115  34.809  1.00  0.00     0.134 A 
ATOM     44  F   UNL A   1      43.305  25.677  35.557  1.00  0.00    -0.206 F 
ATOM     45  C   UNL A   1      45.535  25.785  36.278  1.00  0.00     0.040 A 
ATOM     46  C   UNL A   1      46.952  27.590  35.547  1.00  0.00     0.040 A 
ATOM     47  F   UNL A   1      46.100  29.256  34.136  1.00  0.00    -0.206 F 
ATOM     48  C   UNL A   1      46.773  26.427  36.295  1.00  0.00     0.006 A 
ENDBRANCH  27  41
BRANCH  28  49
ATOM     49  C   UNL A   1      37.128  31.316  29.254  1.00  0.00     0.057 A 
ATOM     50  C   UNL A   1      35.995  30.549  28.964  1.00  0.00     0.134 A 
ATOM     51  C   UNL A   1      37.162  32.624  28.751  1.00  0.00     0.134 A 
ATOM     52  F   UNL A   1      35.902  29.286  29.407  1.00  0.00    -0.206 F 
ATOM     53  C   UNL A   1      34.946  31.055  28.193  1.00  0.00     0.040 A 
ATOM     54  C   UNL A   1      36.110  33.153  28.002  1.00  0.00     0.040 A 
ATOM     55  F   UNL A   1      38.216  33.415  28.998  1.00  0.00    -0.206 F 
ATOM     56  C   UNL A   1      35.000  32.364  27.714  1.00  0.00     0.006 A 
ENDBRANCH  28  49
BRANCH  40  57
ATOM     57  C   UNL A   1      39.180  32.105  35.877  1.00  0.00     0.057 A 
ATOM     58  C   UNL A   1      39.582  33.431  36.075  1.00  0.00     0.134 A 
ATOM     59  C   UNL A   1      38.210  31.581  36.740  1.00  0.00     0.134 A 
ATOM     60  F   UNL A   1      40.518  33.983  35.288  1.00  0.00    -0.206 F 
ATOM     61  C   UNL A   1      39.050  34.203  37.106  1.00  0.00     0.040 A 
ATOM     62  C   UNL A   1      37.650  32.353  37.756  1.00  0.00     0.040 A 
ATOM     63  F   UNL A   1      37.778  30.319  36.596  1.00  0.00    -0.206 F 
ATOM     64  C   UNL A   1      38.073  33.666  37.945  1.00  0.00     0.006 A 
ENDBRANCH  40  57
ENDBRANCH  14  15
ENDBRANCH   7   9
ENDBRANCH   6   7
ENDBRANCH   5   6
ENDBRANCH   4   5
ENDBRANCH   3   4
ENDBRANCH   2   3
ENDBRANCH   1   2
BRANCH   1  65
ATOM     65  O   UNL A   1      41.794  20.707  27.156  1.00  0.00    -0.376 OA
BRANCH  65  66
ATOM     66  C   UNL A   1      40.926  21.362  26.241  1.00  0.00     0.202 C 
BRANCH  66  67
ATOM     67  C   UNL A   1      39.545  21.834  26.731  1.00  0.00     0.261 C 
BRANCH  67  68
ATOM     68  O   UNL A   1      38.614  22.290  25.730  1.00  0.00    -0.463 OA
BRANCH  68  69
ATOM     69  C   UNL A   1      38.058  23.502  26.016  1.00  0.00     0.312 C 
ATOM     70  O   UNL A   1      38.703  24.451  26.455  1.00  0.00    -0.252 OA
BRANCH  69  71
ATOM     71  C   UNL A   1      36.533  23.519  25.845  1.00  0.00     0.123 C 
ATOM     72  C   UNL A   1      36.291  23.516  24.367  1.00  0.00    -0.015 C 
ATOM     73  C   UNL A   1      35.742  22.274  26.302  1.00  0.00     0.043 C 
ATOM     74  C   UNL A   1      35.476  22.540  23.977  1.00  0.00    -0.011 C 
ATOM     75  C   UNL A   1      34.865  21.806  25.112  1.00  0.00     0.093 C 
BRANCH  75  76
ATOM     76  N   UNL A   1      33.473  22.211  25.281  1.00  0.00    -0.204 NA
ATOM     77  H   UNL A   1      33.448  23.200  25.032  1.00  0.00     0.142 HD
BRANCH  76  78
ATOM     78  S   UNL A   1      32.152  21.525  24.504  1.00  0.00     0.244 S 
ATOM     79  O   UNL A   1      31.079  21.588  25.456  1.00  0.00    -0.207 OA
ATOM     80  O   UNL A   1      32.000  22.122  23.187  1.00  0.00    -0.207 OA
BRANCH  78  81
ATOM     81  C   UNL A   1      32.603  19.834  24.233  1.00  0.00     0.121 A 
ATOM     82  C   UNL A   1      32.529  19.294  22.938  1.00  0.00     0.028 A 
ATOM     83  C   UNL A   1      32.896  19.001  25.308  1.00  0.00     0.181 A 
ATOM     84  C   UNL A   1      32.805  17.943  22.719  1.00  0.00     0.044 A 
ATOM     85  C   UNL A   1      33.148  17.649  25.088  1.00  0.00     0.195 A 
ATOM     86  F   UNL A   1      32.936  19.456  26.566  1.00  0.00    -0.202 F 
ATOM     87  C   UNL A   1      33.113  17.127  23.801  1.00  0.00     0.161 A 
ATOM     88  F   UNL A   1      33.415  16.842  26.124  1.00  0.00    -0.200 F 
ATOM     89  F   UNL A   1      33.360  15.828  23.590  1.00  0.00    -0.204 F 
ENDBRANCH  78  81
ENDBRANCH  76  78
ENDBRANCH  75  76
ENDBRANCH  69  71
ENDBRANCH  68  69
ENDBRANCH  67  68
ENDBRANCH  66  67
ENDBRANCH  65  66
ENDBRANCH   1  65
TORSDOF 20
ENDMDL
MODEL 2
REMARK VINA RESULT:     -10.6      2.511      6.827
REMARK SMILES O=C(OCCOCCOCCOC(=O)[C@H]1C=C[C@H](NS(=O)(=O)c2ccc(F)c(F)c2F)C1)c1ccc(-c2c3nc(c(-c4c(F)cccc4F)c4ccc([nH]4)c(-c4c(F)cccc4F)c4nc(c(-c5c(F)cccc5F)c5ccc2[nH]5)C=C4)C=C3)cc1
REMARK SMILES IDX 8 1 7 2 6 3 5 4 4 5 3 6 2 7 1 8 33 9 34 10 86 11 35 12 85 13
REMARK SMILES IDX 36 14 37 15 38 16 79 17 39 18 84 19 78 20 80 21 40 22 83 23
REMARK SMILES IDX 77 24 76 25 41 27 67 28 50 29 66 30 51 31 54 32 65 33 81 34
REMARK SMILES IDX 52 35 53 36 64 38 82 39 55 40 42 41 43 42 48 43 44 44 45 45
REMARK SMILES IDX 47 46 49 47 46 48 68 49 69 50 74 51 70 52 71 53 73 54 75 55
REMARK SMILES IDX 72 56 56 57 57 58 62 59 58 60 59 61 61 62 63 63 60 64 9 65
REMARK SMILES IDX 10 66 11 67 12 68 13 69 14 70 15 71 16 72 32 73 17 74 18 75
REMARK SMILES IDX 19 76 20 78 21 79 22 80 23 81 24 82 30 83 25 84 28 85 31 86
REMARK SMILES IDX 26 87 29 88 27 89
REMARK H PARENT 80 26 54 37 19 77
REMARK Flexibility Score: inf
ROOT
ATOM      1  C   UNL A   1      45.164  19.335  24.103  1.00  0.00     0.188 C 
ENDROOT
BRANCH   1   2
ATOM      2  C   UNL A   1      46.207  19.945  25.043  1.00  0.00     0.188 C 
BRANCH   2   3
ATOM      3  O   UNL A   1      46.565  21.282  24.666  1.00  0.00    -0.376 OA
BRANCH   3   4
ATOM      4  C   UNL A   1      45.864  22.291  25.405  1.00  0.00     0.202 C 
BRANCH   4   5
ATOM      5  C   UNL A   1      44.965  23.206  24.559  1.00  0.00     0.261 C 
BRANCH   5   6
ATOM      6  O   UNL A   1      44.790  24.510  25.136  1.00  0.00    -0.460 OA
BRANCH   6   7
ATOM      7  C   UNL A   1      43.634  25.172  25.393  1.00  0.00     0.338 C 
ATOM      8  O   UNL A   1      42.788  25.227  24.500  1.00  0.00    -0.246 OA
BRANCH   7   9
ATOM      9  C   UNL A   1      43.313  25.853  26.689  1.00  0.00     0.060 A 
ATOM     10  C   UNL A   1      42.451  25.366  27.672  1.00  0.00     0.016 A 
ATOM     11  C   UNL A   1      43.977  27.067  26.951  1.00  0.00     0.016 A 
ATOM     12  C   UNL A   1      42.175  26.087  28.825  1.00  0.00     0.010 A 
ATOM     13  C   UNL A   1      43.739  27.784  28.130  1.00  0.00     0.010 A 
ATOM     14  C   UNL A   1      42.801  27.308  29.049  1.00  0.00    -0.014 A 
BRANCH  14  15
ATOM     15  C   UNL A   1      42.319  28.125  30.176  1.00  0.00     0.031 A 
ATOM     16  C   UNL A   1      41.075  28.931  29.975  1.00  0.00     0.074 A 
ATOM     17  C   UNL A   1      42.905  28.023  31.381  1.00  0.00     0.049 A 
ATOM     18  N   UNL A   1      40.449  29.709  30.814  1.00  0.00    -0.248 NA
ATOM     19  C   UNL A   1      40.429  28.822  28.655  1.00  0.00     0.031 C 
ATOM     20  C   UNL A   1      44.033  27.146  31.692  1.00  0.00     0.029 A 
ATOM     21  N   UNL A   1      42.630  28.642  32.569  1.00  0.00    -0.354 N 
ATOM     22  C   UNL A   1      39.344  30.187  30.124  1.00  0.00     0.074 A 
ATOM     23  C   UNL A   1      39.392  29.630  28.792  1.00  0.00     0.031 C 
ATOM     24  C   UNL A   1      44.377  27.304  32.980  1.00  0.00     0.029 A 
ATOM     25  C   UNL A   1      43.510  28.316  33.571  1.00  0.00     0.049 A 
ATOM     26  H   UNL A   1      41.873  29.260  32.692  1.00  0.00     0.167 HD
ATOM     27  C   UNL A   1      38.376  31.019  30.573  1.00  0.00     0.037 A 
ATOM     28  C   UNL A   1      43.616  28.809  34.818  1.00  0.00     0.037 A 
ATOM     29  C   UNL A   1      38.371  31.571  31.900  1.00  0.00     0.049 A 
ATOM     30  C   UNL A   1      42.603  29.828  35.255  1.00  0.00     0.074 A 
ATOM     31  C   UNL A   1      37.481  32.466  32.463  1.00  0.00     0.029 A 
ATOM     32  N   UNL A   1      39.322  31.281  32.871  1.00  0.00    -0.354 N 
ATOM     33  N   UNL A   1      41.573  30.302  34.590  1.00  0.00    -0.248 NA
ATOM     34  C   UNL A   1      42.754  30.378  36.606  1.00  0.00     0.031 C 
ATOM     35  C   UNL A   1      37.926  32.758  33.757  1.00  0.00     0.029 A 
ATOM     36  C   UNL A   1      39.060  32.001  34.021  1.00  0.00     0.049 A 
ATOM     37  H   UNL A   1      40.073  30.655  32.756  1.00  0.00     0.167 HD
ATOM     38  C   UNL A   1      40.941  31.190  35.447  1.00  0.00     0.074 A 
ATOM     39  C   UNL A   1      41.695  31.174  36.686  1.00  0.00     0.031 C 
ATOM     40  C   UNL A   1      39.839  31.951  35.234  1.00  0.00     0.037 A 
BRANCH  27  41
ATOM     41  C   UNL A   1      37.319  31.421  29.588  1.00  0.00     0.057 A 
ATOM     42  C   UNL A   1      37.351  32.649  28.914  1.00  0.00     0.134 A 
ATOM     43  C   UNL A   1      36.218  30.587  29.357  1.00  0.00     0.134 A 
ATOM     44  F   UNL A   1      38.360  33.510  29.115  1.00  0.00    -0.206 F 
ATOM     45  C   UNL A   1      36.311  33.047  28.071  1.00  0.00     0.040 A 
ATOM     46  C   UNL A   1      35.185  30.962  28.498  1.00  0.00     0.040 A 
ATOM     47  F   UNL A   1      36.120  29.401  29.976  1.00  0.00    -0.206 F 
ATOM     48  C   UNL A   1      35.222  32.201  27.861  1.00  0.00     0.006 A 
ENDBRANCH  27  41
BRANCH  28  49
ATOM     49  C   UNL A   1      44.731  28.377  35.699  1.00  0.00     0.057 A 
ATOM     50  C   UNL A   1      44.582  27.344  36.628  1.00  0.00     0.134 A 
ATOM     51  C   UNL A   1      45.990  28.991  35.620  1.00  0.00     0.134 A 
ATOM     52  F   UNL A   1      43.401  26.721  36.762  1.00  0.00    -0.206 F 
ATOM     53  C   UNL A   1      45.634  26.946  37.457  1.00  0.00     0.040 A 
ATOM     54  C   UNL A   1      47.058  28.587  36.422  1.00  0.00     0.040 A 
ATOM     55  F   UNL A   1      46.203  29.984  34.745  1.00  0.00    -0.206 F 
ATOM     56  C   UNL A   1      46.879  27.565  37.350  1.00  0.00     0.006 A 
ENDBRANCH  28  49
BRANCH  40  57
ATOM     57  C   UNL A   1      39.377  32.800  36.379  1.00  0.00     0.057 A 
ATOM     58  C   UNL A   1      39.858  34.100  36.574  1.00  0.00     0.134 A 
ATOM     59  C   UNL A   1      38.400  32.326  37.264  1.00  0.00     0.134 A 
ATOM     60  F   UNL A   1      40.804  34.604  35.767  1.00  0.00    -0.206 F 
ATOM     61  C   UNL A   1      39.396  34.894  37.624  1.00  0.00     0.040 A 
ATOM     62  C   UNL A   1      37.911  33.121  38.298  1.00  0.00     0.040 A 
ATOM     63  F   UNL A   1      37.895  31.091  37.123  1.00  0.00    -0.206 F 
ATOM     64  C   UNL A   1      38.413  34.407  38.483  1.00  0.00     0.006 A 
ENDBRANCH  40  57
ENDBRANCH  14  15
ENDBRANCH   7   9
ENDBRANCH   6   7
ENDBRANCH   5   6
ENDBRANCH   4   5
ENDBRANCH   3   4
ENDBRANCH   2   3
ENDBRANCH   1   2
BRANCH   1  65
ATOM     65  O   UNL A   1      43.794  19.537  24.433  1.00  0.00    -0.376 OA
BRANCH  65  66
ATOM     66  C   UNL A   1      43.306  18.907  25.610  1.00  0.00     0.202 C 
BRANCH  66  67
ATOM     67  C   UNL A   1      41.913  19.295  26.140  1.00  0.00     0.261 C 
BRANCH  67  68
ATOM     68  O   UNL A   1      41.824  20.490  26.939  1.00  0.00    -0.463 OA
BRANCH  68  69
ATOM     69  C   UNL A   1      41.205  21.525  26.301  1.00  0.00     0.312 C 
ATOM     70  O   UNL A   1      41.781  22.271  25.513  1.00  0.00    -0.252 OA
BRANCH  69  71
ATOM     71  C   UNL A   1      39.755  21.731  26.759  1.00  0.00     0.123 C 
ATOM     72  C   UNL A   1      39.609  23.203  26.995  1.00  0.00    -0.015 C 
ATOM     73  C   UNL A   1      38.630  21.457  25.737  1.00  0.00     0.043 C 
ATOM     74  C   UNL A   1      38.584  23.735  26.334  1.00  0.00    -0.011 C 
ATOM     75  C   UNL A   1      37.730  22.718  25.672  1.00  0.00     0.093 C 
BRANCH  75  76
ATOM     76  N   UNL A   1      36.494  22.533  26.423  1.00  0.00    -0.204 NA
ATOM     77  H   UNL A   1      36.331  23.422  26.898  1.00  0.00     0.142 HD
BRANCH  76  78
ATOM     78  S   UNL A   1      35.007  22.101  25.772  1.00  0.00     0.244 S 
ATOM     79  O   UNL A   1      35.257  21.874  24.378  1.00  0.00    -0.207 OA
ATOM     80  O   UNL A   1      34.402  21.062  26.589  1.00  0.00    -0.207 OA
BRANCH  78  81
ATOM     81  C   UNL A   1      33.986  23.537  25.962  1.00  0.00     0.121 A 
ATOM     82  C   UNL A   1      32.752  23.429  26.625  1.00  0.00     0.028 A 
ATOM     83  C   UNL A   1      34.331  24.734  25.343  1.00  0.00     0.181 A 
ATOM     84  C   UNL A   1      31.900  24.531  26.715  1.00  0.00     0.044 A 
ATOM     85  C   UNL A   1      33.467  25.825  25.416  1.00  0.00     0.195 A 
ATOM     86  F   UNL A   1      35.475  24.877  24.663  1.00  0.00    -0.202 F 
ATOM     87  C   UNL A   1      32.266  25.726  26.106  1.00  0.00     0.161 A 
ATOM     88  F   UNL A   1      33.791  26.974  24.807  1.00  0.00    -0.200 F 
ATOM     89  F   UNL A   1      31.439  26.777  26.179  1.00  0.00    -0.204 F 
ENDBRANCH  78  81
ENDBRANCH  76  78
ENDBRANCH  75  76
ENDBRANCH  69  71
ENDBRANCH  68  69
ENDBRANCH  67  68
ENDBRANCH  66  67
ENDBRANCH  65  66
ENDBRANCH   1  65
TORSDOF 20
ENDMDL
MODEL 3
REMARK VINA RESULT:     -10.6      1.656      6.461
REMARK SMILES O=C(OCCOCCOCCOC(=O)[C@H]1C=C[C@H](NS(=O)(=O)c2ccc(F)c(F)c2F)C1)c1ccc(-c2c3nc(c(-c4c(F)cccc4F)c4ccc([nH]4)c(-c4c(F)cccc4F)c4nc(c(-c5c(F)cccc5F)c5ccc2[nH]5)C=C4)C=C3)cc1
REMARK SMILES IDX 8 1 7 2 6 3 5 4 4 5 3 6 2 7 1 8 33 9 34 10 86 11 35 12 85 13
REMARK SMILES IDX 36 14 37 15 38 16 79 17 39 18 84 19 78 20 80 21 40 22 83 23
REMARK SMILES IDX 77 24 76 25 41 27 67 28 50 29 66 30 51 31 54 32 65 33 81 34
REMARK SMILES IDX 52 35 53 36 64 38 82 39 55 40 42 41 43 42 48 43 44 44 45 45
REMARK SMILES IDX 47 46 49 47 46 48 68 49 69 50 74 51 70 52 71 53 73 54 75 55
REMARK SMILES IDX 72 56 56 57 57 58 62 59 58 60 59 61 61 62 63 63 60 64 9 65
REMARK SMILES IDX 10 66 11 67 12 68 13 69 14 70 15 71 16 72 32 73 17 74 18 75
REMARK SMILES IDX 19 76 20 78 21 79 22 80 23 81 24 82 30 83 25 84 28 85 31 86
REMARK SMILES IDX 26 87 29 88 27 89
REMARK H PARENT 80 26 54 37 19 77
REMARK Flexibility Score: inf
ROOT
ATOM      1  C   UNL A   1      45.208  19.450  24.161  1.00  0.00     0.188 C 
ENDROOT
BRANCH   1   2
ATOM      2  C   UNL A   1      46.113  20.106  25.208  1.00  0.00     0.188 C 
BRANCH   2   3
ATOM      3  O   UNL A   1      46.459  21.453  24.860  1.00  0.00    -0.376 OA
BRANCH   3   4
ATOM      4  C   UNL A   1      45.633  22.438  25.495  1.00  0.00     0.202 C 
BRANCH   4   5
ATOM      5  C   UNL A   1      44.973  23.443  24.539  1.00  0.00     0.261 C 
BRANCH   5   6
ATOM      6  O   UNL A   1      44.748  24.728  25.142  1.00  0.00    -0.460 OA
BRANCH   6   7
ATOM      7  C   UNL A   1      43.568  25.328  25.434  1.00  0.00     0.338 C 
ATOM      8  O   UNL A   1      42.689  25.328  24.572  1.00  0.00    -0.246 OA
BRANCH   7   9
ATOM      9  C   UNL A   1      43.256  26.005  26.735  1.00  0.00     0.060 A 
ATOM     10  C   UNL A   1      42.421  25.504  27.733  1.00  0.00     0.016 A 
ATOM     11  C   UNL A   1      43.902  27.232  26.984  1.00  0.00     0.016 A 
ATOM     12  C   UNL A   1      42.151  26.221  28.890  1.00  0.00     0.010 A 
ATOM     13  C   UNL A   1      43.671  27.946  28.166  1.00  0.00     0.010 A 
ATOM     14  C   UNL A   1      42.759  27.454  29.102  1.00  0.00    -0.014 A 
BRANCH  14  15
ATOM     15  C   UNL A   1      42.281  28.264  30.236  1.00  0.00     0.031 A 
ATOM     16  C   UNL A   1      41.023  29.054  30.053  1.00  0.00     0.074 A 
ATOM     17  C   UNL A   1      42.884  28.169  31.433  1.00  0.00     0.049 A 
ATOM     18  N   UNL A   1      40.399  29.823  30.901  1.00  0.00    -0.248 NA
ATOM     19  C   UNL A   1      40.362  28.938  28.740  1.00  0.00     0.031 C 
ATOM     20  C   UNL A   1      44.027  27.306  31.728  1.00  0.00     0.029 A 
ATOM     21  N   UNL A   1      42.616  28.782  32.625  1.00  0.00    -0.354 N 
ATOM     22  C   UNL A   1      39.278  30.287  30.225  1.00  0.00     0.074 A 
ATOM     23  C   UNL A   1      39.316  29.732  28.892  1.00  0.00     0.031 C 
ATOM     24  C   UNL A   1      44.385  27.467  33.012  1.00  0.00     0.029 A 
ATOM     25  C   UNL A   1      43.513  28.467  33.616  1.00  0.00     0.049 A 
ATOM     26  H   UNL A   1      41.853  29.390  32.759  1.00  0.00     0.167 HD
ATOM     27  C   UNL A   1      38.306  31.106  30.688  1.00  0.00     0.037 A 
ATOM     28  C   UNL A   1      43.629  28.960  34.861  1.00  0.00     0.037 A 
ATOM     29  C   UNL A   1      38.311  31.657  32.016  1.00  0.00     0.049 A 
ATOM     30  C   UNL A   1      42.609  29.965  35.313  1.00  0.00     0.074 A 
ATOM     31  C   UNL A   1      37.417  32.539  32.591  1.00  0.00     0.029 A 
ATOM     32  N   UNL A   1      39.279  31.378  32.974  1.00  0.00    -0.354 N 
ATOM     33  N   UNL A   1      41.565  30.426  34.662  1.00  0.00    -0.248 NA
ATOM     34  C   UNL A   1      42.771  30.516  36.662  1.00  0.00     0.031 C 
ATOM     35  C   UNL A   1      37.876  32.836  33.880  1.00  0.00     0.029 A 
ATOM     36  C   UNL A   1      39.022  32.094  34.128  1.00  0.00     0.049 A 
ATOM     37  H   UNL A   1      40.036  30.762  32.848  1.00  0.00     0.167 HD
ATOM     38  C   UNL A   1      40.932  31.306  35.528  1.00  0.00     0.074 A 
ATOM     39  C   UNL A   1      41.703  31.298  36.758  1.00  0.00     0.031 C 
ATOM     40  C   UNL A   1      39.818  32.053  35.331  1.00  0.00     0.037 A 
BRANCH  27  41
ATOM     41  C   UNL A   1      37.231  31.496  29.717  1.00  0.00     0.057 A 
ATOM     42  C   UNL A   1      36.171  30.639  29.390  1.00  0.00     0.134 A 
ATOM     43  C   UNL A   1      37.293  32.728  29.055  1.00  0.00     0.134 A 
ATOM     44  F   UNL A   1      36.071  29.430  29.963  1.00  0.00    -0.206 F 
ATOM     45  C   UNL A   1      35.231  30.981  28.415  1.00  0.00     0.040 A 
ATOM     46  C   UNL A   1      36.345  33.091  28.097  1.00  0.00     0.040 A 
ATOM     47  F   UNL A   1      38.286  33.591  29.314  1.00  0.00    -0.206 F 
ATOM     48  C   UNL A   1      35.317  32.211  27.766  1.00  0.00     0.006 A 
ENDBRANCH  27  41
BRANCH  28  49
ATOM     49  C   UNL A   1      44.762  28.542  35.727  1.00  0.00     0.057 A 
ATOM     50  C   UNL A   1      44.629  27.526  36.679  1.00  0.00     0.134 A 
ATOM     51  C   UNL A   1      46.020  29.151  35.611  1.00  0.00     0.134 A 
ATOM     52  F   UNL A   1      43.450  26.908  36.848  1.00  0.00    -0.206 F 
ATOM     53  C   UNL A   1      45.697  27.140  37.492  1.00  0.00     0.040 A 
ATOM     54  C   UNL A   1      47.103  28.758  36.398  1.00  0.00     0.040 A 
ATOM     55  F   UNL A   1      46.217  30.127  34.713  1.00  0.00    -0.206 F 
ATOM     56  C   UNL A   1      46.940  27.755  37.349  1.00  0.00     0.006 A 
ENDBRANCH  28  49
BRANCH  40  57
ATOM     57  C   UNL A   1      39.360  32.894  36.483  1.00  0.00     0.057 A 
ATOM     58  C   UNL A   1      38.415  32.430  37.405  1.00  0.00     0.134 A 
ATOM     59  C   UNL A   1      39.912  34.163  36.697  1.00  0.00     0.134 A 
ATOM     60  F   UNL A   1      37.841  31.227  37.244  1.00  0.00    -0.206 F 
ATOM     61  C   UNL A   1      38.020  33.208  38.492  1.00  0.00     0.040 A 
ATOM     62  C   UNL A   1      39.547  34.937  37.796  1.00  0.00     0.040 A 
ATOM     63  F   UNL A   1      40.829  34.659  35.853  1.00  0.00    -0.206 F 
ATOM     64  C   UNL A   1      38.594  34.462  38.695  1.00  0.00     0.006 A 
ENDBRANCH  40  57
ENDBRANCH  14  15
ENDBRANCH   7   9
ENDBRANCH   6   7
ENDBRANCH   5   6
ENDBRANCH   4   5
ENDBRANCH   3   4
ENDBRANCH   2   3
ENDBRANCH   1   2
BRANCH   1  65
ATOM     65  O   UNL A   1      43.811  19.425  24.435  1.00  0.00    -0.376 OA
BRANCH  65  66
ATOM     66  C   UNL A   1      43.400  18.918  25.697  1.00  0.00     0.202 C 
BRANCH  66  67
ATOM     67  C   UNL A   1      41.992  19.261  26.216  1.00  0.00     0.261 C 
BRANCH  67  68
ATOM     68  O   UNL A   1      41.848  20.483  26.966  1.00  0.00    -0.463 OA
BRANCH  68  69
ATOM     69  C   UNL A   1      41.213  21.473  26.275  1.00  0.00     0.312 C 
ATOM     70  O   UNL A   1      41.787  22.215  25.482  1.00  0.00    -0.252 OA
BRANCH  69  71
ATOM     71  C   UNL A   1      39.741  21.636  26.678  1.00  0.00     0.123 C 
ATOM     72  C   UNL A   1      39.530  23.109  26.855  1.00  0.00    -0.015 C 
ATOM     73  C   UNL A   1      38.663  21.282  25.631  1.00  0.00     0.043 C 
ATOM     74  C   UNL A   1      38.508  23.575  26.142  1.00  0.00    -0.011 C 
ATOM     75  C   UNL A   1      37.718  22.504  25.491  1.00  0.00     0.093 C 
BRANCH  75  76
ATOM     76  N   UNL A   1      36.465  22.296  26.208  1.00  0.00    -0.204 NA
ATOM     77  H   UNL A   1      36.712  22.325  27.197  1.00  0.00     0.142 HD
BRANCH  76  78
ATOM     78  S   UNL A   1      35.087  23.247  26.069  1.00  0.00     0.244 S 
ATOM     79  O   UNL A   1      34.422  23.136  27.336  1.00  0.00    -0.207 OA
ATOM     80  O   UNL A   1      35.449  24.552  25.542  1.00  0.00    -0.207 OA
BRANCH  78  81
ATOM     81  C   UNL A   1      34.109  22.462  24.818  1.00  0.00     0.121 A 
ATOM     82  C   UNL A   1      33.772  23.171  23.652  1.00  0.00     0.028 A 
ATOM     83  C   UNL A   1      33.558  21.203  25.040  1.00  0.00     0.181 A 
ATOM     84  C   UNL A   1      32.938  22.596  22.693  1.00  0.00     0.044 A 
ATOM     85  C   UNL A   1      32.707  20.643  24.090  1.00  0.00     0.195 A 
ATOM     86  F   UNL A   1      33.812  20.505  26.152  1.00  0.00    -0.202 F 
ATOM     87  C   UNL A   1      32.408  21.331  22.921  1.00  0.00     0.161 A 
ATOM     88  F   UNL A   1      32.163  19.438  24.309  1.00  0.00    -0.200 F 
ATOM     89  F   UNL A   1      31.594  20.789  22.006  1.00  0.00    -0.204 F 
ENDBRANCH  78  81
ENDBRANCH  76  78
ENDBRANCH  75  76
ENDBRANCH  69  71
ENDBRANCH  68  69
ENDBRANCH  67  68
ENDBRANCH  66  67
ENDBRANCH  65  66
ENDBRANCH   1  65
TORSDOF 20
ENDMDL
