MODEL 1
REMARK VINA RESULT:     -11.1      0.000      0.000
REMARK SMILES C[C@H](Oc1ccccc1Cl)C(=O)N1CCCC[C@H]1C(=O)OCCOCCOCCOC(=O)c1ccc(-c2c3nc(c(-c4c(F)cccc4F)c4ccc([nH]4)c(-c4c(F)cccc4F)c4nc(c(-c5c(F)cccc5F)c5ccc2[nH]5)C=C4)C=C3)cc1
REMARK SMILES IDX 25 1 24 2 23 3 22 4 21 5 19 6 20 7 18 8 13 9 14 10 15 11
REMARK SMILES IDX 17 12 16 13 11 14 12 15 2 16 1 17 3 18 4 19 5 20 9 21 6 22
REMARK SMILES IDX 8 23 10 24 7 25 26 26 27 27 28 28 29 29 30 30 31 31 32 32
REMARK SMILES IDX 33 33 34 34 86 35 35 36 85 37 36 38 37 39 38 40 79 41 39 42
REMARK SMILES IDX 84 43 78 44 80 45 40 46 83 47 77 48 76 49 41 51 67 52 50 53
REMARK SMILES IDX 66 54 51 55 54 56 65 57 81 58 52 59 53 60 64 62 82 63 55 64
REMARK SMILES IDX 42 65 43 66 48 67 44 68 45 69 47 70 49 71 46 72 68 73 69 74
REMARK SMILES IDX 74 75 70 76 71 77 73 78 75 79 72 80 56 81 57 82 62 83 58 84
REMARK SMILES IDX 59 85 61 86 63 87 60 88
REMARK H PARENT 80 50 54 61
REMARK Flexibility Score: inf
ROOT
ATOM      1  C   UNL A   1      40.890  20.845  27.062  1.00  0.00     0.188 C 
ENDROOT
BRANCH   1   2
ATOM      2  O   UNL A   1      39.920  21.000  26.029  1.00  0.00    -0.376 OA
BRANCH   2   3
ATOM      3  C   UNL A   1      38.983  22.060  26.117  1.00  0.00     0.202 C 
BRANCH   3   4
ATOM      4  C   UNL A   1      37.609  21.797  25.494  1.00  0.00     0.261 C 
BRANCH   4   5
ATOM      5  O   UNL A   1      36.638  22.839  25.687  1.00  0.00    -0.462 OA
BRANCH   5   6
ATOM      6  C   UNL A   1      35.384  22.408  26.009  1.00  0.00     0.328 C 
ATOM      7  O   UNL A   1      35.144  21.551  26.851  1.00  0.00    -0.250 OA
BRANCH   6   8
ATOM      8  C   UNL A   1      34.327  23.010  25.065  1.00  0.00     0.195 C 
ATOM      9  N   UNL A   1      32.954  22.831  25.578  1.00  0.00    -0.326 N 
ATOM     10  C   UNL A   1      32.559  23.762  26.629  1.00  0.00     0.120 C 
ATOM     11  C   UNL A   1      32.603  25.184  26.101  1.00  0.00     0.022 C 
ATOM     12  C   UNL A   1      34.537  24.469  24.620  1.00  0.00     0.037 C 
ATOM     13  C   UNL A   1      34.003  25.518  25.595  1.00  0.00     0.005 C 
BRANCH   9  14
ATOM     14  C   UNL A   1      32.027  21.896  25.125  1.00  0.00     0.264 C 
ATOM     15  O   UNL A   1      30.926  21.773  25.675  1.00  0.00    -0.271 OA
BRANCH  14  16
ATOM     16  C   UNL A   1      32.426  20.889  24.015  1.00  0.00     0.259 C 
ATOM     17  C   UNL A   1      32.158  21.594  22.679  1.00  0.00     0.064 C 
BRANCH  16  18
ATOM     18  O   UNL A   1      31.814  19.623  24.256  1.00  0.00    -0.479 OA
BRANCH  18  19
ATOM     19  C   UNL A   1      32.518  18.463  24.407  1.00  0.00     0.139 A 
ATOM     20  C   UNL A   1      32.869  17.900  25.633  1.00  0.00     0.048 A 
ATOM     21  C   UNL A   1      32.912  17.801  23.228  1.00  0.00     0.083 A 
ATOM     22  C   UNL A   1      33.685  16.765  25.685  1.00  0.00     0.004 A 
ATOM     23  C   UNL A   1      33.710  16.655  23.281  1.00  0.00     0.024 A 
ATOM     24  Cl  UNL A   1      32.442  18.372  21.663  1.00  0.00    -0.080 Cl
ATOM     25  C   UNL A   1      34.115  16.148  24.512  1.00  0.00     0.002 A 
ENDBRANCH  18  19
ENDBRANCH  16  18
ENDBRANCH  14  16
ENDBRANCH   9  14
ENDBRANCH   6   8
ENDBRANCH   5   6
ENDBRANCH   4   5
ENDBRANCH   3   4
ENDBRANCH   2   3
ENDBRANCH   1   2
BRANCH   1  26
ATOM     26  C   UNL A   1      42.217  20.124  26.774  1.00  0.00     0.188 C 
BRANCH  26  27
ATOM     27  O   UNL A   1      42.697  20.402  25.462  1.00  0.00    -0.376 OA
BRANCH  27  28
ATOM     28  C   UNL A   1      44.112  20.339  25.328  1.00  0.00     0.202 C 
BRANCH  28  29
ATOM     29  C   UNL A   1      44.730  21.741  25.306  1.00  0.00     0.261 C 
BRANCH  29  30
ATOM     30  O   UNL A   1      43.780  22.820  25.198  1.00  0.00    -0.460 OA
BRANCH  30  31
ATOM     31  C   UNL A   1      44.283  24.070  25.191  1.00  0.00     0.338 C 
ATOM     32  O   UNL A   1      45.203  24.483  24.495  1.00  0.00    -0.246 OA
BRANCH  31  33
ATOM     33  C   UNL A   1      43.463  24.945  26.057  1.00  0.00     0.060 A 
ATOM     34  C   UNL A   1      43.832  26.289  26.179  1.00  0.00     0.016 A 
ATOM     35  C   UNL A   1      42.388  24.445  26.799  1.00  0.00     0.016 A 
ATOM     36  C   UNL A   1      43.154  27.124  27.070  1.00  0.00     0.010 A 
ATOM     37  C   UNL A   1      41.719  25.281  27.704  1.00  0.00     0.010 A 
ATOM     38  C   UNL A   1      42.119  26.619  27.868  1.00  0.00    -0.014 A 
BRANCH  38  39
ATOM     39  C   UNL A   1      41.615  27.441  29.001  1.00  0.00     0.031 A 
ATOM     40  C   UNL A   1      42.375  27.418  30.301  1.00  0.00     0.074 A 
ATOM     41  C   UNL A   1      40.565  28.271  28.867  1.00  0.00     0.049 A 
ATOM     42  N   UNL A   1      42.149  28.072  31.412  1.00  0.00    -0.248 NA
ATOM     43  C   UNL A   1      43.563  26.550  30.342  1.00  0.00     0.031 C 
ATOM     44  C   UNL A   1      39.790  28.469  27.646  1.00  0.00     0.029 A 
ATOM     45  N   UNL A   1      39.986  29.121  29.778  1.00  0.00    -0.354 N 
ATOM     46  C   UNL A   1      43.169  27.705  32.280  1.00  0.00     0.074 A 
ATOM     47  C   UNL A   1      43.996  26.746  31.578  1.00  0.00     0.031 C 
ATOM     48  C   UNL A   1      38.844  29.398  27.879  1.00  0.00     0.029 A 
ATOM     49  C   UNL A   1      38.923  29.832  29.274  1.00  0.00     0.049 A 
ATOM     50  H   UNL A   1      40.302  29.213  30.706  1.00  0.00     0.167 HD
ATOM     51  C   UNL A   1      43.409  28.130  33.544  1.00  0.00     0.037 A 
ATOM     52  C   UNL A   1      38.104  30.720  29.873  1.00  0.00     0.037 A 
ATOM     53  C   UNL A   1      42.586  29.063  34.266  1.00  0.00     0.049 A 
ATOM     54  C   UNL A   1      38.304  31.068  31.326  1.00  0.00     0.074 A 
ATOM     55  C   UNL A   1      42.730  29.516  35.565  1.00  0.00     0.029 A 
ATOM     56  N   UNL A   1      41.456  29.679  33.751  1.00  0.00    -0.354 N 
ATOM     57  N   UNL A   1      39.258  30.698  32.146  1.00  0.00    -0.248 NA
ATOM     58  C   UNL A   1      37.300  31.953  31.940  1.00  0.00     0.031 C 
ATOM     59  C   UNL A   1      41.660  30.373  35.853  1.00  0.00     0.029 A 
ATOM     60  C   UNL A   1      40.878  30.490  34.715  1.00  0.00     0.049 A 
ATOM     61  H   UNL A   1      41.113  29.558  32.835  1.00  0.00     0.167 HD
ATOM     62  C   UNL A   1      38.991  31.332  33.355  1.00  0.00     0.074 A 
ATOM     63  C   UNL A   1      37.787  32.112  33.163  1.00  0.00     0.031 C 
ATOM     64  C   UNL A   1      39.687  31.275  34.517  1.00  0.00     0.037 A 
BRANCH  51  65
ATOM     65  C   UNL A   1      44.600  27.538  34.236  1.00  0.00     0.057 A 
ATOM     66  C   UNL A   1      45.855  28.161  34.211  1.00  0.00     0.134 A 
ATOM     67  C   UNL A   1      44.495  26.319  34.916  1.00  0.00     0.134 A 
ATOM     68  F   UNL A   1      46.024  29.321  33.559  1.00  0.00    -0.206 F 
ATOM     69  C   UNL A   1      46.972  27.573  34.807  1.00  0.00     0.040 A 
ATOM     70  C   UNL A   1      45.599  25.733  35.538  1.00  0.00     0.040 A 
ATOM     71  F   UNL A   1      43.321  25.673  34.980  1.00  0.00    -0.206 F 
ATOM     72  C   UNL A   1      46.845  26.356  35.474  1.00  0.00     0.006 A 
ENDBRANCH  51  65
BRANCH  52  73
ATOM     73  C   UNL A   1      36.996  31.349  29.108  1.00  0.00     0.057 A 
ATOM     74  C   UNL A   1      37.066  32.686  28.701  1.00  0.00     0.134 A 
ATOM     75  C   UNL A   1      35.821  30.646  28.813  1.00  0.00     0.134 A 
ATOM     76  F   UNL A   1      38.150  33.423  28.988  1.00  0.00    -0.206 F 
ATOM     77  C   UNL A   1      36.005  33.306  28.038  1.00  0.00     0.040 A 
ATOM     78  C   UNL A   1      34.763  31.245  28.131  1.00  0.00     0.040 A 
ATOM     79  F   UNL A   1      35.686  29.366  29.190  1.00  0.00    -0.206 F 
ATOM     80  C   UNL A   1      34.850  32.583  27.746  1.00  0.00     0.006 A 
ENDBRANCH  52  73
BRANCH  64  81
ATOM     81  C   UNL A   1      39.195  32.110  35.666  1.00  0.00     0.057 A 
ATOM     82  C   UNL A   1      39.528  33.464  35.796  1.00  0.00     0.134 A 
ATOM     83  C   UNL A   1      38.336  31.561  36.627  1.00  0.00     0.134 A 
ATOM     84  F   UNL A   1      40.355  34.049  34.917  1.00  0.00    -0.206 F 
ATOM     85  C   UNL A   1      39.039  34.237  36.852  1.00  0.00     0.040 A 
ATOM     86  C   UNL A   1      37.822  32.329  37.674  1.00  0.00     0.040 A 
ATOM     87  F   UNL A   1      37.969  30.273  36.557  1.00  0.00    -0.206 F 
ATOM     88  C   UNL A   1      38.177  33.672  37.791  1.00  0.00     0.006 A 
ENDBRANCH  64  81
ENDBRANCH  38  39
ENDBRANCH  31  33
ENDBRANCH  30  31
ENDBRANCH  29  30
ENDBRANCH  28  29
ENDBRANCH  27  28
ENDBRANCH  26  27
ENDBRANCH   1  26
TORSDOF 21
ENDMDL
MODEL 2
REMARK VINA RESULT:     -10.8      4.612      9.649
REMARK SMILES C[C@H](Oc1ccccc1Cl)C(=O)N1CCCC[C@H]1C(=O)OCCOCCOCCOC(=O)c1ccc(-c2c3nc(c(-c4c(F)cccc4F)c4ccc([nH]4)c(-c4c(F)cccc4F)c4nc(c(-c5c(F)cccc5F)c5ccc2[nH]5)C=C4)C=C3)cc1
REMARK SMILES IDX 25 1 24 2 23 3 22 4 21 5 19 6 20 7 18 8 13 9 14 10 15 11
REMARK SMILES IDX 17 12 16 13 11 14 12 15 2 16 1 17 3 18 4 19 5 20 9 21 6 22
REMARK SMILES IDX 8 23 10 24 7 25 26 26 27 27 28 28 29 29 30 30 31 31 32 32
REMARK SMILES IDX 33 33 34 34 86 35 35 36 85 37 36 38 37 39 38 40 79 41 39 42
REMARK SMILES IDX 84 43 78 44 80 45 40 46 83 47 77 48 76 49 41 51 67 52 50 53
REMARK SMILES IDX 66 54 51 55 54 56 65 57 81 58 52 59 53 60 64 62 82 63 55 64
REMARK SMILES IDX 42 65 43 66 48 67 44 68 45 69 47 70 49 71 46 72 68 73 69 74
REMARK SMILES IDX 74 75 70 76 71 77 73 78 75 79 72 80 56 81 57 82 62 83 58 84
REMARK SMILES IDX 59 85 61 86 63 87 60 88
REMARK H PARENT 80 50 54 61
REMARK Flexibility Score: inf
ROOT
ATOM      1  C   UNL A   1      34.073  31.972  28.001  1.00  0.00     0.188 C 
ENDROOT
BRANCH   1   2
ATOM      2  O   UNL A   1      33.973  30.910  27.055  1.00  0.00    -0.376 OA
BRANCH   2   3
ATOM      3  C   UNL A   1      34.054  29.571  27.511  1.00  0.00     0.202 C 
BRANCH   3   4
ATOM      4  C   UNL A   1      32.889  28.656  27.124  1.00  0.00     0.261 C 
BRANCH   4   5
ATOM      5  O   UNL A   1      31.837  29.284  26.373  1.00  0.00    -0.462 OA
BRANCH   5   6
ATOM      6  C   UNL A   1      31.652  28.791  25.114  1.00  0.00     0.328 C 
ATOM      7  O   UNL A   1      30.890  29.278  24.288  1.00  0.00    -0.250 OA
BRANCH   6   8
ATOM      8  C   UNL A   1      32.391  27.454  24.924  1.00  0.00     0.195 C 
ATOM      9  N   UNL A   1      31.467  26.344  24.618  1.00  0.00    -0.326 N 
ATOM     10  C   UNL A   1      30.997  26.291  23.238  1.00  0.00     0.120 C 
ATOM     11  C   UNL A   1      32.174  26.097  22.300  1.00  0.00     0.022 C 
ATOM     12  C   UNL A   1      33.572  27.443  23.937  1.00  0.00     0.037 C 
ATOM     13  C   UNL A   1      33.182  27.229  22.474  1.00  0.00     0.005 C 
BRANCH   9  14
ATOM     14  C   UNL A   1      31.051  25.356  25.507  1.00  0.00     0.264 C 
ATOM     15  O   UNL A   1      30.156  25.576  26.331  1.00  0.00    -0.271 OA
BRANCH  14  16
ATOM     16  C   UNL A   1      31.818  24.009  25.575  1.00  0.00     0.259 C 
ATOM     17  C   UNL A   1      30.960  23.070  26.433  1.00  0.00     0.064 C 
BRANCH  16  18
ATOM     18  O   UNL A   1      33.174  24.233  25.954  1.00  0.00    -0.479 OA
BRANCH  18  19
ATOM     19  C   UNL A   1      34.234  23.606  25.365  1.00  0.00     0.139 A 
ATOM     20  C   UNL A   1      34.760  23.936  24.117  1.00  0.00     0.048 A 
ATOM     21  C   UNL A   1      34.826  22.548  26.084  1.00  0.00     0.083 A 
ATOM     22  C   UNL A   1      35.780  23.163  23.550  1.00  0.00     0.004 A 
ATOM     23  C   UNL A   1      35.858  21.789  25.525  1.00  0.00     0.024 A 
ATOM     24  Cl  UNL A   1      34.303  22.128  27.679  1.00  0.00    -0.080 Cl
ATOM     25  C   UNL A   1      36.321  22.085  24.246  1.00  0.00     0.002 A 
ENDBRANCH  18  19
ENDBRANCH  16  18
ENDBRANCH  14  16
ENDBRANCH   9  14
ENDBRANCH   6   8
ENDBRANCH   5   6
ENDBRANCH   4   5
ENDBRANCH   3   4
ENDBRANCH   2   3
ENDBRANCH   1   2
BRANCH   1  26
ATOM     26  C   UNL A   1      35.295  32.905  27.988  1.00  0.00     0.188 C 
BRANCH  26  27
ATOM     27  O   UNL A   1      35.042  34.120  28.686  1.00  0.00    -0.376 OA
BRANCH  27  28
ATOM     28  C   UNL A   1      34.019  34.030  29.671  1.00  0.00     0.202 C 
BRANCH  28  29
ATOM     29  C   UNL A   1      34.613  33.908  31.078  1.00  0.00     0.261 C 
BRANCH  29  30
ATOM     30  O   UNL A   1      34.590  32.577  31.632  1.00  0.00    -0.460 OA
BRANCH  30  31
ATOM     31  C   UNL A   1      35.565  32.270  32.510  1.00  0.00     0.338 C 
ATOM     32  O   UNL A   1      35.576  32.527  33.708  1.00  0.00    -0.246 OA
BRANCH  31  33
ATOM     33  C   UNL A   1      36.590  31.432  31.849  1.00  0.00     0.060 A 
ATOM     34  C   UNL A   1      37.760  31.137  32.557  1.00  0.00     0.016 A 
ATOM     35  C   UNL A   1      36.442  30.997  30.528  1.00  0.00     0.016 A 
ATOM     36  C   UNL A   1      38.800  30.444  31.933  1.00  0.00     0.010 A 
ATOM     37  C   UNL A   1      37.493  30.314  29.900  1.00  0.00     0.010 A 
ATOM     38  C   UNL A   1      38.692  30.061  30.589  1.00  0.00    -0.014 A 
BRANCH  38  39
ATOM     39  C   UNL A   1      39.908  29.589  29.875  1.00  0.00     0.031 A 
ATOM     40  C   UNL A   1      41.076  30.531  29.741  1.00  0.00     0.074 A 
ATOM     41  C   UNL A   1      40.030  28.325  29.433  1.00  0.00     0.049 A 
ATOM     42  N   UNL A   1      42.249  30.335  29.192  1.00  0.00    -0.248 NA
ATOM     43  C   UNL A   1      40.899  31.870  30.326  1.00  0.00     0.031 C 
ATOM     44  C   UNL A   1      39.022  27.277  29.572  1.00  0.00     0.029 A 
ATOM     45  N   UNL A   1      41.075  27.706  28.790  1.00  0.00    -0.354 N 
ATOM     46  C   UNL A   1      42.952  31.519  29.374  1.00  0.00     0.074 A 
ATOM     47  C   UNL A   1      42.063  32.438  30.054  1.00  0.00     0.031 C 
ATOM     48  C   UNL A   1      39.507  26.137  29.044  1.00  0.00     0.029 A 
ATOM     49  C   UNL A   1      40.841  26.384  28.498  1.00  0.00     0.049 A 
ATOM     50  H   UNL A   1      41.914  28.167  28.560  1.00  0.00     0.167 HD
ATOM     51  C   UNL A   1      44.224  31.819  29.018  1.00  0.00     0.037 A 
ATOM     52  C   UNL A   1      41.611  25.483  27.854  1.00  0.00     0.037 A 
ATOM     53  C   UNL A   1      45.112  30.928  28.321  1.00  0.00     0.049 A 
ATOM     54  C   UNL A   1      42.970  25.885  27.339  1.00  0.00     0.074 A 
ATOM     55  C   UNL A   1      46.404  31.165  27.882  1.00  0.00     0.029 A 
ATOM     56  N   UNL A   1      44.796  29.631  27.950  1.00  0.00    -0.354 N 
ATOM     57  N   UNL A   1      43.618  27.013  27.495  1.00  0.00    -0.248 NA
ATOM     58  C   UNL A   1      43.700  24.882  26.545  1.00  0.00     0.031 C 
ATOM     59  C   UNL A   1      46.854  30.024  27.206  1.00  0.00     0.029 A 
ATOM     60  C   UNL A   1      45.859  29.062  27.266  1.00  0.00     0.049 A 
ATOM     61  H   UNL A   1      43.942  29.179  28.144  1.00  0.00     0.167 HD
ATOM     62  C   UNL A   1      44.841  26.845  26.854  1.00  0.00     0.074 A 
ATOM     63  C   UNL A   1      44.848  25.504  26.308  1.00  0.00     0.031 C 
ATOM     64  C   UNL A   1      45.867  27.722  26.735  1.00  0.00     0.037 A 
BRANCH  51  65
ATOM     65  C   UNL A   1      44.705  33.200  29.348  1.00  0.00     0.057 A 
ATOM     66  C   UNL A   1      45.361  33.487  30.552  1.00  0.00     0.134 A 
ATOM     67  C   UNL A   1      44.488  34.261  28.459  1.00  0.00     0.134 A 
ATOM     68  F   UNL A   1      45.581  32.518  31.454  1.00  0.00    -0.206 F 
ATOM     69  C   UNL A   1      45.752  34.787  30.877  1.00  0.00     0.040 A 
ATOM     70  C   UNL A   1      44.897  35.560  28.762  1.00  0.00     0.040 A 
ATOM     71  F   UNL A   1      43.868  34.052  27.288  1.00  0.00    -0.206 F 
ATOM     72  C   UNL A   1      45.521  35.828  29.979  1.00  0.00     0.006 A 
ENDBRANCH  51  65
BRANCH  52  73
ATOM     73  C   UNL A   1      41.120  24.097  27.640  1.00  0.00     0.057 A 
ATOM     74  C   UNL A   1      41.665  23.020  28.348  1.00  0.00     0.134 A 
ATOM     75  C   UNL A   1      40.134  23.811  26.689  1.00  0.00     0.134 A 
ATOM     76  F   UNL A   1      42.640  23.226  29.246  1.00  0.00    -0.206 F 
ATOM     77  C   UNL A   1      41.256  21.706  28.110  1.00  0.00     0.040 A 
ATOM     78  C   UNL A   1      39.698  22.506  26.457  1.00  0.00     0.040 A 
ATOM     79  F   UNL A   1      39.583  24.798  25.967  1.00  0.00    -0.206 F 
ATOM     80  C   UNL A   1      40.265  21.447  27.164  1.00  0.00     0.006 A 
ENDBRANCH  52  73
BRANCH  64  81
ATOM     81  C   UNL A   1      47.106  27.255  26.025  1.00  0.00     0.057 A 
ATOM     82  C   UNL A   1      48.130  26.568  26.691  1.00  0.00     0.134 A 
ATOM     83  C   UNL A   1      47.253  27.452  24.646  1.00  0.00     0.134 A 
ATOM     84  F   UNL A   1      48.058  26.356  28.013  1.00  0.00    -0.206 F 
ATOM     85  C   UNL A   1      49.263  26.112  26.013  1.00  0.00     0.040 A 
ATOM     86  C   UNL A   1      48.369  26.979  23.953  1.00  0.00     0.040 A 
ATOM     87  F   UNL A   1      46.306  28.093  23.945  1.00  0.00    -0.206 F 
ATOM     88  C   UNL A   1      49.381  26.310  24.638  1.00  0.00     0.006 A 
ENDBRANCH  64  81
ENDBRANCH  38  39
ENDBRANCH  31  33
ENDBRANCH  30  31
ENDBRANCH  29  30
ENDBRANCH  28  29
ENDBRANCH  27  28
ENDBRANCH  26  27
ENDBRANCH   1  26
TORSDOF 21
ENDMDL
MODEL 3
REMARK VINA RESULT:     -10.6      1.852      3.945
REMARK SMILES C[C@H](Oc1ccccc1Cl)C(=O)N1CCCC[C@H]1C(=O)OCCOCCOCCOC(=O)c1ccc(-c2c3nc(c(-c4c(F)cccc4F)c4ccc([nH]4)c(-c4c(F)cccc4F)c4nc(c(-c5c(F)cccc5F)c5ccc2[nH]5)C=C4)C=C3)cc1
REMARK SMILES IDX 25 1 24 2 23 3 22 4 21 5 19 6 20 7 18 8 13 9 14 10 15 11
REMARK SMILES IDX 17 12 16 13 11 14 12 15 2 16 1 17 3 18 4 19 5 20 9 21 6 22
REMARK SMILES IDX 8 23 10 24 7 25 26 26 27 27 28 28 29 29 30 30 31 31 32 32
REMARK SMILES IDX 33 33 34 34 86 35 35 36 85 37 36 38 37 39 38 40 79 41 39 42
REMARK SMILES IDX 84 43 78 44 80 45 40 46 83 47 77 48 76 49 41 51 67 52 50 53
REMARK SMILES IDX 66 54 51 55 54 56 65 57 81 58 52 59 53 60 64 62 82 63 55 64
REMARK SMILES IDX 42 65 43 66 48 67 44 68 45 69 47 70 49 71 46 72 68 73 69 74
REMARK SMILES IDX 74 75 70 76 71 77 73 78 75 79 72 80 56 81 57 82 62 83 58 84
REMARK SMILES IDX 59 85 61 86 63 87 60 88
REMARK H PARENT 80 50 54 61
REMARK Flexibility Score: inf
ROOT
ATOM      1  C   UNL A   1      40.290  21.694  27.079  1.00  0.00     0.188 C 
ENDROOT
BRANCH   1   2
ATOM      2  O   UNL A   1      39.295  21.640  26.059  1.00  0.00    -0.376 OA
BRANCH   2   3
ATOM      3  C   UNL A   1      38.504  22.787  25.807  1.00  0.00     0.202 C 
BRANCH   3   4
ATOM      4  C   UNL A   1      37.117  22.531  25.210  1.00  0.00     0.261 C 
BRANCH   4   5
ATOM      5  O   UNL A   1      36.252  23.678  25.151  1.00  0.00    -0.462 OA
BRANCH   5   6
ATOM      6  C   UNL A   1      35.152  23.531  24.357  1.00  0.00     0.328 C 
ATOM      7  O   UNL A   1      35.169  23.604  23.134  1.00  0.00    -0.250 OA
BRANCH   6   8
ATOM      8  C   UNL A   1      33.866  23.430  25.197  1.00  0.00     0.195 C 
ATOM      9  N   UNL A   1      32.653  23.375  24.357  1.00  0.00    -0.326 N 
ATOM     10  C   UNL A   1      32.374  22.074  23.757  1.00  0.00     0.120 C 
ATOM     11  C   UNL A   1      32.150  21.042  24.847  1.00  0.00     0.022 C 
ATOM     12  C   UNL A   1      33.816  22.326  26.268  1.00  0.00     0.037 C 
ATOM     13  C   UNL A   1      33.373  20.956  25.754  1.00  0.00     0.005 C 
BRANCH   9  14
ATOM     14  C   UNL A   1      31.766  24.424  24.130  1.00  0.00     0.264 C 
ATOM     15  O   UNL A   1      31.475  24.775  22.980  1.00  0.00    -0.271 OA
BRANCH  14  16
ATOM     16  C   UNL A   1      31.246  25.266  25.324  1.00  0.00     0.259 C 
ATOM     17  C   UNL A   1      30.258  24.371  26.083  1.00  0.00     0.064 C 
BRANCH  16  18
ATOM     18  O   UNL A   1      30.803  26.543  24.869  1.00  0.00    -0.479 OA
BRANCH  18  19
ATOM     19  C   UNL A   1      31.206  27.722  25.427  1.00  0.00     0.139 A 
ATOM     20  C   UNL A   1      31.726  27.856  26.713  1.00  0.00     0.048 A 
ATOM     21  C   UNL A   1      31.077  28.878  24.632  1.00  0.00     0.083 A 
ATOM     22  C   UNL A   1      32.010  29.123  27.235  1.00  0.00     0.004 A 
ATOM     23  C   UNL A   1      31.379  30.142  25.147  1.00  0.00     0.024 A 
ATOM     24  Cl  UNL A   1      30.531  28.798  22.991  1.00  0.00    -0.080 Cl
ATOM     25  C   UNL A   1      31.827  30.266  26.459  1.00  0.00     0.002 A 
ENDBRANCH  18  19
ENDBRANCH  16  18
ENDBRANCH  14  16
ENDBRANCH   9  14
ENDBRANCH   6   8
ENDBRANCH   5   6
ENDBRANCH   4   5
ENDBRANCH   3   4
ENDBRANCH   2   3
ENDBRANCH   1   2
BRANCH   1  26
ATOM     26  C   UNL A   1      41.497  20.743  27.032  1.00  0.00     0.188 C 
BRANCH  26  27
ATOM     27  O   UNL A   1      42.088  20.701  25.736  1.00  0.00    -0.376 OA
BRANCH  27  28
ATOM     28  C   UNL A   1      43.504  20.568  25.739  1.00  0.00     0.202 C 
BRANCH  28  29
ATOM     29  C   UNL A   1      44.189  21.938  25.707  1.00  0.00     0.261 C 
BRANCH  29  30
ATOM     30  O   UNL A   1      43.437  22.976  25.046  1.00  0.00    -0.460 OA
BRANCH  30  31
ATOM     31  C   UNL A   1      43.982  24.209  25.040  1.00  0.00     0.338 C 
ATOM     32  O   UNL A   1      44.909  24.593  24.337  1.00  0.00    -0.246 OA
BRANCH  31  33
ATOM     33  C   UNL A   1      43.201  25.106  25.919  1.00  0.00     0.060 A 
ATOM     34  C   UNL A   1      43.701  26.389  26.167  1.00  0.00     0.016 A 
ATOM     35  C   UNL A   1      42.028  24.678  26.550  1.00  0.00     0.016 A 
ATOM     36  C   UNL A   1      43.056  27.229  27.076  1.00  0.00     0.010 A 
ATOM     37  C   UNL A   1      41.390  25.519  27.474  1.00  0.00     0.010 A 
ATOM     38  C   UNL A   1      41.918  26.788  27.766  1.00  0.00    -0.014 A 
BRANCH  38  39
ATOM     39  C   UNL A   1      41.426  27.580  28.925  1.00  0.00     0.031 A 
ATOM     40  C   UNL A   1      42.182  27.499  30.226  1.00  0.00     0.074 A 
ATOM     41  C   UNL A   1      40.391  28.432  28.818  1.00  0.00     0.049 A 
ATOM     42  N   UNL A   1      41.964  28.119  31.358  1.00  0.00    -0.248 NA
ATOM     43  C   UNL A   1      43.354  26.609  30.240  1.00  0.00     0.031 C 
ATOM     44  C   UNL A   1      39.622  28.686  27.603  1.00  0.00     0.029 A 
ATOM     45  N   UNL A   1      39.824  29.261  29.757  1.00  0.00    -0.354 N 
ATOM     46  C   UNL A   1      42.976  27.704  32.215  1.00  0.00     0.074 A 
ATOM     47  C   UNL A   1      43.787  26.755  31.482  1.00  0.00     0.031 C 
ATOM     48  C   UNL A   1      38.692  29.622  27.866  1.00  0.00     0.029 A 
ATOM     49  C   UNL A   1      38.776  30.007  29.275  1.00  0.00     0.049 A 
ATOM     50  H   UNL A   1      40.139  29.316  30.687  1.00  0.00     0.167 HD
ATOM     51  C   UNL A   1      43.220  28.082  33.493  1.00  0.00     0.037 A 
ATOM     52  C   UNL A   1      37.970  30.888  29.902  1.00  0.00     0.037 A 
ATOM     53  C   UNL A   1      42.411  29.003  34.245  1.00  0.00     0.049 A 
ATOM     54  C   UNL A   1      38.173  31.183  31.367  1.00  0.00     0.074 A 
ATOM     55  C   UNL A   1      42.560  29.409  35.559  1.00  0.00     0.029 A 
ATOM     56  N   UNL A   1      41.293  29.656  33.749  1.00  0.00    -0.354 N 
ATOM     57  N   UNL A   1      39.117  30.769  32.176  1.00  0.00    -0.248 NA
ATOM     58  C   UNL A   1      37.183  32.064  32.009  1.00  0.00     0.031 C 
ATOM     59  C   UNL A   1      41.504  30.275  35.874  1.00  0.00     0.029 A 
ATOM     60  C   UNL A   1      40.727  30.444  34.739  1.00  0.00     0.049 A 
ATOM     61  H   UNL A   1      40.951  29.573  32.829  1.00  0.00     0.167 HD
ATOM     62  C   UNL A   1      38.859  31.366  33.405  1.00  0.00     0.074 A 
ATOM     63  C   UNL A   1      37.669  32.173  33.238  1.00  0.00     0.031 C 
ATOM     64  C   UNL A   1      39.550  31.257  34.566  1.00  0.00     0.037 A 
BRANCH  51  65
ATOM     65  C   UNL A   1      44.399  27.446  34.167  1.00  0.00     0.057 A 
ATOM     66  C   UNL A   1      45.669  28.035  34.146  1.00  0.00     0.134 A 
ATOM     67  C   UNL A   1      44.265  26.217  34.825  1.00  0.00     0.134 A 
ATOM     68  F   UNL A   1      45.866  29.203  33.514  1.00  0.00    -0.206 F 
ATOM     69  C   UNL A   1      46.773  27.407  34.724  1.00  0.00     0.040 A 
ATOM     70  C   UNL A   1      45.356  25.591  35.428  1.00  0.00     0.040 A 
ATOM     71  F   UNL A   1      43.075  25.601  34.883  1.00  0.00    -0.206 F 
ATOM     72  C   UNL A   1      46.618  26.182  35.369  1.00  0.00     0.006 A 
ENDBRANCH  51  65
BRANCH  52  73
ATOM     73  C   UNL A   1      36.875  31.562  29.158  1.00  0.00     0.057 A 
ATOM     74  C   UNL A   1      35.716  30.870  28.791  1.00  0.00     0.134 A 
ATOM     75  C   UNL A   1      36.985  32.897  28.749  1.00  0.00     0.134 A 
ATOM     76  F   UNL A   1      35.569  29.578  29.120  1.00  0.00    -0.206 F 
ATOM     77  C   UNL A   1      34.709  31.476  28.037  1.00  0.00     0.040 A 
ATOM     78  C   UNL A   1      35.976  33.523  28.016  1.00  0.00     0.040 A 
ATOM     79  F   UNL A   1      38.078  33.611  29.056  1.00  0.00    -0.206 F 
ATOM     80  C   UNL A   1      34.836  32.809  27.651  1.00  0.00     0.006 A 
ENDBRANCH  52  73
BRANCH  64  81
ATOM     81  C   UNL A   1      39.071  32.060  35.742  1.00  0.00     0.057 A 
ATOM     82  C   UNL A   1      38.227  31.516  36.718  1.00  0.00     0.134 A 
ATOM     83  C   UNL A   1      39.501  33.381  35.924  1.00  0.00     0.134 A 
ATOM     84  F   UNL A   1      37.769  30.261  36.600  1.00  0.00    -0.206 F 
ATOM     85  C   UNL A   1      37.813  32.263  37.824  1.00  0.00     0.040 A 
ATOM     86  C   UNL A   1      39.113  34.130  37.036  1.00  0.00     0.040 A 
ATOM     87  F   UNL A   1      40.318  33.960  35.032  1.00  0.00    -0.206 F 
ATOM     88  C   UNL A   1      38.263  33.572  37.989  1.00  0.00     0.006 A 
ENDBRANCH  64  81
ENDBRANCH  38  39
ENDBRANCH  31  33
ENDBRANCH  30  31
ENDBRANCH  29  30
ENDBRANCH  28  29
ENDBRANCH  27  28
ENDBRANCH  26  27
ENDBRANCH   1  26
TORSDOF 21
ENDMDL
