MODEL 1
REMARK VINA RESULT:     -11.8      0.000      0.000
REMARK SMILES O=C(C[C@@H]([NH2+]Cc1cccnc1)C(=O)OCCOCCOCCOC(=O)c1ccc(-c2c3nc(c(-c4c(F)cccc4F)c4ccc([nH]4)c(-c4c(F)cccc4F)c4nc(c(-c5c(F)cccc5F)c5ccc2[nH]5)C=C4)C=C3)cc1)Nc1ccc2ccccc2c1
REMARK SMILES IDX 19 1 18 2 17 3 16 4 15 5 13 6 14 7 4 8 3 9 2 10 1 11 81 12
REMARK SMILES IDX 82 14 83 15 91 16 84 17 90 18 85 19 89 20 86 21 88 22 87 23
REMARK SMILES IDX 5 24 6 27 7 28 8 29 12 30 9 31 11 32 10 33 20 34 21 35 22 36
REMARK SMILES IDX 23 37 24 38 25 39 26 40 27 41 28 42 80 43 29 44 79 45 30 46
REMARK SMILES IDX 31 47 32 48 73 49 33 50 78 51 72 52 74 53 34 54 77 55 71 56
REMARK SMILES IDX 70 57 35 59 61 60 44 61 60 62 45 63 48 64 59 65 75 66 46 67
REMARK SMILES IDX 47 68 58 70 76 71 49 72 36 73 37 74 42 75 38 76 39 77 41 78
REMARK SMILES IDX 43 79 40 80 62 81 63 82 68 83 64 84 65 85 67 86 69 87 66 88
REMARK SMILES IDX 50 89 51 90 56 91 52 92 53 93 55 94 57 95 54 96
REMARK H PARENT 81 13 5 25 5 26 74 58 48 69
REMARK Flexibility Score: inf
ROOT
ATOM      1  C   UNL A   1      38.179  21.339  25.458  1.00  0.00     0.188 C 
ENDROOT
BRANCH   1   2
ATOM      2  O   UNL A   1      37.340  22.215  24.725  1.00  0.00    -0.376 OA
BRANCH   2   3
ATOM      3  C   UNL A   1      37.145  23.560  25.141  1.00  0.00     0.202 C 
BRANCH   3   4
ATOM      4  C   UNL A   1      35.778  24.068  25.645  1.00  0.00     0.261 C 
BRANCH   4   5
ATOM      5  O   UNL A   1      34.765  23.076  25.928  1.00  0.00    -0.459 OA
BRANCH   5   6
ATOM      6  C   UNL A   1      33.625  23.220  25.207  1.00  0.00     0.365 C 
ATOM      7  O   UNL A   1      33.630  23.718  24.083  1.00  0.00    -0.245 OA
BRANCH   6   8
ATOM      8  C   UNL A   1      32.353  22.570  25.828  1.00  0.00     0.303 C 
BRANCH   8   9
ATOM      9  C   UNL A   1      30.990  23.163  25.379  1.00  0.00     0.177 C 
BRANCH   9  10
ATOM     10  C   UNL A   1      30.982  24.695  25.464  1.00  0.00     0.231 C 
ATOM     11  O   UNL A   1      31.004  25.296  26.533  1.00  0.00    -0.274 OA
ATOM     12  N   UNL A   1      30.808  25.259  24.212  1.00  0.00    -0.326 N 
ATOM     13  H   UNL A   1      30.910  24.655  23.442  1.00  0.00     0.169 HD
BRANCH  12  14
ATOM     14  C   UNL A   1      30.500  26.597  23.925  1.00  0.00     0.041 A 
ATOM     15  C   UNL A   1      31.402  27.550  24.406  1.00  0.00     0.027 A 
ATOM     16  C   UNL A   1      29.304  27.008  23.336  1.00  0.00     0.034 A 
ATOM     17  C   UNL A   1      31.148  28.909  24.261  1.00  0.00     0.011 A 
ATOM     18  C   UNL A   1      28.962  28.382  23.337  1.00  0.00    -0.016 A 
ATOM     19  C   UNL A   1      29.917  29.338  23.765  1.00  0.00    -0.018 A 
ATOM     20  C   UNL A   1      27.677  28.846  22.996  1.00  0.00     0.009 A 
ATOM     21  C   UNL A   1      29.609  30.705  23.760  1.00  0.00     0.009 A 
ATOM     22  C   UNL A   1      27.352  30.205  23.091  1.00  0.00     0.001 A 
ATOM     23  C   UNL A   1      28.322  31.135  23.449  1.00  0.00     0.001 A 
ENDBRANCH  12  14
ENDBRANCH   9  10
ENDBRANCH   8   9
BRANCH   8  24
ATOM     24  N   UNL A   1      32.316  21.085  25.636  1.00  0.00    -0.330 N 
ATOM     25  H   UNL A   1      31.542  20.727  26.197  1.00  0.00     0.347 HD
ATOM     26  H   UNL A   1      33.249  20.775  25.908  1.00  0.00     0.347 HD
BRANCH  24  27
ATOM     27  C   UNL A   1      32.145  20.558  24.275  1.00  0.00     0.299 C 
BRANCH  27  28
ATOM     28  C   UNL A   1      32.905  19.289  23.996  1.00  0.00     0.024 A 
ATOM     29  C   UNL A   1      34.115  18.954  24.614  1.00  0.00     0.013 A 
ATOM     30  C   UNL A   1      32.417  18.384  23.056  1.00  0.00     0.120 A 
ATOM     31  C   UNL A   1      34.747  17.750  24.314  1.00  0.00     0.021 A 
ATOM     32  N   UNL A   1      33.011  17.214  22.734  1.00  0.00    -0.264 NA
ATOM     33  C   UNL A   1      34.160  16.920  23.378  1.00  0.00     0.111 A 
ENDBRANCH  27  28
ENDBRANCH  24  27
ENDBRANCH   8  24
ENDBRANCH   6   8
ENDBRANCH   5   6
ENDBRANCH   4   5
ENDBRANCH   3   4
ENDBRANCH   2   3
ENDBRANCH   1   2
BRANCH   1  34
ATOM     34  C   UNL A   1      39.455  21.864  26.126  1.00  0.00     0.188 C 
BRANCH  34  35
ATOM     35  O   UNL A   1      40.184  20.921  26.867  1.00  0.00    -0.376 OA
BRANCH  35  36
ATOM     36  C   UNL A   1      41.359  20.341  26.327  1.00  0.00     0.202 C 
BRANCH  36  37
ATOM     37  C   UNL A   1      42.619  21.145  25.943  1.00  0.00     0.261 C 
BRANCH  37  38
ATOM     38  O   UNL A   1      42.449  22.493  25.486  1.00  0.00    -0.460 OA
BRANCH  38  39
ATOM     39  C   UNL A   1      43.488  23.345  25.662  1.00  0.00     0.338 C 
ATOM     40  O   UNL A   1      44.535  23.368  25.035  1.00  0.00    -0.246 OA
BRANCH  39  41
ATOM     41  C   UNL A   1      43.024  24.410  26.582  1.00  0.00     0.060 A 
ATOM     42  C   UNL A   1      43.624  25.678  26.522  1.00  0.00     0.016 A 
ATOM     43  C   UNL A   1      41.959  24.176  27.452  1.00  0.00     0.016 A 
ATOM     44  C   UNL A   1      43.152  26.718  27.326  1.00  0.00     0.010 A 
ATOM     45  C   UNL A   1      41.513  25.207  28.283  1.00  0.00     0.010 A 
ATOM     46  C   UNL A   1      42.113  26.479  28.233  1.00  0.00    -0.014 A 
BRANCH  46  47
ATOM     47  C   UNL A   1      41.748  27.494  29.252  1.00  0.00     0.031 A 
ATOM     48  C   UNL A   1      42.493  27.496  30.556  1.00  0.00     0.074 A 
ATOM     49  C   UNL A   1      40.750  28.371  29.045  1.00  0.00     0.049 A 
ATOM     50  N   UNL A   1      42.252  28.168  31.652  1.00  0.00    -0.248 NA
ATOM     51  C   UNL A   1      43.664  26.609  30.635  1.00  0.00     0.031 C 
ATOM     52  C   UNL A   1      39.981  28.507  27.810  1.00  0.00     0.029 A 
ATOM     53  N   UNL A   1      40.192  29.298  29.894  1.00  0.00    -0.354 N 
ATOM     54  C   UNL A   1      43.229  27.773  32.556  1.00  0.00     0.074 A 
ATOM     55  C   UNL A   1      44.054  26.789  31.888  1.00  0.00     0.031 C 
ATOM     56  C   UNL A   1      39.031  29.443  27.991  1.00  0.00     0.029 A 
ATOM     57  C   UNL A   1      39.096  29.935  29.366  1.00  0.00     0.049 A 
ATOM     58  H   UNL A   1      40.547  29.486  30.793  1.00  0.00     0.167 HD
ATOM     59  C   UNL A   1      43.421  28.193  33.829  1.00  0.00     0.037 A 
ATOM     60  C   UNL A   1      38.220  30.783  29.943  1.00  0.00     0.037 A 
ATOM     61  C   UNL A   1      42.597  29.168  34.492  1.00  0.00     0.049 A 
ATOM     62  C   UNL A   1      38.394  31.161  31.394  1.00  0.00     0.074 A 
ATOM     63  C   UNL A   1      42.728  29.677  35.771  1.00  0.00     0.029 A 
ATOM     64  N   UNL A   1      41.480  29.770  33.934  1.00  0.00    -0.354 N 
ATOM     65  N   UNL A   1      39.333  30.804  32.236  1.00  0.00    -0.248 NA
ATOM     66  C   UNL A   1      37.380  32.055  31.975  1.00  0.00     0.031 C 
ATOM     67  C   UNL A   1      41.653  30.538  36.010  1.00  0.00     0.029 A 
ATOM     68  C   UNL A   1      40.888  30.615  34.857  1.00  0.00     0.049 A 
ATOM     69  H   UNL A   1      41.156  29.618  33.016  1.00  0.00     0.167 HD
ATOM     70  C   UNL A   1      39.037  31.445  33.435  1.00  0.00     0.074 A 
ATOM     71  C   UNL A   1      37.841  32.227  33.207  1.00  0.00     0.031 C 
ATOM     72  C   UNL A   1      39.698  31.393  34.618  1.00  0.00     0.037 A 
BRANCH  59  73
ATOM     73  C   UNL A   1      44.545  27.567  34.601  1.00  0.00     0.057 A 
ATOM     74  C   UNL A   1      45.856  28.056  34.537  1.00  0.00     0.134 A 
ATOM     75  C   UNL A   1      44.303  26.479  35.450  1.00  0.00     0.134 A 
ATOM     76  F   UNL A   1      46.159  29.087  33.734  1.00  0.00    -0.206 F 
ATOM     77  C   UNL A   1      46.891  27.469  35.270  1.00  0.00     0.040 A 
ATOM     78  C   UNL A   1      45.322  25.902  36.209  1.00  0.00     0.040 A 
ATOM     79  F   UNL A   1      43.069  25.963  35.562  1.00  0.00    -0.206 F 
ATOM     80  C   UNL A   1      46.622  26.394  36.115  1.00  0.00     0.006 A 
ENDBRANCH  59  73
BRANCH  60  81
ATOM     81  C   UNL A   1      37.068  31.307  29.165  1.00  0.00     0.057 A 
ATOM     82  C   UNL A   1      37.044  32.629  28.706  1.00  0.00     0.134 A 
ATOM     83  C   UNL A   1      35.950  30.510  28.886  1.00  0.00     0.134 A 
ATOM     84  F   UNL A   1      38.072  33.451  28.967  1.00  0.00    -0.206 F 
ATOM     85  C   UNL A   1      35.948  33.144  28.013  1.00  0.00     0.040 A 
ATOM     86  C   UNL A   1      34.860  31.003  28.168  1.00  0.00     0.040 A 
ATOM     87  F   UNL A   1      35.907  29.235  29.300  1.00  0.00    -0.206 F 
ATOM     88  C   UNL A   1      34.854  32.327  27.736  1.00  0.00     0.006 A 
ENDBRANCH  60  81
BRANCH  72  89
ATOM     89  C   UNL A   1      39.167  32.221  35.753  1.00  0.00     0.057 A 
ATOM     90  C   UNL A   1      38.292  31.691  36.710  1.00  0.00     0.134 A 
ATOM     91  C   UNL A   1      39.590  33.545  35.930  1.00  0.00     0.134 A 
ATOM     92  F   UNL A   1      37.839  30.434  36.596  1.00  0.00    -0.206 F 
ATOM     93  C   UNL A   1      37.845  32.454  37.792  1.00  0.00     0.040 A 
ATOM     94  C   UNL A   1      39.174  34.308  37.023  1.00  0.00     0.040 A 
ATOM     95  F   UNL A   1      40.438  34.111  35.058  1.00  0.00    -0.206 F 
ATOM     96  C   UNL A   1      38.294  33.763  37.956  1.00  0.00     0.006 A 
ENDBRANCH  72  89
ENDBRANCH  46  47
ENDBRANCH  39  41
ENDBRANCH  38  39
ENDBRANCH  37  38
ENDBRANCH  36  37
ENDBRANCH  35  36
ENDBRANCH  34  35
ENDBRANCH   1  34
TORSDOF 23
ENDMDL
MODEL 2
REMARK VINA RESULT:     -11.1      4.568      6.897
REMARK SMILES O=C(C[C@@H]([NH2+]Cc1cccnc1)C(=O)OCCOCCOCCOC(=O)c1ccc(-c2c3nc(c(-c4c(F)cccc4F)c4ccc([nH]4)c(-c4c(F)cccc4F)c4nc(c(-c5c(F)cccc5F)c5ccc2[nH]5)C=C4)C=C3)cc1)Nc1ccc2ccccc2c1
REMARK SMILES IDX 19 1 18 2 17 3 16 4 15 5 13 6 14 7 4 8 3 9 2 10 1 11 81 12
REMARK SMILES IDX 82 14 83 15 91 16 84 17 90 18 85 19 89 20 86 21 88 22 87 23
REMARK SMILES IDX 5 24 6 27 7 28 8 29 12 30 9 31 11 32 10 33 20 34 21 35 22 36
REMARK SMILES IDX 23 37 24 38 25 39 26 40 27 41 28 42 80 43 29 44 79 45 30 46
REMARK SMILES IDX 31 47 32 48 73 49 33 50 78 51 72 52 74 53 34 54 77 55 71 56
REMARK SMILES IDX 70 57 35 59 61 60 44 61 60 62 45 63 48 64 59 65 75 66 46 67
REMARK SMILES IDX 47 68 58 70 76 71 49 72 36 73 37 74 42 75 38 76 39 77 41 78
REMARK SMILES IDX 43 79 40 80 62 81 63 82 68 83 64 84 65 85 67 86 69 87 66 88
REMARK SMILES IDX 50 89 51 90 56 91 52 92 53 93 55 94 57 95 54 96
REMARK H PARENT 81 13 5 25 5 26 74 58 48 69
REMARK Flexibility Score: inf
ROOT
ATOM      1  C   UNL A   1      40.884  22.531  27.305  1.00  0.00     0.188 C 
ENDROOT
BRANCH   1   2
ATOM      2  O   UNL A   1      39.576  22.269  26.827  1.00  0.00    -0.376 OA
BRANCH   2   3
ATOM      3  C   UNL A   1      38.732  23.325  26.387  1.00  0.00     0.202 C 
BRANCH   3   4
ATOM      4  C   UNL A   1      37.372  23.055  25.711  1.00  0.00     0.261 C 
BRANCH   4   5
ATOM      5  O   UNL A   1      37.383  22.306  24.475  1.00  0.00    -0.459 OA
BRANCH   5   6
ATOM      6  C   UNL A   1      36.457  22.708  23.569  1.00  0.00     0.365 C 
ATOM      7  O   UNL A   1      36.764  22.981  22.411  1.00  0.00    -0.245 OA
BRANCH   6   8
ATOM      8  C   UNL A   1      34.977  22.642  24.050  1.00  0.00     0.303 C 
BRANCH   8   9
ATOM      9  C   UNL A   1      33.911  23.198  23.067  1.00  0.00     0.177 C 
BRANCH   9  10
ATOM     10  C   UNL A   1      33.265  24.485  23.600  1.00  0.00     0.231 C 
ATOM     11  O   UNL A   1      33.538  24.953  24.699  1.00  0.00    -0.274 OA
ATOM     12  N   UNL A   1      32.268  24.927  22.747  1.00  0.00    -0.326 N 
ATOM     13  H   UNL A   1      32.236  24.509  21.857  1.00  0.00     0.169 HD
BRANCH  12  14
ATOM     14  C   UNL A   1      31.301  25.907  23.017  1.00  0.00     0.041 A 
ATOM     15  C   UNL A   1      30.131  25.459  23.636  1.00  0.00     0.027 A 
ATOM     16  C   UNL A   1      31.392  27.227  22.575  1.00  0.00     0.034 A 
ATOM     17  C   UNL A   1      29.069  26.326  23.863  1.00  0.00     0.011 A 
ATOM     18  C   UNL A   1      30.255  28.069  22.652  1.00  0.00    -0.016 A 
ATOM     19  C   UNL A   1      29.102  27.620  23.343  1.00  0.00    -0.018 A 
ATOM     20  C   UNL A   1      30.187  29.317  22.004  1.00  0.00     0.009 A 
ATOM     21  C   UNL A   1      27.970  28.440  23.448  1.00  0.00     0.009 A 
ATOM     22  C   UNL A   1      29.015  30.082  22.032  1.00  0.00     0.001 A 
ATOM     23  C   UNL A   1      27.917  29.656  22.773  1.00  0.00     0.001 A 
ENDBRANCH  12  14
ENDBRANCH   9  10
ENDBRANCH   8   9
BRANCH   8  24
ATOM     24  N   UNL A   1      34.570  21.263  24.468  1.00  0.00    -0.330 N 
ATOM     25  H   UNL A   1      35.385  20.659  24.353  1.00  0.00     0.347 HD
ATOM     26  H   UNL A   1      33.767  21.050  23.877  1.00  0.00     0.347 HD
BRANCH  24  27
ATOM     27  C   UNL A   1      34.073  21.063  25.836  1.00  0.00     0.299 C 
BRANCH  27  28
ATOM     28  C   UNL A   1      32.822  21.835  26.164  1.00  0.00     0.024 A 
ATOM     29  C   UNL A   1      31.641  21.757  25.419  1.00  0.00     0.013 A 
ATOM     30  C   UNL A   1      32.814  22.705  27.252  1.00  0.00     0.120 A 
ATOM     31  C   UNL A   1      30.520  22.491  25.800  1.00  0.00     0.021 A 
ATOM     32  N   UNL A   1      31.748  23.439  27.642  1.00  0.00    -0.264 NA
ATOM     33  C   UNL A   1      30.622  23.308  26.910  1.00  0.00     0.111 A 
ENDBRANCH  27  28
ENDBRANCH  24  27
ENDBRANCH   8  24
ENDBRANCH   6   8
ENDBRANCH   5   6
ENDBRANCH   4   5
ENDBRANCH   3   4
ENDBRANCH   2   3
ENDBRANCH   1   2
BRANCH   1  34
ATOM     34  C   UNL A   1      41.869  21.380  27.542  1.00  0.00     0.188 C 
BRANCH  34  35
ATOM     35  O   UNL A   1      41.481  20.133  27.029  1.00  0.00    -0.376 OA
BRANCH  35  36
ATOM     36  C   UNL A   1      42.399  19.053  27.004  1.00  0.00     0.202 C 
BRANCH  36  37
ATOM     37  C   UNL A   1      43.066  18.518  25.720  1.00  0.00     0.261 C 
BRANCH  37  38
ATOM     38  O   UNL A   1      44.432  18.873  25.468  1.00  0.00    -0.460 OA
BRANCH  38  39
ATOM     39  C   UNL A   1      44.698  19.544  24.321  1.00  0.00     0.338 C 
ATOM     40  O   UNL A   1      44.585  19.124  23.180  1.00  0.00    -0.246 OA
BRANCH  39  41
ATOM     41  C   UNL A   1      44.907  20.964  24.688  1.00  0.00     0.060 A 
ATOM     42  C   UNL A   1      45.328  21.282  25.990  1.00  0.00     0.016 A 
ATOM     43  C   UNL A   1      44.752  21.970  23.733  1.00  0.00     0.016 A 
ATOM     44  C   UNL A   1      45.604  22.607  26.335  1.00  0.00     0.010 A 
ATOM     45  C   UNL A   1      44.993  23.298  24.092  1.00  0.00     0.010 A 
ATOM     46  C   UNL A   1      45.409  23.626  25.396  1.00  0.00    -0.014 A 
BRANCH  46  47
ATOM     47  C   UNL A   1      45.474  25.052  25.800  1.00  0.00     0.031 A 
ATOM     48  C   UNL A   1      46.811  25.737  25.780  1.00  0.00     0.074 A 
ATOM     49  C   UNL A   1      44.382  25.717  26.216  1.00  0.00     0.049 A 
ATOM     50  N   UNL A   1      47.149  26.916  26.236  1.00  0.00    -0.248 NA
ATOM     51  C   UNL A   1      47.917  24.984  25.168  1.00  0.00     0.031 C 
ATOM     52  C   UNL A   1      43.022  25.184  26.238  1.00  0.00     0.029 A 
ATOM     53  N   UNL A   1      44.258  26.985  26.730  1.00  0.00    -0.354 N 
ATOM     54  C   UNL A   1      48.509  27.038  25.984  1.00  0.00     0.074 A 
ATOM     55  C   UNL A   1      48.937  25.808  25.352  1.00  0.00     0.031 C 
ATOM     56  C   UNL A   1      42.203  26.111  26.769  1.00  0.00     0.029 A 
ATOM     57  C   UNL A   1      42.989  27.279  27.165  1.00  0.00     0.049 A 
ATOM     58  H   UNL A   1      45.008  27.622  26.781  1.00  0.00     0.167 HD
ATOM     59  C   UNL A   1      49.328  28.082  26.255  1.00  0.00     0.037 A 
ATOM     60  C   UNL A   1      42.527  28.347  27.846  1.00  0.00     0.037 A 
ATOM     61  C   UNL A   1      48.900  29.301  26.888  1.00  0.00     0.049 A 
ATOM     62  C   UNL A   1      43.477  29.456  28.227  1.00  0.00     0.074 A 
ATOM     63  C   UNL A   1      49.650  30.427  27.180  1.00  0.00     0.029 A 
ATOM     64  N   UNL A   1      47.613  29.549  27.338  1.00  0.00    -0.354 N 
ATOM     65  N   UNL A   1      44.756  29.578  27.965  1.00  0.00    -0.248 NA
ATOM     66  C   UNL A   1      42.919  30.572  29.006  1.00  0.00     0.031 C 
ATOM     67  C   UNL A   1      48.832  31.329  27.866  1.00  0.00     0.029 A 
ATOM     68  C   UNL A   1      47.557  30.793  27.944  1.00  0.00     0.049 A 
ATOM     69  H   UNL A   1      46.852  28.932  27.242  1.00  0.00     0.167 HD
ATOM     70  C   UNL A   1      45.148  30.790  28.524  1.00  0.00     0.074 A 
ATOM     71  C   UNL A   1      43.969  31.374  29.126  1.00  0.00     0.031 C 
ATOM     72  C   UNL A   1      46.375  31.368  28.537  1.00  0.00     0.037 A 
BRANCH  59  73
ATOM     73  C   UNL A   1      50.779  27.932  25.904  1.00  0.00     0.057 A 
ATOM     74  C   UNL A   1      51.747  27.606  26.862  1.00  0.00     0.134 A 
ATOM     75  C   UNL A   1      51.207  28.083  24.579  1.00  0.00     0.134 A 
ATOM     76  F   UNL A   1      51.407  27.462  28.152  1.00  0.00    -0.206 F 
ATOM     77  C   UNL A   1      53.094  27.461  26.518  1.00  0.00     0.040 A 
ATOM     78  C   UNL A   1      52.544  27.911  24.218  1.00  0.00     0.040 A 
ATOM     79  F   UNL A   1      50.331  28.391  23.610  1.00  0.00    -0.206 F 
ATOM     80  C   UNL A   1      53.493  27.606  25.191  1.00  0.00     0.006 A 
ENDBRANCH  59  73
BRANCH  60  81
ATOM     81  C   UNL A   1      41.099  28.410  28.254  1.00  0.00     0.057 A 
ATOM     82  C   UNL A   1      40.119  28.910  27.387  1.00  0.00     0.134 A 
ATOM     83  C   UNL A   1      40.683  28.002  29.527  1.00  0.00     0.134 A 
ATOM     84  F   UNL A   1      40.459  29.344  26.164  1.00  0.00    -0.206 F 
ATOM     85  C   UNL A   1      38.783  29.014  27.776  1.00  0.00     0.040 A 
ATOM     86  C   UNL A   1      39.345  28.073  29.918  1.00  0.00     0.040 A 
ATOM     87  F   UNL A   1      41.571  27.518  30.407  1.00  0.00    -0.206 F 
ATOM     88  C   UNL A   1      38.392  28.589  29.043  1.00  0.00     0.006 A 
ENDBRANCH  60  81
BRANCH  72  89
ATOM     89  C   UNL A   1      46.508  32.712  29.195  1.00  0.00     0.057 A 
ATOM     90  C   UNL A   1      46.300  33.905  28.490  1.00  0.00     0.134 A 
ATOM     91  C   UNL A   1      46.781  32.812  30.566  1.00  0.00     0.134 A 
ATOM     92  F   UNL A   1      46.046  33.882  27.174  1.00  0.00    -0.206 F 
ATOM     93  C   UNL A   1      46.375  35.148  29.124  1.00  0.00     0.040 A 
ATOM     94  C   UNL A   1      46.829  34.047  31.215  1.00  0.00     0.040 A 
ATOM     95  F   UNL A   1      46.979  31.709  31.303  1.00  0.00    -0.206 F 
ATOM     96  C   UNL A   1      46.630  35.221  30.491  1.00  0.00     0.006 A 
ENDBRANCH  72  89
ENDBRANCH  46  47
ENDBRANCH  39  41
ENDBRANCH  38  39
ENDBRANCH  37  38
ENDBRANCH  36  37
ENDBRANCH  35  36
ENDBRANCH  34  35
ENDBRANCH   1  34
TORSDOF 23
ENDMDL
MODEL 3
REMARK VINA RESULT:     -11.0      4.608      6.963
REMARK SMILES O=C(C[C@@H]([NH2+]Cc1cccnc1)C(=O)OCCOCCOCCOC(=O)c1ccc(-c2c3nc(c(-c4c(F)cccc4F)c4ccc([nH]4)c(-c4c(F)cccc4F)c4nc(c(-c5c(F)cccc5F)c5ccc2[nH]5)C=C4)C=C3)cc1)Nc1ccc2ccccc2c1
REMARK SMILES IDX 19 1 18 2 17 3 16 4 15 5 13 6 14 7 4 8 3 9 2 10 1 11 81 12
REMARK SMILES IDX 82 14 83 15 91 16 84 17 90 18 85 19 89 20 86 21 88 22 87 23
REMARK SMILES IDX 5 24 6 27 7 28 8 29 12 30 9 31 11 32 10 33 20 34 21 35 22 36
REMARK SMILES IDX 23 37 24 38 25 39 26 40 27 41 28 42 80 43 29 44 79 45 30 46
REMARK SMILES IDX 31 47 32 48 73 49 33 50 78 51 72 52 74 53 34 54 77 55 71 56
REMARK SMILES IDX 70 57 35 59 61 60 44 61 60 62 45 63 48 64 59 65 75 66 46 67
REMARK SMILES IDX 47 68 58 70 76 71 49 72 36 73 37 74 42 75 38 76 39 77 41 78
REMARK SMILES IDX 43 79 40 80 62 81 63 82 68 83 64 84 65 85 67 86 69 87 66 88
REMARK SMILES IDX 50 89 51 90 56 91 52 92 53 93 55 94 57 95 54 96
REMARK H PARENT 81 13 5 25 5 26 74 58 48 69
REMARK Flexibility Score: inf
ROOT
ATOM      1  C   UNL A   1      40.632  21.871  27.314  1.00  0.00     0.188 C 
ENDROOT
BRANCH   1   2
ATOM      2  O   UNL A   1      39.389  22.037  26.654  1.00  0.00    -0.376 OA
BRANCH   2   3
ATOM      3  C   UNL A   1      38.830  23.330  26.458  1.00  0.00     0.202 C 
BRANCH   3   4
ATOM      4  C   UNL A   1      37.523  23.543  25.668  1.00  0.00     0.261 C 
BRANCH   4   5
ATOM      5  O   UNL A   1      37.048  22.442  24.860  1.00  0.00    -0.459 OA
BRANCH   5   6
ATOM      6  C   UNL A   1      36.308  22.813  23.787  1.00  0.00     0.365 C 
ATOM      7  O   UNL A   1      36.830  23.221  22.752  1.00  0.00    -0.245 OA
BRANCH   6   8
ATOM      8  C   UNL A   1      34.779  22.537  23.900  1.00  0.00     0.303 C 
BRANCH   8   9
ATOM      9  C   UNL A   1      33.893  23.101  22.756  1.00  0.00     0.177 C 
BRANCH   9  10
ATOM     10  C   UNL A   1      33.539  24.577  22.989  1.00  0.00     0.231 C 
ATOM     11  O   UNL A   1      33.954  25.476  22.266  1.00  0.00    -0.274 OA
ATOM     12  N   UNL A   1      32.834  24.736  24.169  1.00  0.00    -0.326 N 
ATOM     13  H   UNL A   1      32.486  23.914  24.586  1.00  0.00     0.169 HD
BRANCH  12  14
ATOM     14  C   UNL A   1      32.563  25.941  24.834  1.00  0.00     0.041 A 
ATOM     15  C   UNL A   1      31.438  26.644  24.393  1.00  0.00     0.027 A 
ATOM     16  C   UNL A   1      33.419  26.517  25.773  1.00  0.00     0.034 A 
ATOM     17  C   UNL A   1      31.130  27.894  24.916  1.00  0.00     0.011 A 
ATOM     18  C   UNL A   1      33.204  27.856  26.184  1.00  0.00    -0.016 A 
ATOM     19  C   UNL A   1      32.023  28.527  25.781  1.00  0.00    -0.018 A 
ATOM     20  C   UNL A   1      34.154  28.585  26.924  1.00  0.00     0.009 A 
ATOM     21  C   UNL A   1      31.779  29.846  26.188  1.00  0.00     0.009 A 
ATOM     22  C   UNL A   1      33.943  29.933  27.238  1.00  0.00     0.001 A 
ATOM     23  C   UNL A   1      32.747  30.556  26.892  1.00  0.00     0.001 A 
ENDBRANCH  12  14
ENDBRANCH   9  10
ENDBRANCH   8   9
BRANCH   8  24
ATOM     24  N   UNL A   1      34.471  21.081  24.071  1.00  0.00    -0.330 N 
ATOM     25  H   UNL A   1      35.350  20.572  23.973  1.00  0.00     0.347 HD
ATOM     26  H   UNL A   1      33.762  20.892  23.362  1.00  0.00     0.347 HD
BRANCH  24  27
ATOM     27  C   UNL A   1      33.851  20.639  25.327  1.00  0.00     0.299 C 
BRANCH  27  28
ATOM     28  C   UNL A   1      32.876  21.620  25.922  1.00  0.00     0.024 A 
ATOM     29  C   UNL A   1      33.157  22.417  27.037  1.00  0.00     0.013 A 
ATOM     30  C   UNL A   1      31.604  21.750  25.372  1.00  0.00     0.120 A 
ATOM     31  C   UNL A   1      32.207  23.315  27.516  1.00  0.00     0.021 A 
ATOM     32  N   UNL A   1      30.656  22.603  25.819  1.00  0.00    -0.264 NA
ATOM     33  C   UNL A   1      30.983  23.372  26.877  1.00  0.00     0.111 A 
ENDBRANCH  27  28
ENDBRANCH  24  27
ENDBRANCH   8  24
ENDBRANCH   6   8
ENDBRANCH   5   6
ENDBRANCH   4   5
ENDBRANCH   3   4
ENDBRANCH   2   3
ENDBRANCH   1   2
BRANCH   1  34
ATOM     34  C   UNL A   1      41.722  20.982  26.703  1.00  0.00     0.188 C 
BRANCH  34  35
ATOM     35  O   UNL A   1      41.486  19.601  26.770  1.00  0.00    -0.376 OA
BRANCH  35  36
ATOM     36  C   UNL A   1      42.570  18.697  26.903  1.00  0.00     0.202 C 
BRANCH  36  37
ATOM     37  C   UNL A   1      43.422  18.191  25.720  1.00  0.00     0.261 C 
BRANCH  37  38
ATOM     38  O   UNL A   1      44.671  18.844  25.457  1.00  0.00    -0.460 OA
BRANCH  38  39
ATOM     39  C   UNL A   1      44.776  19.545  24.302  1.00  0.00     0.338 C 
ATOM     40  O   UNL A   1      44.551  19.139  23.173  1.00  0.00    -0.246 OA
BRANCH  39  41
ATOM     41  C   UNL A   1      44.965  20.966  24.673  1.00  0.00     0.060 A 
ATOM     42  C   UNL A   1      45.278  21.293  26.003  1.00  0.00     0.016 A 
ATOM     43  C   UNL A   1      44.899  21.964  23.701  1.00  0.00     0.016 A 
ATOM     44  C   UNL A   1      45.535  22.619  26.359  1.00  0.00     0.010 A 
ATOM     45  C   UNL A   1      45.120  23.294  24.067  1.00  0.00     0.010 A 
ATOM     46  C   UNL A   1      45.428  23.631  25.399  1.00  0.00    -0.014 A 
BRANCH  46  47
ATOM     47  C   UNL A   1      45.471  25.060  25.794  1.00  0.00     0.031 A 
ATOM     48  C   UNL A   1      46.798  25.765  25.777  1.00  0.00     0.074 A 
ATOM     49  C   UNL A   1      44.367  25.712  26.200  1.00  0.00     0.049 A 
ATOM     50  N   UNL A   1      47.117  26.950  26.228  1.00  0.00    -0.248 NA
ATOM     51  C   UNL A   1      47.918  25.024  25.176  1.00  0.00     0.031 C 
ATOM     52  C   UNL A   1      43.014  25.161  26.218  1.00  0.00     0.029 A 
ATOM     53  N   UNL A   1      44.222  26.982  26.706  1.00  0.00    -0.354 N 
ATOM     54  C   UNL A   1      48.476  27.090  25.983  1.00  0.00     0.074 A 
ATOM     55  C   UNL A   1      48.925  25.863  25.361  1.00  0.00     0.031 C 
ATOM     56  C   UNL A   1      42.179  26.079  26.739  1.00  0.00     0.029 A 
ATOM     57  C   UNL A   1      42.947  27.260  27.132  1.00  0.00     0.049 A 
ATOM     58  H   UNL A   1      44.963  27.629  26.757  1.00  0.00     0.167 HD
ATOM     59  C   UNL A   1      49.279  28.147  26.253  1.00  0.00     0.037 A 
ATOM     60  C   UNL A   1      42.465  28.325  27.804  1.00  0.00     0.037 A 
ATOM     61  C   UNL A   1      48.830  29.364  26.876  1.00  0.00     0.049 A 
ATOM     62  C   UNL A   1      43.397  29.450  28.184  1.00  0.00     0.074 A 
ATOM     63  C   UNL A   1      49.562  30.501  27.166  1.00  0.00     0.029 A 
ATOM     64  N   UNL A   1      47.537  29.596  27.318  1.00  0.00    -0.354 N 
ATOM     65  N   UNL A   1      44.676  29.588  27.928  1.00  0.00    -0.248 NA
ATOM     66  C   UNL A   1      42.820  30.563  28.953  1.00  0.00     0.031 C 
ATOM     67  C   UNL A   1      48.727  31.396  27.842  1.00  0.00     0.029 A 
ATOM     68  C   UNL A   1      47.460  30.843  27.916  1.00  0.00     0.049 A 
ATOM     69  H   UNL A   1      46.785  28.967  27.221  1.00  0.00     0.167 HD
ATOM     70  C   UNL A   1      45.048  30.809  28.482  1.00  0.00     0.074 A 
ATOM     71  C   UNL A   1      43.857  31.380  29.074  1.00  0.00     0.031 C 
ATOM     72  C   UNL A   1      46.267  31.404  28.499  1.00  0.00     0.037 A 
BRANCH  59  73
ATOM     73  C   UNL A   1      50.734  28.016  25.911  1.00  0.00     0.057 A 
ATOM     74  C   UNL A   1      51.214  28.221  24.612  1.00  0.00     0.134 A 
ATOM     75  C   UNL A   1      51.672  27.714  26.907  1.00  0.00     0.134 A 
ATOM     76  F   UNL A   1      50.368  28.500  23.608  1.00  0.00    -0.206 F 
ATOM     77  C   UNL A   1      52.574  28.105  24.310  1.00  0.00     0.040 A 
ATOM     78  C   UNL A   1      53.035  27.625  26.624  1.00  0.00     0.040 A 
ATOM     79  F   UNL A   1      51.279  27.510  28.174  1.00  0.00    -0.206 F 
ATOM     80  C   UNL A   1      53.489  27.814  25.320  1.00  0.00     0.006 A 
ENDBRANCH  59  73
BRANCH  60  81
ATOM     81  C   UNL A   1      41.035  28.371  28.203  1.00  0.00     0.057 A 
ATOM     82  C   UNL A   1      40.056  28.875  27.338  1.00  0.00     0.134 A 
ATOM     83  C   UNL A   1      40.614  27.940  29.468  1.00  0.00     0.134 A 
ATOM     84  F   UNL A   1      40.400  29.330  26.123  1.00  0.00    -0.206 F 
ATOM     85  C   UNL A   1      38.716  28.963  27.719  1.00  0.00     0.040 A 
ATOM     86  C   UNL A   1      39.273  27.995  29.851  1.00  0.00     0.040 A 
ATOM     87  F   UNL A   1      41.501  27.451  30.346  1.00  0.00    -0.206 F 
ATOM     88  C   UNL A   1      38.321  28.515  28.978  1.00  0.00     0.006 A 
ENDBRANCH  60  81
BRANCH  72  89
ATOM     89  C   UNL A   1      46.377  32.754  29.149  1.00  0.00     0.057 A 
ATOM     90  C   UNL A   1      46.754  32.901  30.490  1.00  0.00     0.134 A 
ATOM     91  C   UNL A   1      46.171  33.924  28.406  1.00  0.00     0.134 A 
ATOM     92  F   UNL A   1      46.957  31.823  31.262  1.00  0.00    -0.206 F 
ATOM     93  C   UNL A   1      46.905  34.162  31.071  1.00  0.00     0.040 A 
ATOM     94  C   UNL A   1      46.348  35.190  28.968  1.00  0.00     0.040 A 
ATOM     95  F   UNL A   1      45.820  33.856  27.113  1.00  0.00    -0.206 F 
ATOM     96  C   UNL A   1      46.712  35.311  30.307  1.00  0.00     0.006 A 
ENDBRANCH  72  89
ENDBRANCH  46  47
ENDBRANCH  39  41
ENDBRANCH  38  39
ENDBRANCH  37  38
ENDBRANCH  36  37
ENDBRANCH  35  36
ENDBRANCH  34  35
ENDBRANCH   1  34
TORSDOF 23
ENDMDL
