MODEL 1
REMARK VINA RESULT:     -11.2      0.000      0.000
REMARK SMILES O=C(OCCOCCOCCOC(=O)[C@H]1CC2(CC[NH+](C(=O)C3CC3)CC2)CN1C(=O)CCn1cccn1)c1ccc(-c2c3nc(c(-c4c(F)cccc4F)c4ccc([nH]4)c(-c4c(F)cccc4F)c4nc(c(-c5c(F)cccc5F)c5ccc2[nH]5)C=C4)C=C3)cc1
REMARK SMILES IDX 8 1 7 2 6 3 5 4 4 5 3 6 2 7 1 8 39 9 40 10 92 11 41 12 91 13
REMARK SMILES IDX 42 14 43 15 44 16 85 17 45 18 90 19 84 20 86 21 46 22 89 23
REMARK SMILES IDX 83 24 82 25 47 27 73 28 56 29 72 30 57 31 60 32 71 33 87 34
REMARK SMILES IDX 58 35 59 36 70 38 88 39 61 40 48 41 49 42 54 43 50 44 51 45
REMARK SMILES IDX 53 46 55 47 52 48 74 49 75 50 80 51 76 52 77 53 79 54 81 55
REMARK SMILES IDX 78 56 62 57 63 58 68 59 64 60 65 61 67 62 69 63 66 64 9 65
REMARK SMILES IDX 10 66 11 67 12 68 13 69 14 70 15 71 16 72 29 73 17 74 28 75
REMARK SMILES IDX 18 76 27 77 19 78 26 79 20 80 30 82 31 83 32 84 33 85 34 86
REMARK SMILES IDX 35 87 38 88 36 89 37 90 21 91 22 92 23 93 24 94 25 95
REMARK H PARENT 86 26 60 37 20 81
REMARK Flexibility Score: inf
ROOT
ATOM      1  C   UNL A   1      33.607  33.829  27.904  1.00  0.00     0.188 C 
ENDROOT
BRANCH   1   2
ATOM      2  C   UNL A   1      33.620  34.479  29.315  1.00  0.00     0.188 C 
BRANCH   2   3
ATOM      3  O   UNL A   1      32.693  35.503  29.651  1.00  0.00    -0.376 OA
BRANCH   3   4
ATOM      4  C   UNL A   1      33.209  36.712  30.175  1.00  0.00     0.202 C 
BRANCH   4   5
ATOM      5  C   UNL A   1      32.979  36.931  31.672  1.00  0.00     0.261 C 
BRANCH   5   6
ATOM      6  O   UNL A   1      33.870  36.146  32.491  1.00  0.00    -0.460 OA
BRANCH   6   7
ATOM      7  C   UNL A   1      33.968  34.822  32.730  1.00  0.00     0.338 C 
ATOM      8  O   UNL A   1      32.925  34.181  32.867  1.00  0.00    -0.246 OA
BRANCH   7   9
ATOM      9  C   UNL A   1      35.250  34.070  32.845  1.00  0.00     0.060 A 
ATOM     10  C   UNL A   1      36.526  34.624  32.951  1.00  0.00     0.016 A 
ATOM     11  C   UNL A   1      35.127  32.666  32.867  1.00  0.00     0.016 A 
ATOM     12  C   UNL A   1      37.645  33.819  32.803  1.00  0.00     0.010 A 
ATOM     13  C   UNL A   1      36.241  31.850  32.794  1.00  0.00     0.010 A 
ATOM     14  C   UNL A   1      37.487  32.441  32.651  1.00  0.00    -0.014 A 
BRANCH  14  15
ATOM     15  C   UNL A   1      38.671  31.643  32.382  1.00  0.00     0.031 A 
ATOM     16  C   UNL A   1      39.490  31.324  33.578  1.00  0.00     0.074 A 
ATOM     17  C   UNL A   1      38.952  31.180  31.147  1.00  0.00     0.049 A 
ATOM     18  N   UNL A   1      40.699  31.701  33.831  1.00  0.00    -0.248 NA
ATOM     19  C   UNL A   1      38.838  30.608  34.685  1.00  0.00     0.031 C 
ATOM     20  C   UNL A   1      38.090  31.221  29.962  1.00  0.00     0.029 A 
ATOM     21  N   UNL A   1      40.036  30.483  30.708  1.00  0.00    -0.354 N 
ATOM     22  C   UNL A   1      41.044  31.078  35.028  1.00  0.00     0.074 A 
ATOM     23  C   UNL A   1      39.817  30.576  35.589  1.00  0.00     0.031 C 
ATOM     24  C   UNL A   1      38.578  30.378  29.026  1.00  0.00     0.029 A 
ATOM     25  C   UNL A   1      39.848  29.846  29.488  1.00  0.00     0.049 A 
ATOM     26  H   UNL A   1      40.880  30.435  31.212  1.00  0.00     0.167 HD
ATOM     27  C   UNL A   1      42.344  30.776  35.297  1.00  0.00     0.037 A 
ATOM     28  C   UNL A   1      40.645  28.900  28.931  1.00  0.00     0.037 A 
ATOM     29  C   UNL A   1      43.238  31.615  34.531  1.00  0.00     0.049 A 
ATOM     30  C   UNL A   1      41.973  28.988  29.587  1.00  0.00     0.074 A 
ATOM     31  C   UNL A   1      43.411  32.979  34.381  1.00  0.00     0.029 A 
ATOM     32  N   UNL A   1      43.916  31.046  33.481  1.00  0.00    -0.354 N 
ATOM     33  N   UNL A   1      42.807  29.974  29.414  1.00  0.00    -0.248 NA
ATOM     34  C   UNL A   1      42.191  28.191  30.784  1.00  0.00     0.031 C 
ATOM     35  C   UNL A   1      43.745  33.162  33.006  1.00  0.00     0.029 A 
ATOM     36  C   UNL A   1      43.821  31.900  32.416  1.00  0.00     0.049 A 
ATOM     37  H   UNL A   1      44.385  30.181  33.492  1.00  0.00     0.167 HD
ATOM     38  C   UNL A   1      43.340  30.204  30.673  1.00  0.00     0.074 A 
ATOM     39  C   UNL A   1      43.004  29.012  31.451  1.00  0.00     0.031 C 
ATOM     40  C   UNL A   1      43.741  31.454  31.048  1.00  0.00     0.037 A 
BRANCH  27  41
ATOM     41  C   UNL A   1      42.783  29.436  35.860  1.00  0.00     0.057 A 
ATOM     42  C   UNL A   1      43.769  29.420  36.867  1.00  0.00     0.134 A 
ATOM     43  C   UNL A   1      42.557  28.189  35.240  1.00  0.00     0.134 A 
ATOM     44  F   UNL A   1      44.066  30.533  37.556  1.00  0.00    -0.206 F 
ATOM     45  C   UNL A   1      44.569  28.300  37.120  1.00  0.00     0.040 A 
ATOM     46  C   UNL A   1      43.318  27.051  35.521  1.00  0.00     0.040 A 
ATOM     47  F   UNL A   1      41.658  28.010  34.267  1.00  0.00    -0.206 F 
ATOM     48  C   UNL A   1      44.360  27.116  36.429  1.00  0.00     0.006 A 
ENDBRANCH  27  41
BRANCH  28  49
ATOM     49  C   UNL A   1      40.264  27.749  28.080  1.00  0.00     0.057 A 
ATOM     50  C   UNL A   1      40.813  27.578  26.800  1.00  0.00     0.134 A 
ATOM     51  C   UNL A   1      39.563  26.644  28.598  1.00  0.00     0.134 A 
ATOM     52  F   UNL A   1      41.534  28.557  26.232  1.00  0.00    -0.206 F 
ATOM     53  C   UNL A   1      40.700  26.374  26.092  1.00  0.00     0.040 A 
ATOM     54  C   UNL A   1      39.433  25.441  27.897  1.00  0.00     0.040 A 
ATOM     55  F   UNL A   1      39.060  26.660  29.839  1.00  0.00    -0.206 F 
ATOM     56  C   UNL A   1      40.015  25.297  26.645  1.00  0.00     0.006 A 
ENDBRANCH  28  49
BRANCH  40  57
ATOM     57  C   UNL A   1      43.874  32.500  29.978  1.00  0.00     0.057 A 
ATOM     58  C   UNL A   1      42.833  33.342  29.559  1.00  0.00     0.134 A 
ATOM     59  C   UNL A   1      45.142  32.745  29.440  1.00  0.00     0.134 A 
ATOM     60  F   UNL A   1      41.608  33.256  30.097  1.00  0.00    -0.206 F 
ATOM     61  C   UNL A   1      43.036  34.344  28.605  1.00  0.00     0.040 A 
ATOM     62  C   UNL A   1      45.366  33.766  28.513  1.00  0.00     0.040 A 
ATOM     63  F   UNL A   1      46.198  32.018  29.836  1.00  0.00    -0.206 F 
ATOM     64  C   UNL A   1      44.306  34.560  28.082  1.00  0.00     0.006 A 
ENDBRANCH  40  57
ENDBRANCH  14  15
ENDBRANCH   7   9
ENDBRANCH   6   7
ENDBRANCH   5   6
ENDBRANCH   4   5
ENDBRANCH   3   4
ENDBRANCH   2   3
ENDBRANCH   1   2
BRANCH   1  65
ATOM     65  O   UNL A   1      34.681  32.981  27.528  1.00  0.00    -0.376 OA
BRANCH  65  66
ATOM     66  C   UNL A   1      34.556  31.609  27.855  1.00  0.00     0.202 C 
BRANCH  66  67
ATOM     67  C   UNL A   1      33.328  30.869  27.317  1.00  0.00     0.261 C 
BRANCH  67  68
ATOM     68  O   UNL A   1      33.620  29.962  26.234  1.00  0.00    -0.462 OA
BRANCH  68  69
ATOM     69  C   UNL A   1      33.176  28.709  26.444  1.00  0.00     0.328 C 
ATOM     70  O   UNL A   1      33.086  28.235  27.580  1.00  0.00    -0.250 OA
BRANCH  69  71
ATOM     71  C   UNL A   1      32.933  27.827  25.178  1.00  0.00     0.195 C 
ATOM     72  C   UNL A   1      33.403  26.414  25.561  1.00  0.00     0.046 C 
ATOM     73  N   UNL A   1      32.068  27.541  23.999  1.00  0.00    -0.328 N 
ATOM     74  C   UNL A   1      33.229  25.526  24.309  1.00  0.00     0.001 C 
ATOM     75  C   UNL A   1      32.791  26.527  23.225  1.00  0.00     0.128 C 
ATOM     76  C   UNL A   1      32.144  24.451  24.530  1.00  0.00     0.071 C 
ATOM     77  C   UNL A   1      34.540  24.809  23.976  1.00  0.00     0.071 C 
ATOM     78  C   UNL A   1      32.535  23.421  25.589  1.00  0.00     0.270 C 
ATOM     79  C   UNL A   1      34.915  23.822  25.086  1.00  0.00     0.270 C 
ATOM     80  N   UNL A   1      33.848  22.846  25.329  1.00  0.00    -0.272 N 
ATOM     81  H   UNL A   1      34.657  22.285  25.339  1.00  0.00     0.356 HD
BRANCH  73  82
ATOM     82  C   UNL A   1      30.687  27.483  23.868  1.00  0.00     0.225 C 
ATOM     83  O   UNL A   1      29.991  26.704  24.530  1.00  0.00    -0.275 OA
BRANCH  82  84
ATOM     84  C   UNL A   1      30.000  28.327  22.849  1.00  0.00     0.124 C 
BRANCH  84  85
ATOM     85  C   UNL A   1      29.619  29.693  23.393  1.00  0.00     0.154 C 
BRANCH  85  86
ATOM     86  N   UNL A   1      28.997  30.545  22.397  1.00  0.00    -0.272 N 
ATOM     87  C   UNL A   1      28.897  31.905  22.407  1.00  0.00     0.108 A 
ATOM     88  N   UNL A   1      28.429  29.988  21.316  1.00  0.00    -0.182 NA
ATOM     89  C   UNL A   1      28.222  32.247  21.258  1.00  0.00     0.042 A 
ATOM     90  C   UNL A   1      27.945  31.024  20.629  1.00  0.00     0.135 A 
ENDBRANCH  85  86
ENDBRANCH  84  85
ENDBRANCH  82  84
ENDBRANCH  73  82
BRANCH  80  91
ATOM     91  C   UNL A   1      34.238  21.504  25.417  1.00  0.00     0.315 C 
ATOM     92  O   UNL A   1      35.096  21.156  26.209  1.00  0.00    -0.231 OA
BRANCH  91  93
ATOM     93  C   UNL A   1      33.673  20.405  24.573  1.00  0.00     0.119 C 
ATOM     94  C   UNL A   1      33.963  18.935  24.530  1.00  0.00     0.019 C 
ATOM     95  C   UNL A   1      32.669  19.427  25.126  1.00  0.00     0.019 C 
ENDBRANCH  91  93
ENDBRANCH  80  91
ENDBRANCH  69  71
ENDBRANCH  68  69
ENDBRANCH  67  68
ENDBRANCH  66  67
ENDBRANCH  65  66
ENDBRANCH   1  65
TORSDOF 23
ENDMDL
MODEL 2
REMARK VINA RESULT:     -10.7      3.369      7.139
REMARK SMILES O=C(OCCOCCOCCOC(=O)[C@H]1CC2(CC[NH+](C(=O)C3CC3)CC2)CN1C(=O)CCn1cccn1)c1ccc(-c2c3nc(c(-c4c(F)cccc4F)c4ccc([nH]4)c(-c4c(F)cccc4F)c4nc(c(-c5c(F)cccc5F)c5ccc2[nH]5)C=C4)C=C3)cc1
REMARK SMILES IDX 8 1 7 2 6 3 5 4 4 5 3 6 2 7 1 8 39 9 40 10 92 11 41 12 91 13
REMARK SMILES IDX 42 14 43 15 44 16 85 17 45 18 90 19 84 20 86 21 46 22 89 23
REMARK SMILES IDX 83 24 82 25 47 27 73 28 56 29 72 30 57 31 60 32 71 33 87 34
REMARK SMILES IDX 58 35 59 36 70 38 88 39 61 40 48 41 49 42 54 43 50 44 51 45
REMARK SMILES IDX 53 46 55 47 52 48 74 49 75 50 80 51 76 52 77 53 79 54 81 55
REMARK SMILES IDX 78 56 62 57 63 58 68 59 64 60 65 61 67 62 69 63 66 64 9 65
REMARK SMILES IDX 10 66 11 67 12 68 13 69 14 70 15 71 16 72 29 73 17 74 28 75
REMARK SMILES IDX 18 76 27 77 19 78 26 79 20 80 30 82 31 83 32 84 33 85 34 86
REMARK SMILES IDX 35 87 38 88 36 89 37 90 21 91 22 92 23 93 24 94 25 95
REMARK H PARENT 86 26 60 37 20 81
REMARK Flexibility Score: inf
ROOT
ATOM      1  C   UNL A   1      34.062  30.425  27.307  1.00  0.00     0.188 C 
ENDROOT
BRANCH   1   2
ATOM      2  C   UNL A   1      33.790  31.933  27.561  1.00  0.00     0.188 C 
BRANCH   2   3
ATOM      3  O   UNL A   1      34.793  32.765  28.128  1.00  0.00    -0.376 OA
BRANCH   3   4
ATOM      4  C   UNL A   1      34.659  33.123  29.491  1.00  0.00     0.202 C 
BRANCH   4   5
ATOM      5  C   UNL A   1      35.531  32.331  30.468  1.00  0.00     0.261 C 
BRANCH   5   6
ATOM      6  O   UNL A   1      36.236  31.247  29.829  1.00  0.00    -0.460 OA
BRANCH   6   7
ATOM      7  C   UNL A   1      36.591  30.014  30.245  1.00  0.00     0.338 C 
ATOM      8  O   UNL A   1      35.833  29.422  31.015  1.00  0.00    -0.246 OA
BRANCH   7   9
ATOM      9  C   UNL A   1      37.841  29.307  29.843  1.00  0.00     0.060 A 
ATOM     10  C   UNL A   1      38.400  28.195  30.474  1.00  0.00     0.016 A 
ATOM     11  C   UNL A   1      38.487  29.822  28.702  1.00  0.00     0.016 A 
ATOM     12  C   UNL A   1      39.687  27.790  30.154  1.00  0.00     0.010 A 
ATOM     13  C   UNL A   1      39.740  29.374  28.327  1.00  0.00     0.010 A 
ATOM     14  C   UNL A   1      40.375  28.435  29.127  1.00  0.00    -0.014 A 
BRANCH  14  15
ATOM     15  C   UNL A   1      41.760  28.064  28.894  1.00  0.00     0.031 A 
ATOM     16  C   UNL A   1      41.947  26.790  28.158  1.00  0.00     0.074 A 
ATOM     17  C   UNL A   1      42.783  28.861  29.266  1.00  0.00     0.049 A 
ATOM     18  N   UNL A   1      42.495  25.702  28.588  1.00  0.00    -0.248 NA
ATOM     19  C   UNL A   1      41.333  26.670  26.827  1.00  0.00     0.031 C 
ATOM     20  C   UNL A   1      42.705  30.239  29.763  1.00  0.00     0.029 A 
ATOM     21  N   UNL A   1      44.124  28.645  29.187  1.00  0.00    -0.354 N 
ATOM     22  C   UNL A   1      42.501  24.830  27.502  1.00  0.00     0.074 A 
ATOM     23  C   UNL A   1      41.621  25.405  26.519  1.00  0.00     0.031 C 
ATOM     24  C   UNL A   1      43.931  30.802  29.710  1.00  0.00     0.029 A 
ATOM     25  C   UNL A   1      44.896  29.794  29.307  1.00  0.00     0.049 A 
ATOM     26  H   UNL A   1      44.514  27.750  29.056  1.00  0.00     0.167 HD
ATOM     27  C   UNL A   1      43.458  23.867  27.397  1.00  0.00     0.037 A 
ATOM     28  C   UNL A   1      46.218  29.921  29.029  1.00  0.00     0.037 A 
ATOM     29  C   UNL A   1      44.021  23.557  28.692  1.00  0.00     0.049 A 
ATOM     30  C   UNL A   1      46.811  28.561  29.031  1.00  0.00     0.074 A 
ATOM     31  C   UNL A   1      43.507  23.149  29.910  1.00  0.00     0.029 A 
ATOM     32  N   UNL A   1      45.295  23.993  28.964  1.00  0.00    -0.354 N 
ATOM     33  N   UNL A   1      46.975  27.839  30.103  1.00  0.00    -0.248 NA
ATOM     34  C   UNL A   1      46.815  27.824  27.776  1.00  0.00     0.031 C 
ATOM     35  C   UNL A   1      44.298  23.819  30.889  1.00  0.00     0.029 A 
ATOM     36  C   UNL A   1      45.285  24.540  30.218  1.00  0.00     0.049 A 
ATOM     37  H   UNL A   1      46.073  23.923  28.365  1.00  0.00     0.167 HD
ATOM     38  C   UNL A   1      46.643  26.552  29.709  1.00  0.00     0.074 A 
ATOM     39  C   UNL A   1      46.656  26.585  28.248  1.00  0.00     0.031 C 
ATOM     40  C   UNL A   1      46.104  25.665  30.596  1.00  0.00     0.037 A 
BRANCH  27  41
ATOM     41  C   UNL A   1      44.201  23.577  26.105  1.00  0.00     0.057 A 
ATOM     42  C   UNL A   1      44.370  22.233  25.716  1.00  0.00     0.134 A 
ATOM     43  C   UNL A   1      45.037  24.493  25.433  1.00  0.00     0.134 A 
ATOM     44  F   UNL A   1      43.621  21.260  26.257  1.00  0.00    -0.206 F 
ATOM     45  C   UNL A   1      45.392  21.823  24.852  1.00  0.00     0.040 A 
ATOM     46  C   UNL A   1      46.028  24.098  24.532  1.00  0.00     0.040 A 
ATOM     47  F   UNL A   1      45.015  25.809  25.669  1.00  0.00    -0.206 F 
ATOM     48  C   UNL A   1      46.241  22.756  24.274  1.00  0.00     0.006 A 
ENDBRANCH  27  41
BRANCH  28  49
ATOM     49  C   UNL A   1      46.944  31.094  28.489  1.00  0.00     0.057 A 
ATOM     50  C   UNL A   1      48.147  31.532  29.064  1.00  0.00     0.134 A 
ATOM     51  C   UNL A   1      46.626  31.651  27.237  1.00  0.00     0.134 A 
ATOM     52  F   UNL A   1      48.563  31.032  30.238  1.00  0.00    -0.206 F 
ATOM     53  C   UNL A   1      48.996  32.442  28.420  1.00  0.00     0.040 A 
ATOM     54  C   UNL A   1      47.459  32.569  26.589  1.00  0.00     0.040 A 
ATOM     55  F   UNL A   1      45.543  31.255  26.555  1.00  0.00    -0.206 F 
ATOM     56  C   UNL A   1      48.657  32.956  27.173  1.00  0.00     0.006 A 
ENDBRANCH  28  49
BRANCH  40  57
ATOM     57  C   UNL A   1      46.160  26.008  32.058  1.00  0.00     0.057 A 
ATOM     58  C   UNL A   1      45.106  26.597  32.774  1.00  0.00     0.134 A 
ATOM     59  C   UNL A   1      47.282  25.613  32.793  1.00  0.00     0.134 A 
ATOM     60  F   UNL A   1      43.948  26.911  32.177  1.00  0.00    -0.206 F 
ATOM     61  C   UNL A   1      45.193  26.832  34.150  1.00  0.00     0.040 A 
ATOM     62  C   UNL A   1      47.367  25.809  34.173  1.00  0.00     0.040 A 
ATOM     63  F   UNL A   1      48.305  24.992  32.185  1.00  0.00    -0.206 F 
ATOM     64  C   UNL A   1      46.325  26.434  34.854  1.00  0.00     0.006 A 
ENDBRANCH  40  57
ENDBRANCH  14  15
ENDBRANCH   7   9
ENDBRANCH   6   7
ENDBRANCH   5   6
ENDBRANCH   4   5
ENDBRANCH   3   4
ENDBRANCH   2   3
ENDBRANCH   1   2
BRANCH   1  65
ATOM     65  O   UNL A   1      33.106  29.471  27.745  1.00  0.00    -0.376 OA
BRANCH  65  66
ATOM     66  C   UNL A   1      32.377  28.790  26.741  1.00  0.00     0.202 C 
BRANCH  66  67
ATOM     67  C   UNL A   1      31.715  27.466  27.132  1.00  0.00     0.261 C 
BRANCH  67  68
ATOM     68  O   UNL A   1      30.985  26.838  26.057  1.00  0.00    -0.462 OA
BRANCH  68  69
ATOM     69  C   UNL A   1      31.094  25.496  26.042  1.00  0.00     0.328 C 
ATOM     70  O   UNL A   1      30.310  24.775  26.665  1.00  0.00    -0.250 OA
BRANCH  69  71
ATOM     71  C   UNL A   1      32.352  24.901  25.334  1.00  0.00     0.195 C 
ATOM     72  C   UNL A   1      32.217  23.375  25.463  1.00  0.00     0.046 C 
ATOM     73  N   UNL A   1      33.333  25.018  24.218  1.00  0.00    -0.328 N 
ATOM     74  C   UNL A   1      33.478  22.755  24.820  1.00  0.00     0.001 C 
ATOM     75  C   UNL A   1      34.340  23.983  24.477  1.00  0.00     0.128 C 
ATOM     76  C   UNL A   1      33.126  21.962  23.544  1.00  0.00     0.071 C 
ATOM     77  C   UNL A   1      34.158  21.793  25.798  1.00  0.00     0.071 C 
ATOM     78  C   UNL A   1      32.281  20.721  23.831  1.00  0.00     0.270 C 
ATOM     79  C   UNL A   1      33.256  20.590  26.091  1.00  0.00     0.270 C 
ATOM     80  N   UNL A   1      32.877  19.884  24.863  1.00  0.00    -0.272 N 
ATOM     81  H   UNL A   1      33.099  19.144  25.474  1.00  0.00     0.356 HD
BRANCH  73  82
ATOM     82  C   UNL A   1      33.161  25.324  22.875  1.00  0.00     0.225 C 
ATOM     83  O   UNL A   1      34.041  25.120  22.031  1.00  0.00    -0.275 OA
BRANCH  82  84
ATOM     84  C   UNL A   1      31.907  25.990  22.419  1.00  0.00     0.124 C 
BRANCH  84  85
ATOM     85  C   UNL A   1      32.106  27.472  22.151  1.00  0.00     0.154 C 
BRANCH  85  86
ATOM     86  N   UNL A   1      31.054  28.295  22.716  1.00  0.00    -0.272 N 
ATOM     87  C   UNL A   1      29.716  28.232  22.459  1.00  0.00     0.108 A 
ATOM     88  N   UNL A   1      31.372  29.256  23.598  1.00  0.00    -0.182 NA
ATOM     89  C   UNL A   1      29.134  29.215  23.227  1.00  0.00     0.042 A 
ATOM     90  C   UNL A   1      30.204  29.825  23.899  1.00  0.00     0.135 A 
ENDBRANCH  85  86
ENDBRANCH  84  85
ENDBRANCH  82  84
ENDBRANCH  73  82
BRANCH  80  91
ATOM     91  C   UNL A   1      33.004  18.489  24.880  1.00  0.00     0.315 C 
ATOM     92  O   UNL A   1      32.110  17.788  25.320  1.00  0.00    -0.231 OA
BRANCH  91  93
ATOM     93  C   UNL A   1      34.208  17.746  24.391  1.00  0.00     0.119 C 
ATOM     94  C   UNL A   1      34.689  16.351  24.653  1.00  0.00     0.019 C 
ATOM     95  C   UNL A   1      34.101  16.703  23.310  1.00  0.00     0.019 C 
ENDBRANCH  91  93
ENDBRANCH  80  91
ENDBRANCH  69  71
ENDBRANCH  68  69
ENDBRANCH  67  68
ENDBRANCH  66  67
ENDBRANCH  65  66
ENDBRANCH   1  65
TORSDOF 23
ENDMDL
MODEL 3
REMARK VINA RESULT:     -10.6      2.216      5.830
REMARK SMILES O=C(OCCOCCOCCOC(=O)[C@H]1CC2(CC[NH+](C(=O)C3CC3)CC2)CN1C(=O)CCn1cccn1)c1ccc(-c2c3nc(c(-c4c(F)cccc4F)c4ccc([nH]4)c(-c4c(F)cccc4F)c4nc(c(-c5c(F)cccc5F)c5ccc2[nH]5)C=C4)C=C3)cc1
REMARK SMILES IDX 8 1 7 2 6 3 5 4 4 5 3 6 2 7 1 8 39 9 40 10 92 11 41 12 91 13
REMARK SMILES IDX 42 14 43 15 44 16 85 17 45 18 90 19 84 20 86 21 46 22 89 23
REMARK SMILES IDX 83 24 82 25 47 27 73 28 56 29 72 30 57 31 60 32 71 33 87 34
REMARK SMILES IDX 58 35 59 36 70 38 88 39 61 40 48 41 49 42 54 43 50 44 51 45
REMARK SMILES IDX 53 46 55 47 52 48 74 49 75 50 80 51 76 52 77 53 79 54 81 55
REMARK SMILES IDX 78 56 62 57 63 58 68 59 64 60 65 61 67 62 69 63 66 64 9 65
REMARK SMILES IDX 10 66 11 67 12 68 13 69 14 70 15 71 16 72 29 73 17 74 28 75
REMARK SMILES IDX 18 76 27 77 19 78 26 79 20 80 30 82 31 83 32 84 33 85 34 86
REMARK SMILES IDX 35 87 38 88 36 89 37 90 21 91 22 92 23 93 24 94 25 95
REMARK H PARENT 86 26 60 37 20 81
REMARK Flexibility Score: inf
ROOT
ATOM      1  C   UNL A   1      34.008  30.140  26.884  1.00  0.00     0.188 C 
ENDROOT
BRANCH   1   2
ATOM      2  C   UNL A   1      33.551  31.440  27.601  1.00  0.00     0.188 C 
BRANCH   2   3
ATOM      3  O   UNL A   1      34.392  32.076  28.554  1.00  0.00    -0.376 OA
BRANCH   3   4
ATOM      4  C   UNL A   1      34.293  33.482  28.685  1.00  0.00     0.202 C 
BRANCH   4   5
ATOM      5  C   UNL A   1      34.154  34.002  30.117  1.00  0.00     0.261 C 
BRANCH   5   6
ATOM      6  O   UNL A   1      34.412  32.983  31.104  1.00  0.00    -0.460 OA
BRANCH   6   7
ATOM      7  C   UNL A   1      35.399  32.812  32.008  1.00  0.00     0.338 C 
ATOM      8  O   UNL A   1      35.131  32.986  33.198  1.00  0.00    -0.246 OA
BRANCH   7   9
ATOM      9  C   UNL A   1      36.802  32.429  31.676  1.00  0.00     0.060 A 
ATOM     10  C   UNL A   1      37.264  31.982  30.438  1.00  0.00     0.016 A 
ATOM     11  C   UNL A   1      37.729  32.560  32.729  1.00  0.00     0.016 A 
ATOM     12  C   UNL A   1      38.530  31.426  30.331  1.00  0.00     0.010 A 
ATOM     13  C   UNL A   1      39.018  32.076  32.609  1.00  0.00     0.010 A 
ATOM     14  C   UNL A   1      39.372  31.412  31.443  1.00  0.00    -0.014 A 
BRANCH  14  15
ATOM     15  C   UNL A   1      40.644  30.720  31.328  1.00  0.00     0.031 A 
ATOM     16  C   UNL A   1      41.670  31.435  30.530  1.00  0.00     0.074 A 
ATOM     17  C   UNL A   1      40.878  29.552  31.960  1.00  0.00     0.049 A 
ATOM     18  N   UNL A   1      42.203  31.064  29.414  1.00  0.00    -0.248 NA
ATOM     19  C   UNL A   1      42.054  32.788  30.960  1.00  0.00     0.031 C 
ATOM     20  C   UNL A   1      40.036  28.897  32.965  1.00  0.00     0.029 A 
ATOM     21  N   UNL A   1      41.974  28.745  31.912  1.00  0.00    -0.354 N 
ATOM     22  C   UNL A   1      43.161  32.030  29.114  1.00  0.00     0.074 A 
ATOM     23  C   UNL A   1      42.899  33.141  29.990  1.00  0.00     0.031 C 
ATOM     24  C   UNL A   1      40.752  27.940  33.593  1.00  0.00     0.029 A 
ATOM     25  C   UNL A   1      42.049  27.824  32.950  1.00  0.00     0.049 A 
ATOM     26  H   UNL A   1      42.653  28.808  31.203  1.00  0.00     0.167 HD
ATOM     27  C   UNL A   1      44.260  31.705  28.379  1.00  0.00     0.037 A 
ATOM     28  C   UNL A   1      43.123  27.071  33.295  1.00  0.00     0.037 A 
ATOM     29  C   UNL A   1      44.014  30.528  27.577  1.00  0.00     0.049 A 
ATOM     30  C   UNL A   1      44.039  27.031  32.128  1.00  0.00     0.074 A 
ATOM     31  C   UNL A   1      43.070  30.168  26.632  1.00  0.00     0.029 A 
ATOM     32  N   UNL A   1      44.619  29.353  27.951  1.00  0.00    -0.354 N 
ATOM     33  N   UNL A   1      43.783  26.390  31.024  1.00  0.00    -0.248 NA
ATOM     34  C   UNL A   1      45.047  28.076  32.024  1.00  0.00     0.031 C 
ATOM     35  C   UNL A   1      42.823  28.782  26.864  1.00  0.00     0.029 A 
ATOM     36  C   UNL A   1      43.676  28.364  27.886  1.00  0.00     0.049 A 
ATOM     37  H   UNL A   1      45.560  29.243  28.218  1.00  0.00     0.167 HD
ATOM     38  C   UNL A   1      44.237  27.232  30.020  1.00  0.00     0.074 A 
ATOM     39  C   UNL A   1      45.097  28.202  30.696  1.00  0.00     0.031 C 
ATOM     40  C   UNL A   1      43.642  27.242  28.791  1.00  0.00     0.037 A 
BRANCH  27  41
ATOM     41  C   UNL A   1      45.664  32.147  28.752  1.00  0.00     0.057 A 
ATOM     42  C   UNL A   1      46.524  32.585  27.725  1.00  0.00     0.134 A 
ATOM     43  C   UNL A   1      46.309  31.840  29.968  1.00  0.00     0.134 A 
ATOM     44  F   UNL A   1      46.040  32.935  26.523  1.00  0.00    -0.206 F 
ATOM     45  C   UNL A   1      47.918  32.564  27.851  1.00  0.00     0.040 A 
ATOM     46  C   UNL A   1      47.698  31.863  30.119  1.00  0.00     0.040 A 
ATOM     47  F   UNL A   1      45.655  31.413  31.053  1.00  0.00    -0.206 F 
ATOM     48  C   UNL A   1      48.511  32.180  29.045  1.00  0.00     0.006 A 
ENDBRANCH  27  41
BRANCH  28  49
ATOM     49  C   UNL A   1      43.547  26.620  34.642  1.00  0.00     0.057 A 
ATOM     50  C   UNL A   1      43.849  27.543  35.655  1.00  0.00     0.134 A 
ATOM     51  C   UNL A   1      43.404  25.283  35.054  1.00  0.00     0.134 A 
ATOM     52  F   UNL A   1      43.966  28.849  35.373  1.00  0.00    -0.206 F 
ATOM     53  C   UNL A   1      43.972  27.165  36.998  1.00  0.00     0.040 A 
ATOM     54  C   UNL A   1      43.536  24.890  36.390  1.00  0.00     0.040 A 
ATOM     55  F   UNL A   1      43.041  24.324  34.192  1.00  0.00    -0.206 F 
ATOM     56  C   UNL A   1      43.806  25.835  37.371  1.00  0.00     0.006 A 
ENDBRANCH  28  49
BRANCH  40  57
ATOM     57  C   UNL A   1      42.697  26.123  28.457  1.00  0.00     0.057 A 
ATOM     58  C   UNL A   1      41.326  26.126  28.762  1.00  0.00     0.134 A 
ATOM     59  C   UNL A   1      43.172  25.056  27.687  1.00  0.00     0.134 A 
ATOM     60  F   UNL A   1      40.757  27.156  29.402  1.00  0.00    -0.206 F 
ATOM     61  C   UNL A   1      40.483  25.083  28.365  1.00  0.00     0.040 A 
ATOM     62  C   UNL A   1      42.333  24.027  27.254  1.00  0.00     0.040 A 
ATOM     63  F   UNL A   1      44.459  25.016  27.309  1.00  0.00    -0.206 F 
ATOM     64  C   UNL A   1      40.985  24.031  27.606  1.00  0.00     0.006 A 
ENDBRANCH  40  57
ENDBRANCH  14  15
ENDBRANCH   7   9
ENDBRANCH   6   7
ENDBRANCH   5   6
ENDBRANCH   4   5
ENDBRANCH   3   4
ENDBRANCH   2   3
ENDBRANCH   1   2
BRANCH   1  65
ATOM     65  O   UNL A   1      33.807  28.892  27.530  1.00  0.00    -0.376 OA
BRANCH  65  66
ATOM     66  C   UNL A   1      33.176  27.875  26.773  1.00  0.00     0.202 C 
BRANCH  66  67
ATOM     67  C   UNL A   1      31.715  27.561  27.102  1.00  0.00     0.261 C 
BRANCH  67  68
ATOM     68  O   UNL A   1      31.023  26.840  26.061  1.00  0.00    -0.462 OA
BRANCH  68  69
ATOM     69  C   UNL A   1      31.173  25.504  26.138  1.00  0.00     0.328 C 
ATOM     70  O   UNL A   1      30.464  24.813  26.873  1.00  0.00    -0.250 OA
BRANCH  69  71
ATOM     71  C   UNL A   1      32.391  24.889  25.379  1.00  0.00     0.195 C 
ATOM     72  C   UNL A   1      32.247  23.366  25.528  1.00  0.00     0.046 C 
ATOM     73  N   UNL A   1      33.321  24.985  24.218  1.00  0.00    -0.328 N 
ATOM     74  C   UNL A   1      33.470  22.726  24.834  1.00  0.00     0.001 C 
ATOM     75  C   UNL A   1      34.328  23.942  24.440  1.00  0.00     0.128 C 
ATOM     76  C   UNL A   1      33.051  21.925  23.584  1.00  0.00     0.071 C 
ATOM     77  C   UNL A   1      34.185  21.766  25.790  1.00  0.00     0.071 C 
ATOM     78  C   UNL A   1      32.208  20.696  23.921  1.00  0.00     0.270 C 
ATOM     79  C   UNL A   1      33.285  20.576  26.135  1.00  0.00     0.270 C 
ATOM     80  N   UNL A   1      32.842  19.862  24.933  1.00  0.00    -0.272 N 
ATOM     81  H   UNL A   1      33.084  19.126  25.540  1.00  0.00     0.356 HD
BRANCH  73  82
ATOM     82  C   UNL A   1      33.090  25.280  22.881  1.00  0.00     0.225 C 
ATOM     83  O   UNL A   1      34.009  25.476  22.078  1.00  0.00    -0.275 OA
BRANCH  82  84
ATOM     84  C   UNL A   1      31.693  25.445  22.386  1.00  0.00     0.124 C 
BRANCH  84  85
ATOM     85  C   UNL A   1      31.504  26.737  21.611  1.00  0.00     0.154 C 
BRANCH  85  86
ATOM     86  N   UNL A   1      31.022  27.827  22.437  1.00  0.00    -0.272 N 
ATOM     87  C   UNL A   1      31.731  28.573  23.331  1.00  0.00     0.108 A 
ATOM     88  N   UNL A   1      29.731  28.189  22.363  1.00  0.00    -0.182 NA
ATOM     89  C   UNL A   1      30.840  29.474  23.868  1.00  0.00     0.042 A 
ATOM     90  C   UNL A   1      29.617  29.183  23.245  1.00  0.00     0.135 A 
ENDBRANCH  85  86
ENDBRANCH  84  85
ENDBRANCH  82  84
ENDBRANCH  73  82
BRANCH  80  91
ATOM     91  C   UNL A   1      32.955  18.466  24.957  1.00  0.00     0.315 C 
ATOM     92  O   UNL A   1      32.156  17.788  25.578  1.00  0.00    -0.231 OA
BRANCH  91  93
ATOM     93  C   UNL A   1      34.033  17.696  24.262  1.00  0.00     0.119 C 
ATOM     94  C   UNL A   1      34.205  16.227  24.016  1.00  0.00     0.019 C 
ATOM     95  C   UNL A   1      33.832  17.140  22.876  1.00  0.00     0.019 C 
ENDBRANCH  91  93
ENDBRANCH  80  91
ENDBRANCH  69  71
ENDBRANCH  68  69
ENDBRANCH  67  68
ENDBRANCH  66  67
ENDBRANCH  65  66
ENDBRANCH   1  65
TORSDOF 23
ENDMDL
