MODEL 1
REMARK VINA RESULT:     -10.4      0.000      0.000
REMARK SMILES C[C@](C(=O)OCCOCCOCCOC(=O)c1ccc(-c2c3nc(c(-c4c(F)cccc4F)c4ccc([nH]4)c(-c4c(F)cccc4F)c4nc(c(-c5c(F)cccc5F)c5ccc2[nH]5)C=C4)C=C3)cc1)(c1cc(F)cc(F)c1)[NH+]1CCCC1
REMARK SMILES IDX 10 1 9 2 8 3 7 4 6 5 5 6 3 7 4 8 2 9 1 10 71 11 72 12 78 13
REMARK SMILES IDX 73 14 76 15 74 16 75 17 77 18 79 19 80 20 83 21 81 23 82 24
REMARK SMILES IDX 11 25 12 26 13 27 14 28 15 29 16 30 17 31 18 32 70 33 19 34
REMARK SMILES IDX 69 35 20 36 21 37 22 38 63 39 23 40 68 41 62 42 64 43 24 44
REMARK SMILES IDX 67 45 61 46 60 47 25 49 51 50 34 51 50 52 35 53 38 54 49 55
REMARK SMILES IDX 65 56 36 57 37 58 48 60 66 61 39 62 26 63 27 64 32 65 28 66
REMARK SMILES IDX 29 67 31 68 33 69 30 70 52 71 53 72 58 73 54 74 55 75 57 76
REMARK SMILES IDX 59 77 56 78 40 79 41 80 46 81 42 82 43 83 45 84 47 85 44 86
REMARK H PARENT 79 22 64 48 38 59
REMARK Flexibility Score: inf
ROOT
ATOM      1  C   UNL A   1      35.130  23.398  23.445  1.00  0.00     0.188 C 
ENDROOT
BRANCH   1   2
ATOM      2  C   UNL A   1      33.691  23.228  22.941  1.00  0.00     0.188 C 
BRANCH   2   3
ATOM      3  O   UNL A   1      33.282  24.041  21.847  1.00  0.00    -0.376 OA
BRANCH   3   4
ATOM      4  C   UNL A   1      32.554  25.234  22.128  1.00  0.00     0.202 C 
BRANCH   4   5
ATOM      5  C   UNL A   1      33.347  26.529  21.960  1.00  0.00     0.261 C 
BRANCH   5   6
ATOM      6  O   UNL A   1      32.689  27.620  22.639  1.00  0.00    -0.458 OA
BRANCH   6   7
ATOM      7  C   UNL A   1      33.371  28.258  23.639  1.00  0.00     0.372 C 
ATOM      8  O   UNL A   1      34.547  28.589  23.539  1.00  0.00    -0.244 OA
BRANCH   7   9
ATOM      9  C   UNL A   1      32.487  28.422  24.943  1.00  0.00     0.218 C 
ATOM     10  C   UNL A   1      31.161  29.177  24.659  1.00  0.00     0.098 C 
BRANCH   9  11
ATOM     11  C   UNL A   1      32.041  27.018  25.429  1.00  0.00     0.029 A 
ATOM     12  C   UNL A   1      30.682  26.740  25.669  1.00  0.00     0.050 A 
ATOM     13  C   UNL A   1      32.972  26.006  25.730  1.00  0.00     0.050 A 
ATOM     14  C   UNL A   1      30.287  25.495  26.154  1.00  0.00     0.126 A 
ATOM     15  C   UNL A   1      32.552  24.763  26.195  1.00  0.00     0.126 A 
ATOM     16  F   UNL A   1      28.988  25.268  26.387  1.00  0.00    -0.207 F 
ATOM     17  C   UNL A   1      31.212  24.496  26.411  1.00  0.00     0.078 A 
ATOM     18  F   UNL A   1      33.465  23.816  26.445  1.00  0.00    -0.207 F 
ENDBRANCH   9  11
BRANCH   9  19
ATOM     19  N   UNL A   1      33.264  29.119  25.990  1.00  0.00    -0.317 N 
ATOM     20  C   UNL A   1      32.755  30.281  26.695  1.00  0.00     0.263 C 
ATOM     21  C   UNL A   1      34.381  28.532  26.701  1.00  0.00     0.263 C 
ATOM     22  H   UNL A   1      33.627  29.379  25.072  1.00  0.00     0.349 HD
ATOM     23  C   UNL A   1      34.047  30.862  27.245  1.00  0.00     0.067 C 
ATOM     24  C   UNL A   1      34.833  29.630  27.663  1.00  0.00     0.067 C 
ENDBRANCH   9  19
ENDBRANCH   7   9
ENDBRANCH   6   7
ENDBRANCH   5   6
ENDBRANCH   4   5
ENDBRANCH   3   4
ENDBRANCH   2   3
ENDBRANCH   1   2
BRANCH   1  25
ATOM     25  O   UNL A   1      35.500  22.755  24.656  1.00  0.00    -0.376 OA
BRANCH  25  26
ATOM     26  C   UNL A   1      35.340  21.341  24.705  1.00  0.00     0.202 C 
BRANCH  26  27
ATOM     27  C   UNL A   1      36.634  20.570  24.967  1.00  0.00     0.261 C 
BRANCH  27  28
ATOM     28  O   UNL A   1      37.778  21.447  24.922  1.00  0.00    -0.460 OA
BRANCH  28  29
ATOM     29  C   UNL A   1      38.805  21.105  25.720  1.00  0.00     0.338 C 
ATOM     30  O   UNL A   1      39.365  20.009  25.802  1.00  0.00    -0.246 OA
BRANCH  29  31
ATOM     31  C   UNL A   1      39.301  22.284  26.437  1.00  0.00     0.060 A 
ATOM     32  C   UNL A   1      38.782  23.538  26.102  1.00  0.00     0.016 A 
ATOM     33  C   UNL A   1      40.378  22.174  27.317  1.00  0.00     0.016 A 
ATOM     34  C   UNL A   1      39.367  24.695  26.609  1.00  0.00     0.010 A 
ATOM     35  C   UNL A   1      40.966  23.337  27.825  1.00  0.00     0.010 A 
ATOM     36  C   UNL A   1      40.488  24.604  27.442  1.00  0.00    -0.014 A 
BRANCH  36  37
ATOM     37  C   UNL A   1      41.259  25.829  27.770  1.00  0.00     0.031 A 
ATOM     38  C   UNL A   1      40.606  26.898  28.602  1.00  0.00     0.074 A 
ATOM     39  C   UNL A   1      42.543  25.969  27.392  1.00  0.00     0.049 A 
ATOM     40  N   UNL A   1      41.010  28.114  28.861  1.00  0.00    -0.248 NA
ATOM     41  C   UNL A   1      39.321  26.544  29.227  1.00  0.00     0.031 C 
ATOM     42  C   UNL A   1      43.330  24.962  26.682  1.00  0.00     0.029 A 
ATOM     43  N   UNL A   1      43.410  27.018  27.561  1.00  0.00    -0.354 N 
ATOM     44  C   UNL A   1      40.009  28.686  29.637  1.00  0.00     0.074 A 
ATOM     45  C   UNL A   1      38.983  27.682  29.814  1.00  0.00     0.031 C 
ATOM     46  C   UNL A   1      44.570  25.442  26.482  1.00  0.00     0.029 A 
ATOM     47  C   UNL A   1      44.639  26.811  26.986  1.00  0.00     0.049 A 
ATOM     48  H   UNL A   1      43.173  27.840  28.049  1.00  0.00     0.167 HD
ATOM     49  C   UNL A   1      39.950  29.940  30.145  1.00  0.00     0.037 A 
ATOM     50  C   UNL A   1      45.684  27.649  26.841  1.00  0.00     0.037 A 
ATOM     51  C   UNL A   1      40.990  30.922  29.994  1.00  0.00     0.049 A 
ATOM     52  C   UNL A   1      45.571  29.060  27.354  1.00  0.00     0.074 A 
ATOM     53  C   UNL A   1      41.014  32.233  30.436  1.00  0.00     0.029 A 
ATOM     54  N   UNL A   1      42.202  30.689  29.362  1.00  0.00    -0.354 N 
ATOM     55  N   UNL A   1      44.581  29.628  28.000  1.00  0.00    -0.248 NA
ATOM     56  C   UNL A   1      46.711  29.952  27.096  1.00  0.00     0.031 C 
ATOM     57  C   UNL A   1      42.233  32.801  30.047  1.00  0.00     0.029 A 
ATOM     58  C   UNL A   1      42.980  31.833  29.395  1.00  0.00     0.049 A 
ATOM     59  H   UNL A   1      42.470  29.836  28.951  1.00  0.00     0.167 HD
ATOM     60  C   UNL A   1      44.980  30.939  28.231  1.00  0.00     0.074 A 
ATOM     61  C   UNL A   1      46.311  31.076  27.676  1.00  0.00     0.031 C 
ATOM     62  C   UNL A   1      44.304  31.943  28.840  1.00  0.00     0.037 A 
BRANCH  49  63
ATOM     63  C   UNL A   1      38.693  30.330  30.863  1.00  0.00     0.057 A 
ATOM     64  C   UNL A   1      38.539  30.160  32.244  1.00  0.00     0.134 A 
ATOM     65  C   UNL A   1      37.620  30.889  30.155  1.00  0.00     0.134 A 
ATOM     66  F   UNL A   1      39.521  29.611  32.975  1.00  0.00    -0.206 F 
ATOM     67  C   UNL A   1      37.354  30.514  32.893  1.00  0.00     0.040 A 
ATOM     68  C   UNL A   1      36.440  31.267  30.796  1.00  0.00     0.040 A 
ATOM     69  F   UNL A   1      37.704  31.078  28.830  1.00  0.00    -0.206 F 
ATOM     70  C   UNL A   1      36.302  31.074  32.169  1.00  0.00     0.006 A 
ENDBRANCH  49  63
BRANCH  50  71
ATOM     71  C   UNL A   1      46.906  27.197  26.131  1.00  0.00     0.057 A 
ATOM     72  C   UNL A   1      47.042  27.355  24.746  1.00  0.00     0.134 A 
ATOM     73  C   UNL A   1      47.964  26.586  26.816  1.00  0.00     0.134 A 
ATOM     74  F   UNL A   1      46.052  27.907  24.031  1.00  0.00    -0.206 F 
ATOM     75  C   UNL A   1      48.180  26.916  24.070  1.00  0.00     0.040 A 
ATOM     76  C   UNL A   1      49.118  26.166  26.156  1.00  0.00     0.040 A 
ATOM     77  F   UNL A   1      47.893  26.400  28.143  1.00  0.00    -0.206 F 
ATOM     78  C   UNL A   1      49.226  26.326  24.776  1.00  0.00     0.006 A 
ENDBRANCH  50  71
BRANCH  62  79
ATOM     79  C   UNL A   1      45.001  33.265  28.956  1.00  0.00     0.057 A 
ATOM     80  C   UNL A   1      44.848  34.263  27.988  1.00  0.00     0.134 A 
ATOM     81  C   UNL A   1      45.802  33.553  30.068  1.00  0.00     0.134 A 
ATOM     82  F   UNL A   1      44.102  34.041  26.895  1.00  0.00    -0.206 F 
ATOM     83  C   UNL A   1      45.482  35.500  28.112  1.00  0.00     0.040 A 
ATOM     84  C   UNL A   1      46.425  34.793  30.213  1.00  0.00     0.040 A 
ATOM     85  F   UNL A   1      45.983  32.639  31.033  1.00  0.00    -0.206 F 
ATOM     86  C   UNL A   1      46.268  35.769  29.230  1.00  0.00     0.006 A 
ENDBRANCH  62  79
ENDBRANCH  36  37
ENDBRANCH  29  31
ENDBRANCH  28  29
ENDBRANCH  27  28
ENDBRANCH  26  27
ENDBRANCH  25  26
ENDBRANCH   1  25
TORSDOF 19
ENDMDL
MODEL 2
REMARK VINA RESULT:     -10.3      2.928      7.073
REMARK SMILES C[C@](C(=O)OCCOCCOCCOC(=O)c1ccc(-c2c3nc(c(-c4c(F)cccc4F)c4ccc([nH]4)c(-c4c(F)cccc4F)c4nc(c(-c5c(F)cccc5F)c5ccc2[nH]5)C=C4)C=C3)cc1)(c1cc(F)cc(F)c1)[NH+]1CCCC1
REMARK SMILES IDX 10 1 9 2 8 3 7 4 6 5 5 6 3 7 4 8 2 9 1 10 71 11 72 12 78 13
REMARK SMILES IDX 73 14 76 15 74 16 75 17 77 18 79 19 80 20 83 21 81 23 82 24
REMARK SMILES IDX 11 25 12 26 13 27 14 28 15 29 16 30 17 31 18 32 70 33 19 34
REMARK SMILES IDX 69 35 20 36 21 37 22 38 63 39 23 40 68 41 62 42 64 43 24 44
REMARK SMILES IDX 67 45 61 46 60 47 25 49 51 50 34 51 50 52 35 53 38 54 49 55
REMARK SMILES IDX 65 56 36 57 37 58 48 60 66 61 39 62 26 63 27 64 32 65 28 66
REMARK SMILES IDX 29 67 31 68 33 69 30 70 52 71 53 72 58 73 54 74 55 75 57 76
REMARK SMILES IDX 59 77 56 78 40 79 41 80 46 81 42 82 43 83 45 84 47 85 44 86
REMARK H PARENT 79 22 64 48 38 59
REMARK Flexibility Score: inf
ROOT
ATOM      1  C   UNL A   1      31.379  26.838  25.961  1.00  0.00     0.188 C 
ENDROOT
BRANCH   1   2
ATOM      2  C   UNL A   1      30.134  25.988  25.680  1.00  0.00     0.188 C 
BRANCH   2   3
ATOM      3  O   UNL A   1      29.927  24.842  26.498  1.00  0.00    -0.376 OA
BRANCH   3   4
ATOM      4  C   UNL A   1      30.573  23.626  26.131  1.00  0.00     0.202 C 
BRANCH   4   5
ATOM      5  C   UNL A   1      31.371  22.955  27.248  1.00  0.00     0.261 C 
BRANCH   5   6
ATOM      6  O   UNL A   1      32.761  23.336  27.179  1.00  0.00    -0.458 OA
BRANCH   6   7
ATOM      7  C   UNL A   1      33.676  22.371  26.860  1.00  0.00     0.372 C 
ATOM      8  O   UNL A   1      34.058  21.522  27.659  1.00  0.00    -0.244 OA
BRANCH   7   9
ATOM      9  C   UNL A   1      34.232  22.549  25.387  1.00  0.00     0.218 C 
ATOM     10  C   UNL A   1      34.258  24.038  24.949  1.00  0.00     0.098 C 
BRANCH   9  11
ATOM     11  C   UNL A   1      35.718  22.107  25.353  1.00  0.00     0.029 A 
ATOM     12  C   UNL A   1      36.068  20.793  24.986  1.00  0.00     0.050 A 
ATOM     13  C   UNL A   1      36.757  22.962  25.767  1.00  0.00     0.050 A 
ATOM     14  C   UNL A   1      37.399  20.382  25.005  1.00  0.00     0.126 A 
ATOM     15  C   UNL A   1      38.082  22.534  25.759  1.00  0.00     0.126 A 
ATOM     16  F   UNL A   1      37.696  19.121  24.665  1.00  0.00    -0.207 F 
ATOM     17  C   UNL A   1      38.415  21.246  25.379  1.00  0.00     0.078 A 
ATOM     18  F   UNL A   1      39.046  23.384  26.134  1.00  0.00    -0.207 F 
ENDBRANCH   9  11
BRANCH   9  19
ATOM     19  N   UNL A   1      33.422  21.748  24.446  1.00  0.00    -0.317 N 
ATOM     20  C   UNL A   1      32.732  20.536  24.848  1.00  0.00     0.263 C 
ATOM     21  C   UNL A   1      32.896  22.250  23.194  1.00  0.00     0.263 C 
ATOM     22  H   UNL A   1      34.412  21.566  24.277  1.00  0.00     0.349 HD
ATOM     23  C   UNL A   1      32.498  19.886  23.494  1.00  0.00     0.067 C 
ATOM     24  C   UNL A   1      32.139  21.063  22.601  1.00  0.00     0.067 C 
ENDBRANCH   9  19
ENDBRANCH   7   9
ENDBRANCH   6   7
ENDBRANCH   5   6
ENDBRANCH   4   5
ENDBRANCH   3   4
ENDBRANCH   2   3
ENDBRANCH   1   2
BRANCH   1  25
ATOM     25  O   UNL A   1      32.262  27.118  24.884  1.00  0.00    -0.376 OA
BRANCH  25  26
ATOM     26  C   UNL A   1      33.542  27.639  25.225  1.00  0.00     0.202 C 
BRANCH  26  27
ATOM     27  C   UNL A   1      33.499  28.885  26.110  1.00  0.00     0.261 C 
BRANCH  27  28
ATOM     28  O   UNL A   1      34.382  28.748  27.241  1.00  0.00    -0.460 OA
BRANCH  28  29
ATOM     29  C   UNL A   1      34.734  29.896  27.847  1.00  0.00     0.338 C 
ATOM     30  O   UNL A   1      34.005  30.844  28.149  1.00  0.00    -0.246 OA
BRANCH  29  31
ATOM     31  C   UNL A   1      36.143  29.843  28.249  1.00  0.00     0.060 A 
ATOM     32  C   UNL A   1      37.123  30.106  27.287  1.00  0.00     0.016 A 
ATOM     33  C   UNL A   1      36.499  29.383  29.517  1.00  0.00     0.016 A 
ATOM     34  C   UNL A   1      38.465  29.867  27.572  1.00  0.00     0.010 A 
ATOM     35  C   UNL A   1      37.847  29.142  29.802  1.00  0.00     0.010 A 
ATOM     36  C   UNL A   1      38.832  29.346  28.817  1.00  0.00    -0.014 A 
BRANCH  36  37
ATOM     37  C   UNL A   1      40.217  28.854  29.027  1.00  0.00     0.031 A 
ATOM     38  C   UNL A   1      41.218  29.762  29.687  1.00  0.00     0.074 A 
ATOM     39  C   UNL A   1      40.570  27.599  28.697  1.00  0.00     0.049 A 
ATOM     40  N   UNL A   1      42.512  29.623  29.811  1.00  0.00    -0.248 NA
ATOM     41  C   UNL A   1      40.683  30.995  30.289  1.00  0.00     0.031 C 
ATOM     42  C   UNL A   1      39.671  26.581  28.157  1.00  0.00     0.029 A 
ATOM     43  N   UNL A   1      41.786  26.968  28.776  1.00  0.00    -0.354 N 
ATOM     44  C   UNL A   1      42.953  30.769  30.461  1.00  0.00     0.074 A 
ATOM     45  C   UNL A   1      41.788  31.590  30.712  1.00  0.00     0.031 C 
ATOM     46  C   UNL A   1      40.366  25.448  27.958  1.00  0.00     0.029 A 
ATOM     47  C   UNL A   1      41.769  25.683  28.291  1.00  0.00     0.049 A 
ATOM     48  H   UNL A   1      42.592  27.395  29.146  1.00  0.00     0.167 HD
ATOM     49  C   UNL A   1      44.218  31.109  30.806  1.00  0.00     0.037 A 
ATOM     50  C   UNL A   1      42.779  24.814  28.093  1.00  0.00     0.037 A 
ATOM     51  C   UNL A   1      45.367  30.273  30.584  1.00  0.00     0.049 A 
ATOM     52  C   UNL A   1      44.186  25.238  28.420  1.00  0.00     0.074 A 
ATOM     53  C   UNL A   1      46.697  30.537  30.860  1.00  0.00     0.029 A 
ATOM     54  N   UNL A   1      45.314  28.996  30.045  1.00  0.00    -0.354 N 
ATOM     55  N   UNL A   1      44.612  26.364  28.942  1.00  0.00    -0.248 NA
ATOM     56  C   UNL A   1      45.256  24.279  28.108  1.00  0.00     0.031 C 
ATOM     57  C   UNL A   1      47.453  29.428  30.462  1.00  0.00     0.029 A 
ATOM     58  C   UNL A   1      46.589  28.461  29.973  1.00  0.00     0.049 A 
ATOM     59  H   UNL A   1      44.492  28.538  29.756  1.00  0.00     0.167 HD
ATOM     60  C   UNL A   1      45.993  26.246  29.027  1.00  0.00     0.074 A 
ATOM     61  C   UNL A   1      46.333  24.931  28.523  1.00  0.00     0.031 C 
ATOM     62  C   UNL A   1      46.902  27.148  29.473  1.00  0.00     0.037 A 
BRANCH  49  63
ATOM     63  C   UNL A   1      44.423  32.466  31.408  1.00  0.00     0.057 A 
ATOM     64  C   UNL A   1      44.718  33.592  30.628  1.00  0.00     0.134 A 
ATOM     65  C   UNL A   1      44.320  32.647  32.793  1.00  0.00     0.134 A 
ATOM     66  F   UNL A   1      44.851  33.481  29.298  1.00  0.00    -0.206 F 
ATOM     67  C   UNL A   1      44.923  34.846  31.209  1.00  0.00     0.040 A 
ATOM     68  C   UNL A   1      44.501  33.899  33.382  1.00  0.00     0.040 A 
ATOM     69  F   UNL A   1      44.040  31.609  33.596  1.00  0.00    -0.206 F 
ATOM     70  C   UNL A   1      44.810  35.002  32.590  1.00  0.00     0.006 A 
ENDBRANCH  49  63
BRANCH  50  71
ATOM     71  C   UNL A   1      42.507  23.481  27.504  1.00  0.00     0.057 A 
ATOM     72  C   UNL A   1      42.212  22.376  28.311  1.00  0.00     0.134 A 
ATOM     73  C   UNL A   1      42.548  23.273  26.119  1.00  0.00     0.134 A 
ATOM     74  F   UNL A   1      42.186  22.504  29.646  1.00  0.00    -0.206 F 
ATOM     75  C   UNL A   1      41.974  21.114  27.764  1.00  0.00     0.040 A 
ATOM     76  C   UNL A   1      42.286  22.024  25.557  1.00  0.00     0.040 A 
ATOM     77  F   UNL A   1      42.831  24.290  25.291  1.00  0.00    -0.206 F 
ATOM     78  C   UNL A   1      42.003  20.937  26.382  1.00  0.00     0.006 A 
ENDBRANCH  50  71
BRANCH  62  79
ATOM     79  C   UNL A   1      48.341  26.732  29.457  1.00  0.00     0.057 A 
ATOM     80  C   UNL A   1      49.192  27.070  28.398  1.00  0.00     0.134 A 
ATOM     81  C   UNL A   1      48.890  26.019  30.530  1.00  0.00     0.134 A 
ATOM     82  F   UNL A   1      48.721  27.742  27.336  1.00  0.00    -0.206 F 
ATOM     83  C   UNL A   1      50.537  26.700  28.398  1.00  0.00     0.040 A 
ATOM     84  C   UNL A   1      50.238  25.660  30.552  1.00  0.00     0.040 A 
ATOM     85  F   UNL A   1      48.128  25.671  31.577  1.00  0.00    -0.206 F 
ATOM     86  C   UNL A   1      51.065  25.998  29.481  1.00  0.00     0.006 A 
ENDBRANCH  62  79
ENDBRANCH  36  37
ENDBRANCH  29  31
ENDBRANCH  28  29
ENDBRANCH  27  28
ENDBRANCH  26  27
ENDBRANCH  25  26
ENDBRANCH   1  25
TORSDOF 19
ENDMDL
MODEL 3
REMARK VINA RESULT:     -10.3      3.892      7.866
REMARK SMILES C[C@](C(=O)OCCOCCOCCOC(=O)c1ccc(-c2c3nc(c(-c4c(F)cccc4F)c4ccc([nH]4)c(-c4c(F)cccc4F)c4nc(c(-c5c(F)cccc5F)c5ccc2[nH]5)C=C4)C=C3)cc1)(c1cc(F)cc(F)c1)[NH+]1CCCC1
REMARK SMILES IDX 10 1 9 2 8 3 7 4 6 5 5 6 3 7 4 8 2 9 1 10 71 11 72 12 78 13
REMARK SMILES IDX 73 14 76 15 74 16 75 17 77 18 79 19 80 20 83 21 81 23 82 24
REMARK SMILES IDX 11 25 12 26 13 27 14 28 15 29 16 30 17 31 18 32 70 33 19 34
REMARK SMILES IDX 69 35 20 36 21 37 22 38 63 39 23 40 68 41 62 42 64 43 24 44
REMARK SMILES IDX 67 45 61 46 60 47 25 49 51 50 34 51 50 52 35 53 38 54 49 55
REMARK SMILES IDX 65 56 36 57 37 58 48 60 66 61 39 62 26 63 27 64 32 65 28 66
REMARK SMILES IDX 29 67 31 68 33 69 30 70 52 71 53 72 58 73 54 74 55 75 57 76
REMARK SMILES IDX 59 77 56 78 40 79 41 80 46 81 42 82 43 83 45 84 47 85 44 86
REMARK H PARENT 79 22 64 48 38 59
REMARK Flexibility Score: inf
ROOT
ATOM      1  C   UNL A   1      39.846  21.212  26.074  1.00  0.00     0.188 C 
ENDROOT
BRANCH   1   2
ATOM      2  C   UNL A   1      38.603  22.110  26.117  1.00  0.00     0.188 C 
BRANCH   2   3
ATOM      3  O   UNL A   1      37.390  21.571  25.605  1.00  0.00    -0.376 OA
BRANCH   3   4
ATOM      4  C   UNL A   1      37.039  21.865  24.255  1.00  0.00     0.202 C 
BRANCH   4   5
ATOM      5  C   UNL A   1      36.957  23.354  23.919  1.00  0.00     0.261 C 
BRANCH   5   6
ATOM      6  O   UNL A   1      35.907  23.989  24.679  1.00  0.00    -0.458 OA
BRANCH   6   7
ATOM      7  C   UNL A   1      34.613  23.762  24.300  1.00  0.00     0.372 C 
ATOM      8  O   UNL A   1      34.152  24.150  23.232  1.00  0.00    -0.244 OA
BRANCH   7   9
ATOM      9  C   UNL A   1      33.784  23.033  25.437  1.00  0.00     0.218 C 
ATOM     10  C   UNL A   1      34.533  23.033  26.797  1.00  0.00     0.098 C 
BRANCH   9  11
ATOM     11  C   UNL A   1      32.484  23.835  25.706  1.00  0.00     0.029 A 
ATOM     12  C   UNL A   1      31.406  23.246  26.393  1.00  0.00     0.050 A 
ATOM     13  C   UNL A   1      32.299  25.137  25.205  1.00  0.00     0.050 A 
ATOM     14  C   UNL A   1      30.220  23.949  26.590  1.00  0.00     0.126 A 
ATOM     15  C   UNL A   1      31.111  25.828  25.431  1.00  0.00     0.126 A 
ATOM     16  F   UNL A   1      29.208  23.354  27.234  1.00  0.00    -0.207 F 
ATOM     17  C   UNL A   1      30.065  25.244  26.123  1.00  0.00     0.078 A 
ATOM     18  F   UNL A   1      30.981  27.075  24.961  1.00  0.00    -0.207 F 
ENDBRANCH   9  11
BRANCH   9  19
ATOM     19  N   UNL A   1      33.473  21.649  25.019  1.00  0.00    -0.317 N 
ATOM     20  C   UNL A   1      33.609  20.516  25.915  1.00  0.00     0.263 C 
ATOM     21  C   UNL A   1      32.647  21.310  23.879  1.00  0.00     0.263 C 
ATOM     22  H   UNL A   1      34.378  21.921  24.634  1.00  0.00     0.349 HD
ATOM     23  C   UNL A   1      33.653  19.373  24.914  1.00  0.00     0.067 C 
ATOM     24  C   UNL A   1      32.624  19.783  23.872  1.00  0.00     0.067 C 
ENDBRANCH   9  19
ENDBRANCH   7   9
ENDBRANCH   6   7
ENDBRANCH   5   6
ENDBRANCH   4   5
ENDBRANCH   3   4
ENDBRANCH   2   3
ENDBRANCH   1   2
BRANCH   1  25
ATOM     25  O   UNL A   1      40.469  20.862  27.301  1.00  0.00    -0.376 OA
BRANCH  25  26
ATOM     26  C   UNL A   1      41.861  20.572  27.253  1.00  0.00     0.202 C 
BRANCH  26  27
ATOM     27  C   UNL A   1      42.589  21.178  26.053  1.00  0.00     0.261 C 
BRANCH  27  28
ATOM     28  O   UNL A   1      43.380  22.317  26.448  1.00  0.00    -0.460 OA
BRANCH  28  29
ATOM     29  C   UNL A   1      43.274  23.401  25.658  1.00  0.00     0.338 C 
ATOM     30  O   UNL A   1      43.559  23.493  24.462  1.00  0.00    -0.246 OA
BRANCH  29  31
ATOM     31  C   UNL A   1      42.623  24.494  26.386  1.00  0.00     0.060 A 
ATOM     32  C   UNL A   1      43.222  25.757  26.372  1.00  0.00     0.016 A 
ATOM     33  C   UNL A   1      41.523  24.239  27.206  1.00  0.00     0.016 A 
ATOM     34  C   UNL A   1      42.751  26.763  27.212  1.00  0.00     0.010 A 
ATOM     35  C   UNL A   1      41.053  25.250  28.050  1.00  0.00     0.010 A 
ATOM     36  C   UNL A   1      41.690  26.505  28.086  1.00  0.00    -0.014 A 
BRANCH  36  37
ATOM     37  C   UNL A   1      41.361  27.485  29.151  1.00  0.00     0.031 A 
ATOM     38  C   UNL A   1      42.193  27.501  30.404  1.00  0.00     0.074 A 
ATOM     39  C   UNL A   1      40.383  28.393  28.988  1.00  0.00     0.049 A 
ATOM     40  N   UNL A   1      41.988  28.133  31.530  1.00  0.00    -0.248 NA
ATOM     41  C   UNL A   1      43.422  26.692  30.382  1.00  0.00     0.031 C 
ATOM     42  C   UNL A   1      39.578  28.562  27.779  1.00  0.00     0.029 A 
ATOM     43  N   UNL A   1      39.905  29.349  29.847  1.00  0.00    -0.354 N 
ATOM     44  C   UNL A   1      43.034  27.762  32.365  1.00  0.00     0.074 A 
ATOM     45  C   UNL A   1      43.877  26.856  31.615  1.00  0.00     0.031 C 
ATOM     46  C   UNL A   1      38.709  29.569  27.973  1.00  0.00     0.029 A 
ATOM     47  C   UNL A   1      38.849  30.065  29.339  1.00  0.00     0.049 A 
ATOM     48  H   UNL A   1      40.284  29.507  30.743  1.00  0.00     0.167 HD
ATOM     49  C   UNL A   1      43.263  28.136  33.647  1.00  0.00     0.037 A 
ATOM     50  C   UNL A   1      38.056  30.981  29.927  1.00  0.00     0.037 A 
ATOM     51  C   UNL A   1      42.441  29.064  34.376  1.00  0.00     0.049 A 
ATOM     52  C   UNL A   1      38.286  31.332  31.373  1.00  0.00     0.074 A 
ATOM     53  C   UNL A   1      42.561  29.482  35.690  1.00  0.00     0.029 A 
ATOM     54  N   UNL A   1      41.350  29.731  33.841  1.00  0.00    -0.354 N 
ATOM     55  N   UNL A   1      39.217  30.903  32.191  1.00  0.00    -0.248 NA
ATOM     56  C   UNL A   1      37.340  32.278  31.984  1.00  0.00     0.031 C 
ATOM     57  C   UNL A   1      41.525  30.384  35.956  1.00  0.00     0.029 A 
ATOM     58  C   UNL A   1      40.782  30.554  34.799  1.00  0.00     0.049 A 
ATOM     59  H   UNL A   1      41.026  29.636  32.916  1.00  0.00     0.167 HD
ATOM     60  C   UNL A   1      38.974  31.529  33.407  1.00  0.00     0.074 A 
ATOM     61  C   UNL A   1      37.821  32.384  33.215  1.00  0.00     0.031 C 
ATOM     62  C   UNL A   1      39.639  31.401  34.582  1.00  0.00     0.037 A 
BRANCH  49  63
ATOM     63  C   UNL A   1      44.419  27.494  34.352  1.00  0.00     0.057 A 
ATOM     64  C   UNL A   1      45.687  28.087  34.400  1.00  0.00     0.134 A 
ATOM     65  C   UNL A   1      44.257  26.262  34.999  1.00  0.00     0.134 A 
ATOM     66  F   UNL A   1      45.914  29.257  33.782  1.00  0.00    -0.206 F 
ATOM     67  C   UNL A   1      46.758  27.467  35.048  1.00  0.00     0.040 A 
ATOM     68  C   UNL A   1      45.313  25.643  35.669  1.00  0.00     0.040 A 
ATOM     69  F   UNL A   1      43.068  25.641  34.991  1.00  0.00    -0.206 F 
ATOM     70  C   UNL A   1      46.570  26.243  35.689  1.00  0.00     0.006 A 
ENDBRANCH  49  63
BRANCH  50  71
ATOM     71  C   UNL A   1      36.934  31.589  29.170  1.00  0.00     0.057 A 
ATOM     72  C   UNL A   1      35.776  30.859  28.876  1.00  0.00     0.134 A 
ATOM     73  C   UNL A   1      36.997  32.911  28.710  1.00  0.00     0.134 A 
ATOM     74  F   UNL A   1      35.668  29.581  29.265  1.00  0.00    -0.206 F 
ATOM     75  C   UNL A   1      34.726  31.419  28.148  1.00  0.00     0.040 A 
ATOM     76  C   UNL A   1      35.943  33.491  28.004  1.00  0.00     0.040 A 
ATOM     77  F   UNL A   1      38.081  33.661  28.953  1.00  0.00    -0.206 F 
ATOM     78  C   UNL A   1      34.804  32.742  27.716  1.00  0.00     0.006 A 
ENDBRANCH  50  71
BRANCH  62  79
ATOM     79  C   UNL A   1      39.149  32.221  35.736  1.00  0.00     0.057 A 
ATOM     80  C   UNL A   1      39.529  33.558  35.901  1.00  0.00     0.134 A 
ATOM     81  C   UNL A   1      38.257  31.678  36.669  1.00  0.00     0.134 A 
ATOM     82  F   UNL A   1      40.390  34.130  35.046  1.00  0.00    -0.206 F 
ATOM     83  C   UNL A   1      39.052  34.324  36.965  1.00  0.00     0.040 A 
ATOM     84  C   UNL A   1      37.757  32.439  37.726  1.00  0.00     0.040 A 
ATOM     85  F   UNL A   1      37.850  30.405  36.561  1.00  0.00    -0.206 F 
ATOM     86  C   UNL A   1      38.158  33.766  37.878  1.00  0.00     0.006 A 
ENDBRANCH  62  79
ENDBRANCH  36  37
ENDBRANCH  29  31
ENDBRANCH  28  29
ENDBRANCH  27  28
ENDBRANCH  26  27
ENDBRANCH  25  26
ENDBRANCH   1  25
TORSDOF 19
ENDMDL
