MODEL 1
REMARK VINA RESULT:     -10.0      0.000      0.000
REMARK SMILES CC(C)(C)OC(=O)N1CC[C@@H]2CO[C@@H](CC(=O)OCCOCCOCCOC(=O)c3ccc(-c4c5nc(c(-c6c(F)cccc6F)c6ccc([nH]6)c(-c6c(F)cccc6F)c6nc(c(-c7c(F)cccc7F)c7ccc4[nH]7)C=C6)C=C5)cc3)[C@@H]2C1
REMARK SMILES IDX 22 1 21 2 20 3 19 4 18 5 16 6 17 7 15 8 14 9 8 10 9 11 85 12
REMARK SMILES IDX 10 13 84 14 11 15 12 16 13 17 6 18 7 19 5 20 2 21 1 22 3 23
REMARK SMILES IDX 4 24 23 25 24 26 25 27 26 28 27 29 28 30 29 31 30 32 31 33
REMARK SMILES IDX 83 34 32 35 82 36 33 37 34 38 35 39 76 40 36 41 81 42 75 43
REMARK SMILES IDX 77 44 37 45 80 46 74 47 73 48 38 50 64 51 47 52 63 53 48 54
REMARK SMILES IDX 51 55 62 56 78 57 49 58 50 59 61 61 79 62 52 63 39 64 40 65
REMARK SMILES IDX 45 66 41 67 42 68 44 69 46 70 43 71 65 72 66 73 71 74 67 75
REMARK SMILES IDX 68 76 70 77 72 78 69 79 53 80 54 81 59 82 55 83 56 84 58 85
REMARK SMILES IDX 60 86 57 87
REMARK H PARENT 77 49 51 60
REMARK Flexibility Score: inf
ROOT
ATOM      1  C   UNL A   1      34.324  35.058  30.346  1.00  0.00     0.188 C 
ENDROOT
BRANCH   1   2
ATOM      2  O   UNL A   1      33.569  34.147  29.558  1.00  0.00    -0.376 OA
BRANCH   2   3
ATOM      3  C   UNL A   1      34.112  33.831  28.271  1.00  0.00     0.202 C 
BRANCH   3   4
ATOM      4  C   UNL A   1      33.586  32.524  27.665  1.00  0.00     0.261 C 
BRANCH   4   5
ATOM      5  O   UNL A   1      34.145  31.384  28.352  1.00  0.00    -0.463 OA
BRANCH   5   6
ATOM      6  C   UNL A   1      34.747  30.457  27.563  1.00  0.00     0.308 C 
ATOM      7  O   UNL A   1      35.937  30.473  27.265  1.00  0.00    -0.252 OA
BRANCH   6   8
ATOM      8  C   UNL A   1      33.847  29.281  27.254  1.00  0.00     0.155 C 
BRANCH   8   9
ATOM      9  C   UNL A   1      33.389  29.056  25.816  1.00  0.00     0.134 C 
ATOM     10  N   UNL A   1      32.657  26.242  23.326  1.00  0.00    -0.308 N 
ATOM     11  C   UNL A   1      31.301  26.700  23.080  1.00  0.00     0.123 C 
ATOM     12  C   UNL A   1      33.499  27.113  24.147  1.00  0.00     0.129 C 
ATOM     13  C   UNL A   1      30.587  26.980  24.393  1.00  0.00     0.028 C 
ATOM     14  C   UNL A   1      32.824  27.668  25.439  1.00  0.00     0.044 C 
ATOM     15  C   UNL A   1      31.341  27.972  25.260  1.00  0.00     0.024 C 
ATOM     16  C   UNL A   1      31.358  29.396  24.740  1.00  0.00     0.164 C 
ATOM     17  O   UNL A   1      32.407  30.047  25.464  1.00  0.00    -0.377 OA
BRANCH  10  18
ATOM     18  C   UNL A   1      33.099  25.134  22.606  1.00  0.00     0.410 C 
ATOM     19  O   UNL A   1      33.712  25.253  21.548  1.00  0.00    -0.224 OA
BRANCH  18  20
ATOM     20  O   UNL A   1      32.757  23.921  23.135  1.00  0.00    -0.444 OA
BRANCH  20  21
ATOM     21  C   UNL A   1      33.693  23.253  24.039  1.00  0.00     0.106 C 
ATOM     22  C   UNL A   1      33.271  23.605  25.477  1.00  0.00     0.056 C 
ATOM     23  C   UNL A   1      35.102  23.806  23.815  1.00  0.00     0.056 C 
ATOM     24  C   UNL A   1      33.658  21.714  23.939  1.00  0.00     0.056 C 
ENDBRANCH  20  21
ENDBRANCH  18  20
ENDBRANCH  10  18
ENDBRANCH   8   9
ENDBRANCH   6   8
ENDBRANCH   5   6
ENDBRANCH   4   5
ENDBRANCH   3   4
ENDBRANCH   2   3
ENDBRANCH   1   2
BRANCH   1  25
ATOM     25  C   UNL A   1      33.747  35.326  31.731  1.00  0.00     0.188 C 
BRANCH  25  26
ATOM     26  O   UNL A   1      34.693  35.865  32.656  1.00  0.00    -0.376 OA
BRANCH  26  27
ATOM     27  C   UNL A   1      34.863  35.059  33.830  1.00  0.00     0.202 C 
BRANCH  27  28
ATOM     28  C   UNL A   1      34.773  33.542  33.600  1.00  0.00     0.261 C 
BRANCH  28  29
ATOM     29  O   UNL A   1      35.987  32.998  33.059  1.00  0.00    -0.460 OA
BRANCH  29  30
ATOM     30  C   UNL A   1      35.745  32.134  32.040  1.00  0.00     0.338 C 
ATOM     31  O   UNL A   1      34.662  31.917  31.542  1.00  0.00    -0.246 OA
BRANCH  30  32
ATOM     32  C   UNL A   1      36.998  31.606  31.449  1.00  0.00     0.060 A 
ATOM     33  C   UNL A   1      37.865  30.919  32.314  1.00  0.00     0.016 A 
ATOM     34  C   UNL A   1      37.314  31.743  30.098  1.00  0.00     0.016 A 
ATOM     35  C   UNL A   1      39.045  30.362  31.837  1.00  0.00     0.010 A 
ATOM     36  C   UNL A   1      38.499  31.184  29.617  1.00  0.00     0.010 A 
ATOM     37  C   UNL A   1      39.365  30.495  30.485  1.00  0.00    -0.014 A 
BRANCH  37  38
ATOM     38  C   UNL A   1      40.630  29.942  29.966  1.00  0.00     0.031 A 
ATOM     39  C   UNL A   1      41.802  30.850  29.775  1.00  0.00     0.074 A 
ATOM     40  C   UNL A   1      40.699  28.642  29.634  1.00  0.00     0.049 A 
ATOM     41  N   UNL A   1      42.939  30.614  29.177  1.00  0.00    -0.248 NA
ATOM     42  C   UNL A   1      41.670  32.206  30.328  1.00  0.00     0.031 C 
ATOM     43  C   UNL A   1      39.630  27.664  29.831  1.00  0.00     0.029 A 
ATOM     44  N   UNL A   1      41.702  27.934  29.028  1.00  0.00    -0.354 N 
ATOM     45  C   UNL A   1      43.655  31.799  29.261  1.00  0.00     0.074 A 
ATOM     46  C   UNL A   1      42.820  32.754  29.961  1.00  0.00     0.031 C 
ATOM     47  C   UNL A   1      40.019  26.487  29.315  1.00  0.00     0.029 A 
ATOM     48  C   UNL A   1      41.340  26.648  28.712  1.00  0.00     0.049 A 
ATOM     49  H   UNL A   1      42.593  28.308  28.838  1.00  0.00     0.167 HD
ATOM     50  C   UNL A   1      44.894  32.062  28.786  1.00  0.00     0.037 A 
ATOM     51  C   UNL A   1      41.981  25.726  27.971  1.00  0.00     0.037 A 
ATOM     52  C   UNL A   1      45.706  31.103  28.086  1.00  0.00     0.049 A 
ATOM     53  C   UNL A   1      43.318  26.067  27.374  1.00  0.00     0.074 A 
ATOM     54  C   UNL A   1      46.993  31.249  27.600  1.00  0.00     0.029 A 
ATOM     55  N   UNL A   1      45.296  29.819  27.755  1.00  0.00    -0.354 N 
ATOM     56  N   UNL A   1      44.003  27.180  27.470  1.00  0.00    -0.248 NA
ATOM     57  C   UNL A   1      43.963  25.031  26.556  1.00  0.00     0.031 C 
ATOM     58  C   UNL A   1      47.341  30.070  26.928  1.00  0.00     0.029 A 
ATOM     59  C   UNL A   1      46.288  29.176  27.033  1.00  0.00     0.049 A 
ATOM     60  H   UNL A   1      44.428  29.423  27.997  1.00  0.00     0.167 HD
ATOM     61  C   UNL A   1      45.160  26.982  26.729  1.00  0.00     0.074 A 
ATOM     62  C   UNL A   1      45.092  25.632  26.206  1.00  0.00     0.031 C 
ATOM     63  C   UNL A   1      46.186  27.839  26.502  1.00  0.00     0.037 A 
BRANCH  50  64
ATOM     64  C   UNL A   1      45.411  33.458  28.965  1.00  0.00     0.057 A 
ATOM     65  C   UNL A   1      45.264  34.440  27.977  1.00  0.00     0.134 A 
ATOM     66  C   UNL A   1      46.078  33.819  30.142  1.00  0.00     0.134 A 
ATOM     67  F   UNL A   1      44.652  34.152  26.819  1.00  0.00    -0.206 F 
ATOM     68  C   UNL A   1      45.787  35.723  28.143  1.00  0.00     0.040 A 
ATOM     69  C   UNL A   1      46.586  35.105  30.329  1.00  0.00     0.040 A 
ATOM     70  F   UNL A   1      46.255  32.925  31.127  1.00  0.00    -0.206 F 
ATOM     71  C   UNL A   1      46.448  36.059  29.323  1.00  0.00     0.006 A 
ENDBRANCH  50  64
BRANCH  51  72
ATOM     72  C   UNL A   1      41.331  24.419  27.711  1.00  0.00     0.057 A 
ATOM     73  C   UNL A   1      40.292  24.297  26.784  1.00  0.00     0.134 A 
ATOM     74  C   UNL A   1      41.757  23.256  28.364  1.00  0.00     0.134 A 
ATOM     75  F   UNL A   1      39.829  25.380  26.143  1.00  0.00    -0.206 F 
ATOM     76  C   UNL A   1      39.698  23.063  26.512  1.00  0.00     0.040 A 
ATOM     77  C   UNL A   1      41.187  22.013  28.088  1.00  0.00     0.040 A 
ATOM     78  F   UNL A   1      42.750  23.308  29.263  1.00  0.00    -0.206 F 
ATOM     79  C   UNL A   1      40.153  21.914  27.160  1.00  0.00     0.006 A 
ENDBRANCH  51  72
BRANCH  63  80
ATOM     80  C   UNL A   1      47.311  27.342  25.644  1.00  0.00     0.057 A 
ATOM     81  C   UNL A   1      47.336  27.576  24.263  1.00  0.00     0.134 A 
ATOM     82  C   UNL A   1      48.401  26.668  26.208  1.00  0.00     0.134 A 
ATOM     83  F   UNL A   1      46.314  28.203  23.661  1.00  0.00    -0.206 F 
ATOM     84  C   UNL A   1      48.401  27.143  23.471  1.00  0.00     0.040 A 
ATOM     85  C   UNL A   1      49.483  26.252  25.431  1.00  0.00     0.040 A 
ATOM     86  F   UNL A   1      48.440  26.419  27.526  1.00  0.00    -0.206 F 
ATOM     87  C   UNL A   1      49.482  26.487  24.056  1.00  0.00     0.006 A 
ENDBRANCH  63  80
ENDBRANCH  37  38
ENDBRANCH  30  32
ENDBRANCH  29  30
ENDBRANCH  28  29
ENDBRANCH  27  28
ENDBRANCH  26  27
ENDBRANCH  25  26
ENDBRANCH   1  25
TORSDOF 21
ENDMDL
MODEL 2
REMARK VINA RESULT:      -9.7      4.591     10.365
REMARK SMILES CC(C)(C)OC(=O)N1CC[C@@H]2CO[C@@H](CC(=O)OCCOCCOCCOC(=O)c3ccc(-c4c5nc(c(-c6c(F)cccc6F)c6ccc([nH]6)c(-c6c(F)cccc6F)c6nc(c(-c7c(F)cccc7F)c7ccc4[nH]7)C=C6)C=C5)cc3)[C@@H]2C1
REMARK SMILES IDX 22 1 21 2 20 3 19 4 18 5 16 6 17 7 15 8 14 9 8 10 9 11 85 12
REMARK SMILES IDX 10 13 84 14 11 15 12 16 13 17 6 18 7 19 5 20 2 21 1 22 3 23
REMARK SMILES IDX 4 24 23 25 24 26 25 27 26 28 27 29 28 30 29 31 30 32 31 33
REMARK SMILES IDX 83 34 32 35 82 36 33 37 34 38 35 39 76 40 36 41 81 42 75 43
REMARK SMILES IDX 77 44 37 45 80 46 74 47 73 48 38 50 64 51 47 52 63 53 48 54
REMARK SMILES IDX 51 55 62 56 78 57 49 58 50 59 61 61 79 62 52 63 39 64 40 65
REMARK SMILES IDX 45 66 41 67 42 68 44 69 46 70 43 71 65 72 66 73 71 74 67 75
REMARK SMILES IDX 68 76 70 77 72 78 69 79 53 80 54 81 59 82 55 83 56 84 58 85
REMARK SMILES IDX 60 86 57 87
REMARK H PARENT 77 49 51 60
REMARK Flexibility Score: inf
ROOT
ATOM      1  C   UNL A   1      41.314  20.053  26.161  1.00  0.00     0.188 C 
ENDROOT
BRANCH   1   2
ATOM      2  O   UNL A   1      39.893  20.042  26.168  1.00  0.00    -0.376 OA
BRANCH   2   3
ATOM      3  C   UNL A   1      39.254  21.267  25.792  1.00  0.00     0.202 C 
BRANCH   3   4
ATOM      4  C   UNL A   1      37.940  21.085  25.023  1.00  0.00     0.261 C 
BRANCH   4   5
ATOM      5  O   UNL A   1      37.356  22.366  24.704  1.00  0.00    -0.463 OA
BRANCH   5   6
ATOM      6  C   UNL A   1      36.790  23.031  25.743  1.00  0.00     0.308 C 
ATOM      7  O   UNL A   1      37.223  24.080  26.210  1.00  0.00    -0.252 OA
BRANCH   6   8
ATOM      8  C   UNL A   1      35.446  22.459  26.140  1.00  0.00     0.155 C 
BRANCH   8   9
ATOM      9  C   UNL A   1      34.216  22.810  25.307  1.00  0.00     0.134 C 
ATOM     10  N   UNL A   1      31.924  25.758  24.469  1.00  0.00    -0.308 N 
ATOM     11  C   UNL A   1      32.148  25.634  23.040  1.00  0.00     0.123 C 
ATOM     12  C   UNL A   1      32.486  24.701  25.311  1.00  0.00     0.129 C 
ATOM     13  C   UNL A   1      33.633  25.505  22.743  1.00  0.00     0.028 C 
ATOM     14  C   UNL A   1      33.955  24.297  24.980  1.00  0.00     0.044 C 
ATOM     15  C   UNL A   1      34.274  24.350  23.491  1.00  0.00     0.024 C 
ATOM     16  C   UNL A   1      33.861  22.971  23.016  1.00  0.00     0.164 C 
ATOM     17  O   UNL A   1      34.252  22.081  24.067  1.00  0.00    -0.377 OA
BRANCH  10  18
ATOM     18  C   UNL A   1      31.036  26.745  24.894  1.00  0.00     0.410 C 
ATOM     19  O   UNL A   1      30.024  27.021  24.257  1.00  0.00    -0.224 OA
BRANCH  18  20
ATOM     20  O   UNL A   1      31.402  27.407  26.033  1.00  0.00    -0.444 OA
BRANCH  20  21
ATOM     21  C   UNL A   1      32.305  28.553  25.928  1.00  0.00     0.106 C 
ATOM     22  C   UNL A   1      33.694  28.085  26.396  1.00  0.00     0.056 C 
ATOM     23  C   UNL A   1      31.838  29.659  26.876  1.00  0.00     0.056 C 
ATOM     24  C   UNL A   1      32.482  29.070  24.486  1.00  0.00     0.056 C 
ENDBRANCH  20  21
ENDBRANCH  18  20
ENDBRANCH  10  18
ENDBRANCH   8   9
ENDBRANCH   6   8
ENDBRANCH   5   6
ENDBRANCH   4   5
ENDBRANCH   3   4
ENDBRANCH   2   3
ENDBRANCH   1   2
BRANCH   1  25
ATOM     25  C   UNL A   1      41.946  20.925  27.241  1.00  0.00     0.188 C 
BRANCH  25  26
ATOM     26  O   UNL A   1      42.992  21.772  26.760  1.00  0.00    -0.376 OA
BRANCH  26  27
ATOM     27  C   UNL A   1      42.825  22.159  25.389  1.00  0.00     0.202 C 
BRANCH  27  28
ATOM     28  C   UNL A   1      43.915  23.092  24.836  1.00  0.00     0.261 C 
BRANCH  28  29
ATOM     29  O   UNL A   1      43.469  24.453  24.734  1.00  0.00    -0.460 OA
BRANCH  29  30
ATOM     30  C   UNL A   1      44.297  25.309  25.387  1.00  0.00     0.338 C 
ATOM     31  O   UNL A   1      45.376  25.688  24.986  1.00  0.00    -0.246 OA
BRANCH  30  32
ATOM     32  C   UNL A   1      43.655  25.901  26.584  1.00  0.00     0.060 A 
ATOM     33  C   UNL A   1      44.055  27.200  26.939  1.00  0.00     0.016 A 
ATOM     34  C   UNL A   1      42.677  25.239  27.324  1.00  0.00     0.016 A 
ATOM     35  C   UNL A   1      43.479  27.845  28.027  1.00  0.00     0.010 A 
ATOM     36  C   UNL A   1      42.098  25.885  28.417  1.00  0.00     0.010 A 
ATOM     37  C   UNL A   1      42.498  27.186  28.770  1.00  0.00    -0.014 A 
BRANCH  37  38
ATOM     38  C   UNL A   1      41.900  27.839  29.950  1.00  0.00     0.031 A 
ATOM     39  C   UNL A   1      40.672  28.674  29.781  1.00  0.00     0.074 A 
ATOM     40  C   UNL A   1      42.491  27.709  31.150  1.00  0.00     0.049 A 
ATOM     41  N   UNL A   1      40.090  29.467  30.640  1.00  0.00    -0.248 NA
ATOM     42  C   UNL A   1      40.017  28.608  28.466  1.00  0.00     0.031 C 
ATOM     43  C   UNL A   1      43.660  26.876  31.428  1.00  0.00     0.029 A 
ATOM     44  N   UNL A   1      42.205  28.307  32.348  1.00  0.00    -0.354 N 
ATOM     45  C   UNL A   1      39.009  30.015  29.965  1.00  0.00     0.074 A 
ATOM     46  C   UNL A   1      39.021  29.469  28.624  1.00  0.00     0.031 C 
ATOM     47  C   UNL A   1      44.019  27.048  32.711  1.00  0.00     0.029 A 
ATOM     48  C   UNL A   1      43.135  28.037  33.321  1.00  0.00     0.049 A 
ATOM     49  H   UNL A   1      41.413  28.872  32.497  1.00  0.00     0.167 HD
ATOM     50  C   UNL A   1      38.097  30.901  30.428  1.00  0.00     0.037 A 
ATOM     51  C   UNL A   1      43.286  28.573  34.546  1.00  0.00     0.037 A 
ATOM     52  C   UNL A   1      38.106  31.439  31.762  1.00  0.00     0.049 A 
ATOM     53  C   UNL A   1      42.316  29.623  35.010  1.00  0.00     0.074 A 
ATOM     54  C   UNL A   1      37.204  32.309  32.351  1.00  0.00     0.029 A 
ATOM     55  N   UNL A   1      39.080  31.169  32.713  1.00  0.00    -0.354 N 
ATOM     56  N   UNL A   1      41.283  30.126  34.379  1.00  0.00    -0.248 NA
ATOM     57  C   UNL A   1      42.540  30.189  36.347  1.00  0.00     0.031 C 
ATOM     58  C   UNL A   1      37.664  32.606  33.639  1.00  0.00     0.029 A 
ATOM     59  C   UNL A   1      38.827  31.889  33.869  1.00  0.00     0.049 A 
ATOM     60  H   UNL A   1      39.839  30.556  32.584  1.00  0.00     0.167 HD
ATOM     61  C   UNL A   1      40.730  31.065  35.240  1.00  0.00     0.074 A 
ATOM     62  C   UNL A   1      41.534  31.047  36.446  1.00  0.00     0.031 C 
ATOM     63  C   UNL A   1      39.656  31.872  35.049  1.00  0.00     0.037 A 
BRANCH  50  64
ATOM     64  C   UNL A   1      37.056  31.377  29.460  1.00  0.00     0.057 A 
ATOM     65  C   UNL A   1      37.112  32.645  28.868  1.00  0.00     0.134 A 
ATOM     66  C   UNL A   1      35.974  30.554  29.125  1.00  0.00     0.134 A 
ATOM     67  F   UNL A   1      38.113  33.489  29.164  1.00  0.00    -0.206 F 
ATOM     68  C   UNL A   1      36.114  33.089  28.001  1.00  0.00     0.040 A 
ATOM     69  C   UNL A   1      34.981  30.978  28.241  1.00  0.00     0.040 A 
ATOM     70  F   UNL A   1      35.859  29.328  29.658  1.00  0.00    -0.206 F 
ATOM     71  C   UNL A   1      35.045  32.253  27.683  1.00  0.00     0.006 A 
ENDBRANCH  50  64
BRANCH  51  72
ATOM     72  C   UNL A   1      44.435  28.159  35.386  1.00  0.00     0.057 A 
ATOM     73  C   UNL A   1      44.339  27.079  36.267  1.00  0.00     0.134 A 
ATOM     74  C   UNL A   1      45.668  28.819  35.302  1.00  0.00     0.134 A 
ATOM     75  F   UNL A   1      43.179  26.422  36.405  1.00  0.00    -0.206 F 
ATOM     76  C   UNL A   1      45.429  26.665  37.036  1.00  0.00     0.040 A 
ATOM     77  C   UNL A   1      46.771  28.405  36.048  1.00  0.00     0.040 A 
ATOM     78  F   UNL A   1      45.823  29.862  34.473  1.00  0.00    -0.206 F 
ATOM     79  C   UNL A   1      46.653  27.325  36.920  1.00  0.00     0.006 A 
ENDBRANCH  51  72
BRANCH  63  80
ATOM     80  C   UNL A   1      39.297  32.803  36.168  1.00  0.00     0.057 A 
ATOM     81  C   UNL A   1      38.405  32.422  37.178  1.00  0.00     0.134 A 
ATOM     82  C   UNL A   1      39.883  34.071  36.263  1.00  0.00     0.134 A 
ATOM     83  F   UNL A   1      37.799  31.226  37.134  1.00  0.00    -0.206 F 
ATOM     84  C   UNL A   1      38.098  33.277  38.238  1.00  0.00     0.040 A 
ATOM     85  C   UNL A   1      39.603  34.925  37.331  1.00  0.00     0.040 A 
ATOM     86  F   UNL A   1      40.752  34.492  35.331  1.00  0.00    -0.206 F 
ATOM     87  C   UNL A   1      38.704  34.529  38.320  1.00  0.00     0.006 A 
ENDBRANCH  63  80
ENDBRANCH  37  38
ENDBRANCH  30  32
ENDBRANCH  29  30
ENDBRANCH  28  29
ENDBRANCH  27  28
ENDBRANCH  26  27
ENDBRANCH  25  26
ENDBRANCH   1  25
TORSDOF 21
ENDMDL
MODEL 3
REMARK VINA RESULT:      -9.5      2.960      8.602
REMARK SMILES CC(C)(C)OC(=O)N1CC[C@@H]2CO[C@@H](CC(=O)OCCOCCOCCOC(=O)c3ccc(-c4c5nc(c(-c6c(F)cccc6F)c6ccc([nH]6)c(-c6c(F)cccc6F)c6nc(c(-c7c(F)cccc7F)c7ccc4[nH]7)C=C6)C=C5)cc3)[C@@H]2C1
REMARK SMILES IDX 22 1 21 2 20 3 19 4 18 5 16 6 17 7 15 8 14 9 8 10 9 11 85 12
REMARK SMILES IDX 10 13 84 14 11 15 12 16 13 17 6 18 7 19 5 20 2 21 1 22 3 23
REMARK SMILES IDX 4 24 23 25 24 26 25 27 26 28 27 29 28 30 29 31 30 32 31 33
REMARK SMILES IDX 83 34 32 35 82 36 33 37 34 38 35 39 76 40 36 41 81 42 75 43
REMARK SMILES IDX 77 44 37 45 80 46 74 47 73 48 38 50 64 51 47 52 63 53 48 54
REMARK SMILES IDX 51 55 62 56 78 57 49 58 50 59 61 61 79 62 52 63 39 64 40 65
REMARK SMILES IDX 45 66 41 67 42 68 44 69 46 70 43 71 65 72 66 73 71 74 67 75
REMARK SMILES IDX 68 76 70 77 72 78 69 79 53 80 54 81 59 82 55 83 56 84 58 85
REMARK SMILES IDX 60 86 57 87
REMARK H PARENT 77 49 51 60
REMARK Flexibility Score: inf
ROOT
ATOM      1  C   UNL A   1      35.794  22.333  24.743  1.00  0.00     0.188 C 
ENDROOT
BRANCH   1   2
ATOM      2  O   UNL A   1      34.660  21.857  25.455  1.00  0.00    -0.376 OA
BRANCH   2   3
ATOM      3  C   UNL A   1      34.458  22.414  26.759  1.00  0.00     0.202 C 
BRANCH   3   4
ATOM      4  C   UNL A   1      33.147  21.989  27.432  1.00  0.00     0.261 C 
BRANCH   4   5
ATOM      5  O   UNL A   1      32.255  23.117  27.565  1.00  0.00    -0.463 OA
BRANCH   5   6
ATOM      6  C   UNL A   1      31.020  22.957  27.025  1.00  0.00     0.308 C 
ATOM      7  O   UNL A   1      29.971  23.188  27.619  1.00  0.00    -0.252 OA
BRANCH   6   8
ATOM      8  C   UNL A   1      31.064  22.662  25.542  1.00  0.00     0.155 C 
BRANCH   8   9
ATOM      9  C   UNL A   1      31.133  23.825  24.556  1.00  0.00     0.134 C 
ATOM     10  N   UNL A   1      32.982  27.123  23.960  1.00  0.00    -0.308 N 
ATOM     11  C   UNL A   1      33.436  26.726  22.640  1.00  0.00     0.123 C 
ATOM     12  C   UNL A   1      32.035  26.224  24.621  1.00  0.00     0.129 C 
ATOM     13  C   UNL A   1      34.032  25.328  22.679  1.00  0.00     0.028 C 
ATOM     14  C   UNL A   1      32.401  24.709  24.557  1.00  0.00     0.044 C 
ATOM     15  C   UNL A   1      33.065  24.304  23.246  1.00  0.00     0.024 C 
ATOM     16  C   UNL A   1      31.877  23.985  22.360  1.00  0.00     0.164 C 
ATOM     17  O   UNL A   1      30.935  23.333  23.219  1.00  0.00    -0.377 OA
BRANCH  10  18
ATOM     18  C   UNL A   1      33.320  28.404  24.395  1.00  0.00     0.410 C 
ATOM     19  O   UNL A   1      33.529  29.320  23.604  1.00  0.00    -0.224 OA
BRANCH  18  20
ATOM     20  O   UNL A   1      33.448  28.545  25.748  1.00  0.00    -0.444 OA
BRANCH  20  21
ATOM     21  C   UNL A   1      32.444  29.318  26.479  1.00  0.00     0.106 C 
ATOM     22  C   UNL A   1      33.182  30.458  27.202  1.00  0.00     0.056 C 
ATOM     23  C   UNL A   1      31.792  28.432  27.542  1.00  0.00     0.056 C 
ATOM     24  C   UNL A   1      31.395  29.986  25.567  1.00  0.00     0.056 C 
ENDBRANCH  20  21
ENDBRANCH  18  20
ENDBRANCH  10  18
ENDBRANCH   8   9
ENDBRANCH   6   8
ENDBRANCH   5   6
ENDBRANCH   4   5
ENDBRANCH   3   4
ENDBRANCH   2   3
ENDBRANCH   1   2
BRANCH   1  25
ATOM     25  C   UNL A   1      37.116  21.699  25.162  1.00  0.00     0.188 C 
BRANCH  25  26
ATOM     26  O   UNL A   1      37.040  20.287  25.369  1.00  0.00    -0.376 OA
BRANCH  26  27
ATOM     27  C   UNL A   1      38.236  19.592  24.994  1.00  0.00     0.202 C 
BRANCH  27  28
ATOM     28  C   UNL A   1      39.442  19.817  25.921  1.00  0.00     0.261 C 
BRANCH  28  29
ATOM     29  O   UNL A   1      40.611  19.109  25.480  1.00  0.00    -0.460 OA
BRANCH  29  30
ATOM     30  C   UNL A   1      41.661  19.291  26.321  1.00  0.00     0.338 C 
ATOM     31  O   UNL A   1      42.347  18.409  26.792  1.00  0.00    -0.246 OA
BRANCH  30  32
ATOM     32  C   UNL A   1      42.020  20.721  26.463  1.00  0.00     0.060 A 
ATOM     33  C   UNL A   1      42.089  21.230  27.771  1.00  0.00     0.016 A 
ATOM     34  C   UNL A   1      42.310  21.541  25.374  1.00  0.00     0.016 A 
ATOM     35  C   UNL A   1      42.453  22.551  27.998  1.00  0.00     0.010 A 
ATOM     36  C   UNL A   1      42.674  22.869  25.600  1.00  0.00     0.010 A 
ATOM     37  C   UNL A   1      42.745  23.375  26.910  1.00  0.00    -0.014 A 
BRANCH  37  38
ATOM     38  C   UNL A   1      43.097  24.792  27.127  1.00  0.00     0.031 A 
ATOM     39  C   UNL A   1      44.530  25.208  27.062  1.00  0.00     0.074 A 
ATOM     40  C   UNL A   1      42.130  25.677  27.421  1.00  0.00     0.049 A 
ATOM     41  N   UNL A   1      45.073  26.350  27.388  1.00  0.00    -0.248 NA
ATOM     42  C   UNL A   1      45.479  24.198  26.568  1.00  0.00     0.031 C 
ATOM     43  C   UNL A   1      40.699  25.382  27.456  1.00  0.00     0.029 A 
ATOM     44  N   UNL A   1      42.216  26.996  27.779  1.00  0.00    -0.354 N 
ATOM     45  C   UNL A   1      46.433  26.194  27.160  1.00  0.00     0.074 A 
ATOM     46  C   UNL A   1      46.632  24.844  26.675  1.00  0.00     0.031 C 
ATOM     47  C   UNL A   1      40.039  26.481  27.859  1.00  0.00     0.029 A 
ATOM     48  C   UNL A   1      41.008  27.533  28.153  1.00  0.00     0.049 A 
ATOM     49  H   UNL A   1      43.056  27.508  27.770  1.00  0.00     0.167 HD
ATOM     50  C   UNL A   1      47.421  27.098  27.350  1.00  0.00     0.037 A 
ATOM     51  C   UNL A   1      40.729  28.720  28.722  1.00  0.00     0.037 A 
ATOM     52  C   UNL A   1      47.204  28.433  27.840  1.00  0.00     0.049 A 
ATOM     53  C   UNL A   1      41.851  29.676  29.010  1.00  0.00     0.074 A 
ATOM     54  C   UNL A   1      48.128  29.446  28.028  1.00  0.00     0.029 A 
ATOM     55  N   UNL A   1      45.974  28.934  28.239  1.00  0.00    -0.354 N 
ATOM     56  N   UNL A   1      43.133  29.536  28.776  1.00  0.00    -0.248 NA
ATOM     57  C   UNL A   1      41.491  30.948  29.651  1.00  0.00     0.031 C 
ATOM     58  C   UNL A   1      47.463  30.542  28.592  1.00  0.00     0.029 A 
ATOM     59  C   UNL A   1      46.119  30.227  28.715  1.00  0.00     0.049 A 
ATOM     60  H   UNL A   1      45.122  28.443  28.192  1.00  0.00     0.167 HD
ATOM     61  C   UNL A   1      43.735  30.699  29.237  1.00  0.00     0.074 A 
ATOM     62  C   UNL A   1      42.673  31.543  29.747  1.00  0.00     0.031 C 
ATOM     63  C   UNL A   1      45.049  31.038  29.240  1.00  0.00     0.037 A 
BRANCH  50  64
ATOM     64  C   UNL A   1      48.823  26.644  27.076  1.00  0.00     0.057 A 
ATOM     65  C   UNL A   1      49.424  26.795  25.819  1.00  0.00     0.134 A 
ATOM     66  C   UNL A   1      49.578  26.034  28.084  1.00  0.00     0.134 A 
ATOM     67  F   UNL A   1      48.745  27.354  24.805  1.00  0.00    -0.206 F 
ATOM     68  C   UNL A   1      50.715  26.330  25.568  1.00  0.00     0.040 A 
ATOM     69  C   UNL A   1      50.879  25.584  27.852  1.00  0.00     0.040 A 
ATOM     70  F   UNL A   1      49.062  25.856  29.310  1.00  0.00    -0.206 F 
ATOM     71  C   UNL A   1      51.448  25.725  26.588  1.00  0.00     0.006 A 
ENDBRANCH  50  64
BRANCH  51  72
ATOM     72  C   UNL A   1      39.331  29.032  29.106  1.00  0.00     0.057 A 
ATOM     73  C   UNL A   1      38.405  29.489  28.165  1.00  0.00     0.134 A 
ATOM     74  C   UNL A   1      38.883  28.850  30.421  1.00  0.00     0.134 A 
ATOM     75  F   UNL A   1      38.781  29.701  26.896  1.00  0.00    -0.206 F 
ATOM     76  C   UNL A   1      37.079  29.753  28.514  1.00  0.00     0.040 A 
ATOM     77  C   UNL A   1      37.557  29.090  30.781  1.00  0.00     0.040 A 
ATOM     78  F   UNL A   1      39.724  28.412  31.369  1.00  0.00    -0.206 F 
ATOM     79  C   UNL A   1      36.651  29.545  29.826  1.00  0.00     0.006 A 
ENDBRANCH  51  72
BRANCH  63  80
ATOM     80  C   UNL A   1      45.406  32.374  29.820  1.00  0.00     0.057 A 
ATOM     81  C   UNL A   1      45.381  33.539  29.043  1.00  0.00     0.134 A 
ATOM     82  C   UNL A   1      45.729  32.505  31.176  1.00  0.00     0.134 A 
ATOM     83  F   UNL A   1      45.093  33.476  27.734  1.00  0.00    -0.206 F 
ATOM     84  C   UNL A   1      45.679  34.787  29.592  1.00  0.00     0.040 A 
ATOM     85  C   UNL A   1      46.005  33.750  31.742  1.00  0.00     0.040 A 
ATOM     86  F   UNL A   1      45.763  31.428  31.975  1.00  0.00    -0.206 F 
ATOM     87  C   UNL A   1      45.984  34.895  30.947  1.00  0.00     0.006 A 
ENDBRANCH  63  80
ENDBRANCH  37  38
ENDBRANCH  30  32
ENDBRANCH  29  30
ENDBRANCH  28  29
ENDBRANCH  27  28
ENDBRANCH  26  27
ENDBRANCH  25  26
ENDBRANCH   1  25
TORSDOF 21
ENDMDL
