MODEL 1
REMARK VINA RESULT:     -11.0      0.000      0.000
REMARK SMILES O=C(OCCOCCOCCOC(=O)[C@@H]1[C@@H](C(=O)Nc2cccc([N+](=O)[O-])c2)[C@@H]2C=C[C@H]1O2)c1ccc(-c2c3nc(c(-c4c(F)cccc4F)c4ccc([nH]4)c(-c4c(F)cccc4F)c4nc(c(-c5c(F)cccc5F)c5ccc2[nH]5)C=C4)C=C3)cc1
REMARK SMILES IDX 8 1 7 2 6 3 5 4 4 5 3 6 2 7 1 8 34 9 35 10 87 11 36 12 86 13
REMARK SMILES IDX 37 14 38 15 39 16 80 17 40 18 85 19 79 20 81 21 41 22 84 23
REMARK SMILES IDX 78 24 77 25 42 27 68 28 51 29 67 30 52 31 55 32 66 33 82 34
REMARK SMILES IDX 53 35 54 36 65 38 83 39 56 40 43 41 44 42 49 43 45 44 46 45
REMARK SMILES IDX 48 46 50 47 47 48 69 49 70 50 75 51 71 52 72 53 74 54 76 55
REMARK SMILES IDX 73 56 57 57 58 58 63 59 59 60 60 61 62 62 64 63 61 64 9 65
REMARK SMILES IDX 10 66 11 67 12 68 13 69 14 70 15 71 16 72 32 73 29 74 31 75
REMARK SMILES IDX 33 76 30 77 17 78 18 79 19 80 20 82 21 83 28 84 22 85 24 86
REMARK SMILES IDX 23 87 25 88 26 89 27 90
REMARK H PARENT 81 26 55 37 19 81
REMARK Flexibility Score: inf
ROOT
ATOM      1  C   UNL A   1      35.126  32.798  27.987  1.00  0.00     0.188 C 
ENDROOT
BRANCH   1   2
ATOM      2  C   UNL A   1      34.506  33.536  29.176  1.00  0.00     0.188 C 
BRANCH   2   3
ATOM      3  O   UNL A   1      34.386  34.952  29.088  1.00  0.00    -0.376 OA
BRANCH   3   4
ATOM      4  C   UNL A   1      33.067  35.472  29.118  1.00  0.00     0.202 C 
BRANCH   4   5
ATOM      5  C   UNL A   1      32.823  36.776  29.884  1.00  0.00     0.261 C 
BRANCH   5   6
ATOM      6  O   UNL A   1      32.454  36.710  31.273  1.00  0.00    -0.460 OA
BRANCH   6   7
ATOM      7  C   UNL A   1      32.509  35.744  32.212  1.00  0.00     0.338 C 
ATOM      8  O   UNL A   1      31.502  35.548  32.892  1.00  0.00    -0.246 OA
BRANCH   7   9
ATOM      9  C   UNL A   1      33.710  34.906  32.501  1.00  0.00     0.060 A 
ATOM     10  C   UNL A   1      33.683  33.575  32.912  1.00  0.00     0.016 A 
ATOM     11  C   UNL A   1      34.969  35.535  32.379  1.00  0.00     0.016 A 
ATOM     12  C   UNL A   1      34.872  32.873  33.128  1.00  0.00     0.010 A 
ATOM     13  C   UNL A   1      36.162  34.858  32.662  1.00  0.00     0.010 A 
ATOM     14  C   UNL A   1      36.118  33.518  33.038  1.00  0.00    -0.014 A 
BRANCH  14  15
ATOM     15  C   UNL A   1      37.302  32.794  33.559  1.00  0.00     0.031 A 
ATOM     16  C   UNL A   1      38.025  31.908  32.606  1.00  0.00     0.074 A 
ATOM     17  C   UNL A   1      37.758  32.950  34.813  1.00  0.00     0.049 A 
ATOM     18  N   UNL A   1      39.152  31.277  32.767  1.00  0.00    -0.248 NA
ATOM     19  C   UNL A   1      37.358  31.655  31.317  1.00  0.00     0.031 C 
ATOM     20  C   UNL A   1      37.031  33.636  35.858  1.00  0.00     0.029 A 
ATOM     21  N   UNL A   1      38.941  32.603  35.419  1.00  0.00    -0.354 N 
ATOM     22  C   UNL A   1      39.295  30.497  31.634  1.00  0.00     0.074 A 
ATOM     23  C   UNL A   1      38.184  30.789  30.757  1.00  0.00     0.031 C 
ATOM     24  C   UNL A   1      37.835  33.823  36.916  1.00  0.00     0.029 A 
ATOM     25  C   UNL A   1      39.111  33.186  36.660  1.00  0.00     0.049 A 
ATOM     26  H   UNL A   1      39.601  31.998  35.010  1.00  0.00     0.167 HD
ATOM     27  C   UNL A   1      40.233  29.554  31.401  1.00  0.00     0.037 A 
ATOM     28  C   UNL A   1      40.172  33.194  37.493  1.00  0.00     0.037 A 
ATOM     29  C   UNL A   1      41.269  29.226  32.339  1.00  0.00     0.049 A 
ATOM     30  C   UNL A   1      41.287  32.252  37.141  1.00  0.00     0.074 A 
ATOM     31  C   UNL A   1      42.245  28.255  32.241  1.00  0.00     0.029 A 
ATOM     32  N   UNL A   1      41.440  29.849  33.572  1.00  0.00    -0.354 N 
ATOM     33  N   UNL A   1      41.433  31.529  36.056  1.00  0.00    -0.248 NA
ATOM     34  C   UNL A   1      42.320  32.030  38.160  1.00  0.00     0.031 C 
ATOM     35  C   UNL A   1      42.982  28.263  33.431  1.00  0.00     0.029 A 
ATOM     36  C   UNL A   1      42.505  29.279  34.246  1.00  0.00     0.049 A 
ATOM     37  H   UNL A   1      40.886  30.588  33.913  1.00  0.00     0.167 HD
ATOM     38  C   UNL A   1      42.522  30.709  36.291  1.00  0.00     0.074 A 
ATOM     39  C   UNL A   1      43.061  31.095  37.583  1.00  0.00     0.031 C 
ATOM     40  C   UNL A   1      42.998  29.690  35.537  1.00  0.00     0.037 A 
BRANCH  27  41
ATOM     41  C   UNL A   1      40.057  28.748  30.152  1.00  0.00     0.057 A 
ATOM     42  C   UNL A   1      39.323  27.557  30.128  1.00  0.00     0.134 A 
ATOM     43  C   UNL A   1      40.723  29.124  28.979  1.00  0.00     0.134 A 
ATOM     44  F   UNL A   1      38.707  27.115  31.236  1.00  0.00    -0.206 F 
ATOM     45  C   UNL A   1      39.280  26.752  28.988  1.00  0.00     0.040 A 
ATOM     46  C   UNL A   1      40.666  28.342  27.825  1.00  0.00     0.040 A 
ATOM     47  F   UNL A   1      41.467  30.241  28.944  1.00  0.00    -0.206 F 
ATOM     48  C   UNL A   1      39.951  27.147  27.832  1.00  0.00     0.006 A 
ENDBRANCH  27  41
BRANCH  28  49
ATOM     49  C   UNL A   1      40.219  34.018  38.741  1.00  0.00     0.057 A 
ATOM     50  C   UNL A   1      40.855  35.271  38.760  1.00  0.00     0.134 A 
ATOM     51  C   UNL A   1      39.665  33.585  39.954  1.00  0.00     0.134 A 
ATOM     52  F   UNL A   1      41.445  35.746  37.653  1.00  0.00    -0.206 F 
ATOM     53  C   UNL A   1      40.938  36.048  39.923  1.00  0.00     0.040 A 
ATOM     54  C   UNL A   1      39.696  34.373  41.109  1.00  0.00     0.040 A 
ATOM     55  F   UNL A   1      39.086  32.379  40.042  1.00  0.00    -0.206 F 
ATOM     56  C   UNL A   1      40.342  35.604  41.099  1.00  0.00     0.006 A 
ENDBRANCH  28  49
BRANCH  40  57
ATOM     57  C   UNL A   1      44.151  28.929  36.108  1.00  0.00     0.057 A 
ATOM     58  C   UNL A   1      45.473  29.364  35.946  1.00  0.00     0.134 A 
ATOM     59  C   UNL A   1      43.929  27.772  36.862  1.00  0.00     0.134 A 
ATOM     60  F   UNL A   1      45.746  30.458  35.218  1.00  0.00    -0.206 F 
ATOM     61  C   UNL A   1      46.538  28.663  36.506  1.00  0.00     0.040 A 
ATOM     62  C   UNL A   1      44.985  27.078  37.449  1.00  0.00     0.040 A 
ATOM     63  F   UNL A   1      42.684  27.312  37.051  1.00  0.00    -0.206 F 
ATOM     64  C   UNL A   1      46.294  27.520  37.267  1.00  0.00     0.006 A 
ENDBRANCH  40  57
ENDBRANCH  14  15
ENDBRANCH   7   9
ENDBRANCH   6   7
ENDBRANCH   5   6
ENDBRANCH   4   5
ENDBRANCH   3   4
ENDBRANCH   2   3
ENDBRANCH   1   2
BRANCH   1  65
ATOM     65  O   UNL A   1      34.513  31.603  27.559  1.00  0.00    -0.376 OA
BRANCH  65  66
ATOM     66  C   UNL A   1      33.115  31.563  27.315  1.00  0.00     0.202 C 
BRANCH  66  67
ATOM     67  C   UNL A   1      32.338  30.345  26.796  1.00  0.00     0.261 C 
BRANCH  67  68
ATOM     68  O   UNL A   1      32.620  29.797  25.503  1.00  0.00    -0.463 OA
BRANCH  68  69
ATOM     69  C   UNL A   1      33.407  28.687  25.475  1.00  0.00     0.312 C 
ATOM     70  O   UNL A   1      34.502  28.605  25.993  1.00  0.00    -0.252 OA
BRANCH  69  71
ATOM     71  C   UNL A   1      32.876  27.553  24.643  1.00  0.00     0.147 C 
ATOM     72  C   UNL A   1      31.467  27.800  24.037  1.00  0.00     0.129 C 
ATOM     73  C   UNL A   1      32.698  26.277  25.448  1.00  0.00     0.157 C 
ATOM     74  C   UNL A   1      30.699  26.625  24.654  1.00  0.00     0.155 C 
ATOM     75  C   UNL A   1      31.817  26.509  26.626  1.00  0.00     0.004 C 
ATOM     76  O   UNL A   1      31.751  25.613  24.581  1.00  0.00    -0.365 OA
ATOM     77  C   UNL A   1      30.593  26.762  26.146  1.00  0.00     0.004 C 
BRANCH  72  78
ATOM     78  C   UNL A   1      31.436  27.654  22.514  1.00  0.00     0.231 C 
ATOM     79  O   UNL A   1      32.050  26.765  21.918  1.00  0.00    -0.274 OA
ATOM     80  N   UNL A   1      30.624  28.455  21.750  1.00  0.00    -0.325 N 
ATOM     81  H   UNL A   1      30.804  28.480  20.783  1.00  0.00     0.169 HD
BRANCH  80  82
ATOM     82  C   UNL A   1      29.567  29.235  22.216  1.00  0.00     0.048 A 
ATOM     83  C   UNL A   1      28.488  28.598  22.831  1.00  0.00     0.026 A 
ATOM     84  C   UNL A   1      29.571  30.618  22.057  1.00  0.00     0.111 A 
ATOM     85  C   UNL A   1      27.469  29.355  23.411  1.00  0.00     0.009 A 
ATOM     86  C   UNL A   1      28.554  31.370  22.656  1.00  0.00     0.271 A 
ATOM     87  C   UNL A   1      27.515  30.748  23.356  1.00  0.00     0.086 A 
BRANCH  86  88
ATOM     88  N   UNL A   1      28.625  32.833  22.633  1.00  0.00     0.062 N 
ATOM     89  O   UNL A   1      27.877  33.419  21.835  1.00  0.00    -0.258 OA
ATOM     90  O   UNL A   1      29.432  33.380  23.395  1.00  0.00    -0.258 OA
ENDBRANCH  86  88
ENDBRANCH  80  82
ENDBRANCH  72  78
ENDBRANCH  69  71
ENDBRANCH  68  69
ENDBRANCH  67  68
ENDBRANCH  66  67
ENDBRANCH  65  66
ENDBRANCH   1  65
TORSDOF 20
ENDMDL
MODEL 2
REMARK VINA RESULT:     -11.0      0.468      6.096
REMARK SMILES O=C(OCCOCCOCCOC(=O)[C@@H]1[C@@H](C(=O)Nc2cccc([N+](=O)[O-])c2)[C@@H]2C=C[C@H]1O2)c1ccc(-c2c3nc(c(-c4c(F)cccc4F)c4ccc([nH]4)c(-c4c(F)cccc4F)c4nc(c(-c5c(F)cccc5F)c5ccc2[nH]5)C=C4)C=C3)cc1
REMARK SMILES IDX 8 1 7 2 6 3 5 4 4 5 3 6 2 7 1 8 34 9 35 10 87 11 36 12 86 13
REMARK SMILES IDX 37 14 38 15 39 16 80 17 40 18 85 19 79 20 81 21 41 22 84 23
REMARK SMILES IDX 78 24 77 25 42 27 68 28 51 29 67 30 52 31 55 32 66 33 82 34
REMARK SMILES IDX 53 35 54 36 65 38 83 39 56 40 43 41 44 42 49 43 45 44 46 45
REMARK SMILES IDX 48 46 50 47 47 48 69 49 70 50 75 51 71 52 72 53 74 54 76 55
REMARK SMILES IDX 73 56 57 57 58 58 63 59 59 60 60 61 62 62 64 63 61 64 9 65
REMARK SMILES IDX 10 66 11 67 12 68 13 69 14 70 15 71 16 72 32 73 29 74 31 75
REMARK SMILES IDX 33 76 30 77 17 78 18 79 19 80 20 82 21 83 28 84 22 85 24 86
REMARK SMILES IDX 23 87 25 88 26 89 27 90
REMARK H PARENT 81 26 55 37 19 81
REMARK Flexibility Score: inf
ROOT
ATOM      1  C   UNL A   1      35.132  32.338  28.092  1.00  0.00     0.188 C 
ENDROOT
BRANCH   1   2
ATOM      2  C   UNL A   1      34.544  33.200  29.211  1.00  0.00     0.188 C 
BRANCH   2   3
ATOM      3  O   UNL A   1      34.546  34.612  29.032  1.00  0.00    -0.376 OA
BRANCH   3   4
ATOM      4  C   UNL A   1      33.280  35.219  28.830  1.00  0.00     0.202 C 
BRANCH   4   5
ATOM      5  C   UNL A   1      32.977  36.521  29.579  1.00  0.00     0.261 C 
BRANCH   5   6
ATOM      6  O   UNL A   1      32.352  36.451  30.874  1.00  0.00    -0.460 OA
BRANCH   6   7
ATOM      7  C   UNL A   1      32.461  35.611  31.922  1.00  0.00     0.338 C 
ATOM      8  O   UNL A   1      31.433  35.321  32.533  1.00  0.00    -0.246 OA
BRANCH   7   9
ATOM      9  C   UNL A   1      33.743  35.021  32.411  1.00  0.00     0.060 A 
ATOM     10  C   UNL A   1      34.972  35.676  32.439  1.00  0.00     0.016 A 
ATOM     11  C   UNL A   1      33.701  33.677  32.844  1.00  0.00     0.016 A 
ATOM     12  C   UNL A   1      36.107  35.039  32.946  1.00  0.00     0.010 A 
ATOM     13  C   UNL A   1      34.848  33.008  33.287  1.00  0.00     0.010 A 
ATOM     14  C   UNL A   1      36.061  33.690  33.342  1.00  0.00    -0.014 A 
BRANCH  14  15
ATOM     15  C   UNL A   1      37.352  33.006  33.590  1.00  0.00     0.031 A 
ATOM     16  C   UNL A   1      37.931  33.130  34.956  1.00  0.00     0.074 A 
ATOM     17  C   UNL A   1      37.971  32.257  32.661  1.00  0.00     0.049 A 
ATOM     18  N   UNL A   1      38.965  32.526  35.466  1.00  0.00    -0.248 NA
ATOM     19  C   UNL A   1      37.288  34.109  35.849  1.00  0.00     0.031 C 
ATOM     20  C   UNL A   1      37.591  32.224  31.266  1.00  0.00     0.029 A 
ATOM     21  N   UNL A   1      38.999  31.350  32.737  1.00  0.00    -0.354 N 
ATOM     22  C   UNL A   1      39.143  33.102  36.710  1.00  0.00     0.074 A 
ATOM     23  C   UNL A   1      38.068  34.047  36.915  1.00  0.00     0.031 C 
ATOM     24  C   UNL A   1      38.240  31.224  30.648  1.00  0.00     0.029 A 
ATOM     25  C   UNL A   1      39.155  30.602  31.585  1.00  0.00     0.049 A 
ATOM     26  H   UNL A   1      39.569  31.243  33.532  1.00  0.00     0.167 HD
ATOM     27  C   UNL A   1      40.174  32.914  37.562  1.00  0.00     0.037 A 
ATOM     28  C   UNL A   1      39.950  29.546  31.319  1.00  0.00     0.037 A 
ATOM     29  C   UNL A   1      41.274  32.035  37.282  1.00  0.00     0.049 A 
ATOM     30  C   UNL A   1      41.000  29.243  32.349  1.00  0.00     0.074 A 
ATOM     31  C   UNL A   1      42.403  31.799  38.041  1.00  0.00     0.029 A 
ATOM     32  N   UNL A   1      41.394  31.268  36.127  1.00  0.00    -0.354 N 
ATOM     33  N   UNL A   1      41.154  29.774  33.538  1.00  0.00    -0.248 NA
ATOM     34  C   UNL A   1      42.050  28.290  31.970  1.00  0.00     0.031 C 
ATOM     35  C   UNL A   1      43.225  30.921  37.327  1.00  0.00     0.029 A 
ATOM     36  C   UNL A   1      42.582  30.560  36.152  1.00  0.00     0.049 A 
ATOM     37  H   UNL A   1      40.730  31.233  35.401  1.00  0.00     0.167 HD
ATOM     38  C   UNL A   1      42.357  29.287  34.017  1.00  0.00     0.074 A 
ATOM     39  C   UNL A   1      42.842  28.337  33.032  1.00  0.00     0.031 C 
ATOM     40  C   UNL A   1      43.029  29.635  35.141  1.00  0.00     0.037 A 
BRANCH  27  41
ATOM     41  C   UNL A   1      40.190  33.788  38.777  1.00  0.00     0.057 A 
ATOM     42  C   UNL A   1      39.470  33.472  39.935  1.00  0.00     0.134 A 
ATOM     43  C   UNL A   1      40.859  35.018  38.744  1.00  0.00     0.134 A 
ATOM     44  F   UNL A   1      38.764  32.333  40.007  1.00  0.00    -0.206 F 
ATOM     45  C   UNL A   1      39.391  34.363  41.008  1.00  0.00     0.040 A 
ATOM     46  C   UNL A   1      40.811  35.904  39.820  1.00  0.00     0.040 A 
ATOM     47  F   UNL A   1      41.544  35.393  37.652  1.00  0.00    -0.206 F 
ATOM     48  C   UNL A   1      40.066  35.581  40.952  1.00  0.00     0.006 A 
ENDBRANCH  27  41
BRANCH  28  49
ATOM     49  C   UNL A   1      39.866  28.766  30.044  1.00  0.00     0.057 A 
ATOM     50  C   UNL A   1      39.146  27.561  29.978  1.00  0.00     0.134 A 
ATOM     51  C   UNL A   1      40.513  29.168  28.868  1.00  0.00     0.134 A 
ATOM     52  F   UNL A   1      38.528  27.082  31.068  1.00  0.00    -0.206 F 
ATOM     53  C   UNL A   1      39.077  26.797  28.806  1.00  0.00     0.040 A 
ATOM     54  C   UNL A   1      40.410  28.443  27.677  1.00  0.00     0.040 A 
ATOM     55  F   UNL A   1      41.267  30.277  28.854  1.00  0.00    -0.206 F 
ATOM     56  C   UNL A   1      39.698  27.248  27.646  1.00  0.00     0.006 A 
ENDBRANCH  28  49
BRANCH  40  57
ATOM     57  C   UNL A   1      44.359  28.984  35.342  1.00  0.00     0.057 A 
ATOM     58  C   UNL A   1      44.490  27.777  36.041  1.00  0.00     0.134 A 
ATOM     59  C   UNL A   1      45.514  29.552  34.793  1.00  0.00     0.134 A 
ATOM     60  F   UNL A   1      43.420  27.196  36.604  1.00  0.00    -0.206 F 
ATOM     61  C   UNL A   1      45.731  27.164  36.199  1.00  0.00     0.040 A 
ATOM     62  C   UNL A   1      46.755  28.935  34.922  1.00  0.00     0.040 A 
ATOM     63  F   UNL A   1      45.446  30.705  34.111  1.00  0.00    -0.206 F 
ATOM     64  C   UNL A   1      46.867  27.740  35.631  1.00  0.00     0.006 A 
ENDBRANCH  40  57
ENDBRANCH  14  15
ENDBRANCH   7   9
ENDBRANCH   6   7
ENDBRANCH   5   6
ENDBRANCH   4   5
ENDBRANCH   3   4
ENDBRANCH   2   3
ENDBRANCH   1   2
BRANCH   1  65
ATOM     65  O   UNL A   1      34.397  31.213  27.670  1.00  0.00    -0.376 OA
BRANCH  65  66
ATOM     66  C   UNL A   1      33.045  31.352  27.260  1.00  0.00     0.202 C 
BRANCH  66  67
ATOM     67  C   UNL A   1      32.141  30.211  26.773  1.00  0.00     0.261 C 
BRANCH  67  68
ATOM     68  O   UNL A   1      32.267  29.698  25.441  1.00  0.00    -0.463 OA
BRANCH  68  69
ATOM     69  C   UNL A   1      33.144  28.671  25.270  1.00  0.00     0.312 C 
ATOM     70  O   UNL A   1      34.289  28.667  25.675  1.00  0.00    -0.252 OA
BRANCH  69  71
ATOM     71  C   UNL A   1      32.637  27.537  24.423  1.00  0.00     0.147 C 
ATOM     72  C   UNL A   1      31.184  27.718  23.903  1.00  0.00     0.129 C 
ATOM     73  C   UNL A   1      32.581  26.224  25.184  1.00  0.00     0.157 C 
ATOM     74  C   UNL A   1      30.523  26.477  24.513  1.00  0.00     0.155 C 
ATOM     75  C   UNL A   1      31.754  26.358  26.416  1.00  0.00     0.004 C 
ATOM     76  O   UNL A   1      31.629  25.535  24.344  1.00  0.00    -0.365 OA
ATOM     77  C   UNL A   1      30.493  26.551  26.012  1.00  0.00     0.004 C 
BRANCH  72  78
ATOM     78  C   UNL A   1      31.077  27.627  22.379  1.00  0.00     0.231 C 
ATOM     79  O   UNL A   1      31.587  26.709  21.730  1.00  0.00    -0.274 OA
ATOM     80  N   UNL A   1      30.306  28.518  21.676  1.00  0.00    -0.325 N 
ATOM     81  H   UNL A   1      30.447  28.561  20.703  1.00  0.00     0.169 HD
BRANCH  80  82
ATOM     82  C   UNL A   1      29.340  29.369  22.212  1.00  0.00     0.048 A 
ATOM     83  C   UNL A   1      28.237  28.805  22.855  1.00  0.00     0.026 A 
ATOM     84  C   UNL A   1      29.456  30.751  22.094  1.00  0.00     0.111 A 
ATOM     85  C   UNL A   1      27.313  29.626  23.502  1.00  0.00     0.009 A 
ATOM     86  C   UNL A   1      28.534  31.566  22.759  1.00  0.00     0.271 A 
ATOM     87  C   UNL A   1      27.475  31.011  23.486  1.00  0.00     0.086 A 
BRANCH  86  88
ATOM     88  N   UNL A   1      28.728  33.018  22.776  1.00  0.00     0.062 N 
ATOM     89  O   UNL A   1      28.028  33.687  22.001  1.00  0.00    -0.258 OA
ATOM     90  O   UNL A   1      29.584  33.473  23.545  1.00  0.00    -0.258 OA
ENDBRANCH  86  88
ENDBRANCH  80  82
ENDBRANCH  72  78
ENDBRANCH  69  71
ENDBRANCH  68  69
ENDBRANCH  67  68
ENDBRANCH  66  67
ENDBRANCH  65  66
ENDBRANCH   1  65
TORSDOF 20
ENDMDL
MODEL 3
REMARK VINA RESULT:     -10.8      5.210     10.607
REMARK SMILES O=C(OCCOCCOCCOC(=O)[C@@H]1[C@@H](C(=O)Nc2cccc([N+](=O)[O-])c2)[C@@H]2C=C[C@H]1O2)c1ccc(-c2c3nc(c(-c4c(F)cccc4F)c4ccc([nH]4)c(-c4c(F)cccc4F)c4nc(c(-c5c(F)cccc5F)c5ccc2[nH]5)C=C4)C=C3)cc1
REMARK SMILES IDX 8 1 7 2 6 3 5 4 4 5 3 6 2 7 1 8 34 9 35 10 87 11 36 12 86 13
REMARK SMILES IDX 37 14 38 15 39 16 80 17 40 18 85 19 79 20 81 21 41 22 84 23
REMARK SMILES IDX 78 24 77 25 42 27 68 28 51 29 67 30 52 31 55 32 66 33 82 34
REMARK SMILES IDX 53 35 54 36 65 38 83 39 56 40 43 41 44 42 49 43 45 44 46 45
REMARK SMILES IDX 48 46 50 47 47 48 69 49 70 50 75 51 71 52 72 53 74 54 76 55
REMARK SMILES IDX 73 56 57 57 58 58 63 59 59 60 60 61 62 62 64 63 61 64 9 65
REMARK SMILES IDX 10 66 11 67 12 68 13 69 14 70 15 71 16 72 32 73 29 74 31 75
REMARK SMILES IDX 33 76 30 77 17 78 18 79 19 80 20 82 21 83 28 84 22 85 24 86
REMARK SMILES IDX 23 87 25 88 26 89 27 90
REMARK H PARENT 81 26 55 37 19 81
REMARK Flexibility Score: inf
ROOT
ATOM      1  C   UNL A   1      41.316  21.150  27.313  1.00  0.00     0.188 C 
ENDROOT
BRANCH   1   2
ATOM      2  C   UNL A   1      42.204  21.590  26.146  1.00  0.00     0.188 C 
BRANCH   2   3
ATOM      3  O   UNL A   1      43.347  20.797  25.846  1.00  0.00    -0.376 OA
BRANCH   3   4
ATOM      4  C   UNL A   1      44.494  21.497  25.395  1.00  0.00     0.202 C 
BRANCH   4   5
ATOM      5  C   UNL A   1      44.323  22.498  24.247  1.00  0.00     0.261 C 
BRANCH   5   6
ATOM      6  O   UNL A   1      43.798  23.806  24.536  1.00  0.00    -0.460 OA
BRANCH   6   7
ATOM      7  C   UNL A   1      44.309  24.914  25.109  1.00  0.00     0.338 C 
ATOM      8  O   UNL A   1      45.441  25.263  24.774  1.00  0.00    -0.246 OA
BRANCH   7   9
ATOM      9  C   UNL A   1      43.609  25.741  26.137  1.00  0.00     0.060 A 
ATOM     10  C   UNL A   1      43.781  27.110  26.323  1.00  0.00     0.016 A 
ATOM     11  C   UNL A   1      42.729  25.061  27.009  1.00  0.00     0.016 A 
ATOM     12  C   UNL A   1      43.051  27.793  27.300  1.00  0.00     0.010 A 
ATOM     13  C   UNL A   1      42.048  25.726  28.036  1.00  0.00     0.010 A 
ATOM     14  C   UNL A   1      42.206  27.102  28.185  1.00  0.00    -0.014 A 
BRANCH  14  15
ATOM     15  C   UNL A   1      41.697  27.842  29.364  1.00  0.00     0.031 A 
ATOM     16  C   UNL A   1      42.577  27.887  30.564  1.00  0.00     0.074 A 
ATOM     17  C   UNL A   1      40.525  28.498  29.363  1.00  0.00     0.049 A 
ATOM     18  N   UNL A   1      42.431  28.570  31.663  1.00  0.00    -0.248 NA
ATOM     19  C   UNL A   1      43.752  26.997  30.544  1.00  0.00     0.031 C 
ATOM     20  C   UNL A   1      39.525  28.365  28.326  1.00  0.00     0.029 A 
ATOM     21  N   UNL A   1      39.985  29.434  30.211  1.00  0.00    -0.354 N 
ATOM     22  C   UNL A   1      43.451  28.142  32.492  1.00  0.00     0.074 A 
ATOM     23  C   UNL A   1      44.256  27.199  31.749  1.00  0.00     0.031 C 
ATOM     24  C   UNL A   1      38.582  29.305  28.489  1.00  0.00     0.029 A 
ATOM     25  C   UNL A   1      38.860  30.051  29.700  1.00  0.00     0.049 A 
ATOM     26  H   UNL A   1      40.363  29.644  31.095  1.00  0.00     0.167 HD
ATOM     27  C   UNL A   1      43.633  28.450  33.794  1.00  0.00     0.037 A 
ATOM     28  C   UNL A   1      38.136  31.091  30.163  1.00  0.00     0.037 A 
ATOM     29  C   UNL A   1      42.755  29.320  34.526  1.00  0.00     0.049 A 
ATOM     30  C   UNL A   1      38.451  31.534  31.563  1.00  0.00     0.074 A 
ATOM     31  C   UNL A   1      42.804  29.668  35.861  1.00  0.00     0.029 A 
ATOM     32  N   UNL A   1      41.644  29.956  33.981  1.00  0.00    -0.354 N 
ATOM     33  N   UNL A   1      39.432  31.144  32.341  1.00  0.00    -0.248 NA
ATOM     34  C   UNL A   1      37.510  32.465  32.195  1.00  0.00     0.031 C 
ATOM     35  C   UNL A   1      41.699  30.482  36.134  1.00  0.00     0.029 A 
ATOM     36  C   UNL A   1      40.996  30.692  34.957  1.00  0.00     0.049 A 
ATOM     37  H   UNL A   1      41.362  29.893  33.040  1.00  0.00     0.167 HD
ATOM     38  C   UNL A   1      39.183  31.712  33.578  1.00  0.00     0.074 A 
ATOM     39  C   UNL A   1      38.013  32.557  33.417  1.00  0.00     0.031 C 
ATOM     40  C   UNL A   1      39.826  31.510  34.752  1.00  0.00     0.037 A 
BRANCH  27  41
ATOM     41  C   UNL A   1      44.734  27.718  34.495  1.00  0.00     0.057 A 
ATOM     42  C   UNL A   1      44.529  26.485  35.126  1.00  0.00     0.134 A 
ATOM     43  C   UNL A   1      45.996  28.312  34.625  1.00  0.00     0.134 A 
ATOM     44  F   UNL A   1      43.326  25.891  35.084  1.00  0.00    -0.206 F 
ATOM     45  C   UNL A   1      45.533  25.882  35.886  1.00  0.00     0.040 A 
ATOM     46  C   UNL A   1      47.015  27.706  35.358  1.00  0.00     0.040 A 
ATOM     47  F   UNL A   1      46.248  29.507  34.067  1.00  0.00    -0.206 F 
ATOM     48  C   UNL A   1      46.781  26.492  36.000  1.00  0.00     0.006 A 
ENDBRANCH  27  41
BRANCH  28  49
ATOM     49  C   UNL A   1      37.026  31.721  29.381  1.00  0.00     0.057 A 
ATOM     50  C   UNL A   1      35.804  31.055  29.191  1.00  0.00     0.134 A 
ATOM     51  C   UNL A   1      37.147  32.981  28.779  1.00  0.00     0.134 A 
ATOM     52  F   UNL A   1      35.617  29.828  29.700  1.00  0.00    -0.206 F 
ATOM     53  C   UNL A   1      34.762  31.610  28.438  1.00  0.00     0.040 A 
ATOM     54  C   UNL A   1      36.096  33.570  28.070  1.00  0.00     0.040 A 
ATOM     55  F   UNL A   1      38.297  33.665  28.863  1.00  0.00    -0.206 F 
ATOM     56  C   UNL A   1      34.902  32.880  27.889  1.00  0.00     0.006 A 
ENDBRANCH  28  49
BRANCH  40  57
ATOM     57  C   UNL A   1      39.260  32.212  35.944  1.00  0.00     0.057 A 
ATOM     58  C   UNL A   1      39.612  33.532  36.256  1.00  0.00     0.134 A 
ATOM     59  C   UNL A   1      38.322  31.573  36.761  1.00  0.00     0.134 A 
ATOM     60  F   UNL A   1      40.520  34.188  35.518  1.00  0.00    -0.206 F 
ATOM     61  C   UNL A   1      39.058  34.188  37.353  1.00  0.00     0.040 A 
ATOM     62  C   UNL A   1      37.741  32.228  37.844  1.00  0.00     0.040 A 
ATOM     63  F   UNL A   1      37.945  30.311  36.507  1.00  0.00    -0.206 F 
ATOM     64  C   UNL A   1      38.112  33.537  38.146  1.00  0.00     0.006 A 
ENDBRANCH  40  57
ENDBRANCH  14  15
ENDBRANCH   7   9
ENDBRANCH   6   7
ENDBRANCH   5   6
ENDBRANCH   4   5
ENDBRANCH   3   4
ENDBRANCH   2   3
ENDBRANCH   1   2
BRANCH   1  65
ATOM     65  O   UNL A   1      40.435  20.071  27.101  1.00  0.00    -0.376 OA
BRANCH  65  66
ATOM     66  C   UNL A   1      39.658  20.002  25.914  1.00  0.00     0.202 C 
BRANCH  66  67
ATOM     67  C   UNL A   1      38.692  21.087  25.419  1.00  0.00     0.261 C 
BRANCH  67  68
ATOM     68  O   UNL A   1      37.446  21.315  26.088  1.00  0.00    -0.463 OA
BRANCH  68  69
ATOM     69  C   UNL A   1      36.325  20.907  25.433  1.00  0.00     0.312 C 
ATOM     70  O   UNL A   1      36.274  19.958  24.678  1.00  0.00    -0.252 OA
BRANCH  69  71
ATOM     71  C   UNL A   1      35.124  21.793  25.618  1.00  0.00     0.147 C 
ATOM     72  C   UNL A   1      33.952  21.506  24.640  1.00  0.00     0.129 C 
ATOM     73  C   UNL A   1      35.442  23.259  25.372  1.00  0.00     0.157 C 
ATOM     74  C   UNL A   1      33.833  22.872  23.955  1.00  0.00     0.155 C 
ATOM     75  C   UNL A   1      36.025  23.457  24.017  1.00  0.00     0.004 C 
ATOM     76  O   UNL A   1      34.098  23.723  25.114  1.00  0.00    -0.365 OA
ATOM     77  C   UNL A   1      35.053  23.185  23.138  1.00  0.00     0.004 C 
BRANCH  72  78
ATOM     78  C   UNL A   1      32.634  21.207  25.358  1.00  0.00     0.231 C 
ATOM     79  O   UNL A   1      31.883  22.095  25.771  1.00  0.00    -0.274 OA
ATOM     80  N   UNL A   1      32.178  19.917  25.475  1.00  0.00    -0.325 N 
ATOM     81  H   UNL A   1      31.459  19.755  26.128  1.00  0.00     0.169 HD
BRANCH  80  82
ATOM     82  C   UNL A   1      32.637  18.815  24.754  1.00  0.00     0.048 A 
ATOM     83  C   UNL A   1      32.417  18.781  23.376  1.00  0.00     0.026 A 
ATOM     84  C   UNL A   1      33.283  17.760  25.392  1.00  0.00     0.111 A 
ATOM     85  C   UNL A   1      32.963  17.751  22.609  1.00  0.00     0.009 A 
ATOM     86  C   UNL A   1      33.841  16.741  24.612  1.00  0.00     0.271 A 
ATOM     87  C   UNL A   1      33.707  16.743  23.220  1.00  0.00     0.086 A 
BRANCH  86  88
ATOM     88  N   UNL A   1      34.658  15.704  25.250  1.00  0.00     0.062 N 
ATOM     89  O   UNL A   1      34.131  14.592  25.406  1.00  0.00    -0.258 OA
ATOM     90  O   UNL A   1      35.802  16.013  25.603  1.00  0.00    -0.258 OA
ENDBRANCH  86  88
ENDBRANCH  80  82
ENDBRANCH  72  78
ENDBRANCH  69  71
ENDBRANCH  68  69
ENDBRANCH  67  68
ENDBRANCH  66  67
ENDBRANCH  65  66
ENDBRANCH   1  65
TORSDOF 20
ENDMDL
