MODEL 1
REMARK VINA RESULT:     -13.6      0.000      0.000
REMARK SMILES Cc1ccc(C(=O)N2CCCC[C@@H]2C(=O)OCCOCCOCCOC(=O)c2ccc(-c3c4nc(c(-c5c(F)cccc5F)c5ccc([nH]5)c(-c5c(F)cccc5F)c5nc(c(-c6c(F)cccc6F)c6ccc3[nH]6)C=C5)C=C4)cc2)cc1S(=O)(=O)N1CCCCC1
REMARK SMILES IDX 20 1 19 2 18 3 17 4 16 5 14 6 15 7 13 8 8 9 9 10 10 11 12 12
REMARK SMILES IDX 11 13 6 14 7 15 5 16 1 17 2 18 3 19 83 20 4 21 82 22 84 23
REMARK SMILES IDX 85 24 86 25 87 26 88 27 92 28 89 29 91 30 90 31 21 32 22 33
REMARK SMILES IDX 23 34 24 35 25 36 26 37 27 38 28 39 29 40 81 41 30 42 80 43
REMARK SMILES IDX 31 44 32 45 33 46 74 47 34 48 79 49 73 50 75 51 35 52 78 53
REMARK SMILES IDX 72 54 71 55 36 57 62 58 45 59 61 60 46 61 49 62 60 63 76 64
REMARK SMILES IDX 47 65 48 66 59 68 77 69 50 70 37 71 38 72 43 73 39 74 40 75
REMARK SMILES IDX 42 76 44 77 41 78 63 79 64 80 69 81 65 82 66 83 68 84 70 85
REMARK SMILES IDX 67 86 51 87 52 88 57 89 53 90 54 91 56 92 58 93 55 94
REMARK H PARENT 75 56 49 67
REMARK Flexibility Score: inf
ROOT
ATOM      1  C   UNL A   1      34.694  31.939  28.686  1.00  0.00     0.188 C 
ENDROOT
BRANCH   1   2
ATOM      2  O   UNL A   1      34.895  30.734  27.897  1.00  0.00    -0.376 OA
BRANCH   2   3
ATOM      3  C   UNL A   1      33.951  29.806  27.233  1.00  0.00     0.202 C 
BRANCH   3   4
ATOM      4  C   UNL A   1      32.274  29.842  26.444  1.00  0.00     0.261 C 
BRANCH   4   5
ATOM      5  O   UNL A   1      31.165  31.194  25.959  1.00  0.00    -0.462 OA
BRANCH   5   6
ATOM      6  C   UNL A   1      30.273  31.585  24.795  1.00  0.00     0.328 C 
ATOM      7  O   UNL A   1      29.998  32.734  24.428  1.00  0.00    -0.250 OA
BRANCH   6   8
ATOM      8  C   UNL A   1      29.439  30.643  23.957  1.00  0.00     0.195 C 
ATOM      9  N   UNL A   1      30.196  29.839  22.880  1.00  0.00    -0.325 N 
ATOM     10  C   UNL A   1      29.473  29.550  21.642  1.00  0.00     0.121 C 
ATOM     11  C   UNL A   1      28.252  30.401  21.347  1.00  0.00     0.022 C 
ATOM     12  C   UNL A   1      28.127  31.309  23.605  1.00  0.00     0.037 C 
ATOM     13  C   UNL A   1      27.372  30.507  22.575  1.00  0.00     0.005 C 
BRANCH   9  14
ATOM     14  C   UNL A   1      31.279  28.865  23.044  1.00  0.00     0.254 C 
ATOM     15  O   UNL A   1      32.460  29.235  22.954  1.00  0.00    -0.269 OA
BRANCH  14  16
ATOM     16  C   UNL A   1      31.172  27.448  23.511  1.00  0.00     0.041 A 
ATOM     17  C   UNL A   1      30.492  22.987  26.411  1.00  0.00     0.046 C 
ATOM     18  C   UNL A   1      30.901  24.705  25.043  1.00  0.00    -0.031 A 
ATOM     19  C   UNL A   1      30.026  26.024  25.051  1.00  0.00     0.005 A 
ATOM     20  C   UNL A   1      31.992  25.015  23.949  1.00  0.00     0.086 A 
ATOM     21  C   UNL A   1      30.233  27.276  24.479  1.00  0.00     0.014 A 
ATOM     22  C   UNL A   1      32.067  26.367  23.288  1.00  0.00     0.035 A 
BRANCH  20  23
ATOM     23  S   UNL A   1      33.374  23.918  23.024  1.00  0.00     0.243 S 
ATOM     24  O   UNL A   1      32.638  22.844  22.383  1.00  0.00    -0.207 OA
ATOM     25  O   UNL A   1      34.070  24.890  22.200  1.00  0.00    -0.207 OA
BRANCH  23  26
ATOM     26  N   UNL A   1      34.617  23.124  23.959  1.00  0.00    -0.198 NA
ATOM     27  C   UNL A   1      35.942  22.970  23.330  1.00  0.00     0.102 C 
ATOM     28  C   UNL A   1      34.367  22.612  25.334  1.00  0.00     0.102 C 
ATOM     29  C   UNL A   1      37.127  22.747  24.276  1.00  0.00     0.017 C 
ATOM     30  C   UNL A   1      35.606  22.527  26.264  1.00  0.00     0.017 C 
ATOM     31  C   UNL A   1      36.933  23.073  25.743  1.00  0.00     0.003 C 
ENDBRANCH  23  26
ENDBRANCH  20  23
ENDBRANCH  14  16
ENDBRANCH   9  14
ENDBRANCH   6   8
ENDBRANCH   5   6
ENDBRANCH   4   5
ENDBRANCH   3   4
ENDBRANCH   2   3
ENDBRANCH   1   2
BRANCH   1  32
ATOM     32  C   UNL A   1      33.756  33.015  28.233  1.00  0.00     0.188 C 
BRANCH  32  33
ATOM     33  O   UNL A   1      33.929  34.041  29.165  1.00  0.00    -0.376 OA
BRANCH  33  34
ATOM     34  C   UNL A   1      33.243  35.229  28.920  1.00  0.00     0.202 C 
BRANCH  34  35
ATOM     35  C   UNL A   1      32.935  35.954  30.230  1.00  0.00     0.261 C 
BRANCH  35  36
ATOM     36  O   UNL A   1      32.879  35.009  31.340  1.00  0.00    -0.460 OA
BRANCH  36  37
ATOM     37  C   UNL A   1      33.280  35.439  32.591  1.00  0.00     0.338 C 
ATOM     38  O   UNL A   1      33.005  36.526  33.064  1.00  0.00    -0.246 OA
BRANCH  37  39
ATOM     39  C   UNL A   1      34.281  34.478  33.192  1.00  0.00     0.060 A 
ATOM     40  C   UNL A   1      35.483  34.828  33.829  1.00  0.00     0.016 A 
ATOM     41  C   UNL A   1      34.242  33.231  32.691  1.00  0.00     0.016 A 
ATOM     42  C   UNL A   1      36.725  34.070  33.621  1.00  0.00     0.010 A 
ATOM     43  C   UNL A   1      35.483  32.727  32.298  1.00  0.00     0.010 A 
ATOM     44  C   UNL A   1      36.866  33.058  32.667  1.00  0.00    -0.014 A 
BRANCH  44  45
ATOM     45  C   UNL A   1      38.427  32.227  32.158  1.00  0.00     0.031 A 
ATOM     46  C   UNL A   1      38.714  30.637  31.321  1.00  0.00     0.074 A 
ATOM     47  C   UNL A   1      39.625  32.823  32.380  1.00  0.00     0.049 A 
ATOM     48  N   UNL A   1      39.762  30.323  30.573  1.00  0.00    -0.248 NA
ATOM     49  C   UNL A   1      37.768  29.444  31.135  1.00  0.00     0.031 C 
ATOM     50  C   UNL A   1      40.938  32.548  31.776  1.00  0.00     0.029 A 
ATOM     51  N   UNL A   1      39.921  33.903  33.212  1.00  0.00    -0.354 N 
ATOM     52  C   UNL A   1      39.529  29.128  29.862  1.00  0.00     0.074 A 
ATOM     53  C   UNL A   1      38.204  28.723  30.121  1.00  0.00     0.031 C 
ATOM     54  C   UNL A   1      41.892  33.160  32.502  1.00  0.00     0.029 A 
ATOM     55  C   UNL A   1      41.226  33.691  33.665  1.00  0.00     0.049 A 
ATOM     56  H   UNL A   1      39.332  34.659  33.434  1.00  0.00     0.167 HD
ATOM     57  C   UNL A   1      40.440  28.233  29.398  1.00  0.00     0.037 A 
ATOM     58  C   UNL A   1      41.366  33.265  34.938  1.00  0.00     0.037 A 
ATOM     59  C   UNL A   1      41.656  28.346  30.146  1.00  0.00     0.049 A 
ATOM     60  C   UNL A   1      41.931  31.848  34.944  1.00  0.00     0.074 A 
ATOM     61  C   UNL A   1      42.750  29.169  30.033  1.00  0.00     0.029 A 
ATOM     62  N   UNL A   1      41.744  27.691  31.365  1.00  0.00    -0.354 N 
ATOM     63  N   UNL A   1      42.229  30.813  33.659  1.00  0.00    -0.248 NA
ATOM     64  C   UNL A   1      42.548  30.883  36.603  1.00  0.00     0.031 C 
ATOM     65  C   UNL A   1      43.440  29.111  31.266  1.00  0.00     0.029 A 
ATOM     66  C   UNL A   1      42.772  28.235  32.110  1.00  0.00     0.049 A 
ATOM     67  H   UNL A   1      41.162  26.952  31.654  1.00  0.00     0.167 HD
ATOM     68  C   UNL A   1      42.810  29.127  34.277  1.00  0.00     0.074 A 
ATOM     69  C   UNL A   1      42.953  29.318  36.203  1.00  0.00     0.031 C 
ATOM     70  C   UNL A   1      42.856  27.979  33.532  1.00  0.00     0.037 A 
BRANCH  57  71
ATOM     71  C   UNL A   1      40.224  27.228  28.264  1.00  0.00     0.057 A 
ATOM     72  C   UNL A   1      39.583  26.013  28.581  1.00  0.00     0.134 A 
ATOM     73  C   UNL A   1      40.753  27.263  26.951  1.00  0.00     0.134 A 
ATOM     74  F   UNL A   1      38.982  25.830  29.765  1.00  0.00    -0.206 F 
ATOM     75  C   UNL A   1      39.569  24.903  27.725  1.00  0.00     0.040 A 
ATOM     76  C   UNL A   1      40.703  26.170  26.067  1.00  0.00     0.040 A 
ATOM     77  F   UNL A   1      41.388  28.325  26.441  1.00  0.00    -0.206 F 
ATOM     78  C   UNL A   1      40.147  24.968  26.469  1.00  0.00     0.006 A 
ENDBRANCH  57  71
BRANCH  58  79
ATOM     79  C   UNL A   1      40.302  33.869  35.836  1.00  0.00     0.057 A 
ATOM     80  C   UNL A   1      39.190  33.099  36.239  1.00  0.00     0.134 A 
ATOM     81  C   UNL A   1      40.516  35.002  36.618  1.00  0.00     0.134 A 
ATOM     82  F   UNL A   1      38.903  31.955  35.600  1.00  0.00    -0.206 F 
ATOM     83  C   UNL A   1      38.417  33.403  37.379  1.00  0.00     0.040 A 
ATOM     84  C   UNL A   1      39.667  35.403  37.668  1.00  0.00     0.040 A 
ATOM     85  F   UNL A   1      41.676  35.650  36.539  1.00  0.00    -0.206 F 
ATOM     86  C   UNL A   1      38.660  34.561  38.105  1.00  0.00     0.006 A 
ENDBRANCH  58  79
BRANCH  70  87
ATOM     87  C   UNL A   1      42.914  26.606  34.170  1.00  0.00     0.057 A 
ATOM     88  C   UNL A   1      43.982  25.694  34.049  1.00  0.00     0.134 A 
ATOM     89  C   UNL A   1      41.879  26.144  34.997  1.00  0.00     0.134 A 
ATOM     90  F   UNL A   1      45.195  26.071  33.635  1.00  0.00    -0.206 F 
ATOM     91  C   UNL A   1      43.906  24.354  34.443  1.00  0.00     0.040 A 
ATOM     92  C   UNL A   1      41.829  24.830  35.492  1.00  0.00     0.040 A 
ATOM     93  F   UNL A   1      40.890  26.958  35.393  1.00  0.00    -0.206 F 
ATOM     94  C   UNL A   1      42.808  23.908  35.150  1.00  0.00     0.006 A 
ENDBRANCH  70  87
ENDBRANCH  44  45
ENDBRANCH  37  39
ENDBRANCH  36  37
ENDBRANCH  35  36
ENDBRANCH  34  35
ENDBRANCH  33  34
ENDBRANCH  32  33
ENDBRANCH   1  32
TORSDOF 21
ENDMDL
MODEL 2
REMARK VINA RESULT:     -12.4      1.474      2.195
REMARK SMILES Cc1ccc(C(=O)N2CCCC[C@@H]2C(=O)OCCOCCOCCOC(=O)c2ccc(-c3c4nc(c(-c5c(F)cccc5F)c5ccc([nH]5)c(-c5c(F)cccc5F)c5nc(c(-c6c(F)cccc6F)c6ccc3[nH]6)C=C5)C=C4)cc2)cc1S(=O)(=O)N1CCCCC1
REMARK SMILES IDX 20 1 19 2 18 3 17 4 16 5 14 6 15 7 13 8 8 9 9 10 10 11 12 12
REMARK SMILES IDX 11 13 6 14 7 15 5 16 1 17 2 18 3 19 83 20 4 21 82 22 84 23
REMARK SMILES IDX 85 24 86 25 87 26 88 27 92 28 89 29 91 30 90 31 21 32 22 33
REMARK SMILES IDX 23 34 24 35 25 36 26 37 27 38 28 39 29 40 81 41 30 42 80 43
REMARK SMILES IDX 31 44 32 45 33 46 74 47 34 48 79 49 73 50 75 51 35 52 78 53
REMARK SMILES IDX 72 54 71 55 36 57 62 58 45 59 61 60 46 61 49 62 60 63 76 64
REMARK SMILES IDX 47 65 48 66 59 68 77 69 50 70 37 71 38 72 43 73 39 74 40 75
REMARK SMILES IDX 42 76 44 77 41 78 63 79 64 80 69 81 65 82 66 83 68 84 70 85
REMARK SMILES IDX 67 86 51 87 52 88 57 89 53 90 54 91 56 92 58 93 55 94
REMARK H PARENT 75 56 49 67
REMARK Flexibility Score: inf
ROOT
ATOM      1  C   UNL A   1      36.333  30.661  29.410  1.00  0.00     0.188 C 
ENDROOT
BRANCH   1   2
ATOM      2  O   UNL A   1      36.265  29.487  28.554  1.00  0.00    -0.376 OA
BRANCH   2   3
ATOM      3  C   UNL A   1      35.438  29.161  27.370  1.00  0.00     0.202 C 
BRANCH   3   4
ATOM      4  C   UNL A   1      33.714  28.608  26.975  1.00  0.00     0.261 C 
BRANCH   4   5
ATOM      5  O   UNL A   1      32.146  29.499  26.774  1.00  0.00    -0.462 OA
BRANCH   5   6
ATOM      6  C   UNL A   1      31.413  30.308  25.718  1.00  0.00     0.328 C 
ATOM      7  O   UNL A   1      31.266  31.535  25.699  1.00  0.00    -0.250 OA
BRANCH   6   8
ATOM      8  C   UNL A   1      30.601  29.747  24.573  1.00  0.00     0.195 C 
ATOM      9  N   UNL A   1      31.364  28.857  23.571  1.00  0.00    -0.325 N 
ATOM     10  C   UNL A   1      30.937  28.919  22.173  1.00  0.00     0.121 C 
ATOM     11  C   UNL A   1      30.113  30.125  21.763  1.00  0.00     0.022 C 
ATOM     12  C   UNL A   1      29.658  30.811  24.056  1.00  0.00     0.037 C 
ATOM     13  C   UNL A   1      29.007  30.378  22.767  1.00  0.00     0.005 C 
BRANCH   9  14
ATOM     14  C   UNL A   1      32.061  27.588  23.805  1.00  0.00     0.254 C 
ATOM     15  O   UNL A   1      33.296  27.535  23.701  1.00  0.00    -0.269 OA
BRANCH  14  16
ATOM     16  C   UNL A   1      31.492  26.321  24.361  1.00  0.00     0.041 A 
ATOM     17  C   UNL A   1      29.388  22.539  27.529  1.00  0.00     0.046 C 
ATOM     18  C   UNL A   1      30.335  23.931  26.061  1.00  0.00    -0.031 A 
ATOM     19  C   UNL A   1      29.949  25.462  25.971  1.00  0.00     0.005 A 
ATOM     20  C   UNL A   1      31.459  23.788  24.966  1.00  0.00     0.086 A 
ATOM     21  C   UNL A   1      30.556  26.534  25.324  1.00  0.00     0.014 A 
ATOM     22  C   UNL A   1      31.975  24.992  24.220  1.00  0.00     0.035 A 
BRANCH  20  23
ATOM     23  S   UNL A   1      32.390  22.237  24.133  1.00  0.00     0.243 S 
ATOM     24  O   UNL A   1      31.933  21.076  24.876  1.00  0.00    -0.207 OA
ATOM     25  O   UNL A   1      32.045  22.359  22.728  1.00  0.00    -0.207 OA
BRANCH  23  26
ATOM     26  N   UNL A   1      34.134  22.148  24.178  1.00  0.00    -0.198 NA
ATOM     27  C   UNL A   1      34.879  22.992  23.225  1.00  0.00     0.102 C 
ATOM     28  C   UNL A   1      34.857  21.259  25.129  1.00  0.00     0.102 C 
ATOM     29  C   UNL A   1      36.339  23.296  23.576  1.00  0.00     0.017 C 
ATOM     30  C   UNL A   1      36.290  21.706  25.521  1.00  0.00     0.017 C 
ATOM     31  C   UNL A   1      36.790  23.051  25.002  1.00  0.00     0.003 C 
ENDBRANCH  23  26
ENDBRANCH  20  23
ENDBRANCH  14  16
ENDBRANCH   9  14
ENDBRANCH   6   8
ENDBRANCH   5   6
ENDBRANCH   4   5
ENDBRANCH   3   4
ENDBRANCH   2   3
ENDBRANCH   1   2
BRANCH   1  32
ATOM     32  C   UNL A   1      37.055  31.898  28.974  1.00  0.00     0.188 C 
BRANCH  32  33
ATOM     33  O   UNL A   1      36.355  32.942  29.583  1.00  0.00    -0.376 OA
BRANCH  33  34
ATOM     34  C   UNL A   1      35.395  33.588  28.805  1.00  0.00     0.202 C 
BRANCH  34  35
ATOM     35  C   UNL A   1      34.153  33.906  29.636  1.00  0.00     0.261 C 
BRANCH  35  36
ATOM     36  O   UNL A   1      34.190  33.196  30.911  1.00  0.00    -0.460 OA
BRANCH  36  37
ATOM     37  C   UNL A   1      34.270  33.937  32.074  1.00  0.00     0.338 C 
ATOM     38  O   UNL A   1      33.450  34.770  32.416  1.00  0.00    -0.246 OA
BRANCH  37  39
ATOM     39  C   UNL A   1      35.610  33.738  32.745  1.00  0.00     0.060 A 
ATOM     40  C   UNL A   1      36.759  34.523  32.546  1.00  0.00     0.016 A 
ATOM     41  C   UNL A   1      35.839  32.493  33.195  1.00  0.00     0.016 A 
ATOM     42  C   UNL A   1      38.100  33.929  32.444  1.00  0.00     0.010 A 
ATOM     43  C   UNL A   1      37.067  31.954  32.805  1.00  0.00     0.010 A 
ATOM     44  C   UNL A   1      38.335  32.553  32.369  1.00  0.00    -0.014 A 
BRANCH  44  45
ATOM     45  C   UNL A   1      39.934  31.724  31.992  1.00  0.00     0.031 A 
ATOM     46  C   UNL A   1      40.312  30.279  30.953  1.00  0.00     0.074 A 
ATOM     47  C   UNL A   1      41.094  32.202  32.509  1.00  0.00     0.049 A 
ATOM     48  N   UNL A   1      41.465  30.029  30.348  1.00  0.00    -0.248 NA
ATOM     49  C   UNL A   1      39.377  29.192  30.410  1.00  0.00     0.031 C 
ATOM     50  C   UNL A   1      42.483  31.951  32.094  1.00  0.00     0.029 A 
ATOM     51  N   UNL A   1      41.274  33.110  33.553  1.00  0.00    -0.354 N 
ATOM     52  C   UNL A   1      41.322  28.983  29.412  1.00  0.00     0.074 A 
ATOM     53  C   UNL A   1      39.960  28.623  29.374  1.00  0.00     0.031 C 
ATOM     54  C   UNL A   1      43.314  32.376  33.063  1.00  0.00     0.029 A 
ATOM     55  C   UNL A   1      42.472  32.749  34.173  1.00  0.00     0.049 A 
ATOM     56  H   UNL A   1      40.679  33.854  33.801  1.00  0.00     0.167 HD
ATOM     57  C   UNL A   1      42.271  28.124  28.959  1.00  0.00     0.037 A 
ATOM     58  C   UNL A   1      42.375  32.111  35.359  1.00  0.00     0.037 A 
ATOM     59  C   UNL A   1      43.342  28.038  29.907  1.00  0.00     0.049 A 
ATOM     60  C   UNL A   1      42.885  30.681  35.215  1.00  0.00     0.074 A 
ATOM     61  C   UNL A   1      44.464  28.801  30.122  1.00  0.00     0.029 A 
ATOM     62  N   UNL A   1      43.195  27.188  30.993  1.00  0.00    -0.354 N 
ATOM     63  N   UNL A   1      43.370  29.855  33.839  1.00  0.00    -0.248 NA
ATOM     64  C   UNL A   1      43.172  29.421  36.762  1.00  0.00     0.031 C 
ATOM     65  C   UNL A   1      44.926  28.499  31.424  1.00  0.00     0.029 A 
ATOM     66  C   UNL A   1      44.094  27.538  31.981  1.00  0.00     0.049 A 
ATOM     67  H   UNL A   1      42.548  26.448  31.049  1.00  0.00     0.167 HD
ATOM     68  C   UNL A   1      43.781  28.058  34.245  1.00  0.00     0.074 A 
ATOM     69  C   UNL A   1      43.592  27.921  36.172  1.00  0.00     0.031 C 
ATOM     70  C   UNL A   1      43.920  27.048  33.332  1.00  0.00     0.037 A 
BRANCH  57  71
ATOM     71  C   UNL A   1      42.225  27.334  27.650  1.00  0.00     0.057 A 
ATOM     72  C   UNL A   1      42.087  25.933  27.735  1.00  0.00     0.134 A 
ATOM     73  C   UNL A   1      42.494  27.796  26.338  1.00  0.00     0.134 A 
ATOM     74  F   UNL A   1      41.779  25.333  28.893  1.00  0.00    -0.206 F 
ATOM     75  C   UNL A   1      42.308  25.069  26.653  1.00  0.00     0.040 A 
ATOM     76  C   UNL A   1      42.671  26.940  25.237  1.00  0.00     0.040 A 
ATOM     77  F   UNL A   1      42.647  29.089  26.031  1.00  0.00    -0.206 F 
ATOM     78  C   UNL A   1      42.622  25.567  25.401  1.00  0.00     0.006 A 
ENDBRANCH  57  71
BRANCH  58  79
ATOM     79  C   UNL A   1      41.190  32.623  36.158  1.00  0.00     0.057 A 
ATOM     80  C   UNL A   1      41.211  33.921  36.712  1.00  0.00     0.134 A 
ATOM     81  C   UNL A   1      39.915  32.068  36.072  1.00  0.00     0.134 A 
ATOM     82  F   UNL A   1      42.372  34.587  36.805  1.00  0.00    -0.206 F 
ATOM     83  C   UNL A   1      40.042  34.624  37.067  1.00  0.00     0.040 A 
ATOM     84  C   UNL A   1      38.751  32.695  36.559  1.00  0.00     0.040 A 
ATOM     85  F   UNL A   1      39.712  30.991  35.316  1.00  0.00    -0.206 F 
ATOM     86  C   UNL A   1      38.800  34.011  36.985  1.00  0.00     0.006 A 
ENDBRANCH  58  79
BRANCH  70  87
ATOM     87  C   UNL A   1      43.823  25.587  33.724  1.00  0.00     0.057 A 
ATOM     88  C   UNL A   1      42.874  25.043  34.614  1.00  0.00     0.134 A 
ATOM     89  C   UNL A   1      44.684  24.627  33.172  1.00  0.00     0.134 A 
ATOM     90  F   UNL A   1      41.757  25.694  34.946  1.00  0.00    -0.206 F 
ATOM     91  C   UNL A   1      42.959  23.749  35.140  1.00  0.00     0.040 A 
ATOM     92  C   UNL A   1      44.718  23.293  33.611  1.00  0.00     0.040 A 
ATOM     93  F   UNL A   1      45.502  24.931  32.155  1.00  0.00    -0.206 F 
ATOM     94  C   UNL A   1      43.905  22.871  34.654  1.00  0.00     0.006 A 
ENDBRANCH  70  87
ENDBRANCH  44  45
ENDBRANCH  37  39
ENDBRANCH  36  37
ENDBRANCH  35  36
ENDBRANCH  34  35
ENDBRANCH  33  34
ENDBRANCH  32  33
ENDBRANCH   1  32
TORSDOF 21
ENDMDL
MODEL 3
REMARK VINA RESULT:     -12.3      3.550      8.489
REMARK SMILES Cc1ccc(C(=O)N2CCCC[C@@H]2C(=O)OCCOCCOCCOC(=O)c2ccc(-c3c4nc(c(-c5c(F)cccc5F)c5ccc([nH]5)c(-c5c(F)cccc5F)c5nc(c(-c6c(F)cccc6F)c6ccc3[nH]6)C=C5)C=C4)cc2)cc1S(=O)(=O)N1CCCCC1
REMARK SMILES IDX 20 1 19 2 18 3 17 4 16 5 14 6 15 7 13 8 8 9 9 10 10 11 12 12
REMARK SMILES IDX 11 13 6 14 7 15 5 16 1 17 2 18 3 19 83 20 4 21 82 22 84 23
REMARK SMILES IDX 85 24 86 25 87 26 88 27 92 28 89 29 91 30 90 31 21 32 22 33
REMARK SMILES IDX 23 34 24 35 25 36 26 37 27 38 28 39 29 40 81 41 30 42 80 43
REMARK SMILES IDX 31 44 32 45 33 46 74 47 34 48 79 49 73 50 75 51 35 52 78 53
REMARK SMILES IDX 72 54 71 55 36 57 62 58 45 59 61 60 46 61 49 62 60 63 76 64
REMARK SMILES IDX 47 65 48 66 59 68 77 69 50 70 37 71 38 72 43 73 39 74 40 75
REMARK SMILES IDX 42 76 44 77 41 78 63 79 64 80 69 81 65 82 66 83 68 84 70 85
REMARK SMILES IDX 67 86 51 87 52 88 57 89 53 90 54 91 56 92 58 93 55 94
REMARK H PARENT 75 56 49 67
REMARK Flexibility Score: inf
ROOT
ATOM      1  C   UNL A   1      33.391  30.808  27.511  1.00  0.00     0.188 C 
ENDROOT
BRANCH   1   2
ATOM      2  O   UNL A   1      33.724  29.706  26.622  1.00  0.00    -0.376 OA
BRANCH   2   3
ATOM      3  C   UNL A   1      32.894  28.832  25.761  1.00  0.00     0.202 C 
BRANCH   3   4
ATOM      4  C   UNL A   1      33.093  27.708  24.301  1.00  0.00     0.261 C 
BRANCH   4   5
ATOM      5  O   UNL A   1      34.070  26.205  24.024  1.00  0.00    -0.462 OA
BRANCH   5   6
ATOM      6  C   UNL A   1      33.911  24.698  24.118  1.00  0.00     0.328 C 
ATOM      7  O   UNL A   1      33.463  23.946  23.245  1.00  0.00    -0.250 OA
BRANCH   6   8
ATOM      8  C   UNL A   1      34.136  23.855  25.353  1.00  0.00     0.195 C 
ATOM      9  N   UNL A   1      35.031  22.612  25.174  1.00  0.00    -0.325 N 
ATOM     10  C   UNL A   1      34.701  21.438  25.983  1.00  0.00     0.121 C 
ATOM     11  C   UNL A   1      33.306  21.386  26.576  1.00  0.00     0.022 C 
ATOM     12  C   UNL A   1      32.839  23.735  26.123  1.00  0.00     0.037 C 
ATOM     13  C   UNL A   1      32.957  22.710  27.224  1.00  0.00     0.005 C 
BRANCH   9  14
ATOM     14  C   UNL A   1      36.438  22.536  24.767  1.00  0.00     0.254 C 
ATOM     15  O   UNL A   1      36.731  22.528  23.562  1.00  0.00    -0.269 OA
BRANCH  14  16
ATOM     16  C   UNL A   1      37.649  22.659  25.636  1.00  0.00     0.041 A 
ATOM     17  C   UNL A   1      42.045  24.379  28.183  1.00  0.00     0.046 C 
ATOM     18  C   UNL A   1      40.290  23.434  27.175  1.00  0.00    -0.031 A 
ATOM     19  C   UNL A   1      38.941  24.217  26.908  1.00  0.00     0.005 A 
ATOM     20  C   UNL A   1      40.005  22.018  26.544  1.00  0.00     0.086 A 
ATOM     21  C   UNL A   1      37.840  23.919  26.109  1.00  0.00     0.014 A 
ATOM     22  C   UNL A   1      38.725  21.744  25.798  1.00  0.00     0.035 A 
BRANCH  20  23
ATOM     23  S   UNL A   1      40.953  20.268  26.589  1.00  0.00     0.243 S 
ATOM     24  O   UNL A   1      40.928  19.858  27.981  1.00  0.00    -0.207 OA
ATOM     25  O   UNL A   1      40.235  19.477  25.605  1.00  0.00    -0.207 OA
BRANCH  23  26
ATOM     26  N   UNL A   1      42.634  20.181  26.119  1.00  0.00    -0.198 NA
ATOM     27  C   UNL A   1      43.183  18.847  25.814  1.00  0.00     0.102 C 
ATOM     28  C   UNL A   1      43.494  21.393  26.032  1.00  0.00     0.102 C 
ATOM     29  C   UNL A   1      44.449  18.809  24.950  1.00  0.00     0.017 C 
ATOM     30  C   UNL A   1      44.688  21.308  25.045  1.00  0.00     0.017 C 
ATOM     31  C   UNL A   1      44.815  20.059  24.177  1.00  0.00     0.003 C 
ENDBRANCH  23  26
ENDBRANCH  20  23
ENDBRANCH  14  16
ENDBRANCH   9  14
ENDBRANCH   6   8
ENDBRANCH   5   6
ENDBRANCH   4   5
ENDBRANCH   3   4
ENDBRANCH   2   3
ENDBRANCH   1   2
BRANCH   1  32
ATOM     32  C   UNL A   1      34.373  31.904  27.789  1.00  0.00     0.188 C 
BRANCH  32  33
ATOM     33  O   UNL A   1      33.582  32.991  28.165  1.00  0.00    -0.376 OA
BRANCH  33  34
ATOM     34  C   UNL A   1      34.161  34.254  28.052  1.00  0.00     0.202 C 
BRANCH  34  35
ATOM     35  C   UNL A   1      33.278  35.313  28.709  1.00  0.00     0.261 C 
BRANCH  35  36
ATOM     36  O   UNL A   1      32.806  34.855  30.012  1.00  0.00    -0.460 OA
BRANCH  36  37
ATOM     37  C   UNL A   1      33.459  35.303  31.143  1.00  0.00     0.338 C 
ATOM     38  O   UNL A   1      33.646  36.477  31.409  1.00  0.00    -0.246 OA
BRANCH  37  39
ATOM     39  C   UNL A   1      34.100  34.152  31.884  1.00  0.00     0.060 A 
ATOM     40  C   UNL A   1      34.124  33.976  33.278  1.00  0.00     0.016 A 
ATOM     41  C   UNL A   1      35.077  33.518  31.212  1.00  0.00     0.016 A 
ATOM     42  C   UNL A   1      35.320  33.492  33.982  1.00  0.00     0.010 A 
ATOM     43  C   UNL A   1      36.259  33.347  31.934  1.00  0.00     0.010 A 
ATOM     44  C   UNL A   1      36.566  33.323  33.371  1.00  0.00    -0.014 A 
BRANCH  44  45
ATOM     45  C   UNL A   1      38.167  32.966  34.204  1.00  0.00     0.031 A 
ATOM     46  C   UNL A   1      39.331  34.064  35.070  1.00  0.00     0.074 A 
ATOM     47  C   UNL A   1      38.645  31.698  34.256  1.00  0.00     0.049 A 
ATOM     48  N   UNL A   1      40.177  33.711  36.028  1.00  0.00    -0.248 NA
ATOM     49  C   UNL A   1      39.448  35.593  35.034  1.00  0.00     0.031 C 
ATOM     50  C   UNL A   1      39.675  31.117  35.132  1.00  0.00     0.029 A 
ATOM     51  N   UNL A   1      38.245  30.584  33.518  1.00  0.00    -0.354 N 
ATOM     52  C   UNL A   1      40.720  34.848  36.661  1.00  0.00     0.074 A 
ATOM     53  C   UNL A   1      40.095  35.985  36.113  1.00  0.00     0.031 C 
ATOM     54  C   UNL A   1      40.046  29.921  34.639  1.00  0.00     0.029 A 
ATOM     55  C   UNL A   1      39.388  29.797  33.362  1.00  0.00     0.049 A 
ATOM     56  H   UNL A   1      37.341  30.392  33.178  1.00  0.00     0.167 HD
ATOM     57  C   UNL A   1      41.910  34.964  37.306  1.00  0.00     0.037 A 
ATOM     58  C   UNL A   1      39.977  29.814  32.147  1.00  0.00     0.037 A 
ATOM     59  C   UNL A   1      42.814  33.953  36.845  1.00  0.00     0.049 A 
ATOM     60  C   UNL A   1      41.351  30.468  32.254  1.00  0.00     0.074 A 
ATOM     61  C   UNL A   1      43.011  32.641  37.203  1.00  0.00     0.029 A 
ATOM     62  N   UNL A   1      43.514  34.180  35.670  1.00  0.00    -0.354 N 
ATOM     63  N   UNL A   1      42.075  31.224  33.565  1.00  0.00    -0.248 NA
ATOM     64  C   UNL A   1      42.708  30.499  30.763  1.00  0.00     0.031 C 
ATOM     65  C   UNL A   1      43.733  32.030  36.151  1.00  0.00     0.029 A 
ATOM     66  C   UNL A   1      43.988  32.981  35.174  1.00  0.00     0.049 A 
ATOM     67  H   UNL A   1      43.651  35.062  35.253  1.00  0.00     0.167 HD
ATOM     68  C   UNL A   1      43.739  31.967  33.076  1.00  0.00     0.074 A 
ATOM     69  C   UNL A   1      44.007  31.431  31.230  1.00  0.00     0.031 C 
ATOM     70  C   UNL A   1      44.443  32.889  33.803  1.00  0.00     0.037 A 
BRANCH  57  71
ATOM     71  C   UNL A   1      42.270  36.017  38.356  1.00  0.00     0.057 A 
ATOM     72  C   UNL A   1      41.436  36.124  39.488  1.00  0.00     0.134 A 
ATOM     73  C   UNL A   1      43.234  37.051  38.265  1.00  0.00     0.134 A 
ATOM     74  F   UNL A   1      40.503  35.200  39.756  1.00  0.00    -0.206 F 
ATOM     75  C   UNL A   1      41.477  37.208  40.377  1.00  0.00     0.040 A 
ATOM     76  C   UNL A   1      43.313  38.118  39.178  1.00  0.00     0.040 A 
ATOM     77  F   UNL A   1      44.133  37.133  37.278  1.00  0.00    -0.206 F 
ATOM     78  C   UNL A   1      42.403  38.223  40.214  1.00  0.00     0.006 A 
ENDBRANCH  57  71
BRANCH  58  79
ATOM     79  C   UNL A   1      38.945  29.943  31.042  1.00  0.00     0.057 A 
ATOM     80  C   UNL A   1      38.766  31.175  30.376  1.00  0.00     0.134 A 
ATOM     81  C   UNL A   1      38.419  28.850  30.357  1.00  0.00     0.134 A 
ATOM     82  F   UNL A   1      39.270  32.300  30.906  1.00  0.00    -0.206 F 
ATOM     83  C   UNL A   1      38.183  31.279  29.096  1.00  0.00     0.040 A 
ATOM     84  C   UNL A   1      37.702  28.953  29.148  1.00  0.00     0.040 A 
ATOM     85  F   UNL A   1      38.765  27.616  30.715  1.00  0.00    -0.206 F 
ATOM     86  C   UNL A   1      37.652  30.158  28.472  1.00  0.00     0.006 A 
ENDBRANCH  58  79
BRANCH  70  87
ATOM     87  C   UNL A   1      45.524  33.750  33.182  1.00  0.00     0.057 A 
ATOM     88  C   UNL A   1      46.912  33.552  33.331  1.00  0.00     0.134 A 
ATOM     89  C   UNL A   1      45.203  34.829  32.344  1.00  0.00     0.134 A 
ATOM     90  F   UNL A   1      47.422  32.394  33.759  1.00  0.00    -0.206 F 
ATOM     91  C   UNL A   1      47.874  34.494  32.952  1.00  0.00     0.040 A 
ATOM     92  C   UNL A   1      46.165  35.732  31.863  1.00  0.00     0.040 A 
ATOM     93  F   UNL A   1      43.946  35.031  31.922  1.00  0.00    -0.206 F 
ATOM     94  C   UNL A   1      47.497  35.609  32.231  1.00  0.00     0.006 A 
ENDBRANCH  70  87
ENDBRANCH  44  45
ENDBRANCH  37  39
ENDBRANCH  36  37
ENDBRANCH  35  36
ENDBRANCH  34  35
ENDBRANCH  33  34
ENDBRANCH  32  33
ENDBRANCH   1  32
TORSDOF 21
ENDMDL
