MODEL 1
REMARK VINA RESULT:     -13.0      0.000      0.000
REMARK SMILES Cc1ccc(C(=O)c2cccc(C)c2C(=O)OCCOCCOCCOC(=O)c2ccc(-c3c4nc(c(-c5c(F)cccc5F)c5ccc([nH]5)c(-c5c(F)cccc5F)c5nc(c(-c6c(F)cccc6F)c6ccc3[nH]6)C=C5)C=C4)cc2)c(C)c1
REMARK SMILES IDX 21 1 20 2 19 3 18 4 17 5 15 6 16 7 14 8 8 9 9 10 10 11 12 12
REMARK SMILES IDX 11 13 13 14 6 15 7 16 5 17 1 18 2 19 3 20 85 21 4 22 83 23
REMARK SMILES IDX 84 24 22 25 23 26 24 27 25 28 26 29 27 30 28 31 29 32 30 33
REMARK SMILES IDX 82 34 31 35 81 36 32 37 33 38 34 39 75 40 35 41 80 42 74 43
REMARK SMILES IDX 76 44 36 45 79 46 73 47 72 48 37 50 63 51 46 52 62 53 47 54
REMARK SMILES IDX 50 55 61 56 77 57 48 58 49 59 60 61 78 62 51 63 38 64 39 65
REMARK SMILES IDX 44 66 40 67 41 68 43 69 45 70 42 71 64 72 65 73 70 74 66 75
REMARK SMILES IDX 67 76 69 77 71 78 68 79 52 80 53 81 58 82 54 83 55 84 57 85
REMARK SMILES IDX 59 86 56 87
REMARK H PARENT 76 49 50 60
REMARK Flexibility Score: inf
ROOT
ATOM      1  C   UNL A   1      40.238  21.388  26.150  1.00  0.00     0.188 C 
ENDROOT
BRANCH   1   2
ATOM      2  O   UNL A   1      38.863  21.648  25.800  1.00  0.00    -0.376 OA
BRANCH   2   3
ATOM      3  C   UNL A   1      38.134  22.891  25.888  1.00  0.00     0.202 C 
BRANCH   3   4
ATOM      4  C   UNL A   1      36.431  23.194  25.724  1.00  0.00     0.261 C 
BRANCH   4   5
ATOM      5  O   UNL A   1      35.105  22.850  26.775  1.00  0.00    -0.460 OA
BRANCH   5   6
ATOM      6  C   UNL A   1      33.748  22.322  26.768  1.00  0.00     0.339 C 
ATOM      7  O   UNL A   1      33.165  21.807  27.726  1.00  0.00    -0.246 OA
BRANCH   6   8
ATOM      8  C   UNL A   1      32.851  22.058  25.635  1.00  0.00     0.074 A 
ATOM      9  C   UNL A   1      32.022  23.099  25.248  1.00  0.00     0.037 A 
ATOM     10  C   UNL A   1      31.555  23.105  23.920  1.00  0.00     0.013 A 
ATOM     11  C   UNL A   1      31.826  22.064  23.023  1.00  0.00     0.001 A 
ATOM     12  C   UNL A   1      33.166  20.971  24.691  1.00  0.00    -0.036 A 
ATOM     13  C   UNL A   1      32.594  20.988  23.415  1.00  0.00     0.004 A 
ATOM     14  C   UNL A   1      34.109  19.779  24.895  1.00  0.00     0.045 C 
BRANCH   9  15
ATOM     15  C   UNL A   1      31.644  24.154  26.238  1.00  0.00     0.194 C 
ATOM     16  O   UNL A   1      30.946  23.874  27.207  1.00  0.00    -0.289 OA
BRANCH  15  17
ATOM     17  C   UNL A   1      31.889  25.575  25.964  1.00  0.00     0.025 A 
ATOM     18  C   UNL A   1      33.120  29.637  25.477  1.00  0.00     0.044 C 
ATOM     19  C   UNL A   1      32.700  28.210  25.611  1.00  0.00    -0.051 A 
ATOM     20  C   UNL A   1      33.610  27.258  26.060  1.00  0.00     0.004 A 
ATOM     21  C   UNL A   1      31.394  27.827  25.286  1.00  0.00     0.007 A 
ATOM     22  C   UNL A   1      33.212  25.946  26.210  1.00  0.00     0.013 A 
ATOM     23  C   UNL A   1      30.980  26.493  25.406  1.00  0.00    -0.040 A 
ATOM     24  C   UNL A   1      29.613  26.178  24.882  1.00  0.00     0.045 C 
ENDBRANCH  15  17
ENDBRANCH   9  15
ENDBRANCH   6   8
ENDBRANCH   5   6
ENDBRANCH   4   5
ENDBRANCH   3   4
ENDBRANCH   2   3
ENDBRANCH   1   2
BRANCH   1  25
ATOM     25  C   UNL A   1      40.866  20.040  26.489  1.00  0.00     0.188 C 
BRANCH  25  26
ATOM     26  O   UNL A   1      41.698  19.558  25.461  1.00  0.00    -0.376 OA
BRANCH  26  27
ATOM     27  C   UNL A   1      42.820  18.808  25.907  1.00  0.00     0.202 C 
BRANCH  27  28
ATOM     28  C   UNL A   1      44.119  18.972  25.075  1.00  0.00     0.261 C 
BRANCH  28  29
ATOM     29  O   UNL A   1      44.208  20.268  24.427  1.00  0.00    -0.460 OA
BRANCH  29  30
ATOM     30  C   UNL A   1      45.042  21.223  24.979  1.00  0.00     0.338 C 
ATOM     31  O   UNL A   1      46.166  21.019  25.369  1.00  0.00    -0.246 OA
BRANCH  30  32
ATOM     32  C   UNL A   1      44.260  22.482  25.253  1.00  0.00     0.060 A 
ATOM     33  C   UNL A   1      44.341  23.729  24.607  1.00  0.00     0.016 A 
ATOM     34  C   UNL A   1      43.686  22.508  26.464  1.00  0.00     0.016 A 
ATOM     35  C   UNL A   1      44.027  24.990  25.300  1.00  0.00     0.010 A 
ATOM     36  C   UNL A   1      43.741  23.718  27.131  1.00  0.00     0.010 A 
ATOM     37  C   UNL A   1      43.783  25.056  26.673  1.00  0.00    -0.014 A 
BRANCH  37  38
ATOM     38  C   UNL A   1      43.513  26.409  27.665  1.00  0.00     0.031 A 
ATOM     39  C   UNL A   1      42.146  27.478  27.936  1.00  0.00     0.074 A 
ATOM     40  C   UNL A   1      44.547  26.681  28.484  1.00  0.00     0.049 A 
ATOM     41  N   UNL A   1      42.194  28.625  28.586  1.00  0.00    -0.248 NA
ATOM     42  C   UNL A   1      40.682  27.362  27.509  1.00  0.00     0.031 C 
ATOM     43  C   UNL A   1      44.609  27.535  29.663  1.00  0.00     0.029 A 
ATOM     44  N   UNL A   1      45.867  26.241  28.345  1.00  0.00    -0.354 N 
ATOM     45  C   UNL A   1      40.883  29.126  28.742  1.00  0.00     0.074 A 
ATOM     46  C   UNL A   1      40.088  28.496  27.796  1.00  0.00     0.031 C 
ATOM     47  C   UNL A   1      45.900  27.846  29.888  1.00  0.00     0.029 A 
ATOM     48  C   UNL A   1      46.658  27.314  28.769  1.00  0.00     0.049 A 
ATOM     49  H   UNL A   1      46.173  25.364  28.019  1.00  0.00     0.167 HD
ATOM     50  C   UNL A   1      40.475  29.916  29.771  1.00  0.00     0.037 A 
ATOM     51  C   UNL A   1      47.351  28.007  27.825  1.00  0.00     0.037 A 
ATOM     52  C   UNL A   1      41.657  30.564  30.270  1.00  0.00     0.049 A 
ATOM     53  C   UNL A   1      46.868  29.443  27.758  1.00  0.00     0.074 A 
ATOM     54  C   UNL A   1      42.581  30.265  31.248  1.00  0.00     0.029 A 
ATOM     55  N   UNL A   1      42.297  31.379  29.351  1.00  0.00    -0.354 N 
ATOM     56  N   UNL A   1      45.771  29.882  28.326  1.00  0.00    -0.248 NA
ATOM     57  C   UNL A   1      47.612  30.516  27.113  1.00  0.00     0.031 C 
ATOM     58  C   UNL A   1      43.848  30.732  30.762  1.00  0.00     0.029 A 
ATOM     59  C   UNL A   1      43.666  31.350  29.530  1.00  0.00     0.049 A 
ATOM     60  H   UNL A   1      41.837  31.909  28.662  1.00  0.00     0.167 HD
ATOM     61  C   UNL A   1      45.622  31.221  28.102  1.00  0.00     0.074 A 
ATOM     62  C   UNL A   1      46.827  31.576  27.373  1.00  0.00     0.031 C 
ATOM     63  C   UNL A   1      44.519  31.934  28.488  1.00  0.00     0.037 A 
BRANCH  50  64
ATOM     64  C   UNL A   1      39.054  29.973  30.366  1.00  0.00     0.057 A 
ATOM     65  C   UNL A   1      38.274  31.125  30.149  1.00  0.00     0.134 A 
ATOM     66  C   UNL A   1      38.420  29.049  31.243  1.00  0.00     0.134 A 
ATOM     67  F   UNL A   1      38.698  32.102  29.337  1.00  0.00    -0.206 F 
ATOM     68  C   UNL A   1      37.029  31.357  30.775  1.00  0.00     0.040 A 
ATOM     69  C   UNL A   1      37.179  29.268  31.872  1.00  0.00     0.040 A 
ATOM     70  F   UNL A   1      38.929  27.864  31.574  1.00  0.00    -0.206 F 
ATOM     71  C   UNL A   1      36.481  30.434  31.652  1.00  0.00     0.006 A 
ENDBRANCH  50  64
BRANCH  51  72
ATOM     72  C   UNL A   1      47.875  27.096  26.739  1.00  0.00     0.057 A 
ATOM     73  C   UNL A   1      47.209  27.129  25.485  1.00  0.00     0.134 A 
ATOM     74  C   UNL A   1      49.153  26.531  26.721  1.00  0.00     0.134 A 
ATOM     75  F   UNL A   1      45.968  27.637  25.401  1.00  0.00    -0.206 F 
ATOM     76  C   UNL A   1      47.829  26.783  24.277  1.00  0.00     0.040 A 
ATOM     77  C   UNL A   1      49.763  26.117  25.513  1.00  0.00     0.040 A 
ATOM     78  F   UNL A   1      49.903  26.494  27.831  1.00  0.00    -0.206 F 
ATOM     79  C   UNL A   1      49.127  26.302  24.284  1.00  0.00     0.006 A 
ENDBRANCH  51  72
BRANCH  63  80
ATOM     80  C   UNL A   1      44.120  33.250  27.835  1.00  0.00     0.057 A 
ATOM     81  C   UNL A   1      44.187  34.492  28.488  1.00  0.00     0.134 A 
ATOM     82  C   UNL A   1      43.840  33.332  26.451  1.00  0.00     0.134 A 
ATOM     83  F   UNL A   1      44.588  34.607  29.760  1.00  0.00    -0.206 F 
ATOM     84  C   UNL A   1      43.905  35.704  27.845  1.00  0.00     0.040 A 
ATOM     85  C   UNL A   1      43.664  34.545  25.777  1.00  0.00     0.040 A 
ATOM     86  F   UNL A   1      43.773  32.240  25.675  1.00  0.00    -0.206 F 
ATOM     87  C   UNL A   1      43.661  35.737  26.481  1.00  0.00     0.006 A 
ENDBRANCH  63  80
ENDBRANCH  37  38
ENDBRANCH  30  32
ENDBRANCH  29  30
ENDBRANCH  28  29
ENDBRANCH  27  28
ENDBRANCH  26  27
ENDBRANCH  25  26
ENDBRANCH   1  25
TORSDOF 19
ENDMDL
MODEL 2
REMARK VINA RESULT:     -12.9      1.117      3.007
REMARK SMILES Cc1ccc(C(=O)c2cccc(C)c2C(=O)OCCOCCOCCOC(=O)c2ccc(-c3c4nc(c(-c5c(F)cccc5F)c5ccc([nH]5)c(-c5c(F)cccc5F)c5nc(c(-c6c(F)cccc6F)c6ccc3[nH]6)C=C5)C=C4)cc2)c(C)c1
REMARK SMILES IDX 21 1 20 2 19 3 18 4 17 5 15 6 16 7 14 8 8 9 9 10 10 11 12 12
REMARK SMILES IDX 11 13 13 14 6 15 7 16 5 17 1 18 2 19 3 20 85 21 4 22 83 23
REMARK SMILES IDX 84 24 22 25 23 26 24 27 25 28 26 29 27 30 28 31 29 32 30 33
REMARK SMILES IDX 82 34 31 35 81 36 32 37 33 38 34 39 75 40 35 41 80 42 74 43
REMARK SMILES IDX 76 44 36 45 79 46 73 47 72 48 37 50 63 51 46 52 62 53 47 54
REMARK SMILES IDX 50 55 61 56 77 57 48 58 49 59 60 61 78 62 51 63 38 64 39 65
REMARK SMILES IDX 44 66 40 67 41 68 43 69 45 70 42 71 64 72 65 73 70 74 66 75
REMARK SMILES IDX 67 76 69 77 71 78 68 79 52 80 53 81 58 82 54 83 55 84 57 85
REMARK SMILES IDX 59 86 56 87
REMARK H PARENT 76 49 50 60
REMARK Flexibility Score: inf
ROOT
ATOM      1  C   UNL A   1      40.562  21.358  27.243  1.00  0.00     0.188 C 
ENDROOT
BRANCH   1   2
ATOM      2  O   UNL A   1      39.933  22.037  26.136  1.00  0.00    -0.376 OA
BRANCH   2   3
ATOM      3  C   UNL A   1      38.523  22.203  25.870  1.00  0.00     0.202 C 
BRANCH   3   4
ATOM      4  C   UNL A   1      37.566  23.651  25.819  1.00  0.00     0.261 C 
BRANCH   4   5
ATOM      5  O   UNL A   1      35.962  23.978  26.370  1.00  0.00    -0.460 OA
BRANCH   5   6
ATOM      6  C   UNL A   1      34.677  24.485  25.909  1.00  0.00     0.339 C 
ATOM      7  O   UNL A   1      33.569  24.136  26.325  1.00  0.00    -0.246 OA
BRANCH   6   8
ATOM      8  C   UNL A   1      34.361  25.313  24.737  1.00  0.00     0.074 A 
ATOM      9  C   UNL A   1      34.172  24.641  23.539  1.00  0.00     0.037 A 
ATOM     10  C   UNL A   1      33.387  25.268  22.554  1.00  0.00     0.013 A 
ATOM     11  C   UNL A   1      32.874  26.561  22.712  1.00  0.00     0.001 A 
ATOM     12  C   UNL A   1      33.803  26.663  24.926  1.00  0.00    -0.036 A 
ATOM     13  C   UNL A   1      33.109  27.269  23.873  1.00  0.00     0.004 A 
ATOM     14  C   UNL A   1      33.835  27.538  26.186  1.00  0.00     0.045 C 
BRANCH   9  15
ATOM     15  C   UNL A   1      34.811  23.305  23.329  1.00  0.00     0.194 C 
ATOM     16  O   UNL A   1      35.818  23.201  22.636  1.00  0.00    -0.289 OA
BRANCH  15  17
ATOM     17  C   UNL A   1      34.135  22.068  23.738  1.00  0.00     0.025 A 
ATOM     18  C   UNL A   1      32.723  18.270  25.092  1.00  0.00     0.044 C 
ATOM     19  C   UNL A   1      33.203  19.614  24.651  1.00  0.00    -0.051 A 
ATOM     20  C   UNL A   1      34.490  20.032  24.978  1.00  0.00     0.004 A 
ATOM     21  C   UNL A   1      32.364  20.454  23.911  1.00  0.00     0.007 A 
ATOM     22  C   UNL A   1      34.940  21.262  24.545  1.00  0.00     0.013 A 
ATOM     23  C   UNL A   1      32.796  21.718  23.487  1.00  0.00    -0.040 A 
ATOM     24  C   UNL A   1      31.761  22.585  22.840  1.00  0.00     0.045 C 
ENDBRANCH  15  17
ENDBRANCH   9  15
ENDBRANCH   6   8
ENDBRANCH   5   6
ENDBRANCH   4   5
ENDBRANCH   3   4
ENDBRANCH   2   3
ENDBRANCH   1   2
BRANCH   1  25
ATOM     25  C   UNL A   1      41.172  19.959  27.242  1.00  0.00     0.188 C 
BRANCH  25  26
ATOM     26  O   UNL A   1      41.759  19.627  26.007  1.00  0.00    -0.376 OA
BRANCH  26  27
ATOM     27  C   UNL A   1      42.783  18.644  26.082  1.00  0.00     0.202 C 
BRANCH  27  28
ATOM     28  C   UNL A   1      44.096  18.974  25.325  1.00  0.00     0.261 C 
BRANCH  28  29
ATOM     29  O   UNL A   1      44.055  20.271  24.673  1.00  0.00    -0.460 OA
BRANCH  29  30
ATOM     30  C   UNL A   1      45.074  21.170  24.933  1.00  0.00     0.338 C 
ATOM     31  O   UNL A   1      46.206  20.869  25.223  1.00  0.00    -0.246 OA
BRANCH  30  32
ATOM     32  C   UNL A   1      44.505  22.560  25.050  1.00  0.00     0.060 A 
ATOM     33  C   UNL A   1      45.054  23.778  24.608  1.00  0.00     0.016 A 
ATOM     34  C   UNL A   1      43.548  22.676  25.982  1.00  0.00     0.016 A 
ATOM     35  C   UNL A   1      44.761  25.057  25.278  1.00  0.00     0.010 A 
ATOM     36  C   UNL A   1      43.592  23.825  26.751  1.00  0.00     0.010 A 
ATOM     37  C   UNL A   1      44.054  25.134  26.479  1.00  0.00    -0.014 A 
BRANCH  37  38
ATOM     38  C   UNL A   1      43.711  26.484  27.454  1.00  0.00     0.031 A 
ATOM     39  C   UNL A   1      42.305  27.512  27.672  1.00  0.00     0.074 A 
ATOM     40  C   UNL A   1      44.709  26.791  28.304  1.00  0.00     0.049 A 
ATOM     41  N   UNL A   1      42.297  28.664  28.316  1.00  0.00    -0.248 NA
ATOM     42  C   UNL A   1      40.860  27.351  27.197  1.00  0.00     0.031 C 
ATOM     43  C   UNL A   1      44.706  27.652  29.479  1.00  0.00     0.029 A 
ATOM     44  N   UNL A   1      46.045  26.390  28.212  1.00  0.00    -0.354 N 
ATOM     45  C   UNL A   1      40.967  29.126  28.425  1.00  0.00     0.074 A 
ATOM     46  C   UNL A   1      40.223  28.467  27.456  1.00  0.00     0.031 C 
ATOM     47  C   UNL A   1      45.978  28.003  29.746  1.00  0.00     0.029 A 
ATOM     48  C   UNL A   1      46.789  27.488  28.656  1.00  0.00     0.049 A 
ATOM     49  H   UNL A   1      46.388  25.521  27.902  1.00  0.00     0.167 HD
ATOM     50  C   UNL A   1      40.501  29.909  29.435  1.00  0.00     0.037 A 
ATOM     51  C   UNL A   1      47.493  28.197  27.731  1.00  0.00     0.037 A 
ATOM     52  C   UNL A   1      41.646  30.595  29.969  1.00  0.00     0.049 A 
ATOM     53  C   UNL A   1      46.970  29.618  27.639  1.00  0.00     0.074 A 
ATOM     54  C   UNL A   1      42.545  30.329  30.979  1.00  0.00     0.029 A 
ATOM     55  N   UNL A   1      42.292  31.424  29.066  1.00  0.00    -0.354 N 
ATOM     56  N   UNL A   1      45.842  30.027  28.167  1.00  0.00    -0.248 NA
ATOM     57  C   UNL A   1      47.703  30.709  27.012  1.00  0.00     0.031 C 
ATOM     58  C   UNL A   1      43.814  30.831  30.533  1.00  0.00     0.029 A 
ATOM     59  C   UNL A   1      43.654  31.437  29.291  1.00  0.00     0.049 A 
ATOM     60  H   UNL A   1      41.840  31.936  28.359  1.00  0.00     0.167 HD
ATOM     61  C   UNL A   1      45.660  31.359  27.930  1.00  0.00     0.074 A 
ATOM     62  C   UNL A   1      46.877  31.746  27.239  1.00  0.00     0.031 C 
ATOM     63  C   UNL A   1      44.524  32.041  28.275  1.00  0.00     0.037 A 
BRANCH  50  64
ATOM     64  C   UNL A   1      39.060  29.927  29.982  1.00  0.00     0.057 A 
ATOM     65  C   UNL A   1      38.332  31.132  29.937  1.00  0.00     0.134 A 
ATOM     66  C   UNL A   1      38.357  28.896  30.667  1.00  0.00     0.134 A 
ATOM     67  F   UNL A   1      38.826  32.211  29.317  1.00  0.00    -0.206 F 
ATOM     68  C   UNL A   1      37.072  31.308  30.549  1.00  0.00     0.040 A 
ATOM     69  C   UNL A   1      37.100  29.060  31.281  1.00  0.00     0.040 A 
ATOM     70  F   UNL A   1      38.808  27.652  30.809  1.00  0.00    -0.206 F 
ATOM     71  C   UNL A   1      36.456  30.276  31.238  1.00  0.00     0.006 A 
ENDBRANCH  50  64
BRANCH  51  72
ATOM     72  C   UNL A   1      48.080  27.297  26.669  1.00  0.00     0.057 A 
ATOM     73  C   UNL A   1      47.523  27.381  25.365  1.00  0.00     0.134 A 
ATOM     74  C   UNL A   1      49.337  26.692  26.743  1.00  0.00     0.134 A 
ATOM     75  F   UNL A   1      46.310  27.929  25.190  1.00  0.00    -0.206 F 
ATOM     76  C   UNL A   1      48.233  27.045  24.204  1.00  0.00     0.040 A 
ATOM     77  C   UNL A   1      50.035  26.288  25.580  1.00  0.00     0.040 A 
ATOM     78  F   UNL A   1      49.989  26.605  27.911  1.00  0.00    -0.206 F 
ATOM     79  C   UNL A   1      49.511  26.522  24.307  1.00  0.00     0.006 A 
ENDBRANCH  51  72
BRANCH  63  80
ATOM     80  C   UNL A   1      44.108  33.341  27.600  1.00  0.00     0.057 A 
ATOM     81  C   UNL A   1      43.930  33.474  26.213  1.00  0.00     0.134 A 
ATOM     82  C   UNL A   1      43.680  34.459  28.355  1.00  0.00     0.134 A 
ATOM     83  F   UNL A   1      44.141  32.457  25.368  1.00  0.00    -0.206 F 
ATOM     84  C   UNL A   1      43.459  34.651  25.618  1.00  0.00     0.040 A 
ATOM     85  C   UNL A   1      43.107  35.597  27.776  1.00  0.00     0.040 A 
ATOM     86  F   UNL A   1      43.751  34.481  29.694  1.00  0.00    -0.206 F 
ATOM     87  C   UNL A   1      43.027  35.711  26.399  1.00  0.00     0.006 A 
ENDBRANCH  63  80
ENDBRANCH  37  38
ENDBRANCH  30  32
ENDBRANCH  29  30
ENDBRANCH  28  29
ENDBRANCH  27  28
ENDBRANCH  26  27
ENDBRANCH  25  26
ENDBRANCH   1  25
TORSDOF 19
ENDMDL
MODEL 3
REMARK VINA RESULT:     -11.7      1.822      3.576
REMARK SMILES Cc1ccc(C(=O)c2cccc(C)c2C(=O)OCCOCCOCCOC(=O)c2ccc(-c3c4nc(c(-c5c(F)cccc5F)c5ccc([nH]5)c(-c5c(F)cccc5F)c5nc(c(-c6c(F)cccc6F)c6ccc3[nH]6)C=C5)C=C4)cc2)c(C)c1
REMARK SMILES IDX 21 1 20 2 19 3 18 4 17 5 15 6 16 7 14 8 8 9 9 10 10 11 12 12
REMARK SMILES IDX 11 13 13 14 6 15 7 16 5 17 1 18 2 19 3 20 85 21 4 22 83 23
REMARK SMILES IDX 84 24 22 25 23 26 24 27 25 28 26 29 27 30 28 31 29 32 30 33
REMARK SMILES IDX 82 34 31 35 81 36 32 37 33 38 34 39 75 40 35 41 80 42 74 43
REMARK SMILES IDX 76 44 36 45 79 46 73 47 72 48 37 50 63 51 46 52 62 53 47 54
REMARK SMILES IDX 50 55 61 56 77 57 48 58 49 59 60 61 78 62 51 63 38 64 39 65
REMARK SMILES IDX 44 66 40 67 41 68 43 69 45 70 42 71 64 72 65 73 70 74 66 75
REMARK SMILES IDX 67 76 69 77 71 78 68 79 52 80 53 81 58 82 54 83 55 84 57 85
REMARK SMILES IDX 59 86 56 87
REMARK H PARENT 76 49 50 60
REMARK Flexibility Score: inf
ROOT
ATOM      1  C   UNL A   1      35.083  21.734  24.949  1.00  0.00     0.188 C 
ENDROOT
BRANCH   1   2
ATOM      2  O   UNL A   1      34.126  22.780  24.681  1.00  0.00    -0.376 OA
BRANCH   2   3
ATOM      3  C   UNL A   1      32.685  22.690  24.648  1.00  0.00     0.202 C 
BRANCH   3   4
ATOM      4  C   UNL A   1      31.504  23.394  25.711  1.00  0.00     0.261 C 
BRANCH   4   5
ATOM      5  O   UNL A   1      31.487  24.897  26.561  1.00  0.00    -0.460 OA
BRANCH   5   6
ATOM      6  C   UNL A   1      31.295  26.325  26.353  1.00  0.00     0.339 C 
ATOM      7  O   UNL A   1      30.808  27.116  27.165  1.00  0.00    -0.246 OA
BRANCH   6   8
ATOM      8  C   UNL A   1      31.398  27.115  25.119  1.00  0.00     0.074 A 
ATOM      9  C   UNL A   1      32.652  27.623  24.814  1.00  0.00     0.037 A 
ATOM     10  C   UNL A   1      32.930  27.912  23.466  1.00  0.00     0.013 A 
ATOM     11  C   UNL A   1      31.968  27.787  22.455  1.00  0.00     0.001 A 
ATOM     12  C   UNL A   1      30.386  26.953  24.061  1.00  0.00    -0.036 A 
ATOM     13  C   UNL A   1      30.696  27.346  22.754  1.00  0.00     0.004 A 
ATOM     14  C   UNL A   1      28.981  26.348  24.173  1.00  0.00     0.045 C 
BRANCH   9  15
ATOM     15  C   UNL A   1      33.643  27.860  25.909  1.00  0.00     0.194 C 
ATOM     16  O   UNL A   1      34.217  26.915  26.440  1.00  0.00    -0.289 OA
BRANCH  15  17
ATOM     17  C   UNL A   1      33.782  29.180  26.535  1.00  0.00     0.025 A 
ATOM     18  C   UNL A   1      34.678  32.791  28.636  1.00  0.00     0.044 C 
ATOM     19  C   UNL A   1      34.379  31.544  27.869  1.00  0.00    -0.051 A 
ATOM     20  C   UNL A   1      35.324  30.524  27.809  1.00  0.00     0.004 A 
ATOM     21  C   UNL A   1      33.153  31.398  27.211  1.00  0.00     0.007 A 
ATOM     22  C   UNL A   1      35.034  29.362  27.124  1.00  0.00     0.013 A 
ATOM     23  C   UNL A   1      32.854  30.236  26.488  1.00  0.00    -0.040 A 
ATOM     24  C   UNL A   1      31.580  30.260  25.700  1.00  0.00     0.045 C 
ENDBRANCH  15  17
ENDBRANCH   9  15
ENDBRANCH   6   8
ENDBRANCH   5   6
ENDBRANCH   4   5
ENDBRANCH   3   4
ENDBRANCH   2   3
ENDBRANCH   1   2
BRANCH   1  25
ATOM     25  C   UNL A   1      36.443  21.879  25.624  1.00  0.00     0.188 C 
BRANCH  25  26
ATOM     26  O   UNL A   1      37.496  21.391  24.828  1.00  0.00    -0.376 OA
BRANCH  26  27
ATOM     27  C   UNL A   1      37.762  20.003  24.981  1.00  0.00     0.202 C 
BRANCH  27  28
ATOM     28  C   UNL A   1      39.196  19.635  25.445  1.00  0.00     0.261 C 
BRANCH  28  29
ATOM     29  O   UNL A   1      39.723  20.566  26.426  1.00  0.00    -0.460 OA
BRANCH  29  30
ATOM     30  C   UNL A   1      41.006  21.053  26.248  1.00  0.00     0.338 C 
ATOM     31  O   UNL A   1      42.010  20.384  26.275  1.00  0.00    -0.246 OA
BRANCH  30  32
ATOM     32  C   UNL A   1      40.983  22.560  26.272  1.00  0.00     0.060 A 
ATOM     33  C   UNL A   1      41.982  23.463  25.867  1.00  0.00     0.016 A 
ATOM     34  C   UNL A   1      40.054  23.074  27.091  1.00  0.00     0.016 A 
ATOM     35  C   UNL A   1      42.122  24.798  26.473  1.00  0.00     0.010 A 
ATOM     36  C   UNL A   1      40.447  24.171  27.835  1.00  0.00     0.010 A 
ATOM     37  C   UNL A   1      41.384  25.202  27.587  1.00  0.00    -0.014 A 
BRANCH  37  38
ATOM     38  C   UNL A   1      41.474  26.640  28.489  1.00  0.00     0.031 A 
ATOM     39  C   UNL A   1      40.452  28.059  28.638  1.00  0.00     0.074 A 
ATOM     40  C   UNL A   1      42.522  26.670  29.335  1.00  0.00     0.049 A 
ATOM     41  N   UNL A   1      40.799  29.190  29.223  1.00  0.00    -0.248 NA
ATOM     42  C   UNL A   1      39.024  28.323  28.154  1.00  0.00     0.031 C 
ATOM     43  C   UNL A   1      42.787  27.550  30.465  1.00  0.00     0.029 A 
ATOM     44  N   UNL A   1      43.670  25.875  29.279  1.00  0.00    -0.354 N 
ATOM     45  C   UNL A   1      39.674  30.041  29.293  1.00  0.00     0.074 A 
ATOM     46  C   UNL A   1      38.761  29.592  28.350  1.00  0.00     0.031 C 
ATOM     47  C   UNL A   1      44.107  27.509  30.729  1.00  0.00     0.029 A 
ATOM     48  C   UNL A   1      44.717  26.715  29.676  1.00  0.00     0.049 A 
ATOM     49  H   UNL A   1      43.730  24.929  29.017  1.00  0.00     0.167 HD
ATOM     50  C   UNL A   1      39.475  30.980  30.257  1.00  0.00     0.037 A 
ATOM     51  C   UNL A   1      45.600  27.126  28.725  1.00  0.00     0.037 A 
ATOM     52  C   UNL A   1      40.777  31.310  30.769  1.00  0.00     0.049 A 
ATOM     53  C   UNL A   1      45.536  28.632  28.556  1.00  0.00     0.074 A 
ATOM     54  C   UNL A   1      41.555  30.833  31.802  1.00  0.00     0.029 A 
ATOM     55  N   UNL A   1      41.642  31.853  29.834  1.00  0.00    -0.354 N 
ATOM     56  N   UNL A   1      44.590  29.393  29.049  1.00  0.00    -0.248 NA
ATOM     57  C   UNL A   1      46.566  29.413  27.884  1.00  0.00     0.031 C 
ATOM     58  C   UNL A   1      42.915  30.900  31.347  1.00  0.00     0.029 A 
ATOM     59  C   UNL A   1      42.943  31.460  30.074  1.00  0.00     0.049 A 
ATOM     60  H   UNL A   1      41.365  32.442  29.096  1.00  0.00     0.167 HD
ATOM     61  C   UNL A   1      44.824  30.703  28.743  1.00  0.00     0.074 A 
ATOM     62  C   UNL A   1      46.099  30.663  28.049  1.00  0.00     0.031 C 
ATOM     63  C   UNL A   1      43.952  31.716  29.039  1.00  0.00     0.037 A 
BRANCH  50  64
ATOM     64  C   UNL A   1      38.111  31.466  30.785  1.00  0.00     0.057 A 
ATOM     65  C   UNL A   1      37.912  32.846  30.981  1.00  0.00     0.134 A 
ATOM     66  C   UNL A   1      37.006  30.691  31.239  1.00  0.00     0.134 A 
ATOM     67  F   UNL A   1      38.836  33.736  30.599  1.00  0.00    -0.206 F 
ATOM     68  C   UNL A   1      36.769  33.391  31.607  1.00  0.00     0.040 A 
ATOM     69  C   UNL A   1      35.862  31.223  31.864  1.00  0.00     0.040 A 
ATOM     70  F   UNL A   1      36.928  29.366  31.128  1.00  0.00    -0.206 F 
ATOM     71  C   UNL A   1      35.744  32.580  32.066  1.00  0.00     0.006 A 
ENDBRANCH  50  64
BRANCH  51  72
ATOM     72  C   UNL A   1      45.879  26.036  27.716  1.00  0.00     0.057 A 
ATOM     73  C   UNL A   1      45.373  26.221  26.403  1.00  0.00     0.134 A 
ATOM     74  C   UNL A   1      46.889  25.078  27.837  1.00  0.00     0.134 A 
ATOM     75  F   UNL A   1      44.387  27.107  26.184  1.00  0.00    -0.206 F 
ATOM     76  C   UNL A   1      45.942  25.624  25.269  1.00  0.00     0.040 A 
ATOM     77  C   UNL A   1      47.426  24.421  26.705  1.00  0.00     0.040 A 
ATOM     78  F   UNL A   1      47.485  24.854  29.017  1.00  0.00    -0.206 F 
ATOM     79  C   UNL A   1      46.997  24.740  25.416  1.00  0.00     0.006 A 
ENDBRANCH  51  72
BRANCH  63  80
ATOM     80  C   UNL A   1      43.952  33.045  28.296  1.00  0.00     0.057 A 
ATOM     81  C   UNL A   1      43.876  33.152  26.897  1.00  0.00     0.134 A 
ATOM     82  C   UNL A   1      43.829  34.275  28.984  1.00  0.00     0.134 A 
ATOM     83  F   UNL A   1      43.824  32.075  26.103  1.00  0.00    -0.206 F 
ATOM     84  C   UNL A   1      43.784  34.382  26.234  1.00  0.00     0.040 A 
ATOM     85  C   UNL A   1      43.628  35.498  28.333  1.00  0.00     0.040 A 
ATOM     86  F   UNL A   1      43.848  34.344  30.323  1.00  0.00    -0.206 F 
ATOM     87  C   UNL A   1      43.640  35.559  26.951  1.00  0.00     0.006 A 
ENDBRANCH  63  80
ENDBRANCH  37  38
ENDBRANCH  30  32
ENDBRANCH  29  30
ENDBRANCH  28  29
ENDBRANCH  27  28
ENDBRANCH  26  27
ENDBRANCH  25  26
ENDBRANCH   1  25
TORSDOF 19
ENDMDL
