MODEL 1
REMARK VINA RESULT:     -11.3      0.000      0.000
REMARK SMILES Nc1c(Cl)ccc2c1C=C(C(=O)OCCOCCOCCOC(=O)c1ccc(-c3c4nc(c(-c5c(F)cccc5F)c5ccc([nH]5)c(-c5c(F)cccc5F)c5nc(c(-c6c(F)cccc6F)c6ccc3[nH]6)C=C5)C=C4)cc1)[C@@H](C(F)(F)F)O2
REMARK SMILES IDX 18 1 17 2 16 3 15 4 14 5 13 6 11 7 12 8 10 9 2 10 3 11 8 12
REMARK SMILES IDX 4 13 5 14 7 15 9 16 6 17 84 18 79 19 1 20 80 23 81 24 82 25
REMARK SMILES IDX 83 26 19 27 20 28 21 29 22 30 23 31 24 32 25 33 26 34 78 35
REMARK SMILES IDX 27 36 77 37 28 38 29 39 30 40 71 41 31 42 76 43 70 44 72 45
REMARK SMILES IDX 32 46 75 47 69 48 68 49 33 51 59 52 42 53 58 54 43 55 46 56
REMARK SMILES IDX 57 57 73 58 44 59 45 60 56 62 74 63 47 64 34 65 35 66 40 67
REMARK SMILES IDX 36 68 37 69 39 70 41 71 38 72 60 73 61 74 66 75 62 76 63 77
REMARK SMILES IDX 65 78 67 79 64 80 48 81 49 82 54 83 50 84 51 85 53 86 55 87
REMARK SMILES IDX 52 88
REMARK H PARENT 1 21 1 22 72 50 46 61
REMARK Flexibility Score: inf
ROOT
ATOM      1  C   UNL A   1      36.417  21.624  25.503  1.00  0.00     0.188 C 
ENDROOT
BRANCH   1   2
ATOM      2  C   UNL A   1      36.374  23.117  25.894  1.00  0.00     0.188 C 
BRANCH   2   3
ATOM      3  O   UNL A   1      35.976  24.072  24.938  1.00  0.00    -0.376 OA
BRANCH   3   4
ATOM      4  C   UNL A   1      34.897  24.957  25.179  1.00  0.00     0.202 C 
BRANCH   4   5
ATOM      5  C   UNL A   1      33.665  24.632  26.040  1.00  0.00     0.261 C 
BRANCH   5   6
ATOM      6  O   UNL A   1      33.182  23.287  25.994  1.00  0.00    -0.460 OA
BRANCH   6   7
ATOM      7  C   UNL A   1      32.030  23.111  25.302  1.00  0.00     0.338 C 
ATOM      8  O   UNL A   1      31.113  23.907  25.196  1.00  0.00    -0.246 OA
BRANCH   7   9
ATOM      9  C   UNL A   1      32.107  21.850  24.537  1.00  0.00     0.088 C 
ATOM     10  C   UNL A   1      32.710  18.245  25.210  1.00  0.00     0.061 A 
ATOM     11  C   UNL A   1      33.047  17.117  24.430  1.00  0.00     0.064 A 
ATOM     12  C   UNL A   1      32.450  19.463  24.538  1.00  0.00     0.042 A 
ATOM     13  Cl  UNL A   1      33.491  15.622  25.185  1.00  0.00    -0.082 Cl
ATOM     14  C   UNL A   1      33.024  17.161  23.036  1.00  0.00     0.026 A 
ATOM     15  C   UNL A   1      32.388  19.487  23.135  1.00  0.00     0.130 A 
ATOM     16  C   UNL A   1      32.310  20.732  25.248  1.00  0.00     0.029 C 
ATOM     17  C   UNL A   1      32.664  18.340  22.391  1.00  0.00     0.049 A 
ATOM     18  O   UNL A   1      32.068  20.589  22.394  1.00  0.00    -0.475 OA
ATOM     19  C   UNL A   1      31.950  21.880  23.045  1.00  0.00     0.316 C 
BRANCH  10  20
ATOM     20  N   UNL A   1      32.753  18.166  26.606  1.00  0.00    -0.397 N 
ATOM     21  H   UNL A   1      32.179  17.522  27.082  1.00  0.00     0.156 HD
ATOM     22  H   UNL A   1      33.357  18.754  27.114  1.00  0.00     0.156 HD
ENDBRANCH  10  20
BRANCH  19  23
ATOM     23  C   UNL A   1      32.935  22.849  22.375  1.00  0.00     0.430 C 
ATOM     24  F   UNL A   1      33.000  22.640  21.039  1.00  0.00    -0.167 F 
ATOM     25  F   UNL A   1      32.565  24.139  22.548  1.00  0.00    -0.167 F 
ATOM     26  F   UNL A   1      34.187  22.718  22.870  1.00  0.00    -0.167 F 
ENDBRANCH  19  23
ENDBRANCH   7   9
ENDBRANCH   6   7
ENDBRANCH   5   6
ENDBRANCH   4   5
ENDBRANCH   3   4
ENDBRANCH   2   3
ENDBRANCH   1   2
BRANCH   1  27
ATOM     27  O   UNL A   1      37.415  21.139  24.631  1.00  0.00    -0.376 OA
BRANCH  27  28
ATOM     28  C   UNL A   1      38.159  19.988  25.002  1.00  0.00     0.202 C 
BRANCH  28  29
ATOM     29  C   UNL A   1      39.512  20.070  25.733  1.00  0.00     0.261 C 
BRANCH  29  30
ATOM     30  O   UNL A   1      40.304  18.874  25.733  1.00  0.00    -0.460 OA
BRANCH  30  31
ATOM     31  C   UNL A   1      41.630  19.053  25.970  1.00  0.00     0.338 C 
ATOM     32  O   UNL A   1      42.539  18.278  25.744  1.00  0.00    -0.246 OA
BRANCH  31  33
ATOM     33  C   UNL A   1      41.853  20.448  26.399  1.00  0.00     0.060 A 
ATOM     34  C   UNL A   1      42.147  21.417  25.429  1.00  0.00     0.016 A 
ATOM     35  C   UNL A   1      41.822  20.780  27.752  1.00  0.00     0.016 A 
ATOM     36  C   UNL A   1      42.399  22.734  25.811  1.00  0.00     0.010 A 
ATOM     37  C   UNL A   1      42.118  22.091  28.138  1.00  0.00     0.010 A 
ATOM     38  C   UNL A   1      42.426  23.065  27.170  1.00  0.00    -0.014 A 
BRANCH  38  39
ATOM     39  C   UNL A   1      42.990  24.369  27.589  1.00  0.00     0.031 A 
ATOM     40  C   UNL A   1      42.033  25.458  27.985  1.00  0.00     0.074 A 
ATOM     41  C   UNL A   1      44.315  24.582  27.624  1.00  0.00     0.049 A 
ATOM     42  N   UNL A   1      42.278  26.692  28.341  1.00  0.00    -0.248 NA
ATOM     43  C   UNL A   1      40.603  25.103  27.979  1.00  0.00     0.031 C 
ATOM     44  C   UNL A   1      45.344  23.594  27.308  1.00  0.00     0.029 A 
ATOM     45  N   UNL A   1      45.021  25.718  27.932  1.00  0.00    -0.354 N 
ATOM     46  C   UNL A   1      41.037  27.259  28.605  1.00  0.00     0.074 A 
ATOM     47  C   UNL A   1      40.040  26.245  28.340  1.00  0.00     0.031 C 
ATOM     48  C   UNL A   1      46.552  24.176  27.415  1.00  0.00     0.029 A 
ATOM     49  C   UNL A   1      46.378  25.581  27.777  1.00  0.00     0.049 A 
ATOM     50  H   UNL A   1      44.593  26.552  28.235  1.00  0.00     0.167 HD
ATOM     51  C   UNL A   1      40.754  28.512  29.031  1.00  0.00     0.037 A 
ATOM     52  C   UNL A   1      47.359  26.500  27.887  1.00  0.00     0.037 A 
ATOM     53  C   UNL A   1      41.742  29.531  29.260  1.00  0.00     0.049 A 
ATOM     54  C   UNL A   1      47.004  27.919  28.254  1.00  0.00     0.074 A 
ATOM     55  C   UNL A   1      41.557  30.830  29.698  1.00  0.00     0.029 A 
ATOM     56  N   UNL A   1      43.103  29.369  29.047  1.00  0.00    -0.354 N 
ATOM     57  N   UNL A   1      45.834  28.438  28.539  1.00  0.00    -0.248 NA
ATOM     58  C   UNL A   1      48.114  28.883  28.313  1.00  0.00     0.031 C 
ATOM     59  C   UNL A   1      42.800  31.473  29.691  1.00  0.00     0.029 A 
ATOM     60  C   UNL A   1      43.766  30.556  29.311  1.00  0.00     0.049 A 
ATOM     61  H   UNL A   1      43.534  28.534  28.752  1.00  0.00     0.167 HD
ATOM     62  C   UNL A   1      46.071  29.775  28.843  1.00  0.00     0.074 A 
ATOM     63  C   UNL A   1      47.499  29.982  28.723  1.00  0.00     0.031 C 
ATOM     64  C   UNL A   1      45.190  30.745  29.190  1.00  0.00     0.037 A 
BRANCH  51  65
ATOM     65  C   UNL A   1      39.307  28.853  29.234  1.00  0.00     0.057 A 
ATOM     66  C   UNL A   1      38.543  29.373  28.181  1.00  0.00     0.134 A 
ATOM     67  C   UNL A   1      38.669  28.677  30.470  1.00  0.00     0.134 A 
ATOM     68  F   UNL A   1      39.092  29.566  26.972  1.00  0.00    -0.206 F 
ATOM     69  C   UNL A   1      37.199  29.705  28.351  1.00  0.00     0.040 A 
ATOM     70  C   UNL A   1      37.318  28.979  30.643  1.00  0.00     0.040 A 
ATOM     71  F   UNL A   1      39.340  28.165  31.514  1.00  0.00    -0.206 F 
ATOM     72  C   UNL A   1      36.580  29.500  29.582  1.00  0.00     0.006 A 
ENDBRANCH  51  65
BRANCH  52  73
ATOM     73  C   UNL A   1      48.773  26.131  27.620  1.00  0.00     0.057 A 
ATOM     74  C   UNL A   1      49.313  26.201  26.330  1.00  0.00     0.134 A 
ATOM     75  C   UNL A   1      49.639  25.772  28.661  1.00  0.00     0.134 A 
ATOM     76  F   UNL A   1      48.540  26.544  25.289  1.00  0.00    -0.206 F 
ATOM     77  C   UNL A   1      50.661  25.930  26.085  1.00  0.00     0.040 A 
ATOM     78  C   UNL A   1      50.994  25.526  28.434  1.00  0.00     0.040 A 
ATOM     79  F   UNL A   1      49.188  25.716  29.923  1.00  0.00    -0.206 F 
ATOM     80  C   UNL A   1      51.508  25.604  27.142  1.00  0.00     0.006 A 
ENDBRANCH  52  73
BRANCH  64  81
ATOM     81  C   UNL A   1      45.749  32.104  29.506  1.00  0.00     0.057 A 
ATOM     82  C   UNL A   1      46.158  32.419  30.809  1.00  0.00     0.134 A 
ATOM     83  C   UNL A   1      45.865  33.107  28.535  1.00  0.00     0.134 A 
ATOM     84  F   UNL A   1      46.066  31.511  31.792  1.00  0.00    -0.206 F 
ATOM     85  C   UNL A   1      46.663  33.680  31.132  1.00  0.00     0.040 A 
ATOM     86  C   UNL A   1      46.398  34.362  28.839  1.00  0.00     0.040 A 
ATOM     87  F   UNL A   1      45.503  32.868  27.264  1.00  0.00    -0.206 F 
ATOM     88  C   UNL A   1      46.793  34.652  30.143  1.00  0.00     0.006 A 
ENDBRANCH  64  81
ENDBRANCH  38  39
ENDBRANCH  31  33
ENDBRANCH  30  31
ENDBRANCH  29  30
ENDBRANCH  28  29
ENDBRANCH  27  28
ENDBRANCH   1  27
TORSDOF 19
ENDMDL
MODEL 2
REMARK VINA RESULT:     -11.2      3.369      8.128
REMARK SMILES Nc1c(Cl)ccc2c1C=C(C(=O)OCCOCCOCCOC(=O)c1ccc(-c3c4nc(c(-c5c(F)cccc5F)c5ccc([nH]5)c(-c5c(F)cccc5F)c5nc(c(-c6c(F)cccc6F)c6ccc3[nH]6)C=C5)C=C4)cc1)[C@@H](C(F)(F)F)O2
REMARK SMILES IDX 18 1 17 2 16 3 15 4 14 5 13 6 11 7 12 8 10 9 2 10 3 11 8 12
REMARK SMILES IDX 4 13 5 14 7 15 9 16 6 17 84 18 79 19 1 20 80 23 81 24 82 25
REMARK SMILES IDX 83 26 19 27 20 28 21 29 22 30 23 31 24 32 25 33 26 34 78 35
REMARK SMILES IDX 27 36 77 37 28 38 29 39 30 40 71 41 31 42 76 43 70 44 72 45
REMARK SMILES IDX 32 46 75 47 69 48 68 49 33 51 59 52 42 53 58 54 43 55 46 56
REMARK SMILES IDX 57 57 73 58 44 59 45 60 56 62 74 63 47 64 34 65 35 66 40 67
REMARK SMILES IDX 36 68 37 69 39 70 41 71 38 72 60 73 61 74 66 75 62 76 63 77
REMARK SMILES IDX 65 78 67 79 64 80 48 81 49 82 54 83 50 84 51 85 53 86 55 87
REMARK SMILES IDX 52 88
REMARK H PARENT 1 21 1 22 72 50 46 61
REMARK Flexibility Score: inf
ROOT
ATOM      1  C   UNL A   1      33.877  32.948  28.296  1.00  0.00     0.188 C 
ENDROOT
BRANCH   1   2
ATOM      2  C   UNL A   1      34.367  31.550  27.859  1.00  0.00     0.188 C 
BRANCH   2   3
ATOM      3  O   UNL A   1      33.427  30.530  27.617  1.00  0.00    -0.376 OA
BRANCH   3   4
ATOM      4  C   UNL A   1      33.781  29.344  26.929  1.00  0.00     0.202 C 
BRANCH   4   5
ATOM      5  C   UNL A   1      32.954  28.694  25.808  1.00  0.00     0.261 C 
BRANCH   5   6
ATOM      6  O   UNL A   1      33.100  27.281  25.635  1.00  0.00    -0.460 OA
BRANCH   6   7
ATOM      7  C   UNL A   1      32.242  26.520  26.356  1.00  0.00     0.338 C 
ATOM      8  O   UNL A   1      31.406  26.915  27.151  1.00  0.00    -0.246 OA
BRANCH   7   9
ATOM      9  C   UNL A   1      32.348  25.115  25.916  1.00  0.00     0.088 C 
ATOM     10  C   UNL A   1      34.930  22.444  25.801  1.00  0.00     0.061 A 
ATOM     11  C   UNL A   1      35.075  21.211  25.129  1.00  0.00     0.064 A 
ATOM     12  C   UNL A   1      33.704  23.137  25.659  1.00  0.00     0.042 A 
ATOM     13  Cl  UNL A   1      36.585  20.360  25.160  1.00  0.00    -0.082 Cl
ATOM     14  C   UNL A   1      34.015  20.632  24.430  1.00  0.00     0.026 A 
ATOM     15  C   UNL A   1      32.631  22.528  24.990  1.00  0.00     0.130 A 
ATOM     16  C   UNL A   1      33.526  24.511  26.125  1.00  0.00     0.029 C 
ATOM     17  C   UNL A   1      32.785  21.279  24.388  1.00  0.00     0.049 A 
ATOM     18  O   UNL A   1      31.386  23.076  24.866  1.00  0.00    -0.475 OA
ATOM     19  C   UNL A   1      31.162  24.447  25.282  1.00  0.00     0.316 C 
BRANCH  10  20
ATOM     20  N   UNL A   1      36.018  22.999  26.484  1.00  0.00    -0.397 N 
ATOM     21  H   UNL A   1      36.931  22.678  26.300  1.00  0.00     0.156 HD
ATOM     22  H   UNL A   1      35.872  23.710  27.149  1.00  0.00     0.156 HD
ENDBRANCH  10  20
BRANCH  19  23
ATOM     23  C   UNL A   1      30.626  25.234  24.078  1.00  0.00     0.430 C 
ATOM     24  F   UNL A   1      29.844  26.267  24.474  1.00  0.00    -0.167 F 
ATOM     25  F   UNL A   1      31.628  25.767  23.341  1.00  0.00    -0.167 F 
ATOM     26  F   UNL A   1      29.887  24.457  23.255  1.00  0.00    -0.167 F 
ENDBRANCH  19  23
ENDBRANCH   7   9
ENDBRANCH   6   7
ENDBRANCH   5   6
ENDBRANCH   4   5
ENDBRANCH   3   4
ENDBRANCH   2   3
ENDBRANCH   1   2
BRANCH   1  27
ATOM     27  O   UNL A   1      34.730  33.818  29.008  1.00  0.00    -0.376 OA
BRANCH  27  28
ATOM     28  C   UNL A   1      34.228  34.502  30.146  1.00  0.00     0.202 C 
BRANCH  28  29
ATOM     29  C   UNL A   1      34.422  33.982  31.583  1.00  0.00     0.261 C 
BRANCH  29  30
ATOM     30  O   UNL A   1      34.737  32.589  31.714  1.00  0.00    -0.460 OA
BRANCH  30  31
ATOM     31  C   UNL A   1      35.728  32.296  32.597  1.00  0.00     0.338 C 
ATOM     32  O   UNL A   1      35.746  32.504  33.794  1.00  0.00    -0.246 OA
BRANCH  31  33
ATOM     33  C   UNL A   1      36.759  31.497  31.906  1.00  0.00     0.060 A 
ATOM     34  C   UNL A   1      37.688  30.779  32.673  1.00  0.00     0.016 A 
ATOM     35  C   UNL A   1      36.835  31.501  30.515  1.00  0.00     0.016 A 
ATOM     36  C   UNL A   1      38.695  30.048  32.046  1.00  0.00     0.010 A 
ATOM     37  C   UNL A   1      37.871  30.803  29.888  1.00  0.00     0.010 A 
ATOM     38  C   UNL A   1      38.814  30.091  30.652  1.00  0.00    -0.014 A 
BRANCH  38  39
ATOM     39  C   UNL A   1      40.047  29.578  30.012  1.00  0.00     0.031 A 
ATOM     40  C   UNL A   1      41.196  30.529  29.827  1.00  0.00     0.074 A 
ATOM     41  C   UNL A   1      40.151  28.300  29.612  1.00  0.00     0.049 A 
ATOM     42  N   UNL A   1      42.355  30.332  29.255  1.00  0.00    -0.248 NA
ATOM     43  C   UNL A   1      41.008  31.889  30.362  1.00  0.00     0.031 C 
ATOM     44  C   UNL A   1      39.126  27.272  29.777  1.00  0.00     0.029 A 
ATOM     45  N   UNL A   1      41.176  27.655  28.965  1.00  0.00    -0.354 N 
ATOM     46  C   UNL A   1      43.036  31.538  29.365  1.00  0.00     0.074 A 
ATOM     47  C   UNL A   1      42.151  32.468  30.030  1.00  0.00     0.031 C 
ATOM     48  C   UNL A   1      39.567  26.127  29.222  1.00  0.00     0.029 A 
ATOM     49  C   UNL A   1      40.888  26.354  28.639  1.00  0.00     0.049 A 
ATOM     50  H   UNL A   1      42.036  28.087  28.756  1.00  0.00     0.167 HD
ATOM     51  C   UNL A   1      44.288  31.843  28.950  1.00  0.00     0.037 A 
ATOM     52  C   UNL A   1      41.602  25.462  27.923  1.00  0.00     0.037 A 
ATOM     53  C   UNL A   1      45.155  30.929  28.257  1.00  0.00     0.049 A 
ATOM     54  C   UNL A   1      42.948  25.865  27.374  1.00  0.00     0.074 A 
ATOM     55  C   UNL A   1      46.443  31.140  27.799  1.00  0.00     0.029 A 
ATOM     56  N   UNL A   1      44.810  29.634  27.902  1.00  0.00    -0.354 N 
ATOM     57  N   UNL A   1      43.601  26.993  27.514  1.00  0.00    -0.248 NA
ATOM     58  C   UNL A   1      43.657  24.863  26.564  1.00  0.00     0.031 C 
ATOM     59  C   UNL A   1      46.856  29.992  27.113  1.00  0.00     0.029 A 
ATOM     60  C   UNL A   1      45.848  29.045  27.200  1.00  0.00     0.049 A 
ATOM     61  H   UNL A   1      43.954  29.197  28.117  1.00  0.00     0.167 HD
ATOM     62  C   UNL A   1      44.807  26.825  26.840  1.00  0.00     0.074 A 
ATOM     63  C   UNL A   1      44.801  25.479  26.306  1.00  0.00     0.031 C 
ATOM     64  C   UNL A   1      45.828  27.702  26.677  1.00  0.00     0.037 A 
BRANCH  51  65
ATOM     65  C   UNL A   1      44.769  33.242  29.202  1.00  0.00     0.057 A 
ATOM     66  C   UNL A   1      44.542  34.254  28.262  1.00  0.00     0.134 A 
ATOM     67  C   UNL A   1      45.464  33.587  30.369  1.00  0.00     0.134 A 
ATOM     68  F   UNL A   1      43.883  33.991  27.123  1.00  0.00    -0.206 F 
ATOM     69  C   UNL A   1      44.988  35.559  28.473  1.00  0.00     0.040 A 
ATOM     70  C   UNL A   1      45.890  34.896  30.604  1.00  0.00     0.040 A 
ATOM     71  F   UNL A   1      45.697  32.668  31.319  1.00  0.00    -0.206 F 
ATOM     72  C   UNL A   1      45.658  35.885  29.651  1.00  0.00     0.006 A 
ENDBRANCH  51  65
BRANCH  52  73
ATOM     73  C   UNL A   1      41.061  24.106  27.647  1.00  0.00     0.057 A 
ATOM     74  C   UNL A   1      40.081  23.898  26.669  1.00  0.00     0.134 A 
ATOM     75  C   UNL A   1      41.564  22.977  28.303  1.00  0.00     0.134 A 
ATOM     76  F   UNL A   1      39.560  24.937  25.999  1.00  0.00    -0.206 F 
ATOM     77  C   UNL A   1      39.624  22.617  26.352  1.00  0.00     0.040 A 
ATOM     78  C   UNL A   1      41.137  21.689  27.977  1.00  0.00     0.040 A 
ATOM     79  F   UNL A   1      42.525  23.108  29.230  1.00  0.00    -0.206 F 
ATOM     80  C   UNL A   1      40.162  21.507  26.998  1.00  0.00     0.006 A 
ENDBRANCH  52  73
BRANCH  64  81
ATOM     81  C   UNL A   1      47.039  27.219  25.928  1.00  0.00     0.057 A 
ATOM     82  C   UNL A   1      47.146  27.416  24.545  1.00  0.00     0.134 A 
ATOM     83  C   UNL A   1      48.087  26.542  26.565  1.00  0.00     0.134 A 
ATOM     84  F   UNL A   1      46.174  28.046  23.868  1.00  0.00    -0.206 F 
ATOM     85  C   UNL A   1      48.251  26.959  23.824  1.00  0.00     0.040 A 
ATOM     86  C   UNL A   1      49.213  26.109  25.860  1.00  0.00     0.040 A 
ATOM     87  F   UNL A   1      48.055  26.331  27.890  1.00  0.00    -0.206 F 
ATOM     88  C   UNL A   1      49.293  26.313  24.484  1.00  0.00     0.006 A 
ENDBRANCH  64  81
ENDBRANCH  38  39
ENDBRANCH  31  33
ENDBRANCH  30  31
ENDBRANCH  29  30
ENDBRANCH  28  29
ENDBRANCH  27  28
ENDBRANCH   1  27
TORSDOF 19
ENDMDL
MODEL 3
REMARK VINA RESULT:     -11.2      4.535      9.085
REMARK SMILES Nc1c(Cl)ccc2c1C=C(C(=O)OCCOCCOCCOC(=O)c1ccc(-c3c4nc(c(-c5c(F)cccc5F)c5ccc([nH]5)c(-c5c(F)cccc5F)c5nc(c(-c6c(F)cccc6F)c6ccc3[nH]6)C=C5)C=C4)cc1)[C@@H](C(F)(F)F)O2
REMARK SMILES IDX 18 1 17 2 16 3 15 4 14 5 13 6 11 7 12 8 10 9 2 10 3 11 8 12
REMARK SMILES IDX 4 13 5 14 7 15 9 16 6 17 84 18 79 19 1 20 80 23 81 24 82 25
REMARK SMILES IDX 83 26 19 27 20 28 21 29 22 30 23 31 24 32 25 33 26 34 78 35
REMARK SMILES IDX 27 36 77 37 28 38 29 39 30 40 71 41 31 42 76 43 70 44 72 45
REMARK SMILES IDX 32 46 75 47 69 48 68 49 33 51 59 52 42 53 58 54 43 55 46 56
REMARK SMILES IDX 57 57 73 58 44 59 45 60 56 62 74 63 47 64 34 65 35 66 40 67
REMARK SMILES IDX 36 68 37 69 39 70 41 71 38 72 60 73 61 74 66 75 62 76 63 77
REMARK SMILES IDX 65 78 67 79 64 80 48 81 49 82 54 83 50 84 51 85 53 86 55 87
REMARK SMILES IDX 52 88
REMARK H PARENT 1 21 1 22 72 50 46 61
REMARK Flexibility Score: inf
ROOT
ATOM      1  C   UNL A   1      33.654  32.999  28.041  1.00  0.00     0.188 C 
ENDROOT
BRANCH   1   2
ATOM      2  C   UNL A   1      34.157  31.542  28.127  1.00  0.00     0.188 C 
BRANCH   2   3
ATOM      3  O   UNL A   1      34.167  30.743  26.967  1.00  0.00    -0.376 OA
BRANCH   3   4
ATOM      4  C   UNL A   1      33.474  29.508  26.911  1.00  0.00     0.202 C 
BRANCH   4   5
ATOM      5  C   UNL A   1      34.018  28.220  26.273  1.00  0.00     0.261 C 
BRANCH   5   6
ATOM      6  O   UNL A   1      33.884  28.097  24.855  1.00  0.00    -0.460 OA
BRANCH   6   7
ATOM      7  C   UNL A   1      33.398  26.908  24.422  1.00  0.00     0.338 C 
ATOM      8  O   UNL A   1      33.983  25.838  24.416  1.00  0.00    -0.246 OA
BRANCH   7   9
ATOM      9  C   UNL A   1      31.965  27.056  24.098  1.00  0.00     0.088 C 
ATOM     10  C   UNL A   1      29.788  29.401  22.207  1.00  0.00     0.061 A 
ATOM     11  C   UNL A   1      28.402  29.664  22.147  1.00  0.00     0.064 A 
ATOM     12  C   UNL A   1      30.224  28.312  22.999  1.00  0.00     0.042 A 
ATOM     13  Cl  UNL A   1      27.801  31.047  21.294  1.00  0.00    -0.082 Cl
ATOM     14  C   UNL A   1      27.473  28.821  22.759  1.00  0.00     0.026 A 
ATOM     15  C   UNL A   1      29.281  27.446  23.575  1.00  0.00     0.130 A 
ATOM     16  C   UNL A   1      31.635  28.085  23.306  1.00  0.00     0.029 C 
ATOM     17  C   UNL A   1      27.915  27.695  23.446  1.00  0.00     0.049 A 
ATOM     18  O   UNL A   1      29.596  26.325  24.289  1.00  0.00    -0.475 OA
ATOM     19  C   UNL A   1      30.977  26.069  24.649  1.00  0.00     0.316 C 
BRANCH  10  20
ATOM     20  N   UNL A   1      30.691  30.274  21.589  1.00  0.00    -0.397 N 
ATOM     21  H   UNL A   1      31.657  30.080  21.608  1.00  0.00     0.156 HD
ATOM     22  H   UNL A   1      30.362  31.084  21.136  1.00  0.00     0.156 HD
ENDBRANCH  10  20
BRANCH  19  23
ATOM     23  C   UNL A   1      31.062  25.953  26.178  1.00  0.00     0.430 C 
ATOM     24  F   UNL A   1      31.060  27.173  26.766  1.00  0.00    -0.167 F 
ATOM     25  F   UNL A   1      30.008  25.275  26.689  1.00  0.00    -0.167 F 
ATOM     26  F   UNL A   1      32.185  25.311  26.573  1.00  0.00    -0.167 F 
ENDBRANCH  19  23
ENDBRANCH   7   9
ENDBRANCH   6   7
ENDBRANCH   5   6
ENDBRANCH   4   5
ENDBRANCH   3   4
ENDBRANCH   2   3
ENDBRANCH   1   2
BRANCH   1  27
ATOM     27  O   UNL A   1      34.343  34.037  28.705  1.00  0.00    -0.376 OA
BRANCH  27  28
ATOM     28  C   UNL A   1      33.764  34.622  29.862  1.00  0.00     0.202 C 
BRANCH  28  29
ATOM     29  C   UNL A   1      34.329  34.404  31.277  1.00  0.00     0.261 C 
BRANCH  29  30
ATOM     30  O   UNL A   1      35.698  33.983  31.354  1.00  0.00    -0.460 OA
BRANCH  30  31
ATOM     31  C   UNL A   1      35.941  32.937  32.187  1.00  0.00     0.338 C 
ATOM     32  O   UNL A   1      35.345  32.640  33.204  1.00  0.00    -0.246 OA
BRANCH  31  33
ATOM     33  C   UNL A   1      36.964  32.068  31.574  1.00  0.00     0.060 A 
ATOM     34  C   UNL A   1      37.884  31.413  32.405  1.00  0.00     0.016 A 
ATOM     35  C   UNL A   1      37.041  31.944  30.189  1.00  0.00     0.016 A 
ATOM     36  C   UNL A   1      38.884  30.617  31.849  1.00  0.00     0.010 A 
ATOM     37  C   UNL A   1      38.070  31.181  29.630  1.00  0.00     0.010 A 
ATOM     38  C   UNL A   1      39.005  30.531  30.457  1.00  0.00    -0.014 A 
BRANCH  38  39
ATOM     39  C   UNL A   1      40.233  29.949  29.870  1.00  0.00     0.031 A 
ATOM     40  C   UNL A   1      41.425  30.846  29.690  1.00  0.00     0.074 A 
ATOM     41  C   UNL A   1      40.294  28.656  29.510  1.00  0.00     0.049 A 
ATOM     42  N   UNL A   1      42.591  30.585  29.159  1.00  0.00    -0.248 NA
ATOM     43  C   UNL A   1      41.279  32.228  30.180  1.00  0.00     0.031 C 
ATOM     44  C   UNL A   1      39.223  27.676  29.675  1.00  0.00     0.029 A 
ATOM     45  N   UNL A   1      41.309  27.951  28.913  1.00  0.00    -0.354 N 
ATOM     46  C   UNL A   1      43.318  31.765  29.253  1.00  0.00     0.074 A 
ATOM     47  C   UNL A   1      42.454  32.750  29.865  1.00  0.00     0.031 C 
ATOM     48  C   UNL A   1      39.631  26.499  29.167  1.00  0.00     0.029 A 
ATOM     49  C   UNL A   1      40.976  26.653  28.617  1.00  0.00     0.049 A 
ATOM     50  H   UNL A   1      42.192  28.340  28.717  1.00  0.00     0.167 HD
ATOM     51  C   UNL A   1      44.592  32.006  28.867  1.00  0.00     0.037 A 
ATOM     52  C   UNL A   1      41.673  25.712  27.948  1.00  0.00     0.037 A 
ATOM     53  C   UNL A   1      45.440  31.036  28.226  1.00  0.00     0.049 A 
ATOM     54  C   UNL A   1      43.049  26.042  27.428  1.00  0.00     0.074 A 
ATOM     55  C   UNL A   1      46.749  31.180  27.801  1.00  0.00     0.029 A 
ATOM     56  N   UNL A   1      45.051  29.746  27.900  1.00  0.00    -0.354 N 
ATOM     57  N   UNL A   1      43.745  27.146  27.553  1.00  0.00    -0.248 NA
ATOM     58  C   UNL A   1      43.738  24.987  26.668  1.00  0.00     0.031 C 
ATOM     59  C   UNL A   1      47.132  29.996  27.162  1.00  0.00     0.029 A 
ATOM     60  C   UNL A   1      46.084  29.094  27.246  1.00  0.00     0.049 A 
ATOM     61  H   UNL A   1      44.172  29.351  28.103  1.00  0.00     0.167 HD
ATOM     62  C   UNL A   1      44.961  26.908  26.921  1.00  0.00     0.074 A 
ATOM     63  C   UNL A   1      44.914  25.548  26.427  1.00  0.00     0.031 C 
ATOM     64  C   UNL A   1      46.022  27.737  26.762  1.00  0.00     0.037 A 
BRANCH  51  65
ATOM     65  C   UNL A   1      45.125  33.390  29.092  1.00  0.00     0.057 A 
ATOM     66  C   UNL A   1      45.813  33.706  30.271  1.00  0.00     0.134 A 
ATOM     67  C   UNL A   1      44.952  34.413  28.150  1.00  0.00     0.134 A 
ATOM     68  F   UNL A   1      46.013  32.773  31.214  1.00  0.00    -0.206 F 
ATOM     69  C   UNL A   1      46.309  34.989  30.504  1.00  0.00     0.040 A 
ATOM     70  C   UNL A   1      45.469  35.693  28.360  1.00  0.00     0.040 A 
ATOM     71  F   UNL A   1      44.319  34.171  26.992  1.00  0.00    -0.206 F 
ATOM     72  C   UNL A   1      46.144  35.985  29.543  1.00  0.00     0.006 A 
ENDBRANCH  51  65
BRANCH  52  73
ATOM     73  C   UNL A   1      41.083  24.371  27.696  1.00  0.00     0.057 A 
ATOM     74  C   UNL A   1      40.098  24.180  26.719  1.00  0.00     0.134 A 
ATOM     75  C   UNL A   1      41.544  23.236  28.375  1.00  0.00     0.134 A 
ATOM     76  F   UNL A   1      39.617  25.224  26.028  1.00  0.00    -0.206 F 
ATOM     77  C   UNL A   1      39.596  22.911  26.425  1.00  0.00     0.040 A 
ATOM     78  C   UNL A   1      41.071  21.959  28.072  1.00  0.00     0.040 A 
ATOM     79  F   UNL A   1      42.507  23.351  29.302  1.00  0.00    -0.206 F 
ATOM     80  C   UNL A   1      40.092  21.794  27.094  1.00  0.00     0.006 A 
ENDBRANCH  52  73
BRANCH  64  81
ATOM     81  C   UNL A   1      47.232  27.183  26.064  1.00  0.00     0.057 A 
ATOM     82  C   UNL A   1      48.236  26.529  26.790  1.00  0.00     0.134 A 
ATOM     83  C   UNL A   1      47.418  27.311  24.681  1.00  0.00     0.134 A 
ATOM     84  F   UNL A   1      48.129  26.379  28.119  1.00  0.00    -0.206 F 
ATOM     85  C   UNL A   1      49.378  26.023  26.167  1.00  0.00     0.040 A 
ATOM     86  C   UNL A   1      48.541  26.781  24.041  1.00  0.00     0.040 A 
ATOM     87  F   UNL A   1      46.489  27.915  23.923  1.00  0.00    -0.206 F 
ATOM     88  C   UNL A   1      49.527  26.139  24.787  1.00  0.00     0.006 A 
ENDBRANCH  64  81
ENDBRANCH  38  39
ENDBRANCH  31  33
ENDBRANCH  30  31
ENDBRANCH  29  30
ENDBRANCH  28  29
ENDBRANCH  27  28
ENDBRANCH   1  27
TORSDOF 19
ENDMDL
