MODEL 1
REMARK VINA RESULT:     -10.3      0.000      0.000
REMARK SMILES C[NH2+][C@]1(C(=O)OCCOCCOCCOC(=O)c2ccc(-c3c4nc(c(-c5c(F)cccc5F)c5ccc([nH]5)c(-c5c(F)cccc5F)c5nc(c(-c6c(F)cccc6F)c6ccc3[nH]6)C=C5)C=C4)cc2)CC[C@H](SC2CCCCC2)C1
REMARK SMILES IDX 10 1 9 2 8 3 7 4 6 5 4 6 5 7 3 8 72 9 82 10 73 11 74 12 2 13
REMARK SMILES IDX 1 14 75 17 76 18 77 19 81 20 78 21 80 22 79 23 11 24 12 25
REMARK SMILES IDX 13 26 14 27 15 28 16 29 17 30 18 31 19 32 71 33 20 34 70 35
REMARK SMILES IDX 21 36 22 37 23 38 64 39 24 40 69 41 63 42 65 43 25 44 68 45
REMARK SMILES IDX 62 46 61 47 26 49 52 50 35 51 51 52 36 53 39 54 50 55 66 56
REMARK SMILES IDX 37 57 38 58 49 60 67 61 40 62 27 63 28 64 33 65 29 66 30 67
REMARK SMILES IDX 32 68 34 69 31 70 53 71 54 72 59 73 55 74 56 75 58 76 60 77
REMARK SMILES IDX 57 78 41 79 42 80 47 81 43 82 44 83 46 84 48 85 45 86
REMARK H PARENT 2 15 2 16 65 48 39 59
REMARK Flexibility Score: inf
ROOT
ATOM      1  C   UNL A   1      39.221  21.779  26.077  1.00  0.00     0.188 C 
ENDROOT
BRANCH   1   2
ATOM      2  O   UNL A   1      38.137  21.546  25.191  1.00  0.00    -0.376 OA
BRANCH   2   3
ATOM      3  C   UNL A   1      36.813  21.805  25.642  1.00  0.00     0.202 C 
BRANCH   3   4
ATOM      4  C   UNL A   1      35.691  20.794  25.338  1.00  0.00     0.261 C 
BRANCH   4   5
ATOM      5  O   UNL A   1      34.739  21.202  24.332  1.00  0.00    -0.459 OA
BRANCH   5   6
ATOM      6  C   UNL A   1      33.532  21.658  24.775  1.00  0.00     0.368 C 
ATOM      7  O   UNL A   1      32.677  20.942  25.288  1.00  0.00    -0.245 OA
BRANCH   6   8
ATOM      8  C   UNL A   1      33.325  23.188  24.579  1.00  0.00     0.195 C 
ATOM      9  C   UNL A   1      33.682  24.147  25.725  1.00  0.00     0.082 C 
ATOM     10  C   UNL A   1      34.359  23.664  23.532  1.00  0.00     0.095 C 
ATOM     11  C   UNL A   1      33.923  25.496  25.059  1.00  0.00     0.022 C 
ATOM     12  C   UNL A   1      34.415  25.200  23.644  1.00  0.00     0.054 C 
BRANCH   8  13
ATOM     13  N   UNL A   1      31.967  23.477  24.039  1.00  0.00    -0.335 N 
ATOM     14  C   UNL A   1      30.888  23.575  25.002  1.00  0.00     0.331 C 
ATOM     15  H   UNL A   1      32.016  24.364  23.538  1.00  0.00     0.347 HD
ATOM     16  H   UNL A   1      31.734  22.671  23.458  1.00  0.00     0.347 HD
ENDBRANCH   8  13
BRANCH  12  17
ATOM     17  S   UNL A   1      33.384  25.989  22.339  1.00  0.00    -0.155 SA
BRANCH  17  18
ATOM     18  C   UNL A   1      32.209  27.047  23.279  1.00  0.00     0.047 C 
ATOM     19  C   UNL A   1      32.645  28.511  23.431  1.00  0.00     0.014 C 
ATOM     20  C   UNL A   1      30.781  26.934  22.744  1.00  0.00     0.014 C 
ATOM     21  C   UNL A   1      31.665  29.299  24.297  1.00  0.00     0.001 C 
ATOM     22  C   UNL A   1      29.808  27.738  23.608  1.00  0.00     0.001 C 
ATOM     23  C   UNL A   1      30.247  29.193  23.742  1.00  0.00     0.000 C 
ENDBRANCH  17  18
ENDBRANCH  12  17
ENDBRANCH   6   8
ENDBRANCH   5   6
ENDBRANCH   4   5
ENDBRANCH   3   4
ENDBRANCH   2   3
ENDBRANCH   1   2
BRANCH   1  24
ATOM     24  C   UNL A   1      40.192  20.632  26.379  1.00  0.00     0.188 C 
BRANCH  24  25
ATOM     25  O   UNL A   1      41.363  20.964  27.074  1.00  0.00    -0.376 OA
BRANCH  25  26
ATOM     26  C   UNL A   1      42.631  20.611  26.567  1.00  0.00     0.202 C 
BRANCH  26  27
ATOM     27  C   UNL A   1      43.386  21.386  25.471  1.00  0.00     0.261 C 
BRANCH  27  28
ATOM     28  O   UNL A   1      42.832  22.619  24.999  1.00  0.00    -0.460 OA
BRANCH  28  29
ATOM     29  C   UNL A   1      43.638  23.705  25.012  1.00  0.00     0.338 C 
ATOM     30  O   UNL A   1      44.602  23.914  24.294  1.00  0.00    -0.246 OA
BRANCH  29  31
ATOM     31  C   UNL A   1      43.032  24.710  25.918  1.00  0.00     0.060 A 
ATOM     32  C   UNL A   1      43.613  25.982  26.009  1.00  0.00     0.016 A 
ATOM     33  C   UNL A   1      41.897  24.402  26.671  1.00  0.00     0.016 A 
ATOM     34  C   UNL A   1      43.078  26.938  26.878  1.00  0.00     0.010 A 
ATOM     35  C   UNL A   1      41.376  25.352  27.556  1.00  0.00     0.010 A 
ATOM     36  C   UNL A   1      41.981  26.616  27.686  1.00  0.00    -0.014 A 
BRANCH  36  37
ATOM     37  C   UNL A   1      41.574  27.516  28.797  1.00  0.00     0.031 A 
ATOM     38  C   UNL A   1      42.326  27.434  30.099  1.00  0.00     0.074 A 
ATOM     39  C   UNL A   1      40.556  28.386  28.670  1.00  0.00     0.049 A 
ATOM     40  N   UNL A   1      42.108  28.058  31.229  1.00  0.00    -0.248 NA
ATOM     41  C   UNL A   1      43.479  26.521  30.127  1.00  0.00     0.031 C 
ATOM     42  C   UNL A   1      39.771  28.601  27.458  1.00  0.00     0.029 A 
ATOM     43  N   UNL A   1      40.000  29.243  29.590  1.00  0.00    -0.354 N 
ATOM     44  C   UNL A   1      43.093  27.611  32.101  1.00  0.00     0.074 A 
ATOM     45  C   UNL A   1      43.890  26.643  31.380  1.00  0.00     0.031 C 
ATOM     46  C   UNL A   1      38.819  29.518  27.714  1.00  0.00     0.029 A 
ATOM     47  C   UNL A   1      38.908  29.927  29.116  1.00  0.00     0.049 A 
ATOM     48  H   UNL A   1      40.352  29.354  30.503  1.00  0.00     0.167 HD
ATOM     49  C   UNL A   1      43.319  27.979  33.385  1.00  0.00     0.037 A 
ATOM     50  C   UNL A   1      38.061  30.766  29.748  1.00  0.00     0.037 A 
ATOM     51  C   UNL A   1      42.521  28.930  34.113  1.00  0.00     0.049 A 
ATOM     52  C   UNL A   1      38.276  31.087  31.207  1.00  0.00     0.074 A 
ATOM     53  C   UNL A   1      42.681  29.370  35.416  1.00  0.00     0.029 A 
ATOM     54  N   UNL A   1      41.404  29.576  33.607  1.00  0.00    -0.354 N 
ATOM     55  N   UNL A   1      39.225  30.682  32.016  1.00  0.00    -0.248 NA
ATOM     56  C   UNL A   1      37.298  31.986  31.841  1.00  0.00     0.031 C 
ATOM     57  C   UNL A   1      41.626  30.237  35.717  1.00  0.00     0.029 A 
ATOM     58  C   UNL A   1      40.846  30.388  34.582  1.00  0.00     0.049 A 
ATOM     59  H   UNL A   1      41.058  29.473  32.691  1.00  0.00     0.167 HD
ATOM     60  C   UNL A   1      38.981  31.304  33.236  1.00  0.00     0.074 A 
ATOM     61  C   UNL A   1      37.799  32.119  33.061  1.00  0.00     0.031 C 
ATOM     62  C   UNL A   1      39.675  31.208  34.398  1.00  0.00     0.037 A 
BRANCH  49  63
ATOM     63  C   UNL A   1      44.464  27.318  34.098  1.00  0.00     0.057 A 
ATOM     64  C   UNL A   1      44.315  26.094  34.765  1.00  0.00     0.134 A 
ATOM     65  C   UNL A   1      45.738  27.898  34.090  1.00  0.00     0.134 A 
ATOM     66  F   UNL A   1      43.118  25.492  34.822  1.00  0.00    -0.206 F 
ATOM     67  C   UNL A   1      45.386  25.487  35.422  1.00  0.00     0.040 A 
ATOM     68  C   UNL A   1      46.823  27.287  34.719  1.00  0.00     0.040 A 
ATOM     69  F   UNL A   1      45.951  29.067  33.466  1.00  0.00    -0.206 F 
ATOM     70  C   UNL A   1      46.647  26.080  35.393  1.00  0.00     0.006 A 
ENDBRANCH  49  63
BRANCH  50  71
ATOM     71  C   UNL A   1      36.908  31.356  29.019  1.00  0.00     0.057 A 
ATOM     72  C   UNL A   1      36.914  32.694  28.609  1.00  0.00     0.134 A 
ATOM     73  C   UNL A   1      35.753  30.609  28.756  1.00  0.00     0.134 A 
ATOM     74  F   UNL A   1      37.979  33.471  28.859  1.00  0.00    -0.206 F 
ATOM     75  C   UNL A   1      35.809  33.275  27.983  1.00  0.00     0.040 A 
ATOM     76  C   UNL A   1      34.651  31.168  28.106  1.00  0.00     0.040 A 
ATOM     77  F   UNL A   1      35.679  29.322  29.129  1.00  0.00    -0.206 F 
ATOM     78  C   UNL A   1      34.674  32.508  27.726  1.00  0.00     0.006 A 
ENDBRANCH  50  71
BRANCH  62  79
ATOM     79  C   UNL A   1      39.211  32.040  35.560  1.00  0.00     0.057 A 
ATOM     80  C   UNL A   1      38.393  31.521  36.572  1.00  0.00     0.134 A 
ATOM     81  C   UNL A   1      39.631  33.372  35.693  1.00  0.00     0.134 A 
ATOM     82  F   UNL A   1      37.946  30.258  36.503  1.00  0.00    -0.206 F 
ATOM     83  C   UNL A   1      37.990  32.301  37.659  1.00  0.00     0.040 A 
ATOM     84  C   UNL A   1      39.260  34.152  36.790  1.00  0.00     0.040 A 
ATOM     85  F   UNL A   1      40.426  33.931  34.769  1.00  0.00    -0.206 F 
ATOM     86  C   UNL A   1      38.431  33.617  37.774  1.00  0.00     0.006 A 
ENDBRANCH  62  79
ENDBRANCH  36  37
ENDBRANCH  29  31
ENDBRANCH  28  29
ENDBRANCH  27  28
ENDBRANCH  26  27
ENDBRANCH  25  26
ENDBRANCH  24  25
ENDBRANCH   1  24
TORSDOF 20
ENDMDL
MODEL 2
REMARK VINA RESULT:     -10.2      0.921      1.642
REMARK SMILES C[NH2+][C@]1(C(=O)OCCOCCOCCOC(=O)c2ccc(-c3c4nc(c(-c5c(F)cccc5F)c5ccc([nH]5)c(-c5c(F)cccc5F)c5nc(c(-c6c(F)cccc6F)c6ccc3[nH]6)C=C5)C=C4)cc2)CC[C@H](SC2CCCCC2)C1
REMARK SMILES IDX 10 1 9 2 8 3 7 4 6 5 4 6 5 7 3 8 72 9 82 10 73 11 74 12 2 13
REMARK SMILES IDX 1 14 75 17 76 18 77 19 81 20 78 21 80 22 79 23 11 24 12 25
REMARK SMILES IDX 13 26 14 27 15 28 16 29 17 30 18 31 19 32 71 33 20 34 70 35
REMARK SMILES IDX 21 36 22 37 23 38 64 39 24 40 69 41 63 42 65 43 25 44 68 45
REMARK SMILES IDX 62 46 61 47 26 49 52 50 35 51 51 52 36 53 39 54 50 55 66 56
REMARK SMILES IDX 37 57 38 58 49 60 67 61 40 62 27 63 28 64 33 65 29 66 30 67
REMARK SMILES IDX 32 68 34 69 31 70 53 71 54 72 59 73 55 74 56 75 58 76 60 77
REMARK SMILES IDX 57 78 41 79 42 80 47 81 43 82 44 83 46 84 48 85 45 86
REMARK H PARENT 2 15 2 16 65 48 39 59
REMARK Flexibility Score: inf
ROOT
ATOM      1  C   UNL A   1      40.137  21.342  26.482  1.00  0.00     0.188 C 
ENDROOT
BRANCH   1   2
ATOM      2  O   UNL A   1      38.997  22.032  25.997  1.00  0.00    -0.376 OA
BRANCH   2   3
ATOM      3  C   UNL A   1      37.975  21.294  25.337  1.00  0.00     0.202 C 
BRANCH   3   4
ATOM      4  C   UNL A   1      36.852  22.041  24.594  1.00  0.00     0.261 C 
BRANCH   4   5
ATOM      5  O   UNL A   1      35.569  22.055  25.256  1.00  0.00    -0.459 OA
BRANCH   5   6
ATOM      6  C   UNL A   1      34.504  22.499  24.529  1.00  0.00     0.368 C 
ATOM      7  O   UNL A   1      34.113  21.967  23.493  1.00  0.00    -0.245 OA
BRANCH   6   8
ATOM      8  C   UNL A   1      33.808  23.754  25.131  1.00  0.00     0.195 C 
ATOM      9  C   UNL A   1      34.641  25.014  25.409  1.00  0.00     0.082 C 
ATOM     10  C   UNL A   1      32.862  24.322  24.047  1.00  0.00     0.095 C 
ATOM     11  C   UNL A   1      33.641  26.163  25.419  1.00  0.00     0.022 C 
ATOM     12  C   UNL A   1      32.498  25.752  24.494  1.00  0.00     0.054 C 
BRANCH   8  13
ATOM     13  N   UNL A   1      32.975  23.387  26.310  1.00  0.00    -0.335 N 
ATOM     14  C   UNL A   1      31.979  22.352  26.111  1.00  0.00     0.331 C 
ATOM     15  H   UNL A   1      33.605  23.072  27.048  1.00  0.00     0.347 HD
ATOM     16  H   UNL A   1      32.444  24.229  26.534  1.00  0.00     0.347 HD
ENDBRANCH   8  13
BRANCH  12  17
ATOM     17  S   UNL A   1      30.853  25.778  25.319  1.00  0.00    -0.155 SA
BRANCH  17  18
ATOM     18  C   UNL A   1      30.025  27.261  24.613  1.00  0.00     0.047 C 
ATOM     19  C   UNL A   1      30.971  28.265  23.940  1.00  0.00     0.014 C 
ATOM     20  C   UNL A   1      28.855  26.886  23.701  1.00  0.00     0.014 C 
ATOM     21  C   UNL A   1      30.221  29.506  23.461  1.00  0.00     0.001 C 
ATOM     22  C   UNL A   1      28.119  28.135  23.214  1.00  0.00     0.001 C 
ATOM     23  C   UNL A   1      29.068  29.118  22.537  1.00  0.00     0.000 C 
ENDBRANCH  17  18
ENDBRANCH  12  17
ENDBRANCH   6   8
ENDBRANCH   5   6
ENDBRANCH   4   5
ENDBRANCH   3   4
ENDBRANCH   2   3
ENDBRANCH   1   2
BRANCH   1  24
ATOM     24  C   UNL A   1      40.405  19.914  25.991  1.00  0.00     0.188 C 
BRANCH  24  25
ATOM     25  O   UNL A   1      41.710  19.630  25.565  1.00  0.00    -0.376 OA
BRANCH  25  26
ATOM     26  C   UNL A   1      42.809  20.360  26.061  1.00  0.00     0.202 C 
BRANCH  26  27
ATOM     27  C   UNL A   1      43.604  21.406  25.257  1.00  0.00     0.261 C 
BRANCH  27  28
ATOM     28  O   UNL A   1      42.993  22.671  24.985  1.00  0.00    -0.460 OA
BRANCH  28  29
ATOM     29  C   UNL A   1      43.786  23.765  25.037  1.00  0.00     0.338 C 
ATOM     30  O   UNL A   1      44.757  24.005  24.337  1.00  0.00    -0.246 OA
BRANCH  29  31
ATOM     31  C   UNL A   1      43.157  24.739  25.961  1.00  0.00     0.060 A 
ATOM     32  C   UNL A   1      43.594  26.071  25.947  1.00  0.00     0.016 A 
ATOM     33  C   UNL A   1      42.142  24.344  26.834  1.00  0.00     0.016 A 
ATOM     34  C   UNL A   1      43.038  27.003  26.828  1.00  0.00     0.010 A 
ATOM     35  C   UNL A   1      41.601  25.272  27.731  1.00  0.00     0.010 A 
ATOM     36  C   UNL A   1      42.066  26.600  27.754  1.00  0.00    -0.014 A 
BRANCH  36  37
ATOM     37  C   UNL A   1      41.666  27.502  28.865  1.00  0.00     0.031 A 
ATOM     38  C   UNL A   1      42.435  27.433  30.158  1.00  0.00     0.074 A 
ATOM     39  C   UNL A   1      40.639  28.363  28.747  1.00  0.00     0.049 A 
ATOM     40  N   UNL A   1      42.226  28.060  31.287  1.00  0.00    -0.248 NA
ATOM     41  C   UNL A   1      43.596  26.529  30.175  1.00  0.00     0.031 C 
ATOM     42  C   UNL A   1      39.837  28.566  27.544  1.00  0.00     0.029 A 
ATOM     43  N   UNL A   1      40.087  29.219  29.670  1.00  0.00    -0.354 N 
ATOM     44  C   UNL A   1      43.226  27.626  32.149  1.00  0.00     0.074 A 
ATOM     45  C   UNL A   1      44.021  26.661  31.423  1.00  0.00     0.031 C 
ATOM     46  C   UNL A   1      38.881  29.476  27.808  1.00  0.00     0.029 A 
ATOM     47  C   UNL A   1      38.983  29.892  29.206  1.00  0.00     0.049 A 
ATOM     48  H   UNL A   1      40.450  29.338  30.577  1.00  0.00     0.167 HD
ATOM     49  C   UNL A   1      43.464  28.001  33.429  1.00  0.00     0.037 A 
ATOM     50  C   UNL A   1      38.138  30.727  29.845  1.00  0.00     0.037 A 
ATOM     51  C   UNL A   1      42.667  28.949  34.162  1.00  0.00     0.049 A 
ATOM     52  C   UNL A   1      38.368  31.057  31.300  1.00  0.00     0.074 A 
ATOM     53  C   UNL A   1      42.840  29.397  35.461  1.00  0.00     0.029 A 
ATOM     54  N   UNL A   1      41.539  29.584  33.668  1.00  0.00    -0.354 N 
ATOM     55  N   UNL A   1      39.331  30.664  32.099  1.00  0.00    -0.248 NA
ATOM     56  C   UNL A   1      37.391  31.950  31.942  1.00  0.00     0.031 C 
ATOM     57  C   UNL A   1      41.781  30.257  35.771  1.00  0.00     0.029 A 
ATOM     58  C   UNL A   1      40.986  30.395  34.645  1.00  0.00     0.049 A 
ATOM     59  H   UNL A   1      41.182  29.473  32.756  1.00  0.00     0.167 HD
ATOM     60  C   UNL A   1      39.096  31.289  33.319  1.00  0.00     0.074 A 
ATOM     61  C   UNL A   1      37.906  32.094  33.155  1.00  0.00     0.031 C 
ATOM     62  C   UNL A   1      39.806  31.205  34.472  1.00  0.00     0.037 A 
BRANCH  49  63
ATOM     63  C   UNL A   1      44.623  27.353  34.130  1.00  0.00     0.057 A 
ATOM     64  C   UNL A   1      44.479  26.167  34.862  1.00  0.00     0.134 A 
ATOM     65  C   UNL A   1      45.907  27.907  34.046  1.00  0.00     0.134 A 
ATOM     66  F   UNL A   1      43.274  25.592  34.994  1.00  0.00    -0.206 F 
ATOM     67  C   UNL A   1      45.562  25.571  35.508  1.00  0.00     0.040 A 
ATOM     68  C   UNL A   1      47.004  27.306  34.663  1.00  0.00     0.040 A 
ATOM     69  F   UNL A   1      46.117  29.039  33.357  1.00  0.00    -0.206 F 
ATOM     70  C   UNL A   1      46.832  26.137  35.403  1.00  0.00     0.006 A 
ENDBRANCH  49  63
BRANCH  50  71
ATOM     71  C   UNL A   1      36.971  31.304  29.128  1.00  0.00     0.057 A 
ATOM     72  C   UNL A   1      35.829  30.539  28.863  1.00  0.00     0.134 A 
ATOM     73  C   UNL A   1      36.987  32.621  28.650  1.00  0.00     0.134 A 
ATOM     74  F   UNL A   1      35.764  29.261  29.267  1.00  0.00    -0.206 F 
ATOM     75  C   UNL A   1      34.756  31.052  28.131  1.00  0.00     0.040 A 
ATOM     76  C   UNL A   1      35.910  33.156  27.942  1.00  0.00     0.040 A 
ATOM     77  F   UNL A   1      38.053  33.406  28.864  1.00  0.00    -0.206 F 
ATOM     78  C   UNL A   1      34.793  32.368  27.673  1.00  0.00     0.006 A 
ENDBRANCH  50  71
BRANCH  62  79
ATOM     79  C   UNL A   1      39.349  32.039  35.637  1.00  0.00     0.057 A 
ATOM     80  C   UNL A   1      39.771  33.362  35.819  1.00  0.00     0.134 A 
ATOM     81  C   UNL A   1      38.432  31.522  36.564  1.00  0.00     0.134 A 
ATOM     82  F   UNL A   1      40.654  33.916  34.976  1.00  0.00    -0.206 F 
ATOM     83  C   UNL A   1      39.317  34.132  36.893  1.00  0.00     0.040 A 
ATOM     84  C   UNL A   1      37.949  32.292  37.623  1.00  0.00     0.040 A 
ATOM     85  F   UNL A   1      37.976  30.266  36.444  1.00  0.00    -0.206 F 
ATOM     86  C   UNL A   1      38.397  33.599  37.793  1.00  0.00     0.006 A 
ENDBRANCH  62  79
ENDBRANCH  36  37
ENDBRANCH  29  31
ENDBRANCH  28  29
ENDBRANCH  27  28
ENDBRANCH  26  27
ENDBRANCH  25  26
ENDBRANCH  24  25
ENDBRANCH   1  24
TORSDOF 20
ENDMDL
MODEL 3
REMARK VINA RESULT:     -10.0      1.906      3.687
REMARK SMILES C[NH2+][C@]1(C(=O)OCCOCCOCCOC(=O)c2ccc(-c3c4nc(c(-c5c(F)cccc5F)c5ccc([nH]5)c(-c5c(F)cccc5F)c5nc(c(-c6c(F)cccc6F)c6ccc3[nH]6)C=C5)C=C4)cc2)CC[C@H](SC2CCCCC2)C1
REMARK SMILES IDX 10 1 9 2 8 3 7 4 6 5 4 6 5 7 3 8 72 9 82 10 73 11 74 12 2 13
REMARK SMILES IDX 1 14 75 17 76 18 77 19 81 20 78 21 80 22 79 23 11 24 12 25
REMARK SMILES IDX 13 26 14 27 15 28 16 29 17 30 18 31 19 32 71 33 20 34 70 35
REMARK SMILES IDX 21 36 22 37 23 38 64 39 24 40 69 41 63 42 65 43 25 44 68 45
REMARK SMILES IDX 62 46 61 47 26 49 52 50 35 51 51 52 36 53 39 54 50 55 66 56
REMARK SMILES IDX 37 57 38 58 49 60 67 61 40 62 27 63 28 64 33 65 29 66 30 67
REMARK SMILES IDX 32 68 34 69 31 70 53 71 54 72 59 73 55 74 56 75 58 76 60 77
REMARK SMILES IDX 57 78 41 79 42 80 47 81 43 82 44 83 46 84 48 85 45 86
REMARK H PARENT 2 15 2 16 65 48 39 59
REMARK Flexibility Score: inf
ROOT
ATOM      1  C   UNL A   1      39.870  21.382  26.385  1.00  0.00     0.188 C 
ENDROOT
BRANCH   1   2
ATOM      2  O   UNL A   1      38.604  21.815  25.911  1.00  0.00    -0.376 OA
BRANCH   2   3
ATOM      3  C   UNL A   1      38.337  23.211  25.839  1.00  0.00     0.202 C 
BRANCH   3   4
ATOM      4  C   UNL A   1      36.890  23.720  25.979  1.00  0.00     0.261 C 
BRANCH   4   5
ATOM      5  O   UNL A   1      36.101  23.695  24.771  1.00  0.00    -0.459 OA
BRANCH   5   6
ATOM      6  C   UNL A   1      34.874  24.288  24.823  1.00  0.00     0.368 C 
ATOM      7  O   UNL A   1      34.701  25.484  25.042  1.00  0.00    -0.245 OA
BRANCH   6   8
ATOM      8  C   UNL A   1      33.689  23.311  24.571  1.00  0.00     0.195 C 
ATOM      9  C   UNL A   1      32.897  23.415  23.260  1.00  0.00     0.082 C 
ATOM     10  C   UNL A   1      34.288  21.898  24.383  1.00  0.00     0.095 C 
ATOM     11  C   UNL A   1      32.256  22.046  23.068  1.00  0.00     0.022 C 
ATOM     12  C   UNL A   1      33.178  21.037  23.750  1.00  0.00     0.054 C 
BRANCH   8  13
ATOM     13  N   UNL A   1      32.779  23.264  25.749  1.00  0.00    -0.335 N 
ATOM     14  C   UNL A   1      33.383  22.951  27.030  1.00  0.00     0.331 C 
ATOM     15  H   UNL A   1      32.333  24.177  25.832  1.00  0.00     0.347 HD
ATOM     16  H   UNL A   1      32.138  22.492  25.560  1.00  0.00     0.347 HD
ENDBRANCH   8  13
BRANCH  12  17
ATOM     17  S   UNL A   1      32.325  20.026  25.030  1.00  0.00    -0.155 SA
BRANCH  17  18
ATOM     18  C   UNL A   1      32.907  18.312  24.705  1.00  0.00     0.047 C 
ATOM     19  C   UNL A   1      34.394  18.197  24.347  1.00  0.00     0.014 C 
ATOM     20  C   UNL A   1      32.519  17.351  25.831  1.00  0.00     0.014 C 
ATOM     21  C   UNL A   1      34.777  16.758  24.005  1.00  0.00     0.001 C 
ATOM     22  C   UNL A   1      32.919  15.916  25.486  1.00  0.00     0.001 C 
ATOM     23  C   UNL A   1      34.402  15.813  25.143  1.00  0.00     0.000 C 
ENDBRANCH  17  18
ENDBRANCH  12  17
ENDBRANCH   6   8
ENDBRANCH   5   6
ENDBRANCH   4   5
ENDBRANCH   3   4
ENDBRANCH   2   3
ENDBRANCH   1   2
BRANCH   1  24
ATOM     24  C   UNL A   1      40.297  19.930  26.139  1.00  0.00     0.188 C 
BRANCH  24  25
ATOM     25  O   UNL A   1      41.665  19.702  25.939  1.00  0.00    -0.376 OA
BRANCH  25  26
ATOM     26  C   UNL A   1      42.626  20.642  26.364  1.00  0.00     0.202 C 
BRANCH  26  27
ATOM     27  C   UNL A   1      43.354  21.635  25.439  1.00  0.00     0.261 C 
BRANCH  27  28
ATOM     28  O   UNL A   1      42.797  22.941  25.261  1.00  0.00    -0.460 OA
BRANCH  28  29
ATOM     29  C   UNL A   1      43.655  23.986  25.260  1.00  0.00     0.338 C 
ATOM     30  O   UNL A   1      44.427  24.303  24.369  1.00  0.00    -0.246 OA
BRANCH  29  31
ATOM     31  C   UNL A   1      43.362  24.817  26.451  1.00  0.00     0.060 A 
ATOM     32  C   UNL A   1      42.381  24.389  27.355  1.00  0.00     0.016 A 
ATOM     33  C   UNL A   1      44.051  26.011  26.677  1.00  0.00     0.016 A 
ATOM     34  C   UNL A   1      42.065  25.170  28.472  1.00  0.00     0.010 A 
ATOM     35  C   UNL A   1      43.719  26.802  27.782  1.00  0.00     0.010 A 
ATOM     36  C   UNL A   1      42.703  26.401  28.670  1.00  0.00    -0.014 A 
BRANCH  36  37
ATOM     37  C   UNL A   1      42.194  27.357  29.687  1.00  0.00     0.031 A 
ATOM     38  C   UNL A   1      42.839  27.370  31.048  1.00  0.00     0.074 A 
ATOM     39  C   UNL A   1      41.175  28.197  29.426  1.00  0.00     0.049 A 
ATOM     40  N   UNL A   1      42.520  28.056  32.116  1.00  0.00    -0.248 NA
ATOM     41  C   UNL A   1      44.000  26.484  31.224  1.00  0.00     0.031 C 
ATOM     42  C   UNL A   1      40.488  28.322  28.144  1.00  0.00     0.029 A 
ATOM     43  N   UNL A   1      40.533  29.095  30.244  1.00  0.00    -0.354 N 
ATOM     44  C   UNL A   1      43.438  27.683  33.090  1.00  0.00     0.074 A 
ATOM     45  C   UNL A   1      44.305  26.690  32.496  1.00  0.00     0.031 C 
ATOM     46  C   UNL A   1      39.504  29.233  28.266  1.00  0.00     0.029 A 
ATOM     47  C   UNL A   1      39.472  29.727  29.643  1.00  0.00     0.049 A 
ATOM     48  H   UNL A   1      40.808  29.269  31.173  1.00  0.00     0.167 HD
ATOM     49  C   UNL A   1      43.553  28.132  34.363  1.00  0.00     0.037 A 
ATOM     50  C   UNL A   1      38.564  30.585  30.152  1.00  0.00     0.037 A 
ATOM     51  C   UNL A   1      42.683  29.108  34.964  1.00  0.00     0.049 A 
ATOM     52  C   UNL A   1      38.654  30.997  31.601  1.00  0.00     0.074 A 
ATOM     53  C   UNL A   1      42.729  29.629  36.246  1.00  0.00     0.029 A 
ATOM     54  N   UNL A   1      41.601  29.699  34.333  1.00  0.00    -0.354 N 
ATOM     55  N   UNL A   1      39.541  30.661  32.507  1.00  0.00    -0.248 NA
ATOM     56  C   UNL A   1      37.614  31.912  32.098  1.00  0.00     0.031 C 
ATOM     57  C   UNL A   1      41.640  30.490  36.409  1.00  0.00     0.029 A 
ATOM     58  C   UNL A   1      40.953  30.556  35.207  1.00  0.00     0.049 A 
ATOM     59  H   UNL A   1      41.332  29.534  33.400  1.00  0.00     0.167 HD
ATOM     60  C   UNL A   1      39.188  31.350  33.663  1.00  0.00     0.074 A 
ATOM     61  C   UNL A   1      38.012  32.129  33.344  1.00  0.00     0.031 C 
ATOM     62  C   UNL A   1      39.788  31.339  34.880  1.00  0.00     0.037 A 
BRANCH  49  63
ATOM     63  C   UNL A   1      44.646  27.539  35.205  1.00  0.00     0.057 A 
ATOM     64  C   UNL A   1      45.904  28.145  35.322  1.00  0.00     0.134 A 
ATOM     65  C   UNL A   1      44.426  26.362  35.931  1.00  0.00     0.134 A 
ATOM     66  F   UNL A   1      46.184  29.266  34.641  1.00  0.00    -0.206 F 
ATOM     67  C   UNL A   1      46.913  27.587  36.109  1.00  0.00     0.040 A 
ATOM     68  C   UNL A   1      45.417  25.810  36.744  1.00  0.00     0.040 A 
ATOM     69  F   UNL A   1      43.243  25.732  35.869  1.00  0.00    -0.206 F 
ATOM     70  C   UNL A   1      46.667  26.419  36.829  1.00  0.00     0.006 A 
ENDBRANCH  49  63
BRANCH  50  71
ATOM     71  C   UNL A   1      37.464  31.106  29.298  1.00  0.00     0.057 A 
ATOM     72  C   UNL A   1      37.473  32.422  28.823  1.00  0.00     0.134 A 
ATOM     73  C   UNL A   1      36.355  30.314  28.975  1.00  0.00     0.134 A 
ATOM     74  F   UNL A   1      38.493  33.241  29.124  1.00  0.00    -0.206 F 
ATOM     75  C   UNL A   1      36.412  32.940  28.077  1.00  0.00     0.040 A 
ATOM     76  C   UNL A   1      35.300  30.809  28.206  1.00  0.00     0.040 A 
ATOM     77  F   UNL A   1      36.280  29.045  29.404  1.00  0.00    -0.206 F 
ATOM     78  C   UNL A   1      35.324  32.129  27.762  1.00  0.00     0.006 A 
ENDBRANCH  50  71
BRANCH  62  79
ATOM     79  C   UNL A   1      39.217  32.230  35.948  1.00  0.00     0.057 A 
ATOM     80  C   UNL A   1      38.274  31.772  36.878  1.00  0.00     0.134 A 
ATOM     81  C   UNL A   1      39.657  33.555  36.077  1.00  0.00     0.134 A 
ATOM     82  F   UNL A   1      37.802  30.519  36.806  1.00  0.00    -0.206 F 
ATOM     83  C   UNL A   1      37.772  32.606  37.880  1.00  0.00     0.040 A 
ATOM     84  C   UNL A   1      39.185  34.389  37.093  1.00  0.00     0.040 A 
ATOM     85  F   UNL A   1      40.568  34.057  35.230  1.00  0.00    -0.206 F 
ATOM     86  C   UNL A   1      38.235  33.916  37.994  1.00  0.00     0.006 A 
ENDBRANCH  62  79
ENDBRANCH  36  37
ENDBRANCH  29  31
ENDBRANCH  28  29
ENDBRANCH  27  28
ENDBRANCH  26  27
ENDBRANCH  25  26
ENDBRANCH  24  25
ENDBRANCH   1  24
TORSDOF 20
ENDMDL
