MODEL 1
REMARK VINA RESULT:     -12.0      0.000      0.000
REMARK SMILES Cc1ccc(C(=O)N2CCC3(CCC(=O)N(CC(=O)OCCOCCOCCOC(=O)c4ccc(-c5c6nc(c(-c7c(F)cccc7F)c7ccc([nH]7)c(-c7c(F)cccc7F)c7nc(c(-c8c(F)cccc8F)c8ccc5[nH]8)C=C7)C=C6)cc4)C3)CC2)cc1O
REMARK SMILES IDX 24 1 23 2 22 3 21 4 20 5 18 6 19 7 17 8 16 9 6 10 7 11 8 12
REMARK SMILES IDX 9 13 88 14 10 15 87 16 11 17 12 18 86 19 13 20 14 21 15 22
REMARK SMILES IDX 5 23 1 24 2 25 3 26 90 27 4 28 89 29 91 30 25 32 26 33 27 34
REMARK SMILES IDX 28 35 29 36 30 37 31 38 32 39 33 40 85 41 34 42 84 43 35 44
REMARK SMILES IDX 36 45 37 46 78 47 38 48 83 49 77 50 79 51 39 52 82 53 76 54
REMARK SMILES IDX 75 55 40 57 66 58 49 59 65 60 50 61 53 62 64 63 80 64 51 65
REMARK SMILES IDX 52 66 63 68 81 69 54 70 41 71 42 72 47 73 43 74 44 75 46 76
REMARK SMILES IDX 48 77 45 78 67 79 68 80 73 81 69 82 70 83 72 84 74 85 71 86
REMARK SMILES IDX 55 87 56 88 61 89 57 90 58 91 60 92 62 93 59 94
REMARK H PARENT 91 31 79 56 53 67
REMARK Flexibility Score: inf
ROOT
ATOM      1  C   UNL A   1      34.295  32.893  28.004  1.00  0.00     0.188 C 
ENDROOT
BRANCH   1   2
ATOM      2  O   UNL A   1      33.742  31.589  28.131  1.00  0.00    -0.376 OA
BRANCH   2   3
ATOM      3  C   UNL A   1      34.202  30.554  27.269  1.00  0.00     0.202 C 
BRANCH   3   4
ATOM      4  C   UNL A   1      33.367  29.265  27.255  1.00  0.00     0.261 C 
BRANCH   4   5
ATOM      5  O   UNL A   1      31.985  29.435  26.844  1.00  0.00    -0.462 OA
BRANCH   5   6
ATOM      6  C   UNL A   1      31.770  30.110  25.686  1.00  0.00     0.325 C 
ATOM      7  O   UNL A   1      31.116  31.148  25.614  1.00  0.00    -0.250 OA
BRANCH   6   8
ATOM      8  C   UNL A   1      32.527  29.581  24.443  1.00  0.00     0.242 C 
BRANCH   8   9
ATOM      9  N   UNL A   1      31.938  28.745  23.384  1.00  0.00    -0.331 N 
ATOM     10  C   UNL A   1      31.280  22.971  26.360  1.00  0.00     0.253 C 
ATOM     11  O   UNL A   1      30.656  22.807  27.407  1.00  0.00    -0.269 OA
ATOM     12  N   UNL A   1      30.961  23.981  25.465  1.00  0.00    -0.339 N 
ATOM     13  C   UNL A   1      30.502  25.245  26.002  1.00  0.00     0.120 C 
ATOM     14  C   UNL A   1      30.867  23.813  24.019  1.00  0.00     0.120 C 
ATOM     15  C   UNL A   1      31.347  26.354  25.381  1.00  0.00     0.030 C 
ATOM     16  C   UNL A   1      31.587  24.941  23.276  1.00  0.00     0.030 C 
ATOM     17  C   UNL A   1      31.270  26.356  23.829  1.00  0.00    -0.008 C 
ATOM     18  C   UNL A   1      29.845  26.761  23.358  1.00  0.00     0.019 C 
ATOM     19  C   UNL A   1      32.329  27.351  23.250  1.00  0.00     0.127 C 
ATOM     20  C   UNL A   1      29.584  28.237  23.602  1.00  0.00     0.101 C 
ATOM     21  C   UNL A   1      30.674  28.982  22.874  1.00  0.00     0.223 C 
ATOM     22  O   UNL A   1      30.491  29.484  21.775  1.00  0.00    -0.275 OA
BRANCH  10  23
ATOM     23  C   UNL A   1      32.539  22.205  26.140  1.00  0.00     0.043 A 
ATOM     24  C   UNL A   1      36.254  20.315  25.001  1.00  0.00     0.048 C 
ATOM     25  C   UNL A   1      34.979  20.976  25.433  1.00  0.00    -0.009 A 
ATOM     26  C   UNL A   1      33.761  20.416  25.037  1.00  0.00     0.008 A 
ATOM     27  C   UNL A   1      34.954  22.164  26.176  1.00  0.00     0.119 A 
ATOM     28  C   UNL A   1      32.560  21.041  25.365  1.00  0.00     0.014 A 
ATOM     29  C   UNL A   1      33.751  22.768  26.542  1.00  0.00     0.060 A 
BRANCH  27  30
ATOM     30  O   UNL A   1      36.092  22.818  26.552  1.00  0.00    -0.508 OA
ATOM     31  H   UNL A   1      36.931  22.452  26.351  1.00  0.00     0.293 HD
ENDBRANCH  27  30
ENDBRANCH  10  23
ENDBRANCH   8   9
ENDBRANCH   6   8
ENDBRANCH   5   6
ENDBRANCH   4   5
ENDBRANCH   3   4
ENDBRANCH   2   3
ENDBRANCH   1   2
BRANCH   1  32
ATOM     32  C   UNL A   1      33.530  34.083  28.575  1.00  0.00     0.188 C 
BRANCH  32  33
ATOM     33  O   UNL A   1      34.301  34.831  29.499  1.00  0.00    -0.376 OA
BRANCH  33  34
ATOM     34  C   UNL A   1      33.604  35.184  30.688  1.00  0.00     0.202 C 
BRANCH  34  35
ATOM     35  C   UNL A   1      34.294  34.485  31.855  1.00  0.00     0.261 C 
BRANCH  35  36
ATOM     36  O   UNL A   1      35.414  33.673  31.433  1.00  0.00    -0.460 OA
BRANCH  36  37
ATOM     37  C   UNL A   1      35.870  32.774  32.329  1.00  0.00     0.338 C 
ATOM     38  O   UNL A   1      35.425  32.556  33.452  1.00  0.00    -0.246 OA
BRANCH  37  39
ATOM     39  C   UNL A   1      36.896  31.926  31.685  1.00  0.00     0.060 A 
ATOM     40  C   UNL A   1      37.826  31.262  32.495  1.00  0.00     0.016 A 
ATOM     41  C   UNL A   1      36.964  31.796  30.298  1.00  0.00     0.016 A 
ATOM     42  C   UNL A   1      38.859  30.514  31.928  1.00  0.00     0.010 A 
ATOM     43  C   UNL A   1      38.006  31.056  29.727  1.00  0.00     0.010 A 
ATOM     44  C   UNL A   1      38.981  30.443  30.537  1.00  0.00    -0.014 A 
BRANCH  44  45
ATOM     45  C   UNL A   1      40.215  29.887  29.923  1.00  0.00     0.031 A 
ATOM     46  C   UNL A   1      41.390  30.804  29.717  1.00  0.00     0.074 A 
ATOM     47  C   UNL A   1      40.301  28.594  29.560  1.00  0.00     0.049 A 
ATOM     48  N   UNL A   1      42.530  30.575  29.116  1.00  0.00    -0.248 NA
ATOM     49  C   UNL A   1      41.261  32.168  30.260  1.00  0.00     0.031 C 
ATOM     50  C   UNL A   1      39.256  27.589  29.743  1.00  0.00     0.029 A 
ATOM     51  N   UNL A   1      41.320  27.911  28.939  1.00  0.00    -0.354 N 
ATOM     52  C   UNL A   1      43.240  31.766  29.187  1.00  0.00     0.074 A 
ATOM     53  C   UNL A   1      42.401  32.723  29.875  1.00  0.00     0.031 C 
ATOM     54  C   UNL A   1      39.678  26.422  29.224  1.00  0.00     0.029 A 
ATOM     55  C   UNL A   1      41.005  26.608  28.638  1.00  0.00     0.049 A 
ATOM     56  H   UNL A   1      42.192  28.318  28.731  1.00  0.00     0.167 HD
ATOM     57  C   UNL A   1      44.483  32.040  28.723  1.00  0.00     0.037 A 
ATOM     58  C   UNL A   1      41.695  25.684  27.938  1.00  0.00     0.037 A 
ATOM     59  C   UNL A   1      45.328  31.086  28.057  1.00  0.00     0.049 A 
ATOM     60  C   UNL A   1      43.052  26.035  27.379  1.00  0.00     0.074 A 
ATOM     61  C   UNL A   1      46.617  31.263  27.584  1.00  0.00     0.029 A 
ATOM     62  N   UNL A   1      44.969  29.781  27.762  1.00  0.00    -0.354 N 
ATOM     63  N   UNL A   1      43.727  27.154  27.477  1.00  0.00    -0.248 NA
ATOM     64  C   UNL A   1      43.745  24.988  26.610  1.00  0.00     0.031 C 
ATOM     65  C   UNL A   1      47.017  30.082  26.954  1.00  0.00     0.029 A 
ATOM     66  C   UNL A   1      46.001  29.150  27.088  1.00  0.00     0.049 A 
ATOM     67  H   UNL A   1      44.108  29.364  27.998  1.00  0.00     0.167 HD
ATOM     68  C   UNL A   1      44.932  26.935  26.818  1.00  0.00     0.074 A 
ATOM     69  C   UNL A   1      44.902  25.572  26.335  1.00  0.00     0.031 C 
ATOM     70  C   UNL A   1      45.969  27.786  26.630  1.00  0.00     0.037 A 
BRANCH  57  71
ATOM     71  C   UNL A   1      45.004  33.436  28.894  1.00  0.00     0.057 A 
ATOM     72  C   UNL A   1      45.726  33.826  30.029  1.00  0.00     0.134 A 
ATOM     73  C   UNL A   1      44.842  34.380  27.873  1.00  0.00     0.134 A 
ATOM     74  F   UNL A   1      45.904  32.973  31.048  1.00  0.00    -0.206 F 
ATOM     75  C   UNL A   1      46.263  35.110  30.144  1.00  0.00     0.040 A 
ATOM     76  C   UNL A   1      45.395  35.658  27.965  1.00  0.00     0.040 A 
ATOM     77  F   UNL A   1      44.164  34.068  26.758  1.00  0.00    -0.206 F 
ATOM     78  C   UNL A   1      46.106  36.026  29.104  1.00  0.00     0.006 A 
ENDBRANCH  57  71
BRANCH  58  79
ATOM     79  C   UNL A   1      41.110  24.342  27.680  1.00  0.00     0.057 A 
ATOM     80  C   UNL A   1      41.561  23.206  28.363  1.00  0.00     0.134 A 
ATOM     81  C   UNL A   1      40.130  24.153  26.697  1.00  0.00     0.134 A 
ATOM     82  F   UNL A   1      42.518  23.315  29.296  1.00  0.00    -0.206 F 
ATOM     83  C   UNL A   1      41.085  21.929  28.056  1.00  0.00     0.040 A 
ATOM     84  C   UNL A   1      39.623  22.887  26.401  1.00  0.00     0.040 A 
ATOM     85  F   UNL A   1      39.656  25.199  26.004  1.00  0.00    -0.206 F 
ATOM     86  C   UNL A   1      40.110  21.769  27.074  1.00  0.00     0.006 A 
ENDBRANCH  58  79
BRANCH  70  87
ATOM     87  C   UNL A   1      47.183  27.258  25.919  1.00  0.00     0.057 A 
ATOM     88  C   UNL A   1      48.202  26.574  26.593  1.00  0.00     0.134 A 
ATOM     89  C   UNL A   1      47.309  27.396  24.530  1.00  0.00     0.134 A 
ATOM     90  F   UNL A   1      48.150  26.415  27.925  1.00  0.00    -0.206 F 
ATOM     91  C   UNL A   1      49.314  26.068  25.916  1.00  0.00     0.040 A 
ATOM     92  C   UNL A   1      48.400  26.869  23.838  1.00  0.00     0.040 A 
ATOM     93  F   UNL A   1      46.363  28.029  23.820  1.00  0.00    -0.206 F 
ATOM     94  C   UNL A   1      49.410  26.208  24.533  1.00  0.00     0.006 A 
ENDBRANCH  70  87
ENDBRANCH  44  45
ENDBRANCH  37  39
ENDBRANCH  36  37
ENDBRANCH  35  36
ENDBRANCH  34  35
ENDBRANCH  33  34
ENDBRANCH  32  33
ENDBRANCH   1  32
TORSDOF 20
ENDMDL
MODEL 2
REMARK VINA RESULT:     -11.9      4.050     10.072
REMARK SMILES Cc1ccc(C(=O)N2CCC3(CCC(=O)N(CC(=O)OCCOCCOCCOC(=O)c4ccc(-c5c6nc(c(-c7c(F)cccc7F)c7ccc([nH]7)c(-c7c(F)cccc7F)c7nc(c(-c8c(F)cccc8F)c8ccc5[nH]8)C=C7)C=C6)cc4)C3)CC2)cc1O
REMARK SMILES IDX 24 1 23 2 22 3 21 4 20 5 18 6 19 7 17 8 16 9 6 10 7 11 8 12
REMARK SMILES IDX 9 13 88 14 10 15 87 16 11 17 12 18 86 19 13 20 14 21 15 22
REMARK SMILES IDX 5 23 1 24 2 25 3 26 90 27 4 28 89 29 91 30 25 32 26 33 27 34
REMARK SMILES IDX 28 35 29 36 30 37 31 38 32 39 33 40 85 41 34 42 84 43 35 44
REMARK SMILES IDX 36 45 37 46 78 47 38 48 83 49 77 50 79 51 39 52 82 53 76 54
REMARK SMILES IDX 75 55 40 57 66 58 49 59 65 60 50 61 53 62 64 63 80 64 51 65
REMARK SMILES IDX 52 66 63 68 81 69 54 70 41 71 42 72 47 73 43 74 44 75 46 76
REMARK SMILES IDX 48 77 45 78 67 79 68 80 73 81 69 82 70 83 72 84 74 85 71 86
REMARK SMILES IDX 55 87 56 88 61 89 57 90 58 91 60 92 62 93 59 94
REMARK H PARENT 91 31 79 56 53 67
REMARK Flexibility Score: inf
ROOT
ATOM      1  C   UNL A   1      41.425  20.395  26.701  1.00  0.00     0.188 C 
ENDROOT
BRANCH   1   2
ATOM      2  O   UNL A   1      40.454  21.048  25.892  1.00  0.00    -0.376 OA
BRANCH   2   3
ATOM      3  C   UNL A   1      39.588  22.009  26.487  1.00  0.00     0.202 C 
BRANCH   3   4
ATOM      4  C   UNL A   1      38.259  22.262  25.761  1.00  0.00     0.261 C 
BRANCH   4   5
ATOM      5  O   UNL A   1      37.322  21.153  25.793  1.00  0.00    -0.462 OA
BRANCH   5   6
ATOM      6  C   UNL A   1      36.002  21.468  25.780  1.00  0.00     0.325 C 
ATOM      7  O   UNL A   1      35.567  22.591  26.024  1.00  0.00    -0.250 OA
BRANCH   6   8
ATOM      8  C   UNL A   1      35.045  20.355  25.287  1.00  0.00     0.242 C 
BRANCH   8   9
ATOM      9  N   UNL A   1      33.578  20.467  25.222  1.00  0.00    -0.331 N 
ATOM     10  C   UNL A   1      32.742  25.969  21.807  1.00  0.00     0.253 C 
ATOM     11  O   UNL A   1      33.218  26.161  20.690  1.00  0.00    -0.269 OA
ATOM     12  N   UNL A   1      32.426  24.698  22.263  1.00  0.00    -0.339 N 
ATOM     13  C   UNL A   1      33.284  23.601  21.866  1.00  0.00     0.120 C 
ATOM     14  C   UNL A   1      31.191  24.344  22.954  1.00  0.00     0.120 C 
ATOM     15  C   UNL A   1      33.694  22.845  23.128  1.00  0.00     0.030 C 
ATOM     16  C   UNL A   1      31.466  23.479  24.186  1.00  0.00     0.030 C 
ATOM     17  C   UNL A   1      32.468  22.322  23.927  1.00  0.00    -0.008 C 
ATOM     18  C   UNL A   1      31.737  21.207  23.129  1.00  0.00     0.019 C 
ATOM     19  C   UNL A   1      32.939  21.769  25.313  1.00  0.00     0.127 C 
ATOM     20  C   UNL A   1      32.553  19.926  23.099  1.00  0.00     0.101 C 
ATOM     21  C   UNL A   1      32.797  19.552  24.539  1.00  0.00     0.223 C 
ATOM     22  O   UNL A   1      32.127  18.703  25.109  1.00  0.00    -0.275 OA
BRANCH  10  23
ATOM     23  C   UNL A   1      32.695  27.099  22.778  1.00  0.00     0.043 A 
ATOM     24  C   UNL A   1      32.171  30.033  25.906  1.00  0.00     0.048 C 
ATOM     25  C   UNL A   1      32.392  29.019  24.824  1.00  0.00    -0.009 A 
ATOM     26  C   UNL A   1      31.593  29.070  23.678  1.00  0.00     0.008 A 
ATOM     27  C   UNL A   1      33.334  27.986  24.932  1.00  0.00     0.119 A 
ATOM     28  C   UNL A   1      31.727  28.104  22.683  1.00  0.00     0.014 A 
ATOM     29  C   UNL A   1      33.499  27.043  23.917  1.00  0.00     0.060 A 
BRANCH  27  30
ATOM     30  O   UNL A   1      34.114  27.819  26.040  1.00  0.00    -0.508 OA
ATOM     31  H   UNL A   1      33.717  27.647  26.871  1.00  0.00     0.293 HD
ENDBRANCH  27  30
ENDBRANCH  10  23
ENDBRANCH   8   9
ENDBRANCH   6   8
ENDBRANCH   5   6
ENDBRANCH   4   5
ENDBRANCH   3   4
ENDBRANCH   2   3
ENDBRANCH   1   2
BRANCH   1  32
ATOM     32  C   UNL A   1      42.223  19.236  26.113  1.00  0.00     0.188 C 
BRANCH  32  33
ATOM     33  O   UNL A   1      43.045  19.637  25.031  1.00  0.00    -0.376 OA
BRANCH  33  34
ATOM     34  C   UNL A   1      44.084  20.540  25.392  1.00  0.00     0.202 C 
BRANCH  34  35
ATOM     35  C   UNL A   1      44.055  21.701  24.404  1.00  0.00     0.261 C 
BRANCH  35  36
ATOM     36  O   UNL A   1      43.355  22.855  24.923  1.00  0.00    -0.460 OA
BRANCH  36  37
ATOM     37  C   UNL A   1      44.085  23.981  25.066  1.00  0.00     0.338 C 
ATOM     38  O   UNL A   1      45.102  24.287  24.450  1.00  0.00    -0.246 OA
BRANCH  37  39
ATOM     39  C   UNL A   1      43.368  24.913  25.962  1.00  0.00     0.060 A 
ATOM     40  C   UNL A   1      43.712  26.271  25.935  1.00  0.00     0.016 A 
ATOM     41  C   UNL A   1      42.381  24.463  26.838  1.00  0.00     0.016 A 
ATOM     42  C   UNL A   1      43.116  27.174  26.816  1.00  0.00     0.010 A 
ATOM     43  C   UNL A   1      41.792  25.365  27.731  1.00  0.00     0.010 A 
ATOM     44  C   UNL A   1      42.183  26.717  27.752  1.00  0.00    -0.014 A 
BRANCH  44  45
ATOM     45  C   UNL A   1      41.748  27.599  28.865  1.00  0.00     0.031 A 
ATOM     46  C   UNL A   1      42.482  27.516  30.177  1.00  0.00     0.074 A 
ATOM     47  C   UNL A   1      40.728  28.466  28.721  1.00  0.00     0.049 A 
ATOM     48  N   UNL A   1      42.224  28.109  31.314  1.00  0.00    -0.248 NA
ATOM     49  C   UNL A   1      43.665  26.639  30.212  1.00  0.00     0.031 C 
ATOM     50  C   UNL A   1      39.962  28.680  27.495  1.00  0.00     0.029 A 
ATOM     51  N   UNL A   1      40.150  29.318  29.632  1.00  0.00    -0.354 N 
ATOM     52  C   UNL A   1      43.195  27.662  32.201  1.00  0.00     0.074 A 
ATOM     53  C   UNL A   1      44.039  26.736  31.479  1.00  0.00     0.031 C 
ATOM     54  C   UNL A   1      38.999  29.586  27.736  1.00  0.00     0.029 A 
ATOM     55  C   UNL A   1      39.055  29.986  29.142  1.00  0.00     0.049 A 
ATOM     56  H   UNL A   1      40.490  29.436  30.549  1.00  0.00     0.167 HD
ATOM     57  C   UNL A   1      43.370  27.995  33.502  1.00  0.00     0.037 A 
ATOM     58  C   UNL A   1      38.178  30.799  29.766  1.00  0.00     0.037 A 
ATOM     59  C   UNL A   1      42.545  28.931  34.219  1.00  0.00     0.049 A 
ATOM     60  C   UNL A   1      38.361  31.105  31.232  1.00  0.00     0.074 A 
ATOM     61  C   UNL A   1      42.670  29.358  35.530  1.00  0.00     0.029 A 
ATOM     62  N   UNL A   1      41.441  29.578  33.689  1.00  0.00    -0.354 N 
ATOM     63  N   UNL A   1      39.300  30.701  32.054  1.00  0.00    -0.248 NA
ATOM     64  C   UNL A   1      37.361  31.986  31.858  1.00  0.00     0.031 C 
ATOM     65  C   UNL A   1      41.608  30.221  35.811  1.00  0.00     0.029 A 
ATOM     66  C   UNL A   1      40.858  30.380  34.657  1.00  0.00     0.049 A 
ATOM     67  H   UNL A   1      41.119  29.484  32.763  1.00  0.00     0.167 HD
ATOM     68  C   UNL A   1      39.023  31.303  33.277  1.00  0.00     0.074 A 
ATOM     69  C   UNL A   1      37.838  32.111  33.087  1.00  0.00     0.031 C 
ATOM     70  C   UNL A   1      39.691  31.197  34.451  1.00  0.00     0.037 A 
BRANCH  57  71
ATOM     71  C   UNL A   1      44.483  27.326  34.254  1.00  0.00     0.057 A 
ATOM     72  C   UNL A   1      45.752  27.906  34.373  1.00  0.00     0.134 A 
ATOM     73  C   UNL A   1      44.255  26.120  34.927  1.00  0.00     0.134 A 
ATOM     74  F   UNL A   1      46.038  29.053  33.740  1.00  0.00    -0.206 F 
ATOM     75  C   UNL A   1      46.758  27.304  35.132  1.00  0.00     0.040 A 
ATOM     76  C   UNL A   1      45.245  25.523  35.710  1.00  0.00     0.040 A 
ATOM     77  F   UNL A   1      43.060  25.515  34.857  1.00  0.00    -0.206 F 
ATOM     78  C   UNL A   1      46.501  26.115  35.811  1.00  0.00     0.006 A 
ENDBRANCH  57  71
BRANCH  58  79
ATOM     79  C   UNL A   1      37.014  31.360  29.030  1.00  0.00     0.057 A 
ATOM     80  C   UNL A   1      36.994  32.693  28.602  1.00  0.00     0.134 A 
ATOM     81  C   UNL A   1      35.865  30.594  28.796  1.00  0.00     0.134 A 
ATOM     82  F   UNL A   1      38.052  33.488  28.821  1.00  0.00    -0.206 F 
ATOM     83  C   UNL A   1      35.866  33.251  27.998  1.00  0.00     0.040 A 
ATOM     84  C   UNL A   1      34.742  31.130  28.166  1.00  0.00     0.040 A 
ATOM     85  F   UNL A   1      35.816  29.311  29.184  1.00  0.00    -0.206 F 
ATOM     86  C   UNL A   1      34.736  32.468  27.776  1.00  0.00     0.006 A 
ENDBRANCH  58  79
BRANCH  70  87
ATOM     87  C   UNL A   1      39.194  32.011  35.612  1.00  0.00     0.057 A 
ATOM     88  C   UNL A   1      39.558  33.351  35.791  1.00  0.00     0.134 A 
ATOM     89  C   UNL A   1      38.299  31.458  36.537  1.00  0.00     0.134 A 
ATOM     90  F   UNL A   1      40.420  33.941  34.947  1.00  0.00    -0.206 F 
ATOM     91  C   UNL A   1      39.071  34.104  36.861  1.00  0.00     0.040 A 
ATOM     92  C   UNL A   1      37.781  32.208  37.594  1.00  0.00     0.040 A 
ATOM     93  F   UNL A   1      37.897  30.183  36.418  1.00  0.00    -0.206 F 
ATOM     94  C   UNL A   1      38.173  33.534  37.761  1.00  0.00     0.006 A 
ENDBRANCH  70  87
ENDBRANCH  44  45
ENDBRANCH  37  39
ENDBRANCH  36  37
ENDBRANCH  35  36
ENDBRANCH  34  35
ENDBRANCH  33  34
ENDBRANCH  32  33
ENDBRANCH   1  32
TORSDOF 20
ENDMDL
MODEL 3
REMARK VINA RESULT:     -11.5      4.143     10.161
REMARK SMILES Cc1ccc(C(=O)N2CCC3(CCC(=O)N(CC(=O)OCCOCCOCCOC(=O)c4ccc(-c5c6nc(c(-c7c(F)cccc7F)c7ccc([nH]7)c(-c7c(F)cccc7F)c7nc(c(-c8c(F)cccc8F)c8ccc5[nH]8)C=C7)C=C6)cc4)C3)CC2)cc1O
REMARK SMILES IDX 24 1 23 2 22 3 21 4 20 5 18 6 19 7 17 8 16 9 6 10 7 11 8 12
REMARK SMILES IDX 9 13 88 14 10 15 87 16 11 17 12 18 86 19 13 20 14 21 15 22
REMARK SMILES IDX 5 23 1 24 2 25 3 26 90 27 4 28 89 29 91 30 25 32 26 33 27 34
REMARK SMILES IDX 28 35 29 36 30 37 31 38 32 39 33 40 85 41 34 42 84 43 35 44
REMARK SMILES IDX 36 45 37 46 78 47 38 48 83 49 77 50 79 51 39 52 82 53 76 54
REMARK SMILES IDX 75 55 40 57 66 58 49 59 65 60 50 61 53 62 64 63 80 64 51 65
REMARK SMILES IDX 52 66 63 68 81 69 54 70 41 71 42 72 47 73 43 74 44 75 46 76
REMARK SMILES IDX 48 77 45 78 67 79 68 80 73 81 69 82 70 83 72 84 74 85 71 86
REMARK SMILES IDX 55 87 56 88 61 89 57 90 58 91 60 92 62 93 59 94
REMARK H PARENT 91 31 79 56 53 67
REMARK Flexibility Score: inf
ROOT
ATOM      1  C   UNL A   1      41.351  20.493  26.730  1.00  0.00     0.188 C 
ENDROOT
BRANCH   1   2
ATOM      2  O   UNL A   1      40.267  20.993  25.956  1.00  0.00    -0.376 OA
BRANCH   2   3
ATOM      3  C   UNL A   1      39.505  22.086  26.456  1.00  0.00     0.202 C 
BRANCH   3   4
ATOM      4  C   UNL A   1      38.232  22.436  25.672  1.00  0.00     0.261 C 
BRANCH   4   5
ATOM      5  O   UNL A   1      37.352  21.314  25.400  1.00  0.00    -0.462 OA
BRANCH   5   6
ATOM      6  C   UNL A   1      36.053  21.452  25.770  1.00  0.00     0.325 C 
ATOM      7  O   UNL A   1      35.613  22.437  26.359  1.00  0.00    -0.250 OA
BRANCH   6   8
ATOM      8  C   UNL A   1      35.087  20.347  25.276  1.00  0.00     0.242 C 
BRANCH   8   9
ATOM      9  N   UNL A   1      33.619  20.462  25.234  1.00  0.00    -0.331 N 
ATOM     10  C   UNL A   1      32.738  26.034  21.946  1.00  0.00     0.253 C 
ATOM     11  O   UNL A   1      33.197  26.248  20.826  1.00  0.00    -0.269 OA
ATOM     12  N   UNL A   1      32.428  24.753  22.381  1.00  0.00    -0.339 N 
ATOM     13  C   UNL A   1      33.279  23.664  21.949  1.00  0.00     0.120 C 
ATOM     14  C   UNL A   1      31.203  24.386  23.083  1.00  0.00     0.120 C 
ATOM     15  C   UNL A   1      33.706  22.882  23.188  1.00  0.00     0.030 C 
ATOM     16  C   UNL A   1      31.495  23.496  24.292  1.00  0.00     0.030 C 
ATOM     17  C   UNL A   1      32.493  22.344  23.995  1.00  0.00    -0.008 C 
ATOM     18  C   UNL A   1      31.748  21.246  23.185  1.00  0.00     0.019 C 
ATOM     19  C   UNL A   1      32.983  21.762  25.362  1.00  0.00     0.127 C 
ATOM     20  C   UNL A   1      32.562  19.965  23.117  1.00  0.00     0.101 C 
ATOM     21  C   UNL A   1      32.828  19.561  24.545  1.00  0.00     0.223 C 
ATOM     22  O   UNL A   1      32.165  18.702  25.107  1.00  0.00    -0.275 OA
BRANCH  10  23
ATOM     23  C   UNL A   1      32.707  27.143  22.941  1.00  0.00     0.043 A 
ATOM     24  C   UNL A   1      32.240  30.009  26.140  1.00  0.00     0.048 C 
ATOM     25  C   UNL A   1      32.441  29.019  25.032  1.00  0.00    -0.009 A 
ATOM     26  C   UNL A   1      31.612  29.086  23.909  1.00  0.00     0.008 A 
ATOM     27  C   UNL A   1      33.394  27.993  25.095  1.00  0.00     0.119 A 
ATOM     28  C   UNL A   1      31.728  28.141  22.892  1.00  0.00     0.014 A 
ATOM     29  C   UNL A   1      33.541  27.072  24.057  1.00  0.00     0.060 A 
BRANCH  27  30
ATOM     30  O   UNL A   1      34.204  27.810  26.179  1.00  0.00    -0.508 OA
ATOM     31  H   UNL A   1      35.025  27.368  26.081  1.00  0.00     0.293 HD
ENDBRANCH  27  30
ENDBRANCH  10  23
ENDBRANCH   8   9
ENDBRANCH   6   8
ENDBRANCH   5   6
ENDBRANCH   4   5
ENDBRANCH   3   4
ENDBRANCH   2   3
ENDBRANCH   1   2
BRANCH   1  32
ATOM     32  C   UNL A   1      42.306  19.481  26.104  1.00  0.00     0.188 C 
BRANCH  32  33
ATOM     33  O   UNL A   1      43.133  20.058  25.109  1.00  0.00    -0.376 OA
BRANCH  33  34
ATOM     34  C   UNL A   1      44.041  21.036  25.602  1.00  0.00     0.202 C 
BRANCH  34  35
ATOM     35  C   UNL A   1      43.955  22.253  24.688  1.00  0.00     0.261 C 
BRANCH  35  36
ATOM     36  O   UNL A   1      43.230  23.350  25.290  1.00  0.00    -0.460 OA
BRANCH  36  37
ATOM     37  C   UNL A   1      43.900  24.515  25.409  1.00  0.00     0.338 C 
ATOM     38  O   UNL A   1      44.841  24.902  24.721  1.00  0.00    -0.246 OA
BRANCH  37  39
ATOM     39  C   UNL A   1      43.207  25.375  26.392  1.00  0.00     0.060 A 
ATOM     40  C   UNL A   1      43.684  26.676  26.603  1.00  0.00     0.016 A 
ATOM     41  C   UNL A   1      42.112  24.910  27.119  1.00  0.00     0.016 A 
ATOM     42  C   UNL A   1      43.110  27.496  27.575  1.00  0.00     0.010 A 
ATOM     43  C   UNL A   1      41.543  25.726  28.103  1.00  0.00     0.010 A 
ATOM     44  C   UNL A   1      42.063  27.009  28.363  1.00  0.00    -0.014 A 
BRANCH  44  45
ATOM     45  C   UNL A   1      41.627  27.756  29.570  1.00  0.00     0.031 A 
ATOM     46  C   UNL A   1      40.431  28.664  29.461  1.00  0.00     0.074 A 
ATOM     47  C   UNL A   1      42.269  27.631  30.747  1.00  0.00     0.049 A 
ATOM     48  N   UNL A   1      39.927  29.487  30.344  1.00  0.00    -0.248 NA
ATOM     49  C   UNL A   1      39.708  28.644  28.178  1.00  0.00     0.031 C 
ATOM     50  C   UNL A   1      43.410  26.756  31.003  1.00  0.00     0.029 A 
ATOM     51  N   UNL A   1      42.055  28.266  31.948  1.00  0.00    -0.354 N 
ATOM     52  C   UNL A   1      38.847  30.097  29.719  1.00  0.00     0.074 A 
ATOM     53  C   UNL A   1      38.776  29.564  28.376  1.00  0.00     0.031 C 
ATOM     54  C   UNL A   1      43.813  26.925  32.275  1.00  0.00     0.029 A 
ATOM     55  C   UNL A   1      42.984  27.949  32.910  1.00  0.00     0.049 A 
ATOM     56  H   UNL A   1      41.309  28.888  32.102  1.00  0.00     0.167 HD
ATOM     57  C   UNL A   1      37.990  31.018  30.219  1.00  0.00     0.037 A 
ATOM     58  C   UNL A   1      43.164  28.454  34.147  1.00  0.00     0.037 A 
ATOM     59  C   UNL A   1      38.046  31.536  31.560  1.00  0.00     0.049 A 
ATOM     60  C   UNL A   1      42.231  29.524  34.657  1.00  0.00     0.074 A 
ATOM     61  C   UNL A   1      37.196  32.445  32.166  1.00  0.00     0.029 A 
ATOM     62  N   UNL A   1      39.006  31.197  32.499  1.00  0.00    -0.354 N 
ATOM     63  N   UNL A   1      41.195  30.072  34.069  1.00  0.00    -0.248 NA
ATOM     64  C   UNL A   1      42.491  30.046  36.009  1.00  0.00     0.031 C 
ATOM     65  C   UNL A   1      37.674  32.699  33.454  1.00  0.00     0.029 A 
ATOM     66  C   UNL A   1      38.786  31.901  33.671  1.00  0.00     0.049 A 
ATOM     67  H   UNL A   1      39.735  30.551  32.355  1.00  0.00     0.167 HD
ATOM     68  C   UNL A   1      40.663  30.972  34.988  1.00  0.00     0.074 A 
ATOM     69  C   UNL A   1      41.481  30.886  36.178  1.00  0.00     0.031 C 
ATOM     70  C   UNL A   1      39.594  31.794  34.857  1.00  0.00     0.037 A 
BRANCH  57  71
ATOM     71  C   UNL A   1      36.925  31.552  29.307  1.00  0.00     0.057 A 
ATOM     72  C   UNL A   1      35.762  30.827  29.018  1.00  0.00     0.134 A 
ATOM     73  C   UNL A   1      37.035  32.841  28.772  1.00  0.00     0.134 A 
ATOM     74  F   UNL A   1      35.603  29.581  29.488  1.00  0.00    -0.206 F 
ATOM     75  C   UNL A   1      34.749  31.365  28.221  1.00  0.00     0.040 A 
ATOM     76  C   UNL A   1      36.018  33.400  27.996  1.00  0.00     0.040 A 
ATOM     77  F   UNL A   1      38.122  33.590  29.015  1.00  0.00    -0.206 F 
ATOM     78  C   UNL A   1      34.872  32.659  27.718  1.00  0.00     0.006 A 
ENDBRANCH  57  71
BRANCH  58  79
ATOM     79  C   UNL A   1      44.297  27.994  34.992  1.00  0.00     0.057 A 
ATOM     80  C   UNL A   1      44.128  26.997  35.962  1.00  0.00     0.134 A 
ATOM     81  C   UNL A   1      45.563  28.585  34.895  1.00  0.00     0.134 A 
ATOM     82  F   UNL A   1      42.933  26.410  36.124  1.00  0.00    -0.206 F 
ATOM     83  C   UNL A   1      45.163  26.630  36.823  1.00  0.00     0.040 A 
ATOM     84  C   UNL A   1      46.615  28.207  35.730  1.00  0.00     0.040 A 
ATOM     85  F   UNL A   1      45.793  29.548  33.991  1.00  0.00    -0.206 F 
ATOM     86  C   UNL A   1      46.413  27.234  36.706  1.00  0.00     0.006 A 
ENDBRANCH  58  79
BRANCH  70  87
ATOM     87  C   UNL A   1      39.208  32.629  36.045  1.00  0.00     0.057 A 
ATOM     88  C   UNL A   1      39.697  33.928  36.232  1.00  0.00     0.134 A 
ATOM     89  C   UNL A   1      38.296  32.141  36.990  1.00  0.00     0.134 A 
ATOM     90  F   UNL A   1      40.583  34.452  35.371  1.00  0.00    -0.206 F 
ATOM     91  C   UNL A   1      39.312  34.701  37.329  1.00  0.00     0.040 A 
ATOM     92  C   UNL A   1      37.880  32.916  38.074  1.00  0.00     0.040 A 
ATOM     93  F   UNL A   1      37.777  30.910  36.864  1.00  0.00    -0.206 F 
ATOM     94  C   UNL A   1      38.394  34.198  38.249  1.00  0.00     0.006 A 
ENDBRANCH  70  87
ENDBRANCH  44  45
ENDBRANCH  37  39
ENDBRANCH  36  37
ENDBRANCH  35  36
ENDBRANCH  34  35
ENDBRANCH  33  34
ENDBRANCH  32  33
ENDBRANCH   1  32
TORSDOF 20
ENDMDL
