MODEL 1
REMARK VINA RESULT:     -12.5      0.000      0.000
REMARK SMILES Cc1coc2cc3c(cc12)[C@@H](C)[C@H](CCC(=O)N[C@@H](Cc1c[nH]c2ccccc12)C(=O)OCCOCCOCCOC(=O)c1ccc(-c2c4nc(c(-c5c(F)cccc5F)c5ccc([nH]5)c(-c5c(F)cccc5F)c5nc(c(-c6c(F)cccc6F)c6ccc2[nH]6)C=C5)C=C4)cc1)C(=O)O3
REMARK SMILES IDX 36 1 35 2 34 3 33 4 32 5 30 6 31 7 19 8 18 9 16 10 17 11
REMARK SMILES IDX 15 13 14 14 13 15 1 16 2 17 3 18 10 19 4 20 5 21 9 22 6 23
REMARK SMILES IDX 8 24 7 25 11 26 100 27 12 28 98 29 99 30 20 31 21 32 22 33
REMARK SMILES IDX 29 34 23 35 24 36 28 37 25 39 27 40 26 41 37 42 38 43 39 44
REMARK SMILES IDX 40 45 41 46 42 47 43 48 44 49 45 50 97 51 46 52 96 53 47 54
REMARK SMILES IDX 48 55 49 56 90 57 50 58 95 59 89 60 91 61 51 62 94 63 88 64
REMARK SMILES IDX 87 65 52 67 78 68 61 69 77 70 62 71 65 72 76 73 92 74 63 75
REMARK SMILES IDX 64 76 75 78 93 79 66 80 53 81 54 82 59 83 55 84 56 85 58 86
REMARK SMILES IDX 60 87 57 88 79 89 80 90 85 91 81 92 82 93 84 94 86 95 83 96
REMARK SMILES IDX 67 97 68 98 73 99 69 100 70 101 72 102 74 103 71 104
REMARK H PARENT 18 12 23 38 91 66 65 77
REMARK Flexibility Score: inf
ROOT
ATOM      1  C   UNL A   1      37.665  20.909  24.981  1.00  0.00     0.188 C 
ENDROOT
BRANCH   1   2
ATOM      2  O   UNL A   1      37.270  21.655  23.835  1.00  0.00    -0.376 OA
BRANCH   2   3
ATOM      3  C   UNL A   1      36.274  22.663  24.092  1.00  0.00     0.202 C 
BRANCH   3   4
ATOM      4  C   UNL A   1      36.382  23.534  25.369  1.00  0.00     0.261 C 
BRANCH   4   5
ATOM      5  O   UNL A   1      35.684  22.975  26.498  1.00  0.00    -0.462 OA
BRANCH   5   6
ATOM      6  C   UNL A   1      34.398  23.394  26.606  1.00  0.00     0.329 C 
ATOM      7  O   UNL A   1      34.073  24.546  26.332  1.00  0.00    -0.250 OA
BRANCH   6   8
ATOM      8  C   UNL A   1      33.376  22.315  27.134  1.00  0.00     0.196 C 
BRANCH   8   9
ATOM      9  N   UNL A   1      31.835  22.330  27.219  1.00  0.00    -0.342 N 
ATOM     10  C   UNL A   1      30.758  23.145  26.901  1.00  0.00     0.220 C 
ATOM     11  O   UNL A   1      29.663  22.760  27.340  1.00  0.00    -0.275 OA
ATOM     12  H   UNL A   1      31.514  21.495  27.630  1.00  0.00     0.164 HD
BRANCH  10  13
ATOM     13  C   UNL A   1      30.756  24.488  26.094  1.00  0.00     0.101 C 
BRANCH  13  14
ATOM     14  C   UNL A   1      31.294  24.573  24.575  1.00  0.00     0.026 C 
BRANCH  14  15
ATOM     15  C   UNL A   1      30.738  25.794  23.782  1.00  0.00     0.107 C 
ATOM     16  C   UNL A   1      31.534  32.062  26.646  1.00  0.00     0.048 C 
ATOM     17  C   UNL A   1      32.454  30.916  26.823  1.00  0.00    -0.005 A 
ATOM     18  C   UNL A   1      33.767  30.943  27.242  1.00  0.00     0.199 A 
ATOM     19  C   UNL A   1      32.203  29.572  26.442  1.00  0.00     0.024 A 
ATOM     20  O   UNL A   1      34.377  29.754  27.008  1.00  0.00    -0.464 OA
ATOM     21  C   UNL A   1      33.450  28.954  26.426  1.00  0.00     0.137 A 
ATOM     22  C   UNL A   1      31.079  28.896  25.947  1.00  0.00     0.020 A 
ATOM     23  C   UNL A   1      33.730  27.768  25.775  1.00  0.00     0.095 A 
ATOM     24  C   UNL A   1      31.330  27.743  25.217  1.00  0.00    -0.001 A 
ATOM     25  C   UNL A   1      32.648  27.316  25.046  1.00  0.00     0.138 A 
ATOM     26  C   UNL A   1      30.325  27.205  24.251  1.00  0.00     0.034 C 
ATOM     27  O   UNL A   1      32.962  26.678  23.832  1.00  0.00    -0.426 OA
ATOM     28  C   UNL A   1      30.441  28.242  23.078  1.00  0.00     0.014 C 
ATOM     29  C   UNL A   1      31.936  26.167  23.060  1.00  0.00     0.314 C 
ATOM     30  O   UNL A   1      32.008  25.906  21.889  1.00  0.00    -0.251 OA
ENDBRANCH  14  15
ENDBRANCH  13  14
ENDBRANCH  10  13
ENDBRANCH   8   9
BRANCH   8  31
ATOM     31  C   UNL A   1      33.964  21.021  26.514  1.00  0.00     0.074 C 
BRANCH  31  32
ATOM     32  C   UNL A   1      33.449  20.472  25.212  1.00  0.00    -0.020 A 
ATOM     33  C   UNL A   1      32.556  21.209  24.451  1.00  0.00     0.087 A 
ATOM     34  C   UNL A   1      33.633  19.227  24.523  1.00  0.00     0.003 A 
ATOM     35  N   UNL A   1      32.151  20.454  23.393  1.00  0.00    -0.361 N 
ATOM     36  C   UNL A   1      32.760  19.225  23.434  1.00  0.00     0.046 A 
ATOM     37  C   UNL A   1      34.409  18.064  24.701  1.00  0.00     0.010 A 
ATOM     38  H   UNL A   1      31.514  20.746  22.702  1.00  0.00     0.166 HD
ATOM     39  C   UNL A   1      32.592  18.118  22.592  1.00  0.00     0.026 A 
ATOM     40  C   UNL A   1      34.272  16.952  23.874  1.00  0.00     0.001 A 
ATOM     41  C   UNL A   1      33.357  16.976  22.838  1.00  0.00     0.002 A 
ENDBRANCH  31  32
ENDBRANCH   8  31
ENDBRANCH   6   8
ENDBRANCH   5   6
ENDBRANCH   4   5
ENDBRANCH   3   4
ENDBRANCH   2   3
ENDBRANCH   1   2
BRANCH   1  42
ATOM     42  C   UNL A   1      37.952  19.416  24.990  1.00  0.00     0.188 C 
BRANCH  42  43
ATOM     43  O   UNL A   1      39.272  19.094  25.372  1.00  0.00    -0.376 OA
BRANCH  43  44
ATOM     44  C   UNL A   1      39.897  20.114  26.149  1.00  0.00     0.202 C 
BRANCH  44  45
ATOM     45  C   UNL A   1      41.389  19.863  26.464  1.00  0.00     0.261 C 
BRANCH  45  46
ATOM     46  O   UNL A   1      41.986  20.969  27.213  1.00  0.00    -0.460 OA
BRANCH  46  47
ATOM     47  C   UNL A   1      42.329  22.089  26.518  1.00  0.00     0.338 C 
ATOM     48  O   UNL A   1      42.764  22.093  25.374  1.00  0.00    -0.246 OA
BRANCH  47  49
ATOM     49  C   UNL A   1      41.779  23.336  27.167  1.00  0.00     0.060 A 
ATOM     50  C   UNL A   1      40.433  23.717  27.266  1.00  0.00     0.016 A 
ATOM     51  C   UNL A   1      42.721  24.237  27.646  1.00  0.00     0.016 A 
ATOM     52  C   UNL A   1      40.047  25.021  27.747  1.00  0.00     0.010 A 
ATOM     53  C   UNL A   1      42.322  25.496  28.126  1.00  0.00     0.010 A 
ATOM     54  C   UNL A   1      40.994  25.986  28.119  1.00  0.00    -0.014 A 
BRANCH  54  55
ATOM     55  C   UNL A   1      40.748  27.351  28.768  1.00  0.00     0.031 A 
ATOM     56  C   UNL A   1      41.618  28.366  28.135  1.00  0.00     0.074 A 
ATOM     57  C   UNL A   1      39.977  27.920  29.759  1.00  0.00     0.049 A 
ATOM     58  N   UNL A   1      42.765  28.701  28.626  1.00  0.00    -0.248 NA
ATOM     59  C   UNL A   1      41.320  28.956  26.828  1.00  0.00     0.031 C 
ATOM     60  C   UNL A   1      39.119  27.317  30.783  1.00  0.00     0.029 A 
ATOM     61  N   UNL A   1      39.735  29.284  30.017  1.00  0.00    -0.354 N 
ATOM     62  C   UNL A   1      43.248  29.687  27.800  1.00  0.00     0.074 A 
ATOM     63  C   UNL A   1      42.456  29.618  26.597  1.00  0.00     0.031 C 
ATOM     64  C   UNL A   1      38.300  28.238  31.355  1.00  0.00     0.029 A 
ATOM     65  C   UNL A   1      38.619  29.569  30.836  1.00  0.00     0.049 A 
ATOM     66  H   UNL A   1      40.307  29.995  29.649  1.00  0.00     0.167 HD
ATOM     67  C   UNL A   1      44.082  30.648  28.277  1.00  0.00     0.037 A 
ATOM     68  C   UNL A   1      38.248  30.697  31.531  1.00  0.00     0.037 A 
ATOM     69  C   UNL A   1      44.558  30.344  29.611  1.00  0.00     0.049 A 
ATOM     70  C   UNL A   1      39.488  31.396  31.859  1.00  0.00     0.074 A 
ATOM     71  C   UNL A   1      45.190  29.265  30.207  1.00  0.00     0.029 A 
ATOM     72  N   UNL A   1      44.069  31.086  30.659  1.00  0.00    -0.354 N 
ATOM     73  N   UNL A   1      40.302  30.972  32.775  1.00  0.00    -0.248 NA
ATOM     74  C   UNL A   1      40.022  32.352  30.906  1.00  0.00     0.031 C 
ATOM     75  C   UNL A   1      44.634  29.166  31.518  1.00  0.00     0.029 A 
ATOM     76  C   UNL A   1      43.731  30.213  31.663  1.00  0.00     0.049 A 
ATOM     77  H   UNL A   1      43.977  32.066  30.685  1.00  0.00     0.167 HD
ATOM     78  C   UNL A   1      41.547  31.211  32.229  1.00  0.00     0.074 A 
ATOM     79  C   UNL A   1      41.320  32.165  31.145  1.00  0.00     0.031 C 
ATOM     80  C   UNL A   1      42.587  30.381  32.516  1.00  0.00     0.037 A 
BRANCH  67  81
ATOM     81  C   UNL A   1      44.206  32.005  27.651  1.00  0.00     0.057 A 
ATOM     82  C   UNL A   1      45.085  32.186  26.575  1.00  0.00     0.134 A 
ATOM     83  C   UNL A   1      43.644  33.188  28.178  1.00  0.00     0.134 A 
ATOM     84  F   UNL A   1      45.728  31.142  26.029  1.00  0.00    -0.206 F 
ATOM     85  C   UNL A   1      45.386  33.452  26.062  1.00  0.00     0.040 A 
ATOM     86  C   UNL A   1      43.881  34.448  27.630  1.00  0.00     0.040 A 
ATOM     87  F   UNL A   1      42.920  33.198  29.305  1.00  0.00    -0.206 F 
ATOM     88  C   UNL A   1      44.772  34.587  26.579  1.00  0.00     0.006 A 
ENDBRANCH  67  81
BRANCH  68  89
ATOM     89  C   UNL A   1      37.013  31.534  31.381  1.00  0.00     0.057 A 
ATOM     90  C   UNL A   1      36.484  31.873  30.128  1.00  0.00     0.134 A 
ATOM     91  C   UNL A   1      36.230  31.916  32.486  1.00  0.00     0.134 A 
ATOM     92  F   UNL A   1      37.075  31.444  29.005  1.00  0.00    -0.206 F 
ATOM     93  C   UNL A   1      35.315  32.646  29.991  1.00  0.00     0.040 A 
ATOM     94  C   UNL A   1      35.088  32.728  32.370  1.00  0.00     0.040 A 
ATOM     95  F   UNL A   1      36.613  31.578  33.728  1.00  0.00    -0.206 F 
ATOM     96  C   UNL A   1      34.636  33.111  31.114  1.00  0.00     0.006 A 
ENDBRANCH  68  89
BRANCH  80  97
ATOM     97  C   UNL A   1      42.323  29.361  33.588  1.00  0.00     0.057 A 
ATOM     98  C   UNL A   1      42.348  29.690  34.952  1.00  0.00     0.134 A 
ATOM     99  C   UNL A   1      42.003  28.045  33.268  1.00  0.00     0.134 A 
ATOM    100  F   UNL A   1      42.504  30.959  35.333  1.00  0.00    -0.206 F 
ATOM    101  C   UNL A   1      42.132  28.744  35.958  1.00  0.00     0.040 A 
ATOM    102  C   UNL A   1      41.731  27.095  34.261  1.00  0.00     0.040 A 
ATOM    103  F   UNL A   1      41.907  27.668  31.984  1.00  0.00    -0.206 F 
ATOM    104  C   UNL A   1      41.813  27.438  35.611  1.00  0.00     0.006 A 
ENDBRANCH  80  97
ENDBRANCH  54  55
ENDBRANCH  47  49
ENDBRANCH  46  47
ENDBRANCH  45  46
ENDBRANCH  44  45
ENDBRANCH  43  44
ENDBRANCH  42  43
ENDBRANCH   1  42
TORSDOF 23
ENDMDL
MODEL 2
REMARK VINA RESULT:     -12.3      2.231      5.324
REMARK SMILES Cc1coc2cc3c(cc12)[C@@H](C)[C@H](CCC(=O)N[C@@H](Cc1c[nH]c2ccccc12)C(=O)OCCOCCOCCOC(=O)c1ccc(-c2c4nc(c(-c5c(F)cccc5F)c5ccc([nH]5)c(-c5c(F)cccc5F)c5nc(c(-c6c(F)cccc6F)c6ccc2[nH]6)C=C5)C=C4)cc1)C(=O)O3
REMARK SMILES IDX 36 1 35 2 34 3 33 4 32 5 30 6 31 7 19 8 18 9 16 10 17 11
REMARK SMILES IDX 15 13 14 14 13 15 1 16 2 17 3 18 10 19 4 20 5 21 9 22 6 23
REMARK SMILES IDX 8 24 7 25 11 26 100 27 12 28 98 29 99 30 20 31 21 32 22 33
REMARK SMILES IDX 29 34 23 35 24 36 28 37 25 39 27 40 26 41 37 42 38 43 39 44
REMARK SMILES IDX 40 45 41 46 42 47 43 48 44 49 45 50 97 51 46 52 96 53 47 54
REMARK SMILES IDX 48 55 49 56 90 57 50 58 95 59 89 60 91 61 51 62 94 63 88 64
REMARK SMILES IDX 87 65 52 67 78 68 61 69 77 70 62 71 65 72 76 73 92 74 63 75
REMARK SMILES IDX 64 76 75 78 93 79 66 80 53 81 54 82 59 83 55 84 56 85 58 86
REMARK SMILES IDX 60 87 57 88 79 89 80 90 85 91 81 92 82 93 84 94 86 95 83 96
REMARK SMILES IDX 67 97 68 98 73 99 69 100 70 101 72 102 74 103 71 104
REMARK H PARENT 18 12 23 38 91 66 65 77
REMARK Flexibility Score: inf
ROOT
ATOM      1  C   UNL A   1      40.564  21.036  26.346  1.00  0.00     0.188 C 
ENDROOT
BRANCH   1   2
ATOM      2  O   UNL A   1      39.289  21.409  25.834  1.00  0.00    -0.376 OA
BRANCH   2   3
ATOM      3  C   UNL A   1      38.779  22.654  26.348  1.00  0.00     0.202 C 
BRANCH   3   4
ATOM      4  C   UNL A   1      37.545  23.309  25.677  1.00  0.00     0.261 C 
BRANCH   4   5
ATOM      5  O   UNL A   1      36.294  22.757  26.126  1.00  0.00    -0.462 OA
BRANCH   5   6
ATOM      6  C   UNL A   1      35.509  22.293  25.120  1.00  0.00     0.329 C 
ATOM      7  O   UNL A   1      35.886  22.315  23.952  1.00  0.00    -0.250 OA
BRANCH   6   8
ATOM      8  C   UNL A   1      34.089  21.765  25.556  1.00  0.00     0.196 C 
BRANCH   8   9
ATOM      9  N   UNL A   1      32.998  22.397  26.446  1.00  0.00    -0.342 N 
ATOM     10  C   UNL A   1      31.794  23.076  26.333  1.00  0.00     0.220 C 
ATOM     11  O   UNL A   1      31.355  23.543  27.396  1.00  0.00    -0.275 OA
ATOM     12  H   UNL A   1      33.230  22.281  27.395  1.00  0.00     0.164 HD
BRANCH  10  13
ATOM     13  C   UNL A   1      30.945  23.351  25.044  1.00  0.00     0.101 C 
BRANCH  13  14
ATOM     14  C   UNL A   1      31.633  23.630  23.611  1.00  0.00     0.026 C 
BRANCH  14  15
ATOM     15  C   UNL A   1      31.135  24.936  22.922  1.00  0.00     0.107 C 
ATOM     16  C   UNL A   1      31.636  30.825  26.553  1.00  0.00     0.048 C 
ATOM     17  C   UNL A   1      32.547  29.665  26.672  1.00  0.00    -0.005 A 
ATOM     18  C   UNL A   1      33.821  29.641  27.201  1.00  0.00     0.199 A 
ATOM     19  C   UNL A   1      32.340  28.375  26.118  1.00  0.00     0.024 A 
ATOM     20  O   UNL A   1      34.458  28.487  26.882  1.00  0.00    -0.464 OA
ATOM     21  C   UNL A   1      33.590  27.761  26.135  1.00  0.00     0.137 A 
ATOM     22  C   UNL A   1      31.267  27.763  25.454  1.00  0.00     0.020 A 
ATOM     23  C   UNL A   1      33.933  26.660  25.376  1.00  0.00     0.095 A 
ATOM     24  C   UNL A   1      31.588  26.703  24.620  1.00  0.00    -0.001 A 
ATOM     25  C   UNL A   1      32.920  26.297  24.511  1.00  0.00     0.138 A 
ATOM     26  C   UNL A   1      30.672  26.283  23.517  1.00  0.00     0.034 C 
ATOM     27  O   UNL A   1      33.339  25.804  23.261  1.00  0.00    -0.426 OA
ATOM     28  C   UNL A   1      30.877  27.449  22.485  1.00  0.00     0.014 C 
ATOM     29  C   UNL A   1      32.385  25.389  22.352  1.00  0.00     0.314 C 
ATOM     30  O   UNL A   1      32.557  25.266  21.169  1.00  0.00    -0.251 OA
ENDBRANCH  14  15
ENDBRANCH  13  14
ENDBRANCH  10  13
ENDBRANCH   8   9
BRANCH   8  31
ATOM     31  C   UNL A   1      33.561  21.193  24.214  1.00  0.00     0.074 C 
BRANCH  31  32
ATOM     32  C   UNL A   1      33.271  19.728  24.047  1.00  0.00    -0.020 A 
ATOM     33  C   UNL A   1      32.047  19.313  23.547  1.00  0.00     0.087 A 
ATOM     34  C   UNL A   1      34.004  18.534  24.357  1.00  0.00     0.003 A 
ATOM     35  N   UNL A   1      31.985  17.954  23.605  1.00  0.00    -0.361 N 
ATOM     36  C   UNL A   1      33.148  17.454  24.134  1.00  0.00     0.046 A 
ATOM     37  C   UNL A   1      35.288  18.220  24.844  1.00  0.00     0.010 A 
ATOM     38  H   UNL A   1      31.218  17.411  23.313  1.00  0.00     0.166 HD
ATOM     39  C   UNL A   1      33.494  16.130  24.433  1.00  0.00     0.026 A 
ATOM     40  C   UNL A   1      35.665  16.912  25.141  1.00  0.00     0.001 A 
ATOM     41  C   UNL A   1      34.766  15.879  24.952  1.00  0.00     0.002 A 
ENDBRANCH  31  32
ENDBRANCH   8  31
ENDBRANCH   6   8
ENDBRANCH   5   6
ENDBRANCH   4   5
ENDBRANCH   3   4
ENDBRANCH   2   3
ENDBRANCH   1   2
BRANCH   1  42
ATOM     42  C   UNL A   1      41.099  19.614  26.397  1.00  0.00     0.188 C 
BRANCH  42  43
ATOM     43  O   UNL A   1      41.937  19.284  25.310  1.00  0.00    -0.376 OA
BRANCH  43  44
ATOM     44  C   UNL A   1      43.217  18.801  25.715  1.00  0.00     0.202 C 
BRANCH  44  45
ATOM     45  C   UNL A   1      44.331  18.957  24.655  1.00  0.00     0.261 C 
BRANCH  45  46
ATOM     46  O   UNL A   1      45.192  20.109  24.928  1.00  0.00    -0.460 OA
BRANCH  46  47
ATOM     47  C   UNL A   1      44.895  21.282  24.303  1.00  0.00     0.338 C 
ATOM     48  O   UNL A   1      44.561  21.380  23.130  1.00  0.00    -0.246 OA
BRANCH  47  49
ATOM     49  C   UNL A   1      44.670  22.398  25.294  1.00  0.00     0.060 A 
ATOM     50  C   UNL A   1      45.188  23.700  25.237  1.00  0.00     0.016 A 
ATOM     51  C   UNL A   1      43.933  22.066  26.424  1.00  0.00     0.016 A 
ATOM     52  C   UNL A   1      45.051  24.620  26.340  1.00  0.00     0.010 A 
ATOM     53  C   UNL A   1      43.799  22.984  27.480  1.00  0.00     0.010 A 
ATOM     54  C   UNL A   1      44.415  24.256  27.536  1.00  0.00    -0.014 A 
BRANCH  54  55
ATOM     55  C   UNL A   1      44.074  25.148  28.734  1.00  0.00     0.031 A 
ATOM     56  C   UNL A   1      42.721  25.720  28.556  1.00  0.00     0.074 A 
ATOM     57  C   UNL A   1      44.638  25.586  29.913  1.00  0.00     0.049 A 
ATOM     58  N   UNL A   1      42.524  26.888  28.041  1.00  0.00    -0.248 NA
ATOM     59  C   UNL A   1      41.500  24.951  28.807  1.00  0.00     0.031 C 
ATOM     60  C   UNL A   1      46.001  25.464  30.436  1.00  0.00     0.029 A 
ATOM     61  N   UNL A   1      44.017  26.224  31.006  1.00  0.00    -0.354 N 
ATOM     62  C   UNL A   1      41.164  27.086  28.083  1.00  0.00     0.074 A 
ATOM     63  C   UNL A   1      40.583  25.787  28.317  1.00  0.00     0.031 C 
ATOM     64  C   UNL A   1      46.056  25.757  31.762  1.00  0.00     0.029 A 
ATOM     65  C   UNL A   1      44.741  26.212  32.220  1.00  0.00     0.049 A 
ATOM     66  H   UNL A   1      43.134  26.651  30.928  1.00  0.00     0.167 HD
ATOM     67  C   UNL A   1      40.646  28.337  28.186  1.00  0.00     0.037 A 
ATOM     68  C   UNL A   1      44.621  26.951  33.373  1.00  0.00     0.037 A 
ATOM     69  C   UNL A   1      41.651  29.362  27.989  1.00  0.00     0.049 A 
ATOM     70  C   UNL A   1      44.045  28.234  32.974  1.00  0.00     0.074 A 
ATOM     71  C   UNL A   1      42.582  29.648  27.004  1.00  0.00     0.029 A 
ATOM     72  N   UNL A   1      42.062  30.086  29.081  1.00  0.00    -0.354 N 
ATOM     73  N   UNL A   1      44.733  29.135  32.343  1.00  0.00    -0.248 NA
ATOM     74  C   UNL A   1      42.601  28.366  32.927  1.00  0.00     0.031 C 
ATOM     75  C   UNL A   1      43.739  30.124  27.692  1.00  0.00     0.029 A 
ATOM     76  C   UNL A   1      43.434  30.144  29.048  1.00  0.00     0.049 A 
ATOM     77  H   UNL A   1      41.480  30.491  29.764  1.00  0.00     0.167 HD
ATOM     78  C   UNL A   1      43.830  29.641  31.430  1.00  0.00     0.074 A 
ATOM     79  C   UNL A   1      42.514  29.225  31.911  1.00  0.00     0.031 C 
ATOM     80  C   UNL A   1      44.264  30.084  30.219  1.00  0.00     0.037 A 
BRANCH  67  81
ATOM     81  C   UNL A   1      39.295  28.616  28.776  1.00  0.00     0.057 A 
ATOM     82  C   UNL A   1      38.372  29.375  28.045  1.00  0.00     0.134 A 
ATOM     83  C   UNL A   1      38.927  28.336  30.109  1.00  0.00     0.134 A 
ATOM     84  F   UNL A   1      38.637  29.756  26.787  1.00  0.00    -0.206 F 
ATOM     85  C   UNL A   1      37.169  29.825  28.601  1.00  0.00     0.040 A 
ATOM     86  C   UNL A   1      37.700  28.718  30.652  1.00  0.00     0.040 A 
ATOM     87  F   UNL A   1      39.770  27.768  30.982  1.00  0.00    -0.206 F 
ATOM     88  C   UNL A   1      36.824  29.484  29.904  1.00  0.00     0.006 A 
ENDBRANCH  67  81
BRANCH  68  89
ATOM     89  C   UNL A   1      44.336  26.482  34.769  1.00  0.00     0.057 A 
ATOM     90  C   UNL A   1      43.659  25.284  35.034  1.00  0.00     0.134 A 
ATOM     91  C   UNL A   1      44.850  27.144  35.900  1.00  0.00     0.134 A 
ATOM     92  F   UNL A   1      43.244  24.503  34.027  1.00  0.00    -0.206 F 
ATOM     93  C   UNL A   1      43.407  24.839  36.347  1.00  0.00     0.040 A 
ATOM     94  C   UNL A   1      44.567  26.740  37.215  1.00  0.00     0.040 A 
ATOM     95  F   UNL A   1      45.574  28.265  35.748  1.00  0.00    -0.206 F 
ATOM     96  C   UNL A   1      43.826  25.589  37.443  1.00  0.00     0.006 A 
ENDBRANCH  68  89
BRANCH  80  97
ATOM     97  C   UNL A   1      45.757  30.166  30.056  1.00  0.00     0.057 A 
ATOM     98  C   UNL A   1      46.496  29.143  29.444  1.00  0.00     0.134 A 
ATOM     99  C   UNL A   1      46.467  31.287  30.476  1.00  0.00     0.134 A 
ATOM    100  F   UNL A   1      45.871  28.103  28.888  1.00  0.00    -0.206 F 
ATOM    101  C   UNL A   1      47.887  29.195  29.313  1.00  0.00     0.040 A 
ATOM    102  C   UNL A   1      47.854  31.381  30.305  1.00  0.00     0.040 A 
ATOM    103  F   UNL A   1      45.822  32.329  31.021  1.00  0.00    -0.206 F 
ATOM    104  C   UNL A   1      48.572  30.326  29.739  1.00  0.00     0.006 A 
ENDBRANCH  80  97
ENDBRANCH  54  55
ENDBRANCH  47  49
ENDBRANCH  46  47
ENDBRANCH  45  46
ENDBRANCH  44  45
ENDBRANCH  43  44
ENDBRANCH  42  43
ENDBRANCH   1  42
TORSDOF 23
ENDMDL
MODEL 3
REMARK VINA RESULT:     -12.2      2.314      9.010
REMARK SMILES Cc1coc2cc3c(cc12)[C@@H](C)[C@H](CCC(=O)N[C@@H](Cc1c[nH]c2ccccc12)C(=O)OCCOCCOCCOC(=O)c1ccc(-c2c4nc(c(-c5c(F)cccc5F)c5ccc([nH]5)c(-c5c(F)cccc5F)c5nc(c(-c6c(F)cccc6F)c6ccc2[nH]6)C=C5)C=C4)cc1)C(=O)O3
REMARK SMILES IDX 36 1 35 2 34 3 33 4 32 5 30 6 31 7 19 8 18 9 16 10 17 11
REMARK SMILES IDX 15 13 14 14 13 15 1 16 2 17 3 18 10 19 4 20 5 21 9 22 6 23
REMARK SMILES IDX 8 24 7 25 11 26 100 27 12 28 98 29 99 30 20 31 21 32 22 33
REMARK SMILES IDX 29 34 23 35 24 36 28 37 25 39 27 40 26 41 37 42 38 43 39 44
REMARK SMILES IDX 40 45 41 46 42 47 43 48 44 49 45 50 97 51 46 52 96 53 47 54
REMARK SMILES IDX 48 55 49 56 90 57 50 58 95 59 89 60 91 61 51 62 94 63 88 64
REMARK SMILES IDX 87 65 52 67 78 68 61 69 77 70 62 71 65 72 76 73 92 74 63 75
REMARK SMILES IDX 64 76 75 78 93 79 66 80 53 81 54 82 59 83 55 84 56 85 58 86
REMARK SMILES IDX 60 87 57 88 79 89 80 90 85 91 81 92 82 93 84 94 86 95 83 96
REMARK SMILES IDX 67 97 68 98 73 99 69 100 70 101 72 102 74 103 71 104
REMARK H PARENT 18 12 23 38 91 66 65 77
REMARK Flexibility Score: inf
ROOT
ATOM      1  C   UNL A   1      34.432  30.069  27.016  1.00  0.00     0.188 C 
ENDROOT
BRANCH   1   2
ATOM      2  O   UNL A   1      34.057  29.032  26.116  1.00  0.00    -0.376 OA
BRANCH   2   3
ATOM      3  C   UNL A   1      33.608  27.821  26.754  1.00  0.00     0.202 C 
BRANCH   3   4
ATOM      4  C   UNL A   1      32.092  27.510  26.818  1.00  0.00     0.261 C 
BRANCH   4   5
ATOM      5  O   UNL A   1      31.415  27.719  25.564  1.00  0.00    -0.462 OA
BRANCH   5   6
ATOM      6  C   UNL A   1      31.766  26.831  24.599  1.00  0.00     0.329 C 
ATOM      7  O   UNL A   1      32.616  27.104  23.756  1.00  0.00    -0.250 OA
BRANCH   6   8
ATOM      8  C   UNL A   1      30.989  25.460  24.624  1.00  0.00     0.196 C 
BRANCH   8   9
ATOM      9  N   UNL A   1      30.419  24.634  25.796  1.00  0.00    -0.342 N 
ATOM     10  C   UNL A   1      30.837  23.739  26.770  1.00  0.00     0.220 C 
ATOM     11  O   UNL A   1      29.921  23.199  27.411  1.00  0.00    -0.275 OA
ATOM     12  H   UNL A   1      29.451  24.792  25.878  1.00  0.00     0.164 HD
BRANCH  10  13
ATOM     13  C   UNL A   1      32.298  23.309  27.138  1.00  0.00     0.101 C 
BRANCH  13  14
ATOM     14  C   UNL A   1      33.588  23.996  26.456  1.00  0.00     0.026 C 
BRANCH  14  15
ATOM     15  C   UNL A   1      34.818  23.046  26.345  1.00  0.00     0.107 C 
ATOM     16  C   UNL A   1      33.715  16.739  23.675  1.00  0.00     0.048 C 
ATOM     17  C   UNL A   1      32.962  17.963  23.321  1.00  0.00    -0.005 A 
ATOM     18  C   UNL A   1      32.198  18.190  22.196  1.00  0.00     0.199 A 
ATOM     19  C   UNL A   1      33.009  19.204  24.007  1.00  0.00     0.024 A 
ATOM     20  O   UNL A   1      31.900  19.507  22.068  1.00  0.00    -0.464 OA
ATOM     21  C   UNL A   1      32.482  20.137  23.118  1.00  0.00     0.137 A 
ATOM     22  C   UNL A   1      33.605  19.634  25.201  1.00  0.00     0.020 A 
ATOM     23  C   UNL A   1      32.663  21.503  23.215  1.00  0.00     0.095 A 
ATOM     24  C   UNL A   1      33.876  20.990  25.298  1.00  0.00    -0.001 A 
ATOM     25  C   UNL A   1      33.523  21.834  24.243  1.00  0.00     0.138 A 
ATOM     26  C   UNL A   1      34.905  21.508  26.249  1.00  0.00     0.034 C 
ATOM     27  O   UNL A   1      34.362  22.938  23.998  1.00  0.00    -0.426 OA
ATOM     28  C   UNL A   1      36.232  21.066  25.536  1.00  0.00     0.014 C 
ATOM     29  C   UNL A   1      35.228  23.353  24.992  1.00  0.00     0.314 C 
ATOM     30  O   UNL A   1      36.203  24.035  24.826  1.00  0.00    -0.251 OA
ENDBRANCH  14  15
ENDBRANCH  13  14
ENDBRANCH  10  13
ENDBRANCH   8   9
BRANCH   8  31
ATOM     31  C   UNL A   1      29.996  25.661  23.449  1.00  0.00     0.074 C 
BRANCH  31  32
ATOM     32  C   UNL A   1      28.999  26.786  23.450  1.00  0.00    -0.020 A 
ATOM     33  C   UNL A   1      27.730  26.591  23.973  1.00  0.00     0.087 A 
ATOM     34  C   UNL A   1      29.023  28.129  22.945  1.00  0.00     0.003 A 
ATOM     35  N   UNL A   1      26.985  27.709  23.749  1.00  0.00    -0.361 N 
ATOM     36  C   UNL A   1      27.735  28.647  23.086  1.00  0.00     0.046 A 
ATOM     37  C   UNL A   1      29.972  28.976  22.339  1.00  0.00     0.010 A 
ATOM     38  H   UNL A   1      26.046  27.825  24.020  1.00  0.00     0.166 HD
ATOM     39  C   UNL A   1      27.361  29.907  22.601  1.00  0.00     0.026 A 
ATOM     40  C   UNL A   1      29.633  30.238  21.856  1.00  0.00     0.001 A 
ATOM     41  C   UNL A   1      28.331  30.690  21.973  1.00  0.00     0.002 A 
ENDBRANCH  31  32
ENDBRANCH   8  31
ENDBRANCH   6   8
ENDBRANCH   5   6
ENDBRANCH   4   5
ENDBRANCH   3   4
ENDBRANCH   2   3
ENDBRANCH   1   2
BRANCH   1  42
ATOM     42  C   UNL A   1      33.496  31.146  27.543  1.00  0.00     0.188 C 
BRANCH  42  43
ATOM     43  O   UNL A   1      34.060  31.937  28.566  1.00  0.00    -0.376 OA
BRANCH  43  44
ATOM     44  C   UNL A   1      34.090  33.328  28.249  1.00  0.00     0.202 C 
BRANCH  44  45
ATOM     45  C   UNL A   1      34.367  34.258  29.452  1.00  0.00     0.261 C 
BRANCH  45  46
ATOM     46  O   UNL A   1      34.761  33.509  30.646  1.00  0.00    -0.460 OA
BRANCH  46  47
ATOM     47  C   UNL A   1      36.026  33.693  31.117  1.00  0.00     0.338 C 
ATOM     48  O   UNL A   1      36.343  34.532  31.950  1.00  0.00    -0.246 OA
BRANCH  47  49
ATOM     49  C   UNL A   1      36.919  32.524  30.779  1.00  0.00     0.060 A 
ATOM     50  C   UNL A   1      36.559  31.169  30.728  1.00  0.00     0.016 A 
ATOM     51  C   UNL A   1      38.259  32.823  30.576  1.00  0.00     0.016 A 
ATOM     52  C   UNL A   1      37.546  30.128  30.574  1.00  0.00     0.010 A 
ATOM     53  C   UNL A   1      39.202  31.793  30.411  1.00  0.00     0.010 A 
ATOM     54  C   UNL A   1      38.917  30.410  30.491  1.00  0.00    -0.014 A 
BRANCH  54  55
ATOM     55  C   UNL A   1      40.064  29.440  30.194  1.00  0.00     0.031 A 
ATOM     56  C   UNL A   1      40.663  28.977  31.465  1.00  0.00     0.074 A 
ATOM     57  C   UNL A   1      40.712  28.876  29.116  1.00  0.00     0.049 A 
ATOM     58  N   UNL A   1      41.702  29.538  31.988  1.00  0.00    -0.248 NA
ATOM     59  C   UNL A   1      40.039  27.950  32.303  1.00  0.00     0.031 C 
ATOM     60  C   UNL A   1      40.625  29.158  27.681  1.00  0.00     0.029 A 
ATOM     61  N   UNL A   1      41.606  27.787  29.093  1.00  0.00    -0.354 N 
ATOM     62  C   UNL A   1      41.984  28.813  33.121  1.00  0.00     0.074 A 
ATOM     63  C   UNL A   1      40.803  28.033  33.395  1.00  0.00     0.031 C 
ATOM     64  C   UNL A   1      41.194  28.169  26.941  1.00  0.00     0.029 A 
ATOM     65  C   UNL A   1      41.814  27.185  27.831  1.00  0.00     0.049 A 
ATOM     66  H   UNL A   1      42.058  27.464  29.905  1.00  0.00     0.167 HD
ATOM     67  C   UNL A   1      43.257  28.716  33.587  1.00  0.00     0.037 A 
ATOM     68  C   UNL A   1      42.789  26.337  27.362  1.00  0.00     0.037 A 
ATOM     69  C   UNL A   1      44.154  29.637  32.918  1.00  0.00     0.049 A 
ATOM     70  C   UNL A   1      43.988  26.625  28.147  1.00  0.00     0.074 A 
ATOM     71  C   UNL A   1      44.165  31.002  32.685  1.00  0.00     0.029 A 
ATOM     72  N   UNL A   1      45.071  29.123  32.034  1.00  0.00    -0.354 N 
ATOM     73  N   UNL A   1      44.690  27.702  27.970  1.00  0.00    -0.248 NA
ATOM     74  C   UNL A   1      44.191  25.913  29.395  1.00  0.00     0.031 C 
ATOM     75  C   UNL A   1      44.710  31.167  31.376  1.00  0.00     0.029 A 
ATOM     76  C   UNL A   1      45.039  29.902  30.904  1.00  0.00     0.049 A 
ATOM     77  H   UNL A   1      45.647  28.338  32.184  1.00  0.00     0.167 HD
ATOM     78  C   UNL A   1      45.039  28.067  29.254  1.00  0.00     0.074 A 
ATOM     79  C   UNL A   1      44.815  26.877  30.073  1.00  0.00     0.031 C 
ATOM     80  C   UNL A   1      45.184  29.382  29.572  1.00  0.00     0.037 A 
BRANCH  67  81
ATOM     81  C   UNL A   1      43.735  27.567  34.423  1.00  0.00     0.057 A 
ATOM     82  C   UNL A   1      44.275  27.820  35.691  1.00  0.00     0.134 A 
ATOM     83  C   UNL A   1      43.868  26.239  33.964  1.00  0.00     0.134 A 
ATOM     84  F   UNL A   1      44.263  29.057  36.209  1.00  0.00    -0.206 F 
ATOM     85  C   UNL A   1      44.902  26.824  36.447  1.00  0.00     0.040 A 
ATOM     86  C   UNL A   1      44.427  25.222  34.737  1.00  0.00     0.040 A 
ATOM     87  F   UNL A   1      43.554  25.878  32.712  1.00  0.00    -0.206 F 
ATOM     88  C   UNL A   1      44.966  25.517  35.977  1.00  0.00     0.006 A 
ENDBRANCH  67  81
BRANCH  68  89
ATOM     89  C   UNL A   1      42.650  24.946  26.818  1.00  0.00     0.057 A 
ATOM     90  C   UNL A   1      41.874  23.967  27.453  1.00  0.00     0.134 A 
ATOM     91  C   UNL A   1      43.177  24.577  25.566  1.00  0.00     0.134 A 
ATOM     92  F   UNL A   1      41.215  24.254  28.584  1.00  0.00    -0.206 F 
ATOM     93  C   UNL A   1      41.732  22.667  26.931  1.00  0.00     0.040 A 
ATOM     94  C   UNL A   1      43.085  23.271  25.055  1.00  0.00     0.040 A 
ATOM     95  F   UNL A   1      43.877  25.466  24.845  1.00  0.00    -0.206 F 
ATOM     96  C   UNL A   1      42.373  22.302  25.749  1.00  0.00     0.006 A 
ENDBRANCH  68  89
BRANCH  80  97
ATOM     97  C   UNL A   1      45.141  30.337  28.411  1.00  0.00     0.057 A 
ATOM     98  C   UNL A   1      46.250  30.547  27.577  1.00  0.00     0.134 A 
ATOM     99  C   UNL A   1      43.976  31.028  28.090  1.00  0.00     0.134 A 
ATOM    100  F   UNL A   1      47.354  29.815  27.733  1.00  0.00    -0.206 F 
ATOM    101  C   UNL A   1      46.229  31.452  26.513  1.00  0.00     0.040 A 
ATOM    102  C   UNL A   1      43.920  31.899  26.994  1.00  0.00     0.040 A 
ATOM    103  F   UNL A   1      42.859  30.837  28.808  1.00  0.00    -0.206 F 
ATOM    104  C   UNL A   1      45.053  32.128  26.212  1.00  0.00     0.006 A 
ENDBRANCH  80  97
ENDBRANCH  54  55
ENDBRANCH  47  49
ENDBRANCH  46  47
ENDBRANCH  45  46
ENDBRANCH  44  45
ENDBRANCH  43  44
ENDBRANCH  42  43
ENDBRANCH   1  42
TORSDOF 23
ENDMDL
