MODEL 1
REMARK VINA RESULT:      -9.2      0.000      0.000
REMARK SMILES C[C@H]1Cc2ccccc2N1/C=C\C(=O)OCCOCCOCCOC(=O)c1ccc(-c2c3nc(c(-c4c(F)cccc4F)c4ccc([nH]4)c(-c4c(F)cccc4F)c4nc(c(-c5c(F)cccc5F)c5ccc2[nH]5)C=C4)C=C3)cc1
REMARK SMILES IDX 20 1 19 2 18 3 17 4 16 5 15 6 13 7 14 8 12 9 11 10 10 11
REMARK SMILES IDX 1 12 2 13 3 14 4 15 9 16 5 17 8 18 6 19 7 20 21 21 22 22
REMARK SMILES IDX 23 23 24 24 25 25 26 26 27 27 28 28 80 29 29 30 79 31 30 32
REMARK SMILES IDX 31 33 32 34 73 35 33 36 78 37 72 38 74 39 34 40 77 41 71 42
REMARK SMILES IDX 70 43 35 45 61 46 44 47 60 48 45 49 48 50 59 51 75 52 46 53
REMARK SMILES IDX 47 54 58 56 76 57 49 58 36 59 37 60 42 61 38 62 39 63 41 64
REMARK SMILES IDX 43 65 40 66 62 67 63 68 68 69 64 70 65 71 67 72 69 73 66 74
REMARK SMILES IDX 50 75 51 76 56 77 52 78 53 79 55 80 57 81 54 82
REMARK H PARENT 74 44 48 55
REMARK Flexibility Score: inf
ROOT
ATOM      1  C   UNL A   1      45.959  20.927  24.920  1.00  0.00     0.188 C 
ENDROOT
BRANCH   1   2
ATOM      2  C   UNL A   1      45.323  21.967  23.972  1.00  0.00     0.188 C 
BRANCH   2   3
ATOM      3  O   UNL A   1      45.910  23.252  23.846  1.00  0.00    -0.376 OA
BRANCH   3   4
ATOM      4  C   UNL A   1      46.293  23.936  25.035  1.00  0.00     0.202 C 
BRANCH   4   5
ATOM      5  C   UNL A   1      47.355  25.032  24.928  1.00  0.00     0.261 C 
BRANCH   5   6
ATOM      6  O   UNL A   1      46.904  26.098  24.075  1.00  0.00    -0.460 OA
BRANCH   6   7
ATOM      7  C   UNL A   1      47.152  27.361  24.483  1.00  0.00     0.332 C 
ATOM      8  O   UNL A   1      47.100  28.363  23.787  1.00  0.00    -0.247 OA
BRANCH   7   9
ATOM      9  C   UNL A   1      47.311  27.443  25.948  1.00  0.00     0.111 C 
ATOM     10  C   UNL A   1      46.571  28.027  26.902  1.00  0.00     0.094 C 
BRANCH  10  11
ATOM     11  N   UNL A   1      45.397  28.748  26.934  1.00  0.00    -0.344 N 
ATOM     12  C   UNL A   1      45.844  31.124  26.381  1.00  0.00     0.032 C 
ATOM     13  C   UNL A   1      45.187  30.150  27.367  1.00  0.00     0.088 C 
ATOM     14  C   UNL A   1      43.665  30.407  27.446  1.00  0.00     0.062 C 
ATOM     15  C   UNL A   1      43.130  29.271  26.647  1.00  0.00    -0.022 A 
ATOM     16  C   UNL A   1      44.134  28.321  26.441  1.00  0.00     0.044 A 
ATOM     17  C   UNL A   1      41.831  29.093  26.196  1.00  0.00     0.006 A 
ATOM     18  C   UNL A   1      43.817  27.135  25.792  1.00  0.00     0.026 A 
ATOM     19  C   UNL A   1      41.526  27.913  25.520  1.00  0.00     0.000 A 
ATOM     20  C   UNL A   1      42.510  26.935  25.329  1.00  0.00     0.002 A 
ENDBRANCH  10  11
ENDBRANCH   7   9
ENDBRANCH   6   7
ENDBRANCH   5   6
ENDBRANCH   4   5
ENDBRANCH   3   4
ENDBRANCH   2   3
ENDBRANCH   1   2
BRANCH   1  21
ATOM     21  O   UNL A   1      46.008  19.569  24.546  1.00  0.00    -0.376 OA
BRANCH  21  22
ATOM     22  C   UNL A   1      45.386  18.567  25.335  1.00  0.00     0.202 C 
BRANCH  22  23
ATOM     23  C   UNL A   1      43.891  18.534  25.700  1.00  0.00     0.261 C 
BRANCH  23  24
ATOM     24  O   UNL A   1      43.058  19.500  25.059  1.00  0.00    -0.460 OA
BRANCH  24  25
ATOM     25  C   UNL A   1      41.881  19.763  25.686  1.00  0.00     0.338 C 
ATOM     26  O   UNL A   1      40.925  19.023  25.811  1.00  0.00    -0.246 OA
BRANCH  25  27
ATOM     27  C   UNL A   1      42.024  21.044  26.404  1.00  0.00     0.060 A 
ATOM     28  C   UNL A   1      41.687  21.145  27.753  1.00  0.00     0.016 A 
ATOM     29  C   UNL A   1      42.451  22.170  25.686  1.00  0.00     0.016 A 
ATOM     30  C   UNL A   1      41.791  22.381  28.392  1.00  0.00     0.010 A 
ATOM     31  C   UNL A   1      42.542  23.409  26.324  1.00  0.00     0.010 A 
ATOM     32  C   UNL A   1      42.227  23.517  27.686  1.00  0.00    -0.014 A 
BRANCH  32  33
ATOM     33  C   UNL A   1      42.514  24.766  28.430  1.00  0.00     0.031 A 
ATOM     34  C   UNL A   1      43.861  25.060  29.014  1.00  0.00     0.074 A 
ATOM     35  C   UNL A   1      41.514  25.658  28.557  1.00  0.00     0.049 A 
ATOM     36  N   UNL A   1      44.292  26.168  29.562  1.00  0.00    -0.248 NA
ATOM     37  C   UNL A   1      44.847  23.972  28.991  1.00  0.00     0.031 C 
ATOM     38  C   UNL A   1      40.149  25.460  28.066  1.00  0.00     0.029 A 
ATOM     39  N   UNL A   1      41.494  26.907  29.118  1.00  0.00    -0.354 N 
ATOM     40  C   UNL A   1      45.610  25.927  29.923  1.00  0.00     0.074 A 
ATOM     41  C   UNL A   1      45.888  24.544  29.583  1.00  0.00     0.031 C 
ATOM     42  C   UNL A   1      39.431  26.565  28.318  1.00  0.00     0.029 A 
ATOM     43  C   UNL A   1      40.280  27.536  29.000  1.00  0.00     0.049 A 
ATOM     44  H   UNL A   1      42.273  27.312  29.563  1.00  0.00     0.167 HD
ATOM     45  C   UNL A   1      46.506  26.787  30.470  1.00  0.00     0.037 A 
ATOM     46  C   UNL A   1      39.897  28.766  29.385  1.00  0.00     0.037 A 
ATOM     47  C   UNL A   1      46.211  28.152  30.836  1.00  0.00     0.049 A 
ATOM     48  C   UNL A   1      40.899  29.681  30.030  1.00  0.00     0.074 A 
ATOM     49  C   UNL A   1      47.064  29.112  31.355  1.00  0.00     0.029 A 
ATOM     50  N   UNL A   1      44.959  28.745  30.744  1.00  0.00    -0.354 N 
ATOM     51  N   UNL A   1      42.171  29.479  30.271  1.00  0.00    -0.248 NA
ATOM     52  C   UNL A   1      40.409  31.001  30.446  1.00  0.00     0.031 C 
ATOM     53  C   UNL A   1      46.318  30.265  31.627  1.00  0.00     0.029 A 
ATOM     54  C   UNL A   1      45.010  30.044  31.229  1.00  0.00     0.049 A 
ATOM     55  H   UNL A   1      44.153  28.307  30.387  1.00  0.00     0.167 HD
ATOM     56  C   UNL A   1      42.640  30.654  30.841  1.00  0.00     0.074 A 
ATOM     57  C   UNL A   1      41.520  31.572  30.889  1.00  0.00     0.031 C 
ATOM     58  C   UNL A   1      43.888  30.948  31.285  1.00  0.00     0.037 A 
BRANCH  45  59
ATOM     59  C   UNL A   1      47.899  26.276  30.705  1.00  0.00     0.057 A 
ATOM     60  C   UNL A   1      48.887  26.393  29.719  1.00  0.00     0.134 A 
ATOM     61  C   UNL A   1      48.251  25.624  31.895  1.00  0.00     0.134 A 
ATOM     62  F   UNL A   1      48.615  26.991  28.549  1.00  0.00    -0.206 F 
ATOM     63  C   UNL A   1      50.174  25.884  29.909  1.00  0.00     0.040 A 
ATOM     64  C   UNL A   1      49.543  25.135  32.107  1.00  0.00     0.040 A 
ATOM     65  F   UNL A   1      47.354  25.477  32.881  1.00  0.00    -0.206 F 
ATOM     66  C   UNL A   1      50.507  25.260  31.109  1.00  0.00     0.006 A 
ENDBRANCH  45  59
BRANCH  46  67
ATOM     67  C   UNL A   1      38.508  29.220  29.137  1.00  0.00     0.057 A 
ATOM     68  C   UNL A   1      38.099  29.653  27.871  1.00  0.00     0.134 A 
ATOM     69  C   UNL A   1      37.553  29.214  30.160  1.00  0.00     0.134 A 
ATOM     70  F   UNL A   1      38.972  29.692  26.853  1.00  0.00    -0.206 F 
ATOM     71  C   UNL A   1      36.789  30.066  27.630  1.00  0.00     0.040 A 
ATOM     72  C   UNL A   1      36.233  29.598  29.928  1.00  0.00     0.040 A 
ATOM     73  F   UNL A   1      37.885  28.794  31.390  1.00  0.00    -0.206 F 
ATOM     74  C   UNL A   1      35.849  30.029  28.659  1.00  0.00     0.006 A 
ENDBRANCH  46  67
BRANCH  58  75
ATOM     75  C   UNL A   1      44.100  32.327  31.843  1.00  0.00     0.057 A 
ATOM     76  C   UNL A   1      44.470  33.388  31.005  1.00  0.00     0.134 A 
ATOM     77  C   UNL A   1      43.934  32.609  33.205  1.00  0.00     0.134 A 
ATOM     78  F   UNL A   1      44.652  33.188  29.691  1.00  0.00    -0.206 F 
ATOM     79  C   UNL A   1      44.659  34.678  31.502  1.00  0.00     0.040 A 
ATOM     80  C   UNL A   1      44.091  33.902  33.708  1.00  0.00     0.040 A 
ATOM     81  F   UNL A   1      43.563  31.643  34.060  1.00  0.00    -0.206 F 
ATOM     82  C   UNL A   1      44.460  34.941  32.856  1.00  0.00     0.006 A 
ENDBRANCH  58  75
ENDBRANCH  32  33
ENDBRANCH  25  27
ENDBRANCH  24  25
ENDBRANCH  23  24
ENDBRANCH  22  23
ENDBRANCH  21  22
ENDBRANCH   1  21
TORSDOF 18
ENDMDL
MODEL 2
REMARK VINA RESULT:      -8.8      0.580      6.234
REMARK SMILES C[C@H]1Cc2ccccc2N1/C=C\C(=O)OCCOCCOCCOC(=O)c1ccc(-c2c3nc(c(-c4c(F)cccc4F)c4ccc([nH]4)c(-c4c(F)cccc4F)c4nc(c(-c5c(F)cccc5F)c5ccc2[nH]5)C=C4)C=C3)cc1
REMARK SMILES IDX 20 1 19 2 18 3 17 4 16 5 15 6 13 7 14 8 12 9 11 10 10 11
REMARK SMILES IDX 1 12 2 13 3 14 4 15 9 16 5 17 8 18 6 19 7 20 21 21 22 22
REMARK SMILES IDX 23 23 24 24 25 25 26 26 27 27 28 28 80 29 29 30 79 31 30 32
REMARK SMILES IDX 31 33 32 34 73 35 33 36 78 37 72 38 74 39 34 40 77 41 71 42
REMARK SMILES IDX 70 43 35 45 61 46 44 47 60 48 45 49 48 50 59 51 75 52 46 53
REMARK SMILES IDX 47 54 58 56 76 57 49 58 36 59 37 60 42 61 38 62 39 63 41 64
REMARK SMILES IDX 43 65 40 66 62 67 63 68 68 69 64 70 65 71 67 72 69 73 66 74
REMARK SMILES IDX 50 75 51 76 56 77 52 78 53 79 55 80 57 81 54 82
REMARK H PARENT 74 44 48 55
REMARK Flexibility Score: inf
ROOT
ATOM      1  C   UNL A   1      45.780  21.130  24.750  1.00  0.00     0.188 C 
ENDROOT
BRANCH   1   2
ATOM      2  C   UNL A   1      45.194  22.280  23.901  1.00  0.00     0.188 C 
BRANCH   2   3
ATOM      3  O   UNL A   1      45.893  23.510  23.810  1.00  0.00    -0.376 OA
BRANCH   3   4
ATOM      4  C   UNL A   1      46.414  24.077  25.007  1.00  0.00     0.202 C 
BRANCH   4   5
ATOM      5  C   UNL A   1      47.584  25.056  24.892  1.00  0.00     0.261 C 
BRANCH   5   6
ATOM      6  O   UNL A   1      47.292  26.091  23.937  1.00  0.00    -0.460 OA
BRANCH   6   7
ATOM      7  C   UNL A   1      47.320  27.366  24.381  1.00  0.00     0.332 C 
ATOM      8  O   UNL A   1      47.029  28.358  23.732  1.00  0.00    -0.247 OA
BRANCH   7   9
ATOM      9  C   UNL A   1      47.562  27.435  25.835  1.00  0.00     0.111 C 
ATOM     10  C   UNL A   1      46.884  28.021  26.833  1.00  0.00     0.094 C 
BRANCH  10  11
ATOM     11  N   UNL A   1      45.722  28.755  26.936  1.00  0.00    -0.344 N 
ATOM     12  C   UNL A   1      46.212  31.167  26.624  1.00  0.00     0.032 C 
ATOM     13  C   UNL A   1      45.536  30.110  27.506  1.00  0.00     0.088 C 
ATOM     14  C   UNL A   1      44.017  30.385  27.609  1.00  0.00     0.062 C 
ATOM     15  C   UNL A   1      43.465  29.344  26.700  1.00  0.00    -0.022 A 
ATOM     16  C   UNL A   1      44.453  28.401  26.401  1.00  0.00     0.044 A 
ATOM     17  C   UNL A   1      42.165  29.234  26.231  1.00  0.00     0.006 A 
ATOM     18  C   UNL A   1      44.119  27.292  25.636  1.00  0.00     0.026 A 
ATOM     19  C   UNL A   1      41.842  28.133  25.440  1.00  0.00     0.000 A 
ATOM     20  C   UNL A   1      42.809  27.162  25.154  1.00  0.00     0.002 A 
ENDBRANCH  10  11
ENDBRANCH   7   9
ENDBRANCH   6   7
ENDBRANCH   5   6
ENDBRANCH   4   5
ENDBRANCH   3   4
ENDBRANCH   2   3
ENDBRANCH   1   2
BRANCH   1  21
ATOM     21  O   UNL A   1      45.614  19.793  24.335  1.00  0.00    -0.376 OA
BRANCH  21  22
ATOM     22  C   UNL A   1      45.106  18.807  25.221  1.00  0.00     0.202 C 
BRANCH  22  23
ATOM     23  C   UNL A   1      43.671  18.778  25.777  1.00  0.00     0.261 C 
BRANCH  23  24
ATOM     24  O   UNL A   1      42.730  19.657  25.158  1.00  0.00    -0.460 OA
BRANCH  24  25
ATOM     25  C   UNL A   1      41.690  20.043  25.944  1.00  0.00     0.338 C 
ATOM     26  O   UNL A   1      40.714  19.390  26.257  1.00  0.00    -0.246 OA
BRANCH  25  27
ATOM     27  C   UNL A   1      42.038  21.339  26.556  1.00  0.00     0.060 A 
ATOM     28  C   UNL A   1      42.500  22.395  25.772  1.00  0.00     0.016 A 
ATOM     29  C   UNL A   1      41.950  21.467  27.949  1.00  0.00     0.016 A 
ATOM     30  C   UNL A   1      42.863  23.594  26.386  1.00  0.00     0.010 A 
ATOM     31  C   UNL A   1      42.326  22.663  28.564  1.00  0.00     0.010 A 
ATOM     32  C   UNL A   1      42.770  23.740  27.782  1.00  0.00    -0.014 A 
BRANCH  32  33
ATOM     33  C   UNL A   1      42.975  25.077  28.386  1.00  0.00     0.031 A 
ATOM     34  C   UNL A   1      41.862  26.069  28.533  1.00  0.00     0.074 A 
ATOM     35  C   UNL A   1      44.210  25.380  28.824  1.00  0.00     0.049 A 
ATOM     36  N   UNL A   1      41.864  27.213  29.168  1.00  0.00    -0.248 NA
ATOM     37  C   UNL A   1      40.590  25.742  27.877  1.00  0.00     0.031 C 
ATOM     38  C   UNL A   1      45.380  24.509  28.696  1.00  0.00     0.029 A 
ATOM     39  N   UNL A   1      44.684  26.487  29.477  1.00  0.00    -0.354 N 
ATOM     40  C   UNL A   1      40.586  27.735  29.018  1.00  0.00     0.074 A 
ATOM     41  C   UNL A   1      39.854  26.804  28.180  1.00  0.00     0.031 C 
ATOM     42  C   UNL A   1      46.431  25.101  29.282  1.00  0.00     0.029 A 
ATOM     43  C   UNL A   1      46.012  26.395  29.810  1.00  0.00     0.049 A 
ATOM     44  H   UNL A   1      44.126  27.271  29.685  1.00  0.00     0.167 HD
ATOM     45  C   UNL A   1      40.072  28.874  29.547  1.00  0.00     0.037 A 
ATOM     46  C   UNL A   1      46.800  27.252  30.482  1.00  0.00     0.037 A 
ATOM     47  C   UNL A   1      40.818  29.811  30.353  1.00  0.00     0.049 A 
ATOM     48  C   UNL A   1      46.215  28.527  31.016  1.00  0.00     0.074 A 
ATOM     49  C   UNL A   1      40.373  30.969  30.969  1.00  0.00     0.029 A 
ATOM     50  N   UNL A   1      42.174  29.711  30.636  1.00  0.00    -0.354 N 
ATOM     51  N   UNL A   1      44.979  28.960  30.959  1.00  0.00    -0.248 NA
ATOM     52  C   UNL A   1      47.137  29.428  31.721  1.00  0.00     0.031 C 
ATOM     53  C   UNL A   1      41.468  31.596  31.576  1.00  0.00     0.029 A 
ATOM     54  C   UNL A   1      42.587  30.802  31.385  1.00  0.00     0.049 A 
ATOM     55  H   UNL A   1      42.757  28.973  30.345  1.00  0.00     0.167 HD
ATOM     56  C   UNL A   1      44.969  30.169  31.641  1.00  0.00     0.074 A 
ATOM     57  C   UNL A   1      46.317  30.389  32.123  1.00  0.00     0.031 C 
ATOM     58  C   UNL A   1      43.934  31.021  31.851  1.00  0.00     0.037 A 
BRANCH  45  59
ATOM     59  C   UNL A   1      38.625  29.171  29.272  1.00  0.00     0.057 A 
ATOM     60  C   UNL A   1      38.206  29.613  28.011  1.00  0.00     0.134 A 
ATOM     61  C   UNL A   1      37.650  29.061  30.273  1.00  0.00     0.134 A 
ATOM     62  F   UNL A   1      39.088  29.756  27.011  1.00  0.00    -0.206 F 
ATOM     63  C   UNL A   1      36.870  29.933  27.755  1.00  0.00     0.040 A 
ATOM     64  C   UNL A   1      36.307  29.352  30.022  1.00  0.00     0.040 A 
ATOM     65  F   UNL A   1      37.982  28.643  31.504  1.00  0.00    -0.206 F 
ATOM     66  C   UNL A   1      35.915  29.794  28.760  1.00  0.00     0.006 A 
ENDBRANCH  45  59
BRANCH  46  67
ATOM     67  C   UNL A   1      48.224  26.915  30.720  1.00  0.00     0.057 A 
ATOM     68  C   UNL A   1      48.602  26.024  31.730  1.00  0.00     0.134 A 
ATOM     69  C   UNL A   1      49.238  27.466  29.928  1.00  0.00     0.134 A 
ATOM     70  F   UNL A   1      47.676  25.472  32.528  1.00  0.00    -0.206 F 
ATOM     71  C   UNL A   1      49.939  25.692  31.947  1.00  0.00     0.040 A 
ATOM     72  C   UNL A   1      50.577  27.123  30.116  1.00  0.00     0.040 A 
ATOM     73  F   UNL A   1      48.934  28.315  28.936  1.00  0.00    -0.206 F 
ATOM     74  C   UNL A   1      50.931  26.236  31.131  1.00  0.00     0.006 A 
ENDBRANCH  46  67
BRANCH  58  75
ATOM     75  C   UNL A   1      44.228  32.257  32.652  1.00  0.00     0.057 A 
ATOM     76  C   UNL A   1      44.516  33.472  32.014  1.00  0.00     0.134 A 
ATOM     77  C   UNL A   1      44.220  32.251  34.053  1.00  0.00     0.134 A 
ATOM     78  F   UNL A   1      44.546  33.548  30.675  1.00  0.00    -0.206 F 
ATOM     79  C   UNL A   1      44.779  34.634  32.741  1.00  0.00     0.040 A 
ATOM     80  C   UNL A   1      44.451  33.415  34.791  1.00  0.00     0.040 A 
ATOM     81  F   UNL A   1      43.934  31.127  34.727  1.00  0.00    -0.206 F 
ATOM     82  C   UNL A   1      44.737  34.610  34.134  1.00  0.00     0.006 A 
ENDBRANCH  58  75
ENDBRANCH  32  33
ENDBRANCH  25  27
ENDBRANCH  24  25
ENDBRANCH  23  24
ENDBRANCH  22  23
ENDBRANCH  21  22
ENDBRANCH   1  21
TORSDOF 18
ENDMDL
MODEL 3
REMARK VINA RESULT:      -8.2      4.532      7.327
REMARK SMILES C[C@H]1Cc2ccccc2N1/C=C\C(=O)OCCOCCOCCOC(=O)c1ccc(-c2c3nc(c(-c4c(F)cccc4F)c4ccc([nH]4)c(-c4c(F)cccc4F)c4nc(c(-c5c(F)cccc5F)c5ccc2[nH]5)C=C4)C=C3)cc1
REMARK SMILES IDX 20 1 19 2 18 3 17 4 16 5 15 6 13 7 14 8 12 9 11 10 10 11
REMARK SMILES IDX 1 12 2 13 3 14 4 15 9 16 5 17 8 18 6 19 7 20 21 21 22 22
REMARK SMILES IDX 23 23 24 24 25 25 26 26 27 27 28 28 80 29 29 30 79 31 30 32
REMARK SMILES IDX 31 33 32 34 73 35 33 36 78 37 72 38 74 39 34 40 77 41 71 42
REMARK SMILES IDX 70 43 35 45 61 46 44 47 60 48 45 49 48 50 59 51 75 52 46 53
REMARK SMILES IDX 47 54 58 56 76 57 49 58 36 59 37 60 42 61 38 62 39 63 41 64
REMARK SMILES IDX 43 65 40 66 62 67 63 68 68 69 64 70 65 71 67 72 69 73 66 74
REMARK SMILES IDX 50 75 51 76 56 77 52 78 53 79 55 80 57 81 54 82
REMARK H PARENT 74 44 48 55
REMARK Flexibility Score: inf
ROOT
ATOM      1  C   UNL A   1      33.927  19.408  24.611  1.00  0.00     0.188 C 
ENDROOT
BRANCH   1   2
ATOM      2  C   UNL A   1      32.724  20.301  24.232  1.00  0.00     0.188 C 
BRANCH   2   3
ATOM      3  O   UNL A   1      32.943  21.655  23.873  1.00  0.00    -0.376 OA
BRANCH   3   4
ATOM      4  C   UNL A   1      32.543  22.078  22.573  1.00  0.00     0.202 C 
BRANCH   4   5
ATOM      5  C   UNL A   1      33.223  23.310  21.974  1.00  0.00     0.261 C 
BRANCH   5   6
ATOM      6  O   UNL A   1      32.383  24.471  22.102  1.00  0.00    -0.460 OA
BRANCH   6   7
ATOM      7  C   UNL A   1      32.870  25.639  21.635  1.00  0.00     0.332 C 
ATOM      8  O   UNL A   1      33.203  25.869  20.482  1.00  0.00    -0.247 OA
BRANCH   7   9
ATOM      9  C   UNL A   1      32.780  26.713  22.644  1.00  0.00     0.111 C 
ATOM     10  C   UNL A   1      32.656  26.685  23.979  1.00  0.00     0.094 C 
BRANCH  10  11
ATOM     11  N   UNL A   1      32.581  25.700  24.941  1.00  0.00    -0.344 N 
ATOM     12  C   UNL A   1      30.466  24.430  24.692  1.00  0.00     0.032 C 
ATOM     13  C   UNL A   1      31.384  25.196  25.652  1.00  0.00     0.088 C 
ATOM     14  C   UNL A   1      31.858  24.272  26.798  1.00  0.00     0.062 C 
ATOM     15  C   UNL A   1      33.259  23.985  26.388  1.00  0.00    -0.022 A 
ATOM     16  C   UNL A   1      33.649  24.868  25.377  1.00  0.00     0.044 A 
ATOM     17  C   UNL A   1      34.120  23.040  26.924  1.00  0.00     0.006 A 
ATOM     18  C   UNL A   1      34.956  24.828  24.912  1.00  0.00     0.026 A 
ATOM     19  C   UNL A   1      35.424  22.986  26.434  1.00  0.00     0.000 A 
ATOM     20  C   UNL A   1      35.843  23.882  25.443  1.00  0.00     0.002 A 
ENDBRANCH  10  11
ENDBRANCH   7   9
ENDBRANCH   6   7
ENDBRANCH   5   6
ENDBRANCH   4   5
ENDBRANCH   3   4
ENDBRANCH   2   3
ENDBRANCH   1   2
BRANCH   1  21
ATOM     21  O   UNL A   1      35.133  19.996  25.043  1.00  0.00    -0.376 OA
BRANCH  21  22
ATOM     22  C   UNL A   1      36.368  19.307  24.925  1.00  0.00     0.202 C 
BRANCH  22  23
ATOM     23  C   UNL A   1      37.726  19.974  24.641  1.00  0.00     0.261 C 
BRANCH  23  24
ATOM     24  O   UNL A   1      38.173  20.939  25.594  1.00  0.00    -0.460 OA
BRANCH  24  25
ATOM     25  C   UNL A   1      39.393  20.695  26.141  1.00  0.00     0.338 C 
ATOM     26  O   UNL A   1      40.026  19.657  26.113  1.00  0.00    -0.246 OA
BRANCH  25  27
ATOM     27  C   UNL A   1      39.951  21.980  26.603  1.00  0.00     0.060 A 
ATOM     28  C   UNL A   1      40.961  22.014  27.563  1.00  0.00     0.016 A 
ATOM     29  C   UNL A   1      39.402  23.168  26.099  1.00  0.00     0.016 A 
ATOM     30  C   UNL A   1      41.437  23.247  28.011  1.00  0.00     0.010 A 
ATOM     31  C   UNL A   1      39.869  24.401  26.558  1.00  0.00     0.010 A 
ATOM     32  C   UNL A   1      40.902  24.447  27.506  1.00  0.00    -0.014 A 
BRANCH  32  33
ATOM     33  C   UNL A   1      41.553  25.732  27.851  1.00  0.00     0.031 A 
ATOM     34  C   UNL A   1      42.940  26.073  27.403  1.00  0.00     0.074 A 
ATOM     35  C   UNL A   1      40.844  26.612  28.582  1.00  0.00     0.049 A 
ATOM     36  N   UNL A   1      43.579  27.211  27.509  1.00  0.00    -0.248 NA
ATOM     37  C   UNL A   1      43.715  25.001  26.765  1.00  0.00     0.031 C 
ATOM     38  C   UNL A   1      39.500  26.370  29.110  1.00  0.00     0.029 A 
ATOM     39  N   UNL A   1      41.144  27.884  28.991  1.00  0.00    -0.354 N 
ATOM     40  C   UNL A   1      44.821  27.008  26.924  1.00  0.00     0.074 A 
ATOM     41  C   UNL A   1      44.865  25.616  26.517  1.00  0.00     0.031 C 
ATOM     42  C   UNL A   1      39.077  27.473  29.746  1.00  0.00     0.029 A 
ATOM     43  C   UNL A   1      40.125  28.488  29.683  1.00  0.00     0.049 A 
ATOM     44  H   UNL A   1      42.007  28.321  28.807  1.00  0.00     0.167 HD
ATOM     45  C   UNL A   1      45.820  27.906  26.730  1.00  0.00     0.037 A 
ATOM     46  C   UNL A   1      40.037  29.727  30.196  1.00  0.00     0.037 A 
ATOM     47  C   UNL A   1      45.779  29.280  27.168  1.00  0.00     0.049 A 
ATOM     48  C   UNL A   1      41.177  30.685  30.006  1.00  0.00     0.074 A 
ATOM     49  C   UNL A   1      46.723  30.277  26.980  1.00  0.00     0.029 A 
ATOM     50  N   UNL A   1      44.749  29.849  27.906  1.00  0.00    -0.354 N 
ATOM     51  N   UNL A   1      42.304  30.515  29.358  1.00  0.00    -0.248 NA
ATOM     52  C   UNL A   1      41.024  32.015  30.611  1.00  0.00     0.031 C 
ATOM     53  C   UNL A   1      46.291  31.428  27.648  1.00  0.00     0.029 A 
ATOM     54  C   UNL A   1      45.051  31.168  28.209  1.00  0.00     0.049 A 
ATOM     55  H   UNL A   1      43.925  29.382  28.175  1.00  0.00     0.167 HD
ATOM     56  C   UNL A   1      42.982  31.722  29.455  1.00  0.00     0.074 A 
ATOM     57  C   UNL A   1      42.130  32.622  30.205  1.00  0.00     0.031 C 
ATOM     58  C   UNL A   1      44.203  32.055  28.967  1.00  0.00     0.037 A 
BRANCH  45  59
ATOM     59  C   UNL A   1      47.046  27.428  26.006  1.00  0.00     0.057 A 
ATOM     60  C   UNL A   1      47.130  27.489  24.610  1.00  0.00     0.134 A 
ATOM     61  C   UNL A   1      48.130  26.864  26.692  1.00  0.00     0.134 A 
ATOM     62  F   UNL A   1      46.123  28.003  23.888  1.00  0.00    -0.206 F 
ATOM     63  C   UNL A   1      48.248  27.010  23.922  1.00  0.00     0.040 A 
ATOM     64  C   UNL A   1      49.265  26.405  26.018  1.00  0.00     0.040 A 
ATOM     65  F   UNL A   1      48.117  26.773  28.030  1.00  0.00    -0.206 F 
ATOM     66  C   UNL A   1      49.323  26.473  24.627  1.00  0.00     0.006 A 
ENDBRANCH  45  59
BRANCH  46  67
ATOM     67  C   UNL A   1      38.806  30.146  30.909  1.00  0.00     0.057 A 
ATOM     68  C   UNL A   1      37.763  30.796  30.239  1.00  0.00     0.134 A 
ATOM     69  C   UNL A   1      38.641  29.891  32.275  1.00  0.00     0.134 A 
ATOM     70  F   UNL A   1      37.868  31.079  28.932  1.00  0.00    -0.206 F 
ATOM     71  C   UNL A   1      36.598  31.179  30.903  1.00  0.00     0.040 A 
ATOM     72  C   UNL A   1      37.470  30.243  32.945  1.00  0.00     0.040 A 
ATOM     73  F   UNL A   1      39.601  29.258  32.964  1.00  0.00    -0.206 F 
ATOM     74  C   UNL A   1      36.445  30.892  32.259  1.00  0.00     0.006 A 
ENDBRANCH  46  67
BRANCH  58  75
ATOM     75  C   UNL A   1      44.671  33.461  29.217  1.00  0.00     0.057 A 
ATOM     76  C   UNL A   1      45.435  33.769  30.351  1.00  0.00     0.134 A 
ATOM     77  C   UNL A   1      44.374  34.509  28.336  1.00  0.00     0.134 A 
ATOM     78  F   UNL A   1      45.752  32.815  31.239  1.00  0.00    -0.206 F 
ATOM     79  C   UNL A   1      45.891  35.066  30.594  1.00  0.00     0.040 A 
ATOM     80  C   UNL A   1      44.849  35.804  28.553  1.00  0.00     0.040 A 
ATOM     81  F   UNL A   1      43.662  34.280  27.222  1.00  0.00    -0.206 F 
ATOM     82  C   UNL A   1      45.606  36.086  29.688  1.00  0.00     0.006 A 
ENDBRANCH  58  75
ENDBRANCH  32  33
ENDBRANCH  25  27
ENDBRANCH  24  25
ENDBRANCH  23  24
ENDBRANCH  22  23
ENDBRANCH  21  22
ENDBRANCH   1  21
TORSDOF 18
ENDMDL
