MODEL 1
REMARK VINA RESULT:     -11.4      0.000      0.000
REMARK SMILES O=C(OCCOCCOCCOC(=O)c1ccccc1/N=C/c1coc2ccccc2c1=O)c1ccc(-c2c3nc(c(-c4c(F)cccc4F)c4ccc([nH]4)c(-c4c(F)cccc4F)c4nc(c(-c5c(F)cccc5F)c5ccc2[nH]5)C=C4)C=C3)cc1
REMARK SMILES IDX 7 1 6 2 5 3 4 4 3 5 2 6 1 7 34 8 35 9 87 10 36 11 86 12
REMARK SMILES IDX 37 13 38 14 39 15 80 16 40 17 85 18 79 19 81 20 41 21 84 22
REMARK SMILES IDX 78 23 77 24 42 26 68 27 51 28 67 29 52 30 55 31 66 32 82 33
REMARK SMILES IDX 53 34 54 35 65 37 83 38 56 39 43 40 44 41 49 42 45 43 46 44
REMARK SMILES IDX 48 45 50 46 47 47 69 48 70 49 75 50 71 51 72 52 74 53 76 54
REMARK SMILES IDX 73 55 57 56 58 57 63 58 59 59 60 60 62 61 64 62 61 63 8 64
REMARK SMILES IDX 9 65 10 66 11 67 12 68 13 69 14 70 15 71 16 72 20 73 17 74
REMARK SMILES IDX 19 75 18 76 21 77 22 78 23 79 24 80 32 81 25 82 31 83 33 84
REMARK SMILES IDX 26 85 30 86 27 87 29 88 28 89
REMARK H PARENT 81 25 55 36
REMARK Flexibility Score: inf
ROOT
ATOM      1  C   UNL A   1      40.827  20.955  27.238  1.00  0.00     0.188 C 
ENDROOT
BRANCH   1   2
ATOM      2  O   UNL A   1      42.254  21.035  27.176  1.00  0.00    -0.376 OA
BRANCH   2   3
ATOM      3  C   UNL A   1      42.799  20.686  25.904  1.00  0.00     0.202 C 
BRANCH   3   4
ATOM      4  C   UNL A   1      43.839  21.699  25.416  1.00  0.00     0.261 C 
BRANCH   4   5
ATOM      5  O   UNL A   1      43.238  22.965  25.089  1.00  0.00    -0.460 OA
BRANCH   5   6
ATOM      6  C   UNL A   1      43.717  24.220  25.261  1.00  0.00     0.338 C 
ATOM      7  O   UNL A   1      44.689  24.556  24.582  1.00  0.00    -0.246 OA
BRANCH   6   8
ATOM      8  C   UNL A   1      43.108  25.266  26.152  1.00  0.00     0.060 A 
ATOM      9  C   UNL A   1      43.389  26.633  26.153  1.00  0.00     0.016 A 
ATOM     10  C   UNL A   1      42.148  24.802  27.077  1.00  0.00     0.016 A 
ATOM     11  C   UNL A   1      42.844  27.483  27.119  1.00  0.00     0.010 A 
ATOM     12  C   UNL A   1      41.570  25.652  28.027  1.00  0.00     0.010 A 
ATOM     13  C   UNL A   1      41.969  26.988  28.088  1.00  0.00    -0.014 A 
BRANCH  13  14
ATOM     14  C   UNL A   1      41.630  27.839  29.248  1.00  0.00     0.031 A 
ATOM     15  C   UNL A   1      40.402  28.692  29.179  1.00  0.00     0.074 A 
ATOM     16  C   UNL A   1      42.354  27.801  30.376  1.00  0.00     0.049 A 
ATOM     17  N   UNL A   1      39.858  29.429  30.111  1.00  0.00    -0.248 NA
ATOM     18  C   UNL A   1      39.698  28.721  27.889  1.00  0.00     0.031 C 
ATOM     19  C   UNL A   1      43.575  27.027  30.555  1.00  0.00     0.029 A 
ATOM     20  N   UNL A   1      42.152  28.409  31.592  1.00  0.00    -0.354 N 
ATOM     21  C   UNL A   1      38.759  30.026  29.515  1.00  0.00     0.074 A 
ATOM     22  C   UNL A   1      38.714  29.567  28.143  1.00  0.00     0.031 C 
ATOM     23  C   UNL A   1      43.983  27.174  31.824  1.00  0.00     0.029 A 
ATOM     24  C   UNL A   1      43.052  28.017  32.550  1.00  0.00     0.049 A 
ATOM     25  H   UNL A   1      41.434  29.061  31.758  1.00  0.00     0.167 HD
ATOM     26  C   UNL A   1      37.873  30.891  30.061  1.00  0.00     0.037 A 
ATOM     27  C   UNL A   1      43.118  28.269  33.870  1.00  0.00     0.037 A 
ATOM     28  C   UNL A   1      37.936  31.370  31.415  1.00  0.00     0.049 A 
ATOM     29  C   UNL A   1      42.102  29.189  34.467  1.00  0.00     0.074 A 
ATOM     30  C   UNL A   1      37.130  32.301  32.043  1.00  0.00     0.029 A 
ATOM     31  N   UNL A   1      38.869  30.949  32.351  1.00  0.00    -0.354 N 
ATOM     32  N   UNL A   1      41.080  29.767  33.888  1.00  0.00    -0.248 NA
ATOM     33  C   UNL A   1      42.269  29.524  35.887  1.00  0.00     0.031 C 
ATOM     34  C   UNL A   1      37.591  32.462  33.357  1.00  0.00     0.029 A 
ATOM     35  C   UNL A   1      38.665  31.608  33.553  1.00  0.00     0.049 A 
ATOM     36  H   UNL A   1      39.572  30.281  32.188  1.00  0.00     0.167 HD
ATOM     37  C   UNL A   1      40.493  30.555  34.862  1.00  0.00     0.074 A 
ATOM     38  C   UNL A   1      41.246  30.345  36.084  1.00  0.00     0.031 C 
ATOM     39  C   UNL A   1      39.441  31.400  34.747  1.00  0.00     0.037 A 
BRANCH  26  40
ATOM     40  C   UNL A   1      36.816  31.409  29.139  1.00  0.00     0.057 A 
ATOM     41  C   UNL A   1      36.840  32.724  28.656  1.00  0.00     0.134 A 
ATOM     42  C   UNL A   1      35.714  30.613  28.808  1.00  0.00     0.134 A 
ATOM     43  F   UNL A   1      37.851  33.546  28.974  1.00  0.00    -0.206 F 
ATOM     44  C   UNL A   1      35.786  33.238  27.900  1.00  0.00     0.040 A 
ATOM     45  C   UNL A   1      34.663  31.110  28.038  1.00  0.00     0.040 A 
ATOM     46  F   UNL A   1      35.627  29.351  29.257  1.00  0.00    -0.206 F 
ATOM     47  C   UNL A   1      34.693  32.429  27.590  1.00  0.00     0.006 A 
ENDBRANCH  26  40
BRANCH  27  48
ATOM     48  C   UNL A   1      44.146  27.609  34.717  1.00  0.00     0.057 A 
ATOM     49  C   UNL A   1      45.367  28.241  34.980  1.00  0.00     0.134 A 
ATOM     50  C   UNL A   1      43.934  26.354  35.299  1.00  0.00     0.134 A 
ATOM     51  F   UNL A   1      45.641  29.436  34.435  1.00  0.00    -0.206 F 
ATOM     52  C   UNL A   1      46.343  27.647  35.784  1.00  0.00     0.040 A 
ATOM     53  C   UNL A   1      44.893  25.755  36.119  1.00  0.00     0.040 A 
ATOM     54  F   UNL A   1      42.778  25.703  35.102  1.00  0.00    -0.206 F 
ATOM     55  C   UNL A   1      46.104  26.401  36.362  1.00  0.00     0.006 A 
ENDBRANCH  27  48
BRANCH  39  56
ATOM     56  C   UNL A   1      39.081  32.177  35.972  1.00  0.00     0.057 A 
ATOM     57  C   UNL A   1      38.234  31.636  36.948  1.00  0.00     0.134 A 
ATOM     58  C   UNL A   1      39.577  33.467  36.177  1.00  0.00     0.134 A 
ATOM     59  F   UNL A   1      37.713  30.409  36.792  1.00  0.00    -0.206 F 
ATOM     60  C   UNL A   1      37.878  32.362  38.083  1.00  0.00     0.040 A 
ATOM     61  C   UNL A   1      39.239  34.199  37.316  1.00  0.00     0.040 A 
ATOM     62  F   UNL A   1      40.386  34.038  35.273  1.00  0.00    -0.206 F 
ATOM     63  C   UNL A   1      38.384  33.647  38.270  1.00  0.00     0.006 A 
ENDBRANCH  39  56
ENDBRANCH  13  14
ENDBRANCH   6   8
ENDBRANCH   5   6
ENDBRANCH   4   5
ENDBRANCH   3   4
ENDBRANCH   2   3
ENDBRANCH   1   2
BRANCH   1  64
ATOM     64  C   UNL A   1      40.077  21.861  26.254  1.00  0.00     0.188 C 
BRANCH  64  65
ATOM     65  O   UNL A   1      38.948  22.508  26.830  1.00  0.00    -0.376 OA
BRANCH  65  66
ATOM     66  C   UNL A   1      38.640  23.772  26.248  1.00  0.00     0.202 C 
BRANCH  66  67
ATOM     67  C   UNL A   1      37.302  23.813  25.503  1.00  0.00     0.261 C 
BRANCH  67  68
ATOM     68  O   UNL A   1      36.757  22.529  25.135  1.00  0.00    -0.460 OA
BRANCH  68  69
ATOM     69  C   UNL A   1      36.104  22.481  23.951  1.00  0.00     0.340 C 
ATOM     70  O   UNL A   1      36.418  23.010  22.906  1.00  0.00    -0.246 OA
BRANCH  69  71
ATOM     71  C   UNL A   1      34.827  21.793  24.140  1.00  0.00     0.085 A 
ATOM     72  C   UNL A   1      34.822  20.587  24.861  1.00  0.00     0.018 A 
ATOM     73  C   UNL A   1      33.646  22.346  23.618  1.00  0.00     0.077 A 
ATOM     74  C   UNL A   1      33.625  19.903  25.063  1.00  0.00     0.001 A 
ATOM     75  C   UNL A   1      32.466  21.603  23.798  1.00  0.00     0.029 A 
ATOM     76  C   UNL A   1      32.448  20.400  24.514  1.00  0.00     0.002 A 
BRANCH  73  77
ATOM     77  N   UNL A   1      33.432  23.697  23.301  1.00  0.00    -0.255 NA
ATOM     78  C   UNL A   1      32.531  24.502  23.765  1.00  0.00     0.127 C 
BRANCH  78  79
ATOM     79  C   UNL A   1      32.027  25.514  22.781  1.00  0.00     0.076 A 
ATOM     80  C   UNL A   1      30.794  25.967  23.076  1.00  0.00     0.209 A 
ATOM     81  C   UNL A   1      32.993  26.621  22.489  1.00  0.00     0.201 A 
ATOM     82  O   UNL A   1      30.544  27.321  23.335  1.00  0.00    -0.463 OA
ATOM     83  C   UNL A   1      32.913  27.658  23.530  1.00  0.00     0.065 A 
ATOM     84  O   UNL A   1      33.851  26.570  21.623  1.00  0.00    -0.288 OA
ATOM     85  C   UNL A   1      31.615  27.914  23.993  1.00  0.00     0.137 A 
ATOM     86  C   UNL A   1      34.030  27.911  24.317  1.00  0.00     0.016 A 
ATOM     87  C   UNL A   1      31.415  28.479  25.245  1.00  0.00     0.048 A 
ATOM     88  C   UNL A   1      33.810  28.345  25.621  1.00  0.00     0.001 A 
ATOM     89  C   UNL A   1      32.523  28.664  26.074  1.00  0.00     0.004 A 
ENDBRANCH  78  79
ENDBRANCH  73  77
ENDBRANCH  69  71
ENDBRANCH  68  69
ENDBRANCH  67  68
ENDBRANCH  66  67
ENDBRANCH  65  66
ENDBRANCH  64  65
ENDBRANCH   1  64
TORSDOF 19
ENDMDL
MODEL 2
REMARK VINA RESULT:     -11.2      3.666      7.560
REMARK SMILES O=C(OCCOCCOCCOC(=O)c1ccccc1/N=C/c1coc2ccccc2c1=O)c1ccc(-c2c3nc(c(-c4c(F)cccc4F)c4ccc([nH]4)c(-c4c(F)cccc4F)c4nc(c(-c5c(F)cccc5F)c5ccc2[nH]5)C=C4)C=C3)cc1
REMARK SMILES IDX 7 1 6 2 5 3 4 4 3 5 2 6 1 7 34 8 35 9 87 10 36 11 86 12
REMARK SMILES IDX 37 13 38 14 39 15 80 16 40 17 85 18 79 19 81 20 41 21 84 22
REMARK SMILES IDX 78 23 77 24 42 26 68 27 51 28 67 29 52 30 55 31 66 32 82 33
REMARK SMILES IDX 53 34 54 35 65 37 83 38 56 39 43 40 44 41 49 42 45 43 46 44
REMARK SMILES IDX 48 45 50 46 47 47 69 48 70 49 75 50 71 51 72 52 74 53 76 54
REMARK SMILES IDX 73 55 57 56 58 57 63 58 59 59 60 60 62 61 64 62 61 63 8 64
REMARK SMILES IDX 9 65 10 66 11 67 12 68 13 69 14 70 15 71 16 72 20 73 17 74
REMARK SMILES IDX 19 75 18 76 21 77 22 78 23 79 24 80 32 81 25 82 31 83 33 84
REMARK SMILES IDX 26 85 30 86 27 87 29 88 28 89
REMARK H PARENT 81 25 55 36
REMARK Flexibility Score: inf
ROOT
ATOM      1  C   UNL A   1      34.746  20.316  24.685  1.00  0.00     0.188 C 
ENDROOT
BRANCH   1   2
ATOM      2  O   UNL A   1      36.005  19.954  25.257  1.00  0.00    -0.376 OA
BRANCH   2   3
ATOM      3  C   UNL A   1      37.131  20.531  24.596  1.00  0.00     0.202 C 
BRANCH   3   4
ATOM      4  C   UNL A   1      38.276  20.849  25.561  1.00  0.00     0.261 C 
BRANCH   4   5
ATOM      5  O   UNL A   1      39.273  19.811  25.567  1.00  0.00    -0.460 OA
BRANCH   5   6
ATOM      6  C   UNL A   1      40.574  19.862  25.941  1.00  0.00     0.338 C 
ATOM      7  O   UNL A   1      41.296  18.917  25.620  1.00  0.00    -0.246 OA
BRANCH   6   8
ATOM      8  C   UNL A   1      41.229  21.019  26.642  1.00  0.00     0.060 A 
ATOM      9  C   UNL A   1      41.440  21.155  28.016  1.00  0.00     0.016 A 
ATOM     10  C   UNL A   1      41.677  22.068  25.811  1.00  0.00     0.016 A 
ATOM     11  C   UNL A   1      41.950  22.339  28.555  1.00  0.00     0.010 A 
ATOM     12  C   UNL A   1      42.222  23.243  26.340  1.00  0.00     0.010 A 
ATOM     13  C   UNL A   1      42.300  23.404  27.723  1.00  0.00    -0.014 A 
BRANCH  13  14
ATOM     14  C   UNL A   1      42.572  24.725  28.330  1.00  0.00     0.031 A 
ATOM     15  C   UNL A   1      43.992  25.119  28.587  1.00  0.00     0.074 A 
ATOM     16  C   UNL A   1      41.582  25.595  28.579  1.00  0.00     0.049 A 
ATOM     17  N   UNL A   1      44.467  26.262  29.008  1.00  0.00    -0.248 NA
ATOM     18  C   UNL A   1      45.011  24.088  28.342  1.00  0.00     0.031 C 
ATOM     19  C   UNL A   1      40.165  25.319  28.388  1.00  0.00     0.029 A 
ATOM     20  N   UNL A   1      41.622  26.896  29.021  1.00  0.00    -0.354 N 
ATOM     21  C   UNL A   1      45.837  26.082  29.098  1.00  0.00     0.074 A 
ATOM     22  C   UNL A   1      46.119  24.722  28.690  1.00  0.00     0.031 C 
ATOM     23  C   UNL A   1      39.478  26.437  28.669  1.00  0.00     0.029 A 
ATOM     24  C   UNL A   1      40.393  27.504  29.026  1.00  0.00     0.049 A 
ATOM     25  H   UNL A   1      42.449  27.345  29.307  1.00  0.00     0.167 HD
ATOM     26  C   UNL A   1      46.777  26.969  29.498  1.00  0.00     0.037 A 
ATOM     27  C   UNL A   1      40.028  28.778  29.256  1.00  0.00     0.037 A 
ATOM     28  C   UNL A   1      46.494  28.310  29.932  1.00  0.00     0.049 A 
ATOM     29  C   UNL A   1      41.086  29.759  29.651  1.00  0.00     0.074 A 
ATOM     30  C   UNL A   1      47.366  29.264  30.424  1.00  0.00     0.029 A 
ATOM     31  N   UNL A   1      45.232  28.885  29.925  1.00  0.00    -0.354 N 
ATOM     32  N   UNL A   1      42.377  29.571  29.756  1.00  0.00    -0.248 NA
ATOM     33  C   UNL A   1      40.636  31.113  29.998  1.00  0.00     0.031 C 
ATOM     34  C   UNL A   1      46.625  30.411  30.739  1.00  0.00     0.029 A 
ATOM     35  C   UNL A   1      45.298  30.180  30.414  1.00  0.00     0.049 A 
ATOM     36  H   UNL A   1      44.410  28.440  29.619  1.00  0.00     0.167 HD
ATOM     37  C   UNL A   1      42.896  30.773  30.204  1.00  0.00     0.074 A 
ATOM     38  C   UNL A   1      41.784  31.699  30.306  1.00  0.00     0.031 C 
ATOM     39  C   UNL A   1      44.176  31.073  30.529  1.00  0.00     0.037 A 
BRANCH  26  40
ATOM     40  C   UNL A   1      48.181  26.457  29.540  1.00  0.00     0.057 A 
ATOM     41  C   UNL A   1      48.693  25.804  30.669  1.00  0.00     0.134 A 
ATOM     42  C   UNL A   1      49.056  26.703  28.477  1.00  0.00     0.134 A 
ATOM     43  F   UNL A   1      47.912  25.576  31.735  1.00  0.00    -0.206 F 
ATOM     44  C   UNL A   1      50.038  25.440  30.749  1.00  0.00     0.040 A 
ATOM     45  C   UNL A   1      50.399  26.328  28.538  1.00  0.00     0.040 A 
ATOM     46  F   UNL A   1      48.628  27.340  27.376  1.00  0.00    -0.206 F 
ATOM     47  C   UNL A   1      50.895  25.704  29.681  1.00  0.00     0.006 A 
ENDBRANCH  26  40
BRANCH  27  48
ATOM     48  C   UNL A   1      38.616  29.207  29.075  1.00  0.00     0.057 A 
ATOM     49  C   UNL A   1      38.142  29.586  27.813  1.00  0.00     0.134 A 
ATOM     50  C   UNL A   1      37.705  29.232  30.137  1.00  0.00     0.134 A 
ATOM     51  F   UNL A   1      38.969  29.605  26.758  1.00  0.00    -0.206 F 
ATOM     52  C   UNL A   1      36.816  29.979  27.615  1.00  0.00     0.040 A 
ATOM     53  C   UNL A   1      36.372  29.607  29.951  1.00  0.00     0.040 A 
ATOM     54  F   UNL A   1      38.090  28.863  31.367  1.00  0.00    -0.206 F 
ATOM     55  C   UNL A   1      35.925  29.985  28.687  1.00  0.00     0.006 A 
ENDBRANCH  27  48
BRANCH  39  56
ATOM     56  C   UNL A   1      44.416  32.451  31.057  1.00  0.00     0.057 A 
ATOM     57  C   UNL A   1      44.336  32.724  32.429  1.00  0.00     0.134 A 
ATOM     58  C   UNL A   1      44.725  33.507  30.196  1.00  0.00     0.134 A 
ATOM     59  F   UNL A   1      44.023  31.751  33.299  1.00  0.00    -0.206 F 
ATOM     60  C   UNL A   1      44.540  34.011  32.925  1.00  0.00     0.040 A 
ATOM     61  C   UNL A   1      44.944  34.796  30.682  1.00  0.00     0.040 A 
ATOM     62  F   UNL A   1      44.808  33.305  28.872  1.00  0.00    -0.206 F 
ATOM     63  C   UNL A   1      44.848  35.050  32.050  1.00  0.00     0.006 A 
ENDBRANCH  39  56
ENDBRANCH  13  14
ENDBRANCH   6   8
ENDBRANCH   5   6
ENDBRANCH   4   5
ENDBRANCH   3   4
ENDBRANCH   2   3
ENDBRANCH   1   2
BRANCH   1  64
ATOM     64  C   UNL A   1      33.696  19.198  24.649  1.00  0.00     0.188 C 
BRANCH  64  65
ATOM     65  O   UNL A   1      32.417  19.609  25.117  1.00  0.00    -0.376 OA
BRANCH  65  66
ATOM     66  C   UNL A   1      32.027  20.910  24.683  1.00  0.00     0.202 C 
BRANCH  66  67
ATOM     67  C   UNL A   1      31.281  21.728  25.741  1.00  0.00     0.261 C 
BRANCH  67  68
ATOM     68  O   UNL A   1      31.207  23.147  25.491  1.00  0.00    -0.460 OA
BRANCH  68  69
ATOM     69  C   UNL A   1      31.821  23.941  26.398  1.00  0.00     0.340 C 
ATOM     70  O   UNL A   1      31.304  24.675  27.214  1.00  0.00    -0.246 OA
BRANCH  69  71
ATOM     71  C   UNL A   1      33.263  23.908  26.161  1.00  0.00     0.085 A 
ATOM     72  C   UNL A   1      34.061  23.130  27.017  1.00  0.00     0.018 A 
ATOM     73  C   UNL A   1      33.817  24.631  25.092  1.00  0.00     0.077 A 
ATOM     74  C   UNL A   1      35.439  23.072  26.823  1.00  0.00     0.001 A 
ATOM     75  C   UNL A   1      35.216  24.589  24.956  1.00  0.00     0.029 A 
ATOM     76  C   UNL A   1      36.021  23.819  25.803  1.00  0.00     0.002 A 
BRANCH  73  77
ATOM     77  N   UNL A   1      33.139  25.051  23.936  1.00  0.00    -0.255 NA
ATOM     78  C   UNL A   1      33.628  25.328  22.770  1.00  0.00     0.127 C 
BRANCH  78  79
ATOM     79  C   UNL A   1      32.922  26.428  22.038  1.00  0.00     0.076 A 
ATOM     80  C   UNL A   1      31.584  26.385  22.181  1.00  0.00     0.209 A 
ATOM     81  C   UNL A   1      33.484  27.794  22.292  1.00  0.00     0.201 A 
ATOM     82  O   UNL A   1      30.866  27.438  22.763  1.00  0.00    -0.463 OA
ATOM     83  C   UNL A   1      32.946  28.343  23.547  1.00  0.00     0.065 A 
ATOM     84  O   UNL A   1      34.398  28.288  21.653  1.00  0.00    -0.288 OA
ATOM     85  C   UNL A   1      31.596  28.046  23.777  1.00  0.00     0.137 A 
ATOM     86  C   UNL A   1      33.820  28.616  24.593  1.00  0.00     0.016 A 
ATOM     87  C   UNL A   1      31.081  28.066  25.066  1.00  0.00     0.048 A 
ATOM     88  C   UNL A   1      33.326  28.494  25.889  1.00  0.00     0.001 A 
ATOM     89  C   UNL A   1      31.965  28.261  26.129  1.00  0.00     0.004 A 
ENDBRANCH  78  79
ENDBRANCH  73  77
ENDBRANCH  69  71
ENDBRANCH  68  69
ENDBRANCH  67  68
ENDBRANCH  66  67
ENDBRANCH  65  66
ENDBRANCH  64  65
ENDBRANCH   1  64
TORSDOF 19
ENDMDL
MODEL 3
REMARK VINA RESULT:     -11.2      4.534      9.858
REMARK SMILES O=C(OCCOCCOCCOC(=O)c1ccccc1/N=C/c1coc2ccccc2c1=O)c1ccc(-c2c3nc(c(-c4c(F)cccc4F)c4ccc([nH]4)c(-c4c(F)cccc4F)c4nc(c(-c5c(F)cccc5F)c5ccc2[nH]5)C=C4)C=C3)cc1
REMARK SMILES IDX 7 1 6 2 5 3 4 4 3 5 2 6 1 7 34 8 35 9 87 10 36 11 86 12
REMARK SMILES IDX 37 13 38 14 39 15 80 16 40 17 85 18 79 19 81 20 41 21 84 22
REMARK SMILES IDX 78 23 77 24 42 26 68 27 51 28 67 29 52 30 55 31 66 32 82 33
REMARK SMILES IDX 53 34 54 35 65 37 83 38 56 39 43 40 44 41 49 42 45 43 46 44
REMARK SMILES IDX 48 45 50 46 47 47 69 48 70 49 75 50 71 51 72 52 74 53 76 54
REMARK SMILES IDX 73 55 57 56 58 57 63 58 59 59 60 60 62 61 64 62 61 63 8 64
REMARK SMILES IDX 9 65 10 66 11 67 12 68 13 69 14 70 15 71 16 72 20 73 17 74
REMARK SMILES IDX 19 75 18 76 21 77 22 78 23 79 24 80 32 81 25 82 31 83 33 84
REMARK SMILES IDX 26 85 30 86 27 87 29 88 28 89
REMARK H PARENT 81 25 55 36
REMARK Flexibility Score: inf
ROOT
ATOM      1  C   UNL A   1      34.552  34.414  29.071  1.00  0.00     0.188 C 
ENDROOT
BRANCH   1   2
ATOM      2  O   UNL A   1      34.999  34.111  30.395  1.00  0.00    -0.376 OA
BRANCH   2   3
ATOM      3  C   UNL A   1      34.105  34.539  31.422  1.00  0.00     0.202 C 
BRANCH   3   4
ATOM      4  C   UNL A   1      34.473  33.967  32.794  1.00  0.00     0.261 C 
BRANCH   4   5
ATOM      5  O   UNL A   1      35.065  32.659  32.685  1.00  0.00    -0.460 OA
BRANCH   5   6
ATOM      6  C   UNL A   1      36.242  32.200  33.172  1.00  0.00     0.338 C 
ATOM      7  O   UNL A   1      36.477  32.391  34.366  1.00  0.00    -0.246 OA
BRANCH   6   8
ATOM      8  C   UNL A   1      37.250  31.401  32.394  1.00  0.00     0.060 A 
ATOM      9  C   UNL A   1      38.295  30.636  32.914  1.00  0.00     0.016 A 
ATOM     10  C   UNL A   1      37.107  31.433  30.990  1.00  0.00     0.016 A 
ATOM     11  C   UNL A   1      39.241  30.039  32.077  1.00  0.00     0.010 A 
ATOM     12  C   UNL A   1      38.030  30.809  30.143  1.00  0.00     0.010 A 
ATOM     13  C   UNL A   1      39.138  30.161  30.689  1.00  0.00    -0.014 A 
BRANCH  13  14
ATOM     14  C   UNL A   1      40.287  29.761  29.850  1.00  0.00     0.031 A 
ATOM     15  C   UNL A   1      41.427  30.717  29.689  1.00  0.00     0.074 A 
ATOM     16  C   UNL A   1      40.359  28.539  29.301  1.00  0.00     0.049 A 
ATOM     17  N   UNL A   1      42.576  30.537  29.092  1.00  0.00    -0.248 NA
ATOM     18  C   UNL A   1      41.245  32.054  30.273  1.00  0.00     0.031 C 
ATOM     19  C   UNL A   1      39.308  27.533  29.374  1.00  0.00     0.029 A 
ATOM     20  N   UNL A   1      41.370  27.930  28.597  1.00  0.00    -0.354 N 
ATOM     21  C   UNL A   1      43.247  31.743  29.211  1.00  0.00     0.074 A 
ATOM     22  C   UNL A   1      42.378  32.648  29.934  1.00  0.00     0.031 C 
ATOM     23  C   UNL A   1      39.755  26.417  28.777  1.00  0.00     0.029 A 
ATOM     24  C   UNL A   1      41.114  26.613  28.312  1.00  0.00     0.049 A 
ATOM     25  H   UNL A   1      42.194  28.393  28.325  1.00  0.00     0.167 HD
ATOM     26  C   UNL A   1      44.474  32.071  28.746  1.00  0.00     0.037 A 
ATOM     27  C   UNL A   1      41.883  25.651  27.770  1.00  0.00     0.037 A 
ATOM     28  C   UNL A   1      45.324  31.182  28.003  1.00  0.00     0.049 A 
ATOM     29  C   UNL A   1      43.255  26.019  27.305  1.00  0.00     0.074 A 
ATOM     30  C   UNL A   1      46.554  31.439  27.426  1.00  0.00     0.029 A 
ATOM     31  N   UNL A   1      45.023  29.856  27.732  1.00  0.00    -0.354 N 
ATOM     32  N   UNL A   1      43.871  27.170  27.401  1.00  0.00    -0.248 NA
ATOM     33  C   UNL A   1      44.025  24.970  26.623  1.00  0.00     0.031 C 
ATOM     34  C   UNL A   1      46.989  30.272  26.784  1.00  0.00     0.029 A 
ATOM     35  C   UNL A   1      46.041  29.280  26.987  1.00  0.00     0.049 A 
ATOM     36  H   UNL A   1      44.208  29.390  28.025  1.00  0.00     0.167 HD
ATOM     37  C   UNL A   1      45.091  26.997  26.771  1.00  0.00     0.074 A 
ATOM     38  C   UNL A   1      45.148  25.614  26.337  1.00  0.00     0.031 C 
ATOM     39  C   UNL A   1      46.065  27.911  26.547  1.00  0.00     0.037 A 
BRANCH  26  40
ATOM     40  C   UNL A   1      44.906  33.483  28.987  1.00  0.00     0.057 A 
ATOM     41  C   UNL A   1      44.589  34.512  28.091  1.00  0.00     0.134 A 
ATOM     42  C   UNL A   1      45.726  33.796  30.076  1.00  0.00     0.134 A 
ATOM     43  F   UNL A   1      43.840  34.263  27.007  1.00  0.00    -0.206 F 
ATOM     44  C   UNL A   1      45.101  35.800  28.256  1.00  0.00     0.040 A 
ATOM     45  C   UNL A   1      46.229  35.083  30.262  1.00  0.00     0.040 A 
ATOM     46  F   UNL A   1      46.079  32.847  30.958  1.00  0.00    -0.206 F 
ATOM     47  C   UNL A   1      45.925  36.087  29.344  1.00  0.00     0.006 A 
ENDBRANCH  26  40
BRANCH  27  48
ATOM     48  C   UNL A   1      41.394  24.250  27.682  1.00  0.00     0.057 A 
ATOM     49  C   UNL A   1      40.428  23.889  26.735  1.00  0.00     0.134 A 
ATOM     50  C   UNL A   1      41.885  23.239  28.516  1.00  0.00     0.134 A 
ATOM     51  F   UNL A   1      39.902  24.815  25.920  1.00  0.00    -0.206 F 
ATOM     52  C   UNL A   1      39.964  22.576  26.623  1.00  0.00     0.040 A 
ATOM     53  C   UNL A   1      41.443  21.918  28.405  1.00  0.00     0.040 A 
ATOM     54  F   UNL A   1      42.825  23.514  29.432  1.00  0.00    -0.206 F 
ATOM     55  C   UNL A   1      40.477  21.584  27.458  1.00  0.00     0.006 A 
ENDBRANCH  27  48
BRANCH  39  56
ATOM     56  C   UNL A   1      47.248  27.436  25.768  1.00  0.00     0.057 A 
ATOM     57  C   UNL A   1      47.298  27.569  24.374  1.00  0.00     0.134 A 
ATOM     58  C   UNL A   1      48.339  26.843  26.408  1.00  0.00     0.134 A 
ATOM     59  F   UNL A   1      46.269  28.113  23.706  1.00  0.00    -0.206 F 
ATOM     60  C   UNL A   1      48.390  27.110  23.640  1.00  0.00     0.040 A 
ATOM     61  C   UNL A   1      49.445  26.392  25.686  1.00  0.00     0.040 A 
ATOM     62  F   UNL A   1      48.344  26.683  27.740  1.00  0.00    -0.206 F 
ATOM     63  C   UNL A   1      49.470  26.522  24.298  1.00  0.00     0.006 A 
ENDBRANCH  39  56
ENDBRANCH  13  14
ENDBRANCH   6   8
ENDBRANCH   5   6
ENDBRANCH   4   5
ENDBRANCH   3   4
ENDBRANCH   2   3
ENDBRANCH   1   2
BRANCH   1  64
ATOM     64  C   UNL A   1      33.907  33.248  28.313  1.00  0.00     0.188 C 
BRANCH  64  65
ATOM     65  O   UNL A   1      34.405  31.974  28.706  1.00  0.00    -0.376 OA
BRANCH  65  66
ATOM     66  C   UNL A   1      34.444  31.012  27.656  1.00  0.00     0.202 C 
BRANCH  66  67
ATOM     67  C   UNL A   1      33.085  30.386  27.325  1.00  0.00     0.261 C 
BRANCH  67  68
ATOM     68  O   UNL A   1      33.117  28.994  26.952  1.00  0.00    -0.460 OA
BRANCH  68  69
ATOM     69  C   UNL A   1      31.962  28.309  27.119  1.00  0.00     0.340 C 
ATOM     70  O   UNL A   1      31.476  27.913  28.157  1.00  0.00    -0.246 OA
BRANCH  69  71
ATOM     71  C   UNL A   1      31.419  27.965  25.806  1.00  0.00     0.085 A 
ATOM     72  C   UNL A   1      31.259  28.994  24.861  1.00  0.00     0.018 A 
ATOM     73  C   UNL A   1      31.084  26.634  25.510  1.00  0.00     0.077 A 
ATOM     74  C   UNL A   1      30.746  28.705  23.599  1.00  0.00     0.001 A 
ATOM     75  C   UNL A   1      30.522  26.389  24.244  1.00  0.00     0.029 A 
ATOM     76  C   UNL A   1      30.358  27.405  23.296  1.00  0.00     0.002 A 
BRANCH  73  77
ATOM     77  N   UNL A   1      31.593  25.490  26.144  1.00  0.00    -0.255 NA
ATOM     78  C   UNL A   1      32.724  24.893  25.945  1.00  0.00     0.127 C 
BRANCH  78  79
ATOM     79  C   UNL A   1      32.686  23.404  26.106  1.00  0.00     0.076 A 
ATOM     80  C   UNL A   1      32.404  22.756  24.960  1.00  0.00     0.209 A 
ATOM     81  C   UNL A   1      33.877  22.831  26.813  1.00  0.00     0.201 A 
ATOM     82  O   UNL A   1      33.295  21.838  24.388  1.00  0.00    -0.463 OA
ATOM     83  C   UNL A   1      34.995  22.657  25.872  1.00  0.00     0.065 A 
ATOM     84  O   UNL A   1      33.962  22.713  28.024  1.00  0.00    -0.288 OA
ATOM     85  C   UNL A   1      34.615  22.221  24.595  1.00  0.00     0.137 A 
ATOM     86  C   UNL A   1      36.167  23.375  26.077  1.00  0.00     0.016 A 
ATOM     87  C   UNL A   1      35.434  22.457  23.500  1.00  0.00     0.048 A 
ATOM     88  C   UNL A   1      36.908  23.726  24.953  1.00  0.00     0.001 A 
ATOM     89  C   UNL A   1      36.572  23.244  23.681  1.00  0.00     0.004 A 
ENDBRANCH  78  79
ENDBRANCH  73  77
ENDBRANCH  69  71
ENDBRANCH  68  69
ENDBRANCH  67  68
ENDBRANCH  66  67
ENDBRANCH  65  66
ENDBRANCH  64  65
ENDBRANCH   1  64
TORSDOF 19
ENDMDL
