MODEL 1
REMARK VINA RESULT:     -10.7      0.000      0.000
REMARK SMILES Cc1cc(S(=O)(=O)Nc2ccc(F)c(F)c2)sc1C(=O)OCCOCCOCCOC(=O)c1ccc(-c2c3nc(c(-c4c(F)cccc4F)c4ccc([nH]4)c(-c4c(F)cccc4F)c4nc(c(-c5c(F)cccc5F)c5ccc2[nH]5)C=C4)C=C3)cc1
REMARK SMILES IDX 25 1 24 2 23 3 22 4 21 5 19 6 20 7 18 8 1 9 2 10 3 11 4 12
REMARK SMILES IDX 17 13 5 14 6 15 7 16 8 17 9 19 10 20 16 21 11 22 14 23 12 24
REMARK SMILES IDX 15 25 13 26 26 27 27 28 28 29 29 30 30 31 31 32 32 33 33 34
REMARK SMILES IDX 34 35 86 36 35 37 85 38 36 39 37 40 38 41 79 42 39 43 84 44
REMARK SMILES IDX 78 45 80 46 40 47 83 48 77 49 76 50 41 52 67 53 50 54 66 55
REMARK SMILES IDX 51 56 54 57 65 58 81 59 52 60 53 61 64 63 82 64 55 65 42 66
REMARK SMILES IDX 43 67 48 68 44 69 45 70 47 71 49 72 46 73 68 74 69 75 74 76
REMARK SMILES IDX 70 77 71 78 73 79 75 80 72 81 56 82 57 83 62 84 58 85 59 86
REMARK SMILES IDX 61 87 63 88 60 89
REMARK H PARENT 8 18 80 51 54 62
REMARK Flexibility Score: inf
ROOT
ATOM      1  C   UNL A   1      32.991  35.228  32.221  1.00  0.00     0.188 C 
ENDROOT
BRANCH   1   2
ATOM      2  O   UNL A   1      32.570  35.010  30.880  1.00  0.00    -0.376 OA
BRANCH   2   3
ATOM      3  C   UNL A   1      33.527  35.106  29.829  1.00  0.00     0.202 C 
BRANCH   3   4
ATOM      4  C   UNL A   1      33.353  34.184  28.615  1.00  0.00     0.261 C 
BRANCH   4   5
ATOM      5  O   UNL A   1      33.839  32.848  28.840  1.00  0.00    -0.459 OA
BRANCH   5   6
ATOM      6  C   UNL A   1      34.749  32.378  27.937  1.00  0.00     0.348 C 
ATOM      7  O   UNL A   1      35.709  33.027  27.534  1.00  0.00    -0.245 OA
BRANCH   6   8
ATOM      8  C   UNL A   1      34.501  30.969  27.644  1.00  0.00     0.116 A 
ATOM      9  C   UNL A   1      36.392  29.692  28.857  1.00  0.00     0.046 C 
ATOM     10  C   UNL A   1      35.211  29.809  27.944  1.00  0.00    -0.024 A 
ATOM     11  C   UNL A   1      34.648  28.674  27.254  1.00  0.00     0.038 A 
ATOM     12  C   UNL A   1      33.509  28.974  26.533  1.00  0.00     0.141 A 
ATOM     13  S   UNL A   1      33.062  30.602  26.776  1.00  0.00    -0.115 S 
BRANCH  12  14
ATOM     14  S   UNL A   1      32.418  27.969  25.534  1.00  0.00     0.271 S 
ATOM     15  O   UNL A   1      33.184  26.769  25.266  1.00  0.00    -0.200 OA
ATOM     16  O   UNL A   1      31.162  27.897  26.249  1.00  0.00    -0.200 OA
BRANCH  14  17
ATOM     17  N   UNL A   1      32.099  28.663  24.007  1.00  0.00    -0.279 N 
ATOM     18  H   UNL A   1      32.811  28.775  23.338  1.00  0.00     0.180 HD
BRANCH  17  19
ATOM     19  C   UNL A   1      30.760  29.074  23.740  1.00  0.00     0.052 A 
ATOM     20  C   UNL A   1      29.924  28.160  23.088  1.00  0.00     0.030 A 
ATOM     21  C   UNL A   1      30.314  30.365  24.024  1.00  0.00     0.069 A 
ATOM     22  C   UNL A   1      28.654  28.552  22.673  1.00  0.00     0.044 A 
ATOM     23  C   UNL A   1      29.033  30.738  23.626  1.00  0.00     0.160 A 
ATOM     24  C   UNL A   1      28.221  29.847  22.932  1.00  0.00     0.158 A 
ATOM     25  F   UNL A   1      28.589  31.973  23.899  1.00  0.00    -0.204 F 
ATOM     26  F   UNL A   1      27.011  30.229  22.502  1.00  0.00    -0.204 F 
ENDBRANCH  17  19
ENDBRANCH  14  17
ENDBRANCH  12  14
ENDBRANCH   6   8
ENDBRANCH   5   6
ENDBRANCH   4   5
ENDBRANCH   3   4
ENDBRANCH   2   3
ENDBRANCH   1   2
BRANCH   1  27
ATOM     27  C   UNL A   1      33.952  36.389  32.537  1.00  0.00     0.188 C 
BRANCH  27  28
ATOM     28  O   UNL A   1      35.189  35.983  33.091  1.00  0.00    -0.376 OA
BRANCH  28  29
ATOM     29  C   UNL A   1      35.146  34.869  33.972  1.00  0.00     0.202 C 
BRANCH  29  30
ATOM     30  C   UNL A   1      36.395  33.974  34.010  1.00  0.00     0.261 C 
BRANCH  30  31
ATOM     31  O   UNL A   1      36.183  32.581  33.723  1.00  0.00    -0.460 OA
BRANCH  31  32
ATOM     32  C   UNL A   1      35.942  32.243  32.437  1.00  0.00     0.338 C 
ATOM     33  O   UNL A   1      34.901  32.384  31.822  1.00  0.00    -0.246 OA
BRANCH  32  34
ATOM     34  C   UNL A   1      37.226  31.825  31.831  1.00  0.00     0.060 A 
ATOM     35  C   UNL A   1      37.578  32.327  30.574  1.00  0.00     0.016 A 
ATOM     36  C   UNL A   1      38.078  30.939  32.500  1.00  0.00     0.016 A 
ATOM     37  C   UNL A   1      38.779  31.934  29.978  1.00  0.00     0.010 A 
ATOM     38  C   UNL A   1      39.271  30.531  31.893  1.00  0.00     0.010 A 
ATOM     39  C   UNL A   1      39.622  31.015  30.622  1.00  0.00    -0.014 A 
BRANCH  39  40
ATOM     40  C   UNL A   1      40.793  30.458  29.900  1.00  0.00     0.031 A 
ATOM     41  C   UNL A   1      41.997  31.329  29.689  1.00  0.00     0.074 A 
ATOM     42  C   UNL A   1      40.801  29.190  29.452  1.00  0.00     0.049 A 
ATOM     43  N   UNL A   1      43.132  31.047  29.103  1.00  0.00    -0.248 NA
ATOM     44  C   UNL A   1      41.900  32.707  30.196  1.00  0.00     0.031 C 
ATOM     45  C   UNL A   1      39.695  28.250  29.580  1.00  0.00     0.029 A 
ATOM     46  N   UNL A   1      41.779  28.472  28.807  1.00  0.00    -0.354 N 
ATOM     47  C   UNL A   1      43.882  32.213  29.160  1.00  0.00     0.074 A 
ATOM     48  C   UNL A   1      43.071  33.207  29.832  1.00  0.00     0.031 C 
ATOM     49  C   UNL A   1      40.069  27.063  29.072  1.00  0.00     0.029 A 
ATOM     50  C   UNL A   1      41.423  27.172  28.540  1.00  0.00     0.049 A 
ATOM     51  H   UNL A   1      42.652  28.854  28.560  1.00  0.00     0.167 HD
ATOM     52  C   UNL A   1      45.128  32.440  28.684  1.00  0.00     0.037 A 
ATOM     53  C   UNL A   1      42.107  26.185  27.926  1.00  0.00     0.037 A 
ATOM     54  C   UNL A   1      45.924  31.464  27.986  1.00  0.00     0.049 A 
ATOM     55  C   UNL A   1      43.482  26.471  27.383  1.00  0.00     0.074 A 
ATOM     56  C   UNL A   1      47.192  31.610  27.450  1.00  0.00     0.029 A 
ATOM     57  N   UNL A   1      45.521  30.166  27.715  1.00  0.00    -0.354 N 
ATOM     58  N   UNL A   1      44.189  27.572  27.460  1.00  0.00    -0.248 NA
ATOM     59  C   UNL A   1      44.143  25.383  26.645  1.00  0.00     0.031 C 
ATOM     60  C   UNL A   1      47.539  30.411  26.816  1.00  0.00     0.029 A 
ATOM     61  C   UNL A   1      46.508  29.504  27.001  1.00  0.00     0.049 A 
ATOM     62  H   UNL A   1      44.661  29.771  27.988  1.00  0.00     0.167 HD
ATOM     63  C   UNL A   1      45.378  27.309  26.790  1.00  0.00     0.074 A 
ATOM     64  C   UNL A   1      45.310  25.935  26.338  1.00  0.00     0.031 C 
ATOM     65  C   UNL A   1      46.426  28.135  26.559  1.00  0.00     0.037 A 
BRANCH  52  66
ATOM     66  C   UNL A   1      45.684  33.820  28.864  1.00  0.00     0.057 A 
ATOM     67  C   UNL A   1      46.377  34.192  30.023  1.00  0.00     0.134 A 
ATOM     68  C   UNL A   1      45.519  34.790  27.867  1.00  0.00     0.134 A 
ATOM     69  F   UNL A   1      46.548  33.315  31.024  1.00  0.00    -0.206 F 
ATOM     70  C   UNL A   1      46.869  35.487  30.193  1.00  0.00     0.040 A 
ATOM     71  C   UNL A   1      46.027  36.080  28.015  1.00  0.00     0.040 A 
ATOM     72  F   UNL A   1      44.863  34.497  26.735  1.00  0.00    -0.206 F 
ATOM     73  C   UNL A   1      46.698  36.434  29.184  1.00  0.00     0.006 A 
ENDBRANCH  52  66
BRANCH  53  74
ATOM     74  C   UNL A   1      41.506  24.834  27.773  1.00  0.00     0.057 A 
ATOM     75  C   UNL A   1      41.939  23.758  28.557  1.00  0.00     0.134 A 
ATOM     76  C   UNL A   1      40.512  24.576  26.821  1.00  0.00     0.134 A 
ATOM     77  F   UNL A   1      42.910  23.932  29.466  1.00  0.00    -0.206 F 
ATOM     78  C   UNL A   1      41.419  22.472  28.389  1.00  0.00     0.040 A 
ATOM     79  C   UNL A   1      39.963  23.302  26.661  1.00  0.00     0.040 A 
ATOM     80  F   UNL A   1      40.058  25.561  26.032  1.00  0.00    -0.206 F 
ATOM     81  C   UNL A   1      40.423  22.243  27.442  1.00  0.00     0.006 A 
ENDBRANCH  53  74
BRANCH  65  82
ATOM     82  C   UNL A   1      47.592  27.574  25.797  1.00  0.00     0.057 A 
ATOM     83  C   UNL A   1      48.670  26.961  26.447  1.00  0.00     0.134 A 
ATOM     84  C   UNL A   1      47.614  27.609  24.398  1.00  0.00     0.134 A 
ATOM     85  F   UNL A   1      48.716  26.906  27.787  1.00  0.00    -0.206 F 
ATOM     86  C   UNL A   1      49.740  26.418  25.731  1.00  0.00     0.040 A 
ATOM     87  C   UNL A   1      48.665  27.048  23.670  1.00  0.00     0.040 A 
ATOM     88  F   UNL A   1      46.608  28.175  23.714  1.00  0.00    -0.206 F 
ATOM     89  C   UNL A   1      49.734  26.455  24.338  1.00  0.00     0.006 A 
ENDBRANCH  65  82
ENDBRANCH  39  40
ENDBRANCH  32  34
ENDBRANCH  31  32
ENDBRANCH  30  31
ENDBRANCH  29  30
ENDBRANCH  28  29
ENDBRANCH  27  28
ENDBRANCH   1  27
TORSDOF 20
ENDMDL
MODEL 2
REMARK VINA RESULT:     -10.7      5.295     10.409
REMARK SMILES Cc1cc(S(=O)(=O)Nc2ccc(F)c(F)c2)sc1C(=O)OCCOCCOCCOC(=O)c1ccc(-c2c3nc(c(-c4c(F)cccc4F)c4ccc([nH]4)c(-c4c(F)cccc4F)c4nc(c(-c5c(F)cccc5F)c5ccc2[nH]5)C=C4)C=C3)cc1
REMARK SMILES IDX 25 1 24 2 23 3 22 4 21 5 19 6 20 7 18 8 1 9 2 10 3 11 4 12
REMARK SMILES IDX 17 13 5 14 6 15 7 16 8 17 9 19 10 20 16 21 11 22 14 23 12 24
REMARK SMILES IDX 15 25 13 26 26 27 27 28 28 29 29 30 30 31 31 32 32 33 33 34
REMARK SMILES IDX 34 35 86 36 35 37 85 38 36 39 37 40 38 41 79 42 39 43 84 44
REMARK SMILES IDX 78 45 80 46 40 47 83 48 77 49 76 50 41 52 67 53 50 54 66 55
REMARK SMILES IDX 51 56 54 57 65 58 81 59 52 60 53 61 64 63 82 64 55 65 42 66
REMARK SMILES IDX 43 67 48 68 44 69 45 70 47 71 49 72 46 73 68 74 69 75 74 76
REMARK SMILES IDX 70 77 71 78 73 79 75 80 72 81 56 82 57 83 62 84 58 85 59 86
REMARK SMILES IDX 61 87 63 88 60 89
REMARK H PARENT 8 18 80 51 54 62
REMARK Flexibility Score: inf
ROOT
ATOM      1  C   UNL A   1      40.394  20.778  26.169  1.00  0.00     0.188 C 
ENDROOT
BRANCH   1   2
ATOM      2  O   UNL A   1      39.251  21.578  25.898  1.00  0.00    -0.376 OA
BRANCH   2   3
ATOM      3  C   UNL A   1      38.083  20.961  25.363  1.00  0.00     0.202 C 
BRANCH   3   4
ATOM      4  C   UNL A   1      37.143  21.823  24.511  1.00  0.00     0.261 C 
BRANCH   4   5
ATOM      5  O   UNL A   1      36.176  22.551  25.290  1.00  0.00    -0.459 OA
BRANCH   5   6
ATOM      6  C   UNL A   1      34.931  21.995  25.376  1.00  0.00     0.348 C 
ATOM      7  O   UNL A   1      34.618  21.148  26.206  1.00  0.00    -0.245 OA
BRANCH   6   8
ATOM      8  C   UNL A   1      34.010  22.653  24.454  1.00  0.00     0.116 A 
ATOM      9  C   UNL A   1      32.530  20.753  23.519  1.00  0.00     0.046 C 
ATOM     10  C   UNL A   1      33.035  22.161  23.590  1.00  0.00    -0.024 A 
ATOM     11  C   UNL A   1      32.531  23.210  22.739  1.00  0.00     0.038 A 
ATOM     12  C   UNL A   1      33.059  24.455  23.021  1.00  0.00     0.141 A 
ATOM     13  S   UNL A   1      34.083  24.371  24.383  1.00  0.00    -0.115 S 
BRANCH  12  14
ATOM     14  S   UNL A   1      32.777  26.071  22.311  1.00  0.00     0.271 S 
ATOM     15  O   UNL A   1      33.314  25.971  20.970  1.00  0.00    -0.200 OA
ATOM     16  O   UNL A   1      31.378  26.371  22.525  1.00  0.00    -0.200 OA
BRANCH  14  17
ATOM     17  N   UNL A   1      33.685  27.295  23.081  1.00  0.00    -0.279 N 
ATOM     18  H   UNL A   1      34.586  27.535  22.769  1.00  0.00     0.180 HD
BRANCH  17  19
ATOM     19  C   UNL A   1      33.086  27.956  24.194  1.00  0.00     0.052 A 
ATOM     20  C   UNL A   1      32.125  28.935  23.920  1.00  0.00     0.030 A 
ATOM     21  C   UNL A   1      33.500  27.715  25.504  1.00  0.00     0.069 A 
ATOM     22  C   UNL A   1      31.610  29.713  24.954  1.00  0.00     0.044 A 
ATOM     23  C   UNL A   1      32.959  28.482  26.533  1.00  0.00     0.160 A 
ATOM     24  C   UNL A   1      32.043  29.490  26.256  1.00  0.00     0.158 A 
ATOM     25  F   UNL A   1      33.342  28.257  27.797  1.00  0.00    -0.204 F 
ATOM     26  F   UNL A   1      31.568  30.262  27.242  1.00  0.00    -0.204 F 
ENDBRANCH  17  19
ENDBRANCH  14  17
ENDBRANCH  12  14
ENDBRANCH   6   8
ENDBRANCH   5   6
ENDBRANCH   4   5
ENDBRANCH   3   4
ENDBRANCH   2   3
ENDBRANCH   1   2
BRANCH   1  27
ATOM     27  C   UNL A   1      41.220  21.036  27.443  1.00  0.00     0.188 C 
BRANCH  27  28
ATOM     28  O   UNL A   1      42.617  21.086  27.227  1.00  0.00    -0.376 OA
BRANCH  28  29
ATOM     29  C   UNL A   1      43.061  20.776  25.914  1.00  0.00     0.202 C 
BRANCH  29  30
ATOM     30  C   UNL A   1      43.933  21.831  25.216  1.00  0.00     0.261 C 
BRANCH  30  31
ATOM     31  O   UNL A   1      43.304  23.098  24.956  1.00  0.00    -0.460 OA
BRANCH  31  32
ATOM     32  C   UNL A   1      44.060  24.208  25.109  1.00  0.00     0.338 C 
ATOM     33  O   UNL A   1      45.032  24.531  24.451  1.00  0.00    -0.246 OA
BRANCH  32  34
ATOM     34  C   UNL A   1      43.400  25.070  26.113  1.00  0.00     0.060 A 
ATOM     35  C   UNL A   1      43.804  26.405  26.231  1.00  0.00     0.016 A 
ATOM     36  C   UNL A   1      42.388  24.565  26.937  1.00  0.00     0.016 A 
ATOM     37  C   UNL A   1      43.203  27.233  27.183  1.00  0.00     0.010 A 
ATOM     38  C   UNL A   1      41.801  25.391  27.903  1.00  0.00     0.010 A 
ATOM     39  C   UNL A   1      42.215  26.725  28.041  1.00  0.00    -0.014 A 
BRANCH  39  40
ATOM     40  C   UNL A   1      41.724  27.554  29.171  1.00  0.00     0.031 A 
ATOM     41  C   UNL A   1      42.471  27.524  30.472  1.00  0.00     0.074 A 
ATOM     42  C   UNL A   1      40.640  28.340  29.042  1.00  0.00     0.049 A 
ATOM     43  N   UNL A   1      42.233  28.177  31.580  1.00  0.00    -0.248 NA
ATOM     44  C   UNL A   1      43.635  26.628  30.533  1.00  0.00     0.031 C 
ATOM     45  C   UNL A   1      39.821  28.447  27.841  1.00  0.00     0.029 A 
ATOM     46  N   UNL A   1      40.048  29.205  29.930  1.00  0.00    -0.354 N 
ATOM     47  C   UNL A   1      43.208  27.764  32.475  1.00  0.00     0.074 A 
ATOM     48  C   UNL A   1      44.038  26.800  31.783  1.00  0.00     0.031 C 
ATOM     49  C   UNL A   1      38.858  29.361  28.049  1.00  0.00     0.029 A 
ATOM     50  C   UNL A   1      38.962  29.870  29.412  1.00  0.00     0.049 A 
ATOM     51  H   UNL A   1      40.371  29.335  30.851  1.00  0.00     0.167 HD
ATOM     52  C   UNL A   1      43.390  28.142  33.762  1.00  0.00     0.037 A 
ATOM     53  C   UNL A   1      38.139  30.776  29.977  1.00  0.00     0.037 A 
ATOM     54  C   UNL A   1      42.547  29.075  34.463  1.00  0.00     0.049 A 
ATOM     55  C   UNL A   1      38.347  31.161  31.418  1.00  0.00     0.074 A 
ATOM     56  C   UNL A   1      42.643  29.505  35.775  1.00  0.00     0.029 A 
ATOM     57  N   UNL A   1      41.445  29.710  33.913  1.00  0.00    -0.354 N 
ATOM     58  N   UNL A   1      39.286  30.779  32.249  1.00  0.00    -0.248 NA
ATOM     59  C   UNL A   1      37.365  32.086  32.006  1.00  0.00     0.031 C 
ATOM     60  C   UNL A   1      41.571  30.368  36.032  1.00  0.00     0.029 A 
ATOM     61  C   UNL A   1      40.838  30.515  34.865  1.00  0.00     0.049 A 
ATOM     62  H   UNL A   1      41.137  29.606  32.983  1.00  0.00     0.167 HD
ATOM     63  C   UNL A   1      39.013  31.418  33.453  1.00  0.00     0.074 A 
ATOM     64  C   UNL A   1      37.840  32.237  33.236  1.00  0.00     0.031 C 
ATOM     65  C   UNL A   1      39.670  31.325  34.634  1.00  0.00     0.037 A 
BRANCH  52  66
ATOM     66  C   UNL A   1      44.523  27.502  34.505  1.00  0.00     0.057 A 
ATOM     67  C   UNL A   1      44.369  26.285  35.182  1.00  0.00     0.134 A 
ATOM     68  C   UNL A   1      45.782  28.113  34.546  1.00  0.00     0.134 A 
ATOM     69  F   UNL A   1      43.180  25.662  35.197  1.00  0.00    -0.206 F 
ATOM     70  C   UNL A   1      45.423  25.709  35.892  1.00  0.00     0.040 A 
ATOM     71  C   UNL A   1      46.850  27.535  35.233  1.00  0.00     0.040 A 
ATOM     72  F   UNL A   1      45.994  29.280  33.921  1.00  0.00    -0.206 F 
ATOM     73  C   UNL A   1      46.670  26.333  35.914  1.00  0.00     0.006 A 
ENDBRANCH  52  66
BRANCH  53  74
ATOM     74  C   UNL A   1      37.029  31.378  29.193  1.00  0.00     0.057 A 
ATOM     75  C   UNL A   1      37.099  32.701  28.740  1.00  0.00     0.134 A 
ATOM     76  C   UNL A   1      35.860  30.662  28.906  1.00  0.00     0.134 A 
ATOM     77  F   UNL A   1      38.179  33.450  29.009  1.00  0.00    -0.206 F 
ATOM     78  C   UNL A   1      36.043  33.296  28.046  1.00  0.00     0.040 A 
ATOM     79  C   UNL A   1      34.808  31.235  28.188  1.00  0.00     0.040 A 
ATOM     80  F   UNL A   1      35.725  29.393  29.317  1.00  0.00    -0.206 F 
ATOM     81  C   UNL A   1      34.895  32.559  27.763  1.00  0.00     0.006 A 
ENDBRANCH  53  74
BRANCH  65  82
ATOM     82  C   UNL A   1      39.145  32.141  35.780  1.00  0.00     0.057 A 
ATOM     83  C   UNL A   1      39.479  33.492  35.937  1.00  0.00     0.134 A 
ATOM     84  C   UNL A   1      38.263  31.579  36.711  1.00  0.00     0.134 A 
ATOM     85  F   UNL A   1      40.329  34.087  35.086  1.00  0.00    -0.206 F 
ATOM     86  C   UNL A   1      38.967  34.252  36.991  1.00  0.00     0.040 A 
ATOM     87  C   UNL A   1      37.726  32.335  37.755  1.00  0.00     0.040 A 
ATOM     88  F   UNL A   1      37.898  30.293  36.613  1.00  0.00    -0.206 F 
ATOM     89  C   UNL A   1      38.082  33.673  37.900  1.00  0.00     0.006 A 
ENDBRANCH  65  82
ENDBRANCH  39  40
ENDBRANCH  32  34
ENDBRANCH  31  32
ENDBRANCH  30  31
ENDBRANCH  29  30
ENDBRANCH  28  29
ENDBRANCH  27  28
ENDBRANCH   1  27
TORSDOF 20
ENDMDL
MODEL 3
REMARK VINA RESULT:     -10.7      2.153      2.644
REMARK SMILES Cc1cc(S(=O)(=O)Nc2ccc(F)c(F)c2)sc1C(=O)OCCOCCOCCOC(=O)c1ccc(-c2c3nc(c(-c4c(F)cccc4F)c4ccc([nH]4)c(-c4c(F)cccc4F)c4nc(c(-c5c(F)cccc5F)c5ccc2[nH]5)C=C4)C=C3)cc1
REMARK SMILES IDX 25 1 24 2 23 3 22 4 21 5 19 6 20 7 18 8 1 9 2 10 3 11 4 12
REMARK SMILES IDX 17 13 5 14 6 15 7 16 8 17 9 19 10 20 16 21 11 22 14 23 12 24
REMARK SMILES IDX 15 25 13 26 26 27 27 28 28 29 29 30 30 31 31 32 32 33 33 34
REMARK SMILES IDX 34 35 86 36 35 37 85 38 36 39 37 40 38 41 79 42 39 43 84 44
REMARK SMILES IDX 78 45 80 46 40 47 83 48 77 49 76 50 41 52 67 53 50 54 66 55
REMARK SMILES IDX 51 56 54 57 65 58 81 59 52 60 53 61 64 63 82 64 55 65 42 66
REMARK SMILES IDX 43 67 48 68 44 69 45 70 47 71 49 72 46 73 68 74 69 75 74 76
REMARK SMILES IDX 70 77 71 78 73 79 75 80 72 81 56 82 57 83 62 84 58 85 59 86
REMARK SMILES IDX 61 87 63 88 60 89
REMARK H PARENT 8 18 80 51 54 62
REMARK Flexibility Score: inf
ROOT
ATOM      1  C   UNL A   1      33.024  35.199  32.315  1.00  0.00     0.188 C 
ENDROOT
BRANCH   1   2
ATOM      2  O   UNL A   1      32.603  34.964  30.978  1.00  0.00    -0.376 OA
BRANCH   2   3
ATOM      3  C   UNL A   1      33.542  35.118  29.918  1.00  0.00     0.202 C 
BRANCH   3   4
ATOM      4  C   UNL A   1      33.414  34.187  28.705  1.00  0.00     0.261 C 
BRANCH   4   5
ATOM      5  O   UNL A   1      33.961  32.876  28.934  1.00  0.00    -0.459 OA
BRANCH   5   6
ATOM      6  C   UNL A   1      34.888  32.444  28.028  1.00  0.00     0.348 C 
ATOM      7  O   UNL A   1      35.905  33.067  27.742  1.00  0.00    -0.245 OA
BRANCH   6   8
ATOM      8  C   UNL A   1      34.571  31.093  27.574  1.00  0.00     0.116 A 
ATOM      9  C   UNL A   1      36.380  29.589  28.643  1.00  0.00     0.046 C 
ATOM     10  C   UNL A   1      35.217  29.871  27.743  1.00  0.00    -0.024 A 
ATOM     11  C   UNL A   1      34.604  28.853  26.924  1.00  0.00     0.038 A 
ATOM     12  C   UNL A   1      33.490  29.293  26.236  1.00  0.00     0.141 A 
ATOM     13  S   UNL A   1      33.125  30.903  26.662  1.00  0.00    -0.115 S 
BRANCH  12  14
ATOM     14  S   UNL A   1      32.360  28.467  25.123  1.00  0.00     0.271 S 
ATOM     15  O   UNL A   1      31.084  29.108  25.369  1.00  0.00    -0.200 OA
ATOM     16  O   UNL A   1      32.970  28.516  23.813  1.00  0.00    -0.200 OA
BRANCH  14  17
ATOM     17  N   UNL A   1      32.133  26.821  25.519  1.00  0.00    -0.279 N 
ATOM     18  H   UNL A   1      31.446  26.542  26.166  1.00  0.00     0.180 HD
BRANCH  17  19
ATOM     19  C   UNL A   1      32.977  25.868  24.877  1.00  0.00     0.052 A 
ATOM     20  C   UNL A   1      32.446  25.169  23.788  1.00  0.00     0.030 A 
ATOM     21  C   UNL A   1      34.249  25.565  25.363  1.00  0.00     0.069 A 
ATOM     22  C   UNL A   1      33.169  24.128  23.210  1.00  0.00     0.044 A 
ATOM     23  C   UNL A   1      34.972  24.538  24.761  1.00  0.00     0.160 A 
ATOM     24  C   UNL A   1      34.425  23.809  23.712  1.00  0.00     0.158 A 
ATOM     25  F   UNL A   1      36.199  24.241  25.213  1.00  0.00    -0.204 F 
ATOM     26  F   UNL A   1      35.102  22.786  23.174  1.00  0.00    -0.204 F 
ENDBRANCH  17  19
ENDBRANCH  14  17
ENDBRANCH  12  14
ENDBRANCH   6   8
ENDBRANCH   5   6
ENDBRANCH   4   5
ENDBRANCH   3   4
ENDBRANCH   2   3
ENDBRANCH   1   2
BRANCH   1  27
ATOM     27  C   UNL A   1      34.004  36.349  32.614  1.00  0.00     0.188 C 
BRANCH  27  28
ATOM     28  O   UNL A   1      35.197  35.942  33.256  1.00  0.00    -0.376 OA
BRANCH  28  29
ATOM     29  C   UNL A   1      35.107  34.779  34.067  1.00  0.00     0.202 C 
BRANCH  29  30
ATOM     30  C   UNL A   1      36.370  33.908  34.162  1.00  0.00     0.261 C 
BRANCH  30  31
ATOM     31  O   UNL A   1      36.184  32.500  33.940  1.00  0.00    -0.460 OA
BRANCH  31  32
ATOM     32  C   UNL A   1      35.907  32.104  32.678  1.00  0.00     0.338 C 
ATOM     33  O   UNL A   1      34.840  32.191  32.097  1.00  0.00    -0.246 OA
BRANCH  32  34
ATOM     34  C   UNL A   1      37.179  31.696  32.042  1.00  0.00     0.060 A 
ATOM     35  C   UNL A   1      37.473  32.161  30.755  1.00  0.00     0.016 A 
ATOM     36  C   UNL A   1      38.078  30.858  32.711  1.00  0.00     0.016 A 
ATOM     37  C   UNL A   1      38.663  31.777  30.132  1.00  0.00     0.010 A 
ATOM     38  C   UNL A   1      39.260  30.459  32.076  1.00  0.00     0.010 A 
ATOM     39  C   UNL A   1      39.553  30.905  30.778  1.00  0.00    -0.014 A 
BRANCH  39  40
ATOM     40  C   UNL A   1      40.713  30.352  30.034  1.00  0.00     0.031 A 
ATOM     41  C   UNL A   1      41.928  31.212  29.842  1.00  0.00     0.074 A 
ATOM     42  C   UNL A   1      40.701  29.098  29.550  1.00  0.00     0.049 A 
ATOM     43  N   UNL A   1      43.056  30.931  29.244  1.00  0.00    -0.248 NA
ATOM     44  C   UNL A   1      41.853  32.575  30.390  1.00  0.00     0.031 C 
ATOM     45  C   UNL A   1      39.582  28.170  29.656  1.00  0.00     0.029 A 
ATOM     46  N   UNL A   1      41.665  28.385  28.880  1.00  0.00    -0.354 N 
ATOM     47  C   UNL A   1      43.824  32.083  29.330  1.00  0.00     0.074 A 
ATOM     48  C   UNL A   1      43.030  33.070  30.034  1.00  0.00     0.031 C 
ATOM     49  C   UNL A   1      39.936  26.994  29.112  1.00  0.00     0.029 A 
ATOM     50  C   UNL A   1      41.290  27.098  28.578  1.00  0.00     0.049 A 
ATOM     51  H   UNL A   1      42.543  28.761  28.639  1.00  0.00     0.167 HD
ATOM     52  C   UNL A   1      45.071  32.307  28.855  1.00  0.00     0.037 A 
ATOM     53  C   UNL A   1      41.956  26.119  27.932  1.00  0.00     0.037 A 
ATOM     54  C   UNL A   1      45.850  31.340  28.126  1.00  0.00     0.049 A 
ATOM     55  C   UNL A   1      43.333  26.401  27.391  1.00  0.00     0.074 A 
ATOM     56  C   UNL A   1      47.117  31.482  27.589  1.00  0.00     0.029 A 
ATOM     57  N   UNL A   1      45.427  30.056  27.819  1.00  0.00    -0.354 N 
ATOM     58  N   UNL A   1      44.057  27.489  27.497  1.00  0.00    -0.248 NA
ATOM     59  C   UNL A   1      43.976  25.326  26.619  1.00  0.00     0.031 C 
ATOM     60  C   UNL A   1      47.444  30.298  26.918  1.00  0.00     0.029 A 
ATOM     61  C   UNL A   1      46.401  29.401  27.082  1.00  0.00     0.049 A 
ATOM     62  H   UNL A   1      44.562  29.666  28.085  1.00  0.00     0.167 HD
ATOM     63  C   UNL A   1      45.238  27.229  26.813  1.00  0.00     0.074 A 
ATOM     64  C   UNL A   1      45.148  25.870  26.323  1.00  0.00     0.031 C 
ATOM     65  C   UNL A   1      46.297  28.047  26.601  1.00  0.00     0.037 A 
BRANCH  52  66
ATOM     66  C   UNL A   1      45.647  33.673  29.072  1.00  0.00     0.057 A 
ATOM     67  C   UNL A   1      45.383  34.734  28.197  1.00  0.00     0.134 A 
ATOM     68  C   UNL A   1      46.479  33.928  30.170  1.00  0.00     0.134 A 
ATOM     69  F   UNL A   1      44.611  34.547  27.115  1.00  0.00    -0.206 F 
ATOM     70  C   UNL A   1      45.943  35.997  28.394  1.00  0.00     0.040 A 
ATOM     71  C   UNL A   1      47.026  35.192  30.390  1.00  0.00     0.040 A 
ATOM     72  F   UNL A   1      46.772  32.954  31.043  1.00  0.00    -0.206 F 
ATOM     73  C   UNL A   1      46.764  36.229  29.497  1.00  0.00     0.006 A 
ENDBRANCH  52  66
BRANCH  53  74
ATOM     74  C   UNL A   1      41.336  24.782  27.743  1.00  0.00     0.057 A 
ATOM     75  C   UNL A   1      41.753  23.679  28.496  1.00  0.00     0.134 A 
ATOM     76  C   UNL A   1      40.336  24.565  26.786  1.00  0.00     0.134 A 
ATOM     77  F   UNL A   1      42.728  23.814  29.409  1.00  0.00    -0.206 F 
ATOM     78  C   UNL A   1      41.215  22.406  28.295  1.00  0.00     0.040 A 
ATOM     79  C   UNL A   1      39.768  23.304  26.592  1.00  0.00     0.040 A 
ATOM     80  F   UNL A   1      39.896  25.578  26.025  1.00  0.00    -0.206 F 
ATOM     81  C   UNL A   1      40.214  22.218  27.343  1.00  0.00     0.006 A 
ENDBRANCH  53  74
BRANCH  65  82
ATOM     82  C   UNL A   1      47.451  27.491  25.818  1.00  0.00     0.057 A 
ATOM     83  C   UNL A   1      48.511  26.821  26.443  1.00  0.00     0.134 A 
ATOM     84  C   UNL A   1      47.481  27.590  24.422  1.00  0.00     0.134 A 
ATOM     85  F   UNL A   1      48.549  26.703  27.779  1.00  0.00    -0.206 F 
ATOM     86  C   UNL A   1      49.569  26.284  25.706  1.00  0.00     0.040 A 
ATOM     87  C   UNL A   1      48.520  27.036  23.673  1.00  0.00     0.040 A 
ATOM     88  F   UNL A   1      46.493  28.212  23.762  1.00  0.00    -0.206 F 
ATOM     89  C   UNL A   1      49.571  26.385  24.316  1.00  0.00     0.006 A 
ENDBRANCH  65  82
ENDBRANCH  39  40
ENDBRANCH  32  34
ENDBRANCH  31  32
ENDBRANCH  30  31
ENDBRANCH  29  30
ENDBRANCH  28  29
ENDBRANCH  27  28
ENDBRANCH   1  27
TORSDOF 20
ENDMDL
