MODEL 1
REMARK VINA RESULT:     -12.8      0.000      0.000
REMARK SMILES Cc1ccccc1[C@@H]1[NH2+][C@@H](C(=O)OCCOCCOCCOC(=O)c2ccc(-c3c4nc(c(-c5c(F)cccc5F)c5ccc([nH]5)c(-c5c(F)cccc5F)c5nc(c(-c6c(F)cccc6F)c6ccc3[nH]6)C=C5)C=C4)cc2)CC2=c3ccccc3=N[C@H]21
REMARK SMILES IDX 18 1 17 2 16 3 15 4 14 5 13 6 11 7 12 8 10 9 8 10 9 11 88 12
REMARK SMILES IDX 80 15 87 16 79 17 81 18 86 19 82 20 85 21 83 22 84 23 7 24
REMARK SMILES IDX 1 25 2 26 3 27 4 28 6 29 5 30 19 31 20 32 21 33 22 34 23 35
REMARK SMILES IDX 24 36 25 37 26 38 78 39 27 40 77 41 28 42 29 43 30 44 71 45
REMARK SMILES IDX 31 46 76 47 70 48 72 49 32 50 75 51 69 52 68 53 33 55 59 56
REMARK SMILES IDX 42 57 58 58 43 59 46 60 57 61 73 62 44 63 45 64 56 66 74 67
REMARK SMILES IDX 47 68 34 69 35 70 40 71 36 72 37 73 39 74 41 75 38 76 60 77
REMARK SMILES IDX 61 78 66 79 62 80 63 81 65 82 67 83 64 84 48 85 49 86 54 87
REMARK SMILES IDX 50 88 51 89 53 90 55 91 52 92
REMARK H PARENT 9 13 9 14 72 54 46 65
REMARK Flexibility Score: inf
ROOT
ATOM      1  C   UNL A   1      40.672  19.874  26.127  1.00  0.00     0.188 C 
ENDROOT
BRANCH   1   2
ATOM      2  C   UNL A   1      41.130  20.540  27.438  1.00  0.00     0.188 C 
BRANCH   2   3
ATOM      3  O   UNL A   1      41.468  21.942  27.572  1.00  0.00    -0.376 OA
BRANCH   3   4
ATOM      4  C   UNL A   1      40.533  23.013  27.851  1.00  0.00     0.202 C 
BRANCH   4   5
ATOM      5  C   UNL A   1      39.396  23.552  26.719  1.00  0.00     0.261 C 
BRANCH   5   6
ATOM      6  O   UNL A   1      38.151  22.713  26.092  1.00  0.00    -0.459 OA
BRANCH   6   7
ATOM      7  C   UNL A   1      36.811  23.016  25.751  1.00  0.00     0.365 C 
ATOM      8  O   UNL A   1      36.355  23.994  25.152  1.00  0.00    -0.245 OA
BRANCH   7   9
ATOM      9  C   UNL A   1      35.701  22.029  26.072  1.00  0.00     0.298 C 
ATOM     10  C   UNL A   1      33.626  21.434  24.562  1.00  0.00     0.243 C 
ATOM     11  N   UNL A   1      35.108  21.550  24.737  1.00  0.00    -0.326 N 
ATOM     12  C   UNL A   1      32.739  21.946  25.739  1.00  0.00     0.196 C 
ATOM     13  H   UNL A   1      35.437  22.199  24.021  1.00  0.00     0.347 HD
ATOM     14  H   UNL A   1      35.423  20.581  24.680  1.00  0.00     0.347 HD
ATOM     15  C   UNL A   1      33.460  23.111  26.348  1.00  0.00    -0.024 C 
ATOM     16  N   UNL A   1      31.443  22.521  25.261  1.00  0.00    -0.270 NA
ATOM     17  C   UNL A   1      34.759  22.798  26.997  1.00  0.00     0.111 C 
ATOM     18  C   UNL A   1      32.860  24.255  26.050  1.00  0.00     0.002 A 
ATOM     19  C   UNL A   1      31.586  23.796  25.470  1.00  0.00     0.066 A 
ATOM     20  C   UNL A   1      33.194  25.640  26.127  1.00  0.00     0.010 A 
ATOM     21  C   UNL A   1      30.575  24.846  25.212  1.00  0.00     0.028 A 
ATOM     22  C   UNL A   1      32.268  26.542  25.760  1.00  0.00     0.001 A 
ATOM     23  C   UNL A   1      30.926  26.134  25.371  1.00  0.00     0.002 A 
BRANCH  10  24
ATOM     24  C   UNL A   1      33.210  20.035  24.076  1.00  0.00     0.015 A 
ATOM     25  C   UNL A   1      31.786  20.897  22.118  1.00  0.00     0.045 C 
ATOM     26  C   UNL A   1      32.398  19.808  22.945  1.00  0.00    -0.042 A 
ATOM     27  C   UNL A   1      32.174  18.491  22.498  1.00  0.00     0.004 A 
ATOM     28  C   UNL A   1      32.697  17.394  23.175  1.00  0.00     0.000 A 
ATOM     29  C   UNL A   1      33.708  18.901  24.766  1.00  0.00     0.010 A 
ATOM     30  C   UNL A   1      33.451  17.598  24.322  1.00  0.00     0.001 A 
ENDBRANCH  10  24
ENDBRANCH   7   9
ENDBRANCH   6   7
ENDBRANCH   5   6
ENDBRANCH   4   5
ENDBRANCH   3   4
ENDBRANCH   2   3
ENDBRANCH   1   2
BRANCH   1  31
ATOM     31  O   UNL A   1      41.545  18.826  25.751  1.00  0.00    -0.376 OA
BRANCH  31  32
ATOM     32  C   UNL A   1      42.875  18.893  26.253  1.00  0.00     0.202 C 
BRANCH  32  33
ATOM     33  C   UNL A   1      43.977  18.571  25.212  1.00  0.00     0.261 C 
BRANCH  33  34
ATOM     34  O   UNL A   1      44.199  19.680  24.299  1.00  0.00    -0.460 OA
BRANCH  34  35
ATOM     35  C   UNL A   1      45.436  20.320  24.336  1.00  0.00     0.338 C 
ATOM     36  O   UNL A   1      46.480  19.765  24.433  1.00  0.00    -0.246 OA
BRANCH  35  37
ATOM     37  C   UNL A   1      45.219  21.823  24.424  1.00  0.00     0.060 A 
ATOM     38  C   UNL A   1      46.147  22.878  24.348  1.00  0.00     0.016 A 
ATOM     39  C   UNL A   1      44.012  22.189  24.896  1.00  0.00     0.016 A 
ATOM     40  C   UNL A   1      45.821  24.249  24.816  1.00  0.00     0.010 A 
ATOM     41  C   UNL A   1      43.895  23.414  25.540  1.00  0.00     0.010 A 
ATOM     42  C   UNL A   1      44.635  24.569  25.480  1.00  0.00    -0.014 A 
BRANCH  42  43
ATOM     43  C   UNL A   1      44.111  25.799  26.335  1.00  0.00     0.031 A 
ATOM     44  C   UNL A   1      42.663  26.586  26.535  1.00  0.00     0.074 A 
ATOM     45  C   UNL A   1      45.017  26.152  27.276  1.00  0.00     0.049 A 
ATOM     46  N   UNL A   1      42.574  27.764  27.135  1.00  0.00    -0.248 NA
ATOM     47  C   UNL A   1      41.253  26.264  26.135  1.00  0.00     0.031 C 
ATOM     48  C   UNL A   1      44.822  26.934  28.493  1.00  0.00     0.029 A 
ATOM     49  N   UNL A   1      46.404  25.975  27.214  1.00  0.00    -0.354 N 
ATOM     50  C   UNL A   1      41.228  28.096  27.359  1.00  0.00     0.074 A 
ATOM     51  C   UNL A   1      40.489  27.278  26.499  1.00  0.00     0.031 C 
ATOM     52  C   UNL A   1      46.003  27.446  28.868  1.00  0.00     0.029 A 
ATOM     53  C   UNL A   1      46.959  27.107  27.834  1.00  0.00     0.049 A 
ATOM     54  H   UNL A   1      46.891  25.216  26.818  1.00  0.00     0.167 HD
ATOM     55  C   UNL A   1      40.798  28.919  28.359  1.00  0.00     0.037 A 
ATOM     56  C   UNL A   1      47.734  27.974  27.129  1.00  0.00     0.037 A 
ATOM     57  C   UNL A   1      41.930  29.645  28.879  1.00  0.00     0.049 A 
ATOM     58  C   UNL A   1      47.243  29.400  27.166  1.00  0.00     0.074 A 
ATOM     59  C   UNL A   1      42.647  29.621  30.057  1.00  0.00     0.029 A 
ATOM     60  N   UNL A   1      42.645  30.418  27.983  1.00  0.00    -0.354 N 
ATOM     61  N   UNL A   1      46.087  29.765  27.648  1.00  0.00    -0.248 NA
ATOM     62  C   UNL A   1      48.002  30.536  26.655  1.00  0.00     0.031 C 
ATOM     63  C   UNL A   1      43.839  30.367  29.842  1.00  0.00     0.029 A 
ATOM     64  C   UNL A   1      43.814  30.863  28.549  1.00  0.00     0.049 A 
ATOM     65  H   UNL A   1      42.356  30.622  27.064  1.00  0.00     0.167 HD
ATOM     66  C   UNL A   1      45.896  31.109  27.452  1.00  0.00     0.074 A 
ATOM     67  C   UNL A   1      47.148  31.552  26.876  1.00  0.00     0.031 C 
ATOM     68  C   UNL A   1      44.697  31.700  27.749  1.00  0.00     0.037 A 
BRANCH  55  69
ATOM     69  C   UNL A   1      39.380  29.006  28.970  1.00  0.00     0.057 A 
ATOM     70  C   UNL A   1      38.315  29.510  28.189  1.00  0.00     0.134 A 
ATOM     71  C   UNL A   1      38.988  28.729  30.302  1.00  0.00     0.134 A 
ATOM     72  F   UNL A   1      38.479  29.821  26.897  1.00  0.00    -0.206 F 
ATOM     73  C   UNL A   1      37.018  29.748  28.689  1.00  0.00     0.040 A 
ATOM     74  C   UNL A   1      37.683  28.919  30.801  1.00  0.00     0.040 A 
ATOM     75  F   UNL A   1      39.829  28.300  31.245  1.00  0.00    -0.206 F 
ATOM     76  C   UNL A   1      36.694  29.450  30.000  1.00  0.00     0.006 A 
ENDBRANCH  55  69
BRANCH  56  77
ATOM     77  C   UNL A   1      48.488  27.301  26.032  1.00  0.00     0.057 A 
ATOM     78  C   UNL A   1      47.944  27.358  24.733  1.00  0.00     0.134 A 
ATOM     79  C   UNL A   1      49.849  26.997  26.129  1.00  0.00     0.134 A 
ATOM     80  F   UNL A   1      46.648  27.666  24.562  1.00  0.00    -0.206 F 
ATOM     81  C   UNL A   1      48.733  27.240  23.585  1.00  0.00     0.040 A 
ATOM     82  C   UNL A   1      50.645  26.838  24.982  1.00  0.00     0.040 A 
ATOM     83  F   UNL A   1      50.461  26.979  27.321  1.00  0.00    -0.206 F 
ATOM     84  C   UNL A   1      50.097  27.006  23.709  1.00  0.00     0.006 A 
ENDBRANCH  56  77
BRANCH  68  85
ATOM     85  C   UNL A   1      44.185  33.070  27.323  1.00  0.00     0.057 A 
ATOM     86  C   UNL A   1      43.989  33.486  26.000  1.00  0.00     0.134 A 
ATOM     87  C   UNL A   1      43.708  33.993  28.295  1.00  0.00     0.134 A 
ATOM     88  F   UNL A   1      44.288  32.707  24.958  1.00  0.00    -0.206 F 
ATOM     89  C   UNL A   1      43.408  34.722  25.669  1.00  0.00     0.040 A 
ATOM     90  C   UNL A   1      43.067  35.194  27.976  1.00  0.00     0.040 A 
ATOM     91  F   UNL A   1      43.815  33.763  29.612  1.00  0.00    -0.206 F 
ATOM     92  C   UNL A   1      42.926  35.572  26.654  1.00  0.00     0.006 A 
ENDBRANCH  68  85
ENDBRANCH  42  43
ENDBRANCH  35  37
ENDBRANCH  34  35
ENDBRANCH  33  34
ENDBRANCH  32  33
ENDBRANCH  31  32
ENDBRANCH   1  31
TORSDOF 18
ENDMDL
MODEL 2
REMARK VINA RESULT:     -11.8      2.661      5.174
REMARK SMILES Cc1ccccc1[C@@H]1[NH2+][C@@H](C(=O)OCCOCCOCCOC(=O)c2ccc(-c3c4nc(c(-c5c(F)cccc5F)c5ccc([nH]5)c(-c5c(F)cccc5F)c5nc(c(-c6c(F)cccc6F)c6ccc3[nH]6)C=C5)C=C4)cc2)CC2=c3ccccc3=N[C@H]21
REMARK SMILES IDX 18 1 17 2 16 3 15 4 14 5 13 6 11 7 12 8 10 9 8 10 9 11 88 12
REMARK SMILES IDX 80 15 87 16 79 17 81 18 86 19 82 20 85 21 83 22 84 23 7 24
REMARK SMILES IDX 1 25 2 26 3 27 4 28 6 29 5 30 19 31 20 32 21 33 22 34 23 35
REMARK SMILES IDX 24 36 25 37 26 38 78 39 27 40 77 41 28 42 29 43 30 44 71 45
REMARK SMILES IDX 31 46 76 47 70 48 72 49 32 50 75 51 69 52 68 53 33 55 59 56
REMARK SMILES IDX 42 57 58 58 43 59 46 60 57 61 73 62 44 63 45 64 56 66 74 67
REMARK SMILES IDX 47 68 34 69 35 70 40 71 36 72 37 73 39 74 41 75 38 76 60 77
REMARK SMILES IDX 61 78 66 79 62 80 63 81 65 82 67 83 64 84 48 85 49 86 54 87
REMARK SMILES IDX 50 88 51 89 53 90 55 91 52 92
REMARK H PARENT 9 13 9 14 72 54 46 65
REMARK Flexibility Score: inf
ROOT
ATOM      1  C   UNL A   1      37.354  22.069  25.064  1.00  0.00     0.188 C 
ENDROOT
BRANCH   1   2
ATOM      2  C   UNL A   1      36.042  21.620  25.733  1.00  0.00     0.188 C 
BRANCH   2   3
ATOM      3  O   UNL A   1      34.848  22.435  25.832  1.00  0.00    -0.376 OA
BRANCH   3   4
ATOM      4  C   UNL A   1      33.488  21.938  25.873  1.00  0.00     0.202 C 
BRANCH   4   5
ATOM      5  C   UNL A   1      32.209  22.706  25.072  1.00  0.00     0.261 C 
BRANCH   5   6
ATOM      6  O   UNL A   1      31.017  23.592  25.734  1.00  0.00    -0.459 OA
BRANCH   6   7
ATOM      7  C   UNL A   1      30.807  24.974  25.962  1.00  0.00     0.365 C 
ATOM      8  O   UNL A   1      29.903  25.538  26.586  1.00  0.00    -0.245 OA
BRANCH   7   9
ATOM      9  C   UNL A   1      31.817  25.991  25.460  1.00  0.00     0.298 C 
ATOM     10  C   UNL A   1      31.878  28.567  26.010  1.00  0.00     0.243 C 
ATOM     11  N   UNL A   1      31.856  27.145  26.476  1.00  0.00    -0.326 N 
ATOM     12  C   UNL A   1      31.723  28.805  24.476  1.00  0.00     0.196 C 
ATOM     13  H   UNL A   1      31.030  27.043  27.065  1.00  0.00     0.347 HD
ATOM     14  H   UNL A   1      32.770  27.033  26.916  1.00  0.00     0.347 HD
ATOM     15  C   UNL A   1      30.815  27.729  23.962  1.00  0.00    -0.024 C 
ATOM     16  N   UNL A   1      31.000  30.078  24.171  1.00  0.00    -0.270 NA
ATOM     17  C   UNL A   1      31.340  26.342  24.051  1.00  0.00     0.111 C 
ATOM     18  C   UNL A   1      29.620  28.216  23.657  1.00  0.00     0.002 A 
ATOM     19  C   UNL A   1      29.852  29.669  23.721  1.00  0.00     0.066 A 
ATOM     20  C   UNL A   1      28.332  27.672  23.374  1.00  0.00     0.010 A 
ATOM     21  C   UNL A   1      28.748  30.523  23.227  1.00  0.00     0.028 A 
ATOM     22  C   UNL A   1      27.338  28.518  23.050  1.00  0.00     0.001 A 
ATOM     23  C   UNL A   1      27.577  29.946  22.906  1.00  0.00     0.002 A 
BRANCH  10  24
ATOM     24  C   UNL A   1      33.055  29.354  26.612  1.00  0.00     0.015 A 
ATOM     25  C   UNL A   1      31.727  31.533  26.919  1.00  0.00     0.045 C 
ATOM     26  C   UNL A   1      32.960  30.692  27.050  1.00  0.00    -0.042 A 
ATOM     27  C   UNL A   1      34.052  31.292  27.706  1.00  0.00     0.004 A 
ATOM     28  C   UNL A   1      35.250  30.610  27.897  1.00  0.00     0.000 A 
ATOM     29  C   UNL A   1      34.295  28.690  26.792  1.00  0.00     0.010 A 
ATOM     30  C   UNL A   1      35.378  29.313  27.423  1.00  0.00     0.001 A 
ENDBRANCH  10  24
ENDBRANCH   7   9
ENDBRANCH   6   7
ENDBRANCH   5   6
ENDBRANCH   4   5
ENDBRANCH   3   4
ENDBRANCH   2   3
ENDBRANCH   1   2
BRANCH   1  31
ATOM     31  O   UNL A   1      38.480  21.681  25.827  1.00  0.00    -0.376 OA
BRANCH  31  32
ATOM     32  C   UNL A   1      38.873  20.317  25.737  1.00  0.00     0.202 C 
BRANCH  32  33
ATOM     33  C   UNL A   1      40.357  20.046  26.095  1.00  0.00     0.261 C 
BRANCH  33  34
ATOM     34  O   UNL A   1      41.248  21.012  25.474  1.00  0.00    -0.460 OA
BRANCH  34  35
ATOM     35  C   UNL A   1      42.590  20.997  25.847  1.00  0.00     0.338 C 
ATOM     36  O   UNL A   1      43.375  20.173  25.510  1.00  0.00    -0.246 OA
BRANCH  35  37
ATOM     37  C   UNL A   1      42.832  22.078  26.889  1.00  0.00     0.060 A 
ATOM     38  C   UNL A   1      42.545  22.090  28.266  1.00  0.00     0.016 A 
ATOM     39  C   UNL A   1      43.128  23.290  26.382  1.00  0.00     0.016 A 
ATOM     40  C   UNL A   1      42.510  23.347  29.054  1.00  0.00     0.010 A 
ATOM     41  C   UNL A   1      42.814  24.417  27.131  1.00  0.00     0.010 A 
ATOM     42  C   UNL A   1      42.626  24.615  28.477  1.00  0.00    -0.014 A 
BRANCH  42  43
ATOM     43  C   UNL A   1      42.353  26.105  28.950  1.00  0.00     0.031 A 
ATOM     44  C   UNL A   1      41.096  27.184  28.836  1.00  0.00     0.074 A 
ATOM     45  C   UNL A   1      43.294  26.510  29.834  1.00  0.00     0.049 A 
ATOM     46  N   UNL A   1      41.242  28.472  29.109  1.00  0.00    -0.248 NA
ATOM     47  C   UNL A   1      39.658  27.049  28.429  1.00  0.00     0.031 C 
ATOM     48  C   UNL A   1      43.241  27.608  30.794  1.00  0.00     0.029 A 
ATOM     49  N   UNL A   1      44.615  26.055  29.921  1.00  0.00    -0.354 N 
ATOM     50  C   UNL A   1      39.990  29.108  29.141  1.00  0.00     0.074 A 
ATOM     51  C   UNL A   1      39.114  28.252  28.465  1.00  0.00     0.031 C 
ATOM     52  C   UNL A   1      44.495  27.960  31.112  1.00  0.00     0.029 A 
ATOM     53  C   UNL A   1      45.380  27.180  30.272  1.00  0.00     0.049 A 
ATOM     54  H   UNL A   1      44.941  25.138  29.768  1.00  0.00     0.167 HD
ATOM     55  C   UNL A   1      39.721  30.233  29.863  1.00  0.00     0.037 A 
ATOM     56  C   UNL A   1      46.332  27.661  29.428  1.00  0.00     0.037 A 
ATOM     57  C   UNL A   1      40.969  30.835  30.263  1.00  0.00     0.049 A 
ATOM     58  C   UNL A   1      46.148  29.114  29.065  1.00  0.00     0.074 A 
ATOM     59  C   UNL A   1      41.642  30.984  31.458  1.00  0.00     0.029 A 
ATOM     60  N   UNL A   1      41.847  31.189  29.255  1.00  0.00    -0.354 N 
ATOM     61  N   UNL A   1      45.083  29.811  29.351  1.00  0.00    -0.248 NA
ATOM     62  C   UNL A   1      47.136  29.903  28.338  1.00  0.00     0.031 C 
ATOM     63  C   UNL A   1      42.966  31.399  31.148  1.00  0.00     0.029 A 
ATOM     64  C   UNL A   1      43.071  31.530  29.773  1.00  0.00     0.049 A 
ATOM     65  H   UNL A   1      41.624  31.195  28.296  1.00  0.00     0.167 HD
ATOM     66  C   UNL A   1      45.179  31.066  28.806  1.00  0.00     0.074 A 
ATOM     67  C   UNL A   1      46.507  31.088  28.229  1.00  0.00     0.031 C 
ATOM     68  C   UNL A   1      44.124  31.937  28.854  1.00  0.00     0.037 A 
BRANCH  55  69
ATOM     69  C   UNL A   1      38.341  30.753  30.326  1.00  0.00     0.057 A 
ATOM     70  C   UNL A   1      37.969  32.088  30.044  1.00  0.00     0.134 A 
ATOM     71  C   UNL A   1      37.378  30.082  31.119  1.00  0.00     0.134 A 
ATOM     72  F   UNL A   1      38.740  32.886  29.295  1.00  0.00    -0.206 F 
ATOM     73  C   UNL A   1      36.793  32.696  30.529  1.00  0.00     0.040 A 
ATOM     74  C   UNL A   1      36.176  30.665  31.571  1.00  0.00     0.040 A 
ATOM     75  F   UNL A   1      37.531  28.834  31.565  1.00  0.00    -0.206 F 
ATOM     76  C   UNL A   1      35.887  31.984  31.295  1.00  0.00     0.006 A 
ENDBRANCH  55  69
BRANCH  56  77
ATOM     77  C   UNL A   1      46.952  26.588  28.597  1.00  0.00     0.057 A 
ATOM     78  C   UNL A   1      46.574  26.511  27.241  1.00  0.00     0.134 A 
ATOM     79  C   UNL A   1      48.145  25.952  28.954  1.00  0.00     0.134 A 
ATOM     80  F   UNL A   1      45.451  27.116  26.822  1.00  0.00    -0.206 F 
ATOM     81  C   UNL A   1      47.397  25.938  26.267  1.00  0.00     0.040 A 
ATOM     82  C   UNL A   1      48.961  25.339  27.988  1.00  0.00     0.040 A 
ATOM     83  F   UNL A   1      48.608  26.025  30.209  1.00  0.00    -0.206 F 
ATOM     84  C   UNL A   1      48.612  25.372  26.638  1.00  0.00     0.006 A 
ENDBRANCH  56  77
BRANCH  68  85
ATOM     85  C   UNL A   1      43.916  33.218  28.057  1.00  0.00     0.057 A 
ATOM     86  C   UNL A   1      43.947  33.317  26.660  1.00  0.00     0.134 A 
ATOM     87  C   UNL A   1      43.506  34.413  28.711  1.00  0.00     0.134 A 
ATOM     88  F   UNL A   1      44.218  32.268  25.878  1.00  0.00    -0.206 F 
ATOM     89  C   UNL A   1      43.638  34.504  25.974  1.00  0.00     0.040 A 
ATOM     90  C   UNL A   1      43.130  35.578  28.034  1.00  0.00     0.040 A 
ATOM     91  F   UNL A   1      43.422  34.504  30.046  1.00  0.00    -0.206 F 
ATOM     92  C   UNL A   1      43.208  35.633  26.656  1.00  0.00     0.006 A 
ENDBRANCH  68  85
ENDBRANCH  42  43
ENDBRANCH  35  37
ENDBRANCH  34  35
ENDBRANCH  33  34
ENDBRANCH  32  33
ENDBRANCH  31  32
ENDBRANCH   1  31
TORSDOF 18
ENDMDL
MODEL 3
REMARK VINA RESULT:     -11.7      4.039      9.616
REMARK SMILES Cc1ccccc1[C@@H]1[NH2+][C@@H](C(=O)OCCOCCOCCOC(=O)c2ccc(-c3c4nc(c(-c5c(F)cccc5F)c5ccc([nH]5)c(-c5c(F)cccc5F)c5nc(c(-c6c(F)cccc6F)c6ccc3[nH]6)C=C5)C=C4)cc2)CC2=c3ccccc3=N[C@H]21
REMARK SMILES IDX 18 1 17 2 16 3 15 4 14 5 13 6 11 7 12 8 10 9 8 10 9 11 88 12
REMARK SMILES IDX 80 15 87 16 79 17 81 18 86 19 82 20 85 21 83 22 84 23 7 24
REMARK SMILES IDX 1 25 2 26 3 27 4 28 6 29 5 30 19 31 20 32 21 33 22 34 23 35
REMARK SMILES IDX 24 36 25 37 26 38 78 39 27 40 77 41 28 42 29 43 30 44 71 45
REMARK SMILES IDX 31 46 76 47 70 48 72 49 32 50 75 51 69 52 68 53 33 55 59 56
REMARK SMILES IDX 42 57 58 58 43 59 46 60 57 61 73 62 44 63 45 64 56 66 74 67
REMARK SMILES IDX 47 68 34 69 35 70 40 71 36 72 37 73 39 74 41 75 38 76 60 77
REMARK SMILES IDX 61 78 66 79 62 80 63 81 65 82 67 83 64 84 48 85 49 86 54 87
REMARK SMILES IDX 50 88 51 89 53 90 55 91 52 92
REMARK H PARENT 9 13 9 14 72 54 46 65
REMARK Flexibility Score: inf
ROOT
ATOM      1  C   UNL A   1      33.448  27.195  25.468  1.00  0.00     0.188 C 
ENDROOT
BRANCH   1   2
ATOM      2  C   UNL A   1      32.163  26.494  25.945  1.00  0.00     0.188 C 
BRANCH   2   3
ATOM      3  O   UNL A   1      30.945  26.391  25.165  1.00  0.00    -0.376 OA
BRANCH   3   4
ATOM      4  C   UNL A   1      30.751  26.921  23.831  1.00  0.00     0.202 C 
BRANCH   4   5
ATOM      5  C   UNL A   1      31.289  26.117  22.441  1.00  0.00     0.261 C 
BRANCH   5   6
ATOM      6  O   UNL A   1      32.762  25.482  22.174  1.00  0.00    -0.459 OA
BRANCH   6   7
ATOM      7  C   UNL A   1      33.366  24.222  22.406  1.00  0.00     0.365 C 
ATOM      8  O   UNL A   1      33.630  23.319  21.607  1.00  0.00    -0.245 OA
BRANCH   7   9
ATOM      9  C   UNL A   1      33.853  23.856  23.797  1.00  0.00     0.298 C 
ATOM     10  C   UNL A   1      35.762  22.147  24.408  1.00  0.00     0.243 C 
ATOM     11  N   UNL A   1      35.303  23.362  23.665  1.00  0.00    -0.326 N 
ATOM     12  C   UNL A   1      34.674  21.353  25.195  1.00  0.00     0.196 C 
ATOM     13  H   UNL A   1      35.458  23.175  22.674  1.00  0.00     0.347 HD
ATOM     14  H   UNL A   1      35.842  24.114  24.097  1.00  0.00     0.347 HD
ATOM     15  C   UNL A   1      33.402  21.471  24.411  1.00  0.00    -0.024 C 
ATOM     16  N   UNL A   1      34.956  19.884  25.225  1.00  0.00    -0.270 NA
ATOM     17  C   UNL A   1      32.832  22.839  24.305  1.00  0.00     0.111 C 
ATOM     18  C   UNL A   1      33.099  20.326  23.813  1.00  0.00     0.002 A 
ATOM     19  C   UNL A   1      34.044  19.388  24.444  1.00  0.00     0.066 A 
ATOM     20  C   UNL A   1      32.199  19.910  22.789  1.00  0.00     0.010 A 
ATOM     21  C   UNL A   1      33.832  17.955  24.142  1.00  0.00     0.028 A 
ATOM     22  C   UNL A   1      32.144  18.604  22.478  1.00  0.00     0.001 A 
ATOM     23  C   UNL A   1      32.917  17.617  23.217  1.00  0.00     0.002 A 
BRANCH  10  24
ATOM     24  C   UNL A   1      37.015  22.427  25.256  1.00  0.00     0.015 A 
ATOM     25  C   UNL A   1      38.078  20.124  24.845  1.00  0.00     0.045 C 
ATOM     26  C   UNL A   1      38.073  21.509  25.419  1.00  0.00    -0.042 A 
ATOM     27  C   UNL A   1      39.238  21.898  26.106  1.00  0.00     0.004 A 
ATOM     28  C   UNL A   1      39.358  23.162  26.676  1.00  0.00     0.000 A 
ATOM     29  C   UNL A   1      37.149  23.698  25.870  1.00  0.00     0.010 A 
ATOM     30  C   UNL A   1      38.305  24.058  26.573  1.00  0.00     0.001 A 
ENDBRANCH  10  24
ENDBRANCH   7   9
ENDBRANCH   6   7
ENDBRANCH   5   6
ENDBRANCH   4   5
ENDBRANCH   3   4
ENDBRANCH   2   3
ENDBRANCH   1   2
BRANCH   1  31
ATOM     31  O   UNL A   1      33.325  28.602  25.544  1.00  0.00    -0.376 OA
BRANCH  31  32
ATOM     32  C   UNL A   1      32.457  29.113  26.548  1.00  0.00     0.202 C 
BRANCH  32  33
ATOM     33  C   UNL A   1      32.892  30.475  27.148  1.00  0.00     0.261 C 
BRANCH  33  34
ATOM     34  O   UNL A   1      34.274  30.450  27.600  1.00  0.00    -0.460 OA
BRANCH  34  35
ATOM     35  C   UNL A   1      34.869  31.660  27.950  1.00  0.00     0.338 C 
ATOM     36  O   UNL A   1      34.505  32.725  27.573  1.00  0.00    -0.246 OA
BRANCH  35  37
ATOM     37  C   UNL A   1      36.150  31.383  28.722  1.00  0.00     0.060 A 
ATOM     38  C   UNL A   1      37.243  32.225  28.996  1.00  0.00     0.016 A 
ATOM     39  C   UNL A   1      36.390  30.079  28.959  1.00  0.00     0.016 A 
ATOM     40  C   UNL A   1      38.555  31.694  29.440  1.00  0.00     0.010 A 
ATOM     41  C   UNL A   1      37.707  29.667  29.117  1.00  0.00     0.010 A 
ATOM     42  C   UNL A   1      38.849  30.329  29.495  1.00  0.00    -0.014 A 
BRANCH  42  43
ATOM     43  C   UNL A   1      40.169  29.458  29.632  1.00  0.00     0.031 A 
ATOM     44  C   UNL A   1      40.724  28.022  29.010  1.00  0.00     0.074 A 
ATOM     45  C   UNL A   1      41.151  30.164  30.239  1.00  0.00     0.049 A 
ATOM     46  N   UNL A   1      41.783  27.399  29.505  1.00  0.00    -0.248 NA
ATOM     47  C   UNL A   1      40.251  27.131  27.899  1.00  0.00     0.031 C 
ATOM     48  C   UNL A   1      42.592  29.929  30.232  1.00  0.00     0.029 A 
ATOM     49  N   UNL A   1      40.989  31.210  31.156  1.00  0.00    -0.354 N 
ATOM     50  C   UNL A   1      42.157  26.335  28.667  1.00  0.00     0.074 A 
ATOM     51  C   UNL A   1      41.039  26.072  27.869  1.00  0.00     0.031 C 
ATOM     52  C   UNL A   1      43.130  30.532  31.301  1.00  0.00     0.029 A 
ATOM     53  C   UNL A   1      42.033  31.063  32.084  1.00  0.00     0.049 A 
ATOM     54  H   UNL A   1      40.290  31.903  31.152  1.00  0.00     0.167 HD
ATOM     55  C   UNL A   1      43.425  25.840  28.577  1.00  0.00     0.037 A 
ATOM     56  C   UNL A   1      41.767  30.799  33.392  1.00  0.00     0.037 A 
ATOM     57  C   UNL A   1      44.189  26.319  29.703  1.00  0.00     0.049 A 
ATOM     58  C   UNL A   1      42.438  29.551  33.911  1.00  0.00     0.074 A 
ATOM     59  C   UNL A   1      45.222  27.219  29.869  1.00  0.00     0.029 A 
ATOM     60  N   UNL A   1      43.711  26.011  30.963  1.00  0.00    -0.354 N 
ATOM     61  N   UNL A   1      43.054  28.683  33.157  1.00  0.00    -0.248 NA
ATOM     62  C   UNL A   1      42.464  29.167  35.318  1.00  0.00     0.031 C 
ATOM     63  C   UNL A   1      45.333  27.481  31.262  1.00  0.00     0.029 A 
ATOM     64  C   UNL A   1      44.391  26.713  31.926  1.00  0.00     0.049 A 
ATOM     65  H   UNL A   1      42.982  25.376  31.145  1.00  0.00     0.167 HD
ATOM     66  C   UNL A   1      43.474  27.616  33.911  1.00  0.00     0.074 A 
ATOM     67  C   UNL A   1      43.127  27.996  35.264  1.00  0.00     0.031 C 
ATOM     68  C   UNL A   1      44.024  26.511  33.321  1.00  0.00     0.037 A 
BRANCH  55  69
ATOM     69  C   UNL A   1      44.040  25.015  27.424  1.00  0.00     0.057 A 
ATOM     70  C   UNL A   1      44.701  25.681  26.365  1.00  0.00     0.134 A 
ATOM     71  C   UNL A   1      43.950  23.618  27.208  1.00  0.00     0.134 A 
ATOM     72  F   UNL A   1      44.899  27.005  26.387  1.00  0.00    -0.206 F 
ATOM     73  C   UNL A   1      45.182  25.035  25.209  1.00  0.00     0.040 A 
ATOM     74  C   UNL A   1      44.469  22.954  26.078  1.00  0.00     0.040 A 
ATOM     75  F   UNL A   1      43.320  22.783  28.036  1.00  0.00    -0.206 F 
ATOM     76  C   UNL A   1      45.071  23.664  25.060  1.00  0.00     0.006 A 
ENDBRANCH  55  69
BRANCH  56  77
ATOM     77  C   UNL A   1      40.471  31.386  33.839  1.00  0.00     0.057 A 
ATOM     78  C   UNL A   1      39.348  30.536  33.886  1.00  0.00     0.134 A 
ATOM     79  C   UNL A   1      40.396  32.567  34.585  1.00  0.00     0.134 A 
ATOM     80  F   UNL A   1      39.358  29.374  33.211  1.00  0.00    -0.206 F 
ATOM     81  C   UNL A   1      38.257  30.782  34.724  1.00  0.00     0.040 A 
ATOM     82  C   UNL A   1      39.287  32.843  35.402  1.00  0.00     0.040 A 
ATOM     83  F   UNL A   1      41.440  33.405  34.644  1.00  0.00    -0.206 F 
ATOM     84  C   UNL A   1      38.238  31.929  35.509  1.00  0.00     0.006 A 
ENDBRANCH  56  77
BRANCH  68  85
ATOM     85  C   UNL A   1      44.256  25.131  33.924  1.00  0.00     0.057 A 
ATOM     86  C   UNL A   1      43.289  24.364  34.586  1.00  0.00     0.134 A 
ATOM     87  C   UNL A   1      45.483  24.447  33.702  1.00  0.00     0.134 A 
ATOM     88  F   UNL A   1      42.047  24.810  34.795  1.00  0.00    -0.206 F 
ATOM     89  C   UNL A   1      43.528  23.050  35.024  1.00  0.00     0.040 A 
ATOM     90  C   UNL A   1      45.708  23.117  34.073  1.00  0.00     0.040 A 
ATOM     91  F   UNL A   1      46.524  25.026  33.087  1.00  0.00    -0.206 F 
ATOM     92  C   UNL A   1      44.731  22.414  34.751  1.00  0.00     0.006 A 
ENDBRANCH  68  85
ENDBRANCH  42  43
ENDBRANCH  35  37
ENDBRANCH  34  35
ENDBRANCH  33  34
ENDBRANCH  32  33
ENDBRANCH  31  32
ENDBRANCH   1  31
TORSDOF 18
ENDMDL
