MODEL 1
REMARK VINA RESULT:      -9.0      0.000      0.000
REMARK SMILES O=C(Cc1ccn(C(F)F)c(=O)c1)OCCOCCOCCOC(=O)c1ccc(-c2c3nc(c(-c4c(F)cccc4F)c4ccc([nH]4)c(-c4c(F)cccc4F)c4nc(c(-c5c(F)cccc5F)c5ccc2[nH]5)C=C4)C=C3)cc1
REMARK SMILES IDX 18 1 17 2 16 3 15 4 14 5 2 6 1 7 3 8 4 9 5 10 13 11 6 12
REMARK SMILES IDX 11 13 7 14 12 15 8 16 9 17 10 18 19 19 20 20 21 21 22 22
REMARK SMILES IDX 23 23 24 24 25 25 26 26 27 27 79 28 28 29 78 30 29 31 30 32
REMARK SMILES IDX 31 33 72 34 32 35 77 36 71 37 73 38 33 39 76 40 70 41 69 42
REMARK SMILES IDX 34 44 60 45 43 46 59 47 44 48 47 49 58 50 74 51 45 52 46 53
REMARK SMILES IDX 57 55 75 56 48 57 35 58 36 59 41 60 37 61 38 62 40 63 42 64
REMARK SMILES IDX 39 65 61 66 62 67 67 68 63 69 64 70 66 71 68 72 65 73 49 74
REMARK SMILES IDX 50 75 55 76 51 77 52 78 54 79 56 80 53 81
REMARK H PARENT 73 43 47 54
REMARK Flexibility Score: inf
ROOT
ATOM      1  C   UNL A   1      32.546  36.386  30.818  1.00  0.00     0.188 C 
ENDROOT
BRANCH   1   2
ATOM      2  O   UNL A   1      33.297  37.515  31.206  1.00  0.00    -0.376 OA
BRANCH   2   3
ATOM      3  C   UNL A   1      33.817  37.645  32.517  1.00  0.00     0.202 C 
BRANCH   3   4
ATOM      4  C   UNL A   1      34.015  36.468  33.485  1.00  0.00     0.261 C 
BRANCH   4   5
ATOM      5  O   UNL A   1      34.891  35.373  33.170  1.00  0.00    -0.463 OA
BRANCH   5   6
ATOM      6  C   UNL A   1      34.624  34.051  33.113  1.00  0.00     0.310 C 
ATOM      7  O   UNL A   1      33.453  33.669  33.116  1.00  0.00    -0.252 OA
BRANCH   6   8
ATOM      8  C   UNL A   1      35.756  33.045  33.151  1.00  0.00     0.158 C 
BRANCH   8   9
ATOM      9  C   UNL A   1      36.875  33.439  32.248  1.00  0.00    -0.030 A 
ATOM     10  C   UNL A   1      38.065  34.021  32.825  1.00  0.00     0.023 A 
ATOM     11  C   UNL A   1      36.788  33.295  30.917  1.00  0.00     0.076 A 
ATOM     12  C   UNL A   1      39.101  34.333  32.037  1.00  0.00     0.095 A 
ATOM     13  C   UNL A   1      37.962  33.532  30.048  1.00  0.00     0.255 A 
ATOM     14  N   UNL A   1      39.062  34.084  30.676  1.00  0.00    -0.258 N 
ATOM     15  O   UNL A   1      37.878  33.206  28.869  1.00  0.00    -0.269 OA
BRANCH  14  16
ATOM     16  C   UNL A   1      40.216  34.310  29.852  1.00  0.00     0.451 C 
ATOM     17  F   UNL A   1      40.061  35.440  29.119  1.00  0.00    -0.185 F 
ATOM     18  F   UNL A   1      41.336  34.445  30.603  1.00  0.00    -0.185 F 
ENDBRANCH  14  16
ENDBRANCH   8   9
ENDBRANCH   6   8
ENDBRANCH   5   6
ENDBRANCH   4   5
ENDBRANCH   3   4
ENDBRANCH   2   3
ENDBRANCH   1   2
BRANCH   1  19
ATOM     19  C   UNL A   1      33.147  35.277  29.954  1.00  0.00     0.188 C 
BRANCH  19  20
ATOM     20  O   UNL A   1      34.077  35.610  28.950  1.00  0.00    -0.376 OA
BRANCH  20  21
ATOM     21  C   UNL A   1      34.460  34.604  28.023  1.00  0.00     0.202 C 
BRANCH  21  22
ATOM     22  C   UNL A   1      33.720  33.259  27.962  1.00  0.00     0.261 C 
BRANCH  22  23
ATOM     23  O   UNL A   1      34.380  32.168  28.632  1.00  0.00    -0.460 OA
BRANCH  23  24
ATOM     24  C   UNL A   1      34.562  31.043  27.900  1.00  0.00     0.338 C 
ATOM     25  O   UNL A   1      33.894  30.664  26.944  1.00  0.00    -0.246 OA
BRANCH  24  26
ATOM     26  C   UNL A   1      35.785  30.350  28.336  1.00  0.00     0.060 A 
ATOM     27  C   UNL A   1      36.892  30.294  27.490  1.00  0.00     0.016 A 
ATOM     28  C   UNL A   1      35.860  29.830  29.636  1.00  0.00     0.016 A 
ATOM     29  C   UNL A   1      38.080  29.718  27.949  1.00  0.00     0.010 A 
ATOM     30  C   UNL A   1      37.043  29.235  30.086  1.00  0.00     0.010 A 
ATOM     31  C   UNL A   1      38.169  29.190  29.251  1.00  0.00    -0.014 A 
BRANCH  31  32
ATOM     32  C   UNL A   1      39.479  28.727  29.773  1.00  0.00     0.031 A 
ATOM     33  C   UNL A   1      40.141  29.378  30.950  1.00  0.00     0.074 A 
ATOM     34  C   UNL A   1      40.086  27.695  29.157  1.00  0.00     0.049 A 
ATOM     35  N   UNL A   1      41.238  29.029  31.576  1.00  0.00    -0.248 NA
ATOM     36  C   UNL A   1      39.493  30.580  31.487  1.00  0.00     0.031 C 
ATOM     37  C   UNL A   1      39.570  27.006  27.975  1.00  0.00     0.029 A 
ATOM     38  N   UNL A   1      41.264  27.050  29.438  1.00  0.00    -0.354 N 
ATOM     39  C   UNL A   1      41.404  29.950  32.599  1.00  0.00     0.074 A 
ATOM     40  C   UNL A   1      40.321  30.908  32.472  1.00  0.00     0.031 C 
ATOM     41  C   UNL A   1      40.420  26.024  27.638  1.00  0.00     0.029 A 
ATOM     42  C   UNL A   1      41.550  26.031  28.563  1.00  0.00     0.049 A 
ATOM     43  H   UNL A   1      41.846  27.293  30.193  1.00  0.00     0.167 HD
ATOM     44  C   UNL A   1      42.359  29.986  33.563  1.00  0.00     0.037 A 
ATOM     45  C   UNL A   1      42.606  25.200  28.505  1.00  0.00     0.037 A 
ATOM     46  C   UNL A   1      43.459  29.055  33.660  1.00  0.00     0.049 A 
ATOM     47  C   UNL A   1      43.686  25.295  29.544  1.00  0.00     0.074 A 
ATOM     48  C   UNL A   1      44.441  28.974  34.634  1.00  0.00     0.029 A 
ATOM     49  N   UNL A   1      43.745  28.064  32.731  1.00  0.00    -0.354 N 
ATOM     50  N   UNL A   1      43.771  26.099  30.577  1.00  0.00    -0.248 NA
ATOM     51  C   UNL A   1      44.816  24.364  29.413  1.00  0.00     0.031 C 
ATOM     52  C   UNL A   1      45.359  27.986  34.256  1.00  0.00     0.029 A 
ATOM     53  C   UNL A   1      44.917  27.405  33.079  1.00  0.00     0.049 A 
ATOM     54  H   UNL A   1      43.195  27.857  31.941  1.00  0.00     0.167 HD
ATOM     55  C   UNL A   1      44.959  25.771  31.218  1.00  0.00     0.074 A 
ATOM     56  C   UNL A   1      45.544  24.671  30.478  1.00  0.00     0.031 C 
ATOM     57  C   UNL A   1      45.517  26.336  32.318  1.00  0.00     0.037 A 
BRANCH  44  58
ATOM     58  C   UNL A   1      42.265  31.093  34.577  1.00  0.00     0.057 A 
ATOM     59  C   UNL A   1      41.493  30.941  35.737  1.00  0.00     0.134 A 
ATOM     60  C   UNL A   1      42.932  32.314  34.406  1.00  0.00     0.134 A 
ATOM     61  F   UNL A   1      40.812  29.807  35.961  1.00  0.00    -0.206 F 
ATOM     62  C   UNL A   1      41.405  31.954  36.694  1.00  0.00     0.040 A 
ATOM     63  C   UNL A   1      42.876  33.322  35.371  1.00  0.00     0.040 A 
ATOM     64  F   UNL A   1      43.690  32.528  33.320  1.00  0.00    -0.206 F 
ATOM     65  C   UNL A   1      42.108  33.144  36.519  1.00  0.00     0.006 A 
ENDBRANCH  44  58
BRANCH  45  66
ATOM     66  C   UNL A   1      42.691  24.207  27.406  1.00  0.00     0.057 A 
ATOM     67  C   UNL A   1      42.218  22.899  27.577  1.00  0.00     0.134 A 
ATOM     68  C   UNL A   1      43.257  24.533  26.169  1.00  0.00     0.134 A 
ATOM     69  F   UNL A   1      41.670  22.525  28.742  1.00  0.00    -0.206 F 
ATOM     70  C   UNL A   1      42.320  21.946  26.563  1.00  0.00     0.040 A 
ATOM     71  C   UNL A   1      43.340  23.598  25.137  1.00  0.00     0.040 A 
ATOM     72  F   UNL A   1      43.708  25.774  25.940  1.00  0.00    -0.206 F 
ATOM     73  C   UNL A   1      42.878  22.297  25.335  1.00  0.00     0.006 A 
ENDBRANCH  45  66
BRANCH  57  74
ATOM     74  C   UNL A   1      46.841  25.783  32.771  1.00  0.00     0.057 A 
ATOM     75  C   UNL A   1      48.045  26.254  32.231  1.00  0.00     0.134 A 
ATOM     76  C   UNL A   1      46.924  24.772  33.739  1.00  0.00     0.134 A 
ATOM     77  F   UNL A   1      48.043  27.217  31.298  1.00  0.00    -0.206 F 
ATOM     78  C   UNL A   1      49.279  25.741  32.637  1.00  0.00     0.040 A 
ATOM     79  C   UNL A   1      48.153  24.271  34.173  1.00  0.00     0.040 A 
ATOM     80  F   UNL A   1      45.810  24.287  34.310  1.00  0.00    -0.206 F 
ATOM     81  C   UNL A   1      49.336  24.752  33.616  1.00  0.00     0.006 A 
ENDBRANCH  57  74
ENDBRANCH  31  32
ENDBRANCH  24  26
ENDBRANCH  23  24
ENDBRANCH  22  23
ENDBRANCH  21  22
ENDBRANCH  20  21
ENDBRANCH  19  20
ENDBRANCH   1  19
TORSDOF 19
ENDMDL
MODEL 2
REMARK VINA RESULT:      -8.8      5.576     11.463
REMARK SMILES O=C(Cc1ccn(C(F)F)c(=O)c1)OCCOCCOCCOC(=O)c1ccc(-c2c3nc(c(-c4c(F)cccc4F)c4ccc([nH]4)c(-c4c(F)cccc4F)c4nc(c(-c5c(F)cccc5F)c5ccc2[nH]5)C=C4)C=C3)cc1
REMARK SMILES IDX 18 1 17 2 16 3 15 4 14 5 2 6 1 7 3 8 4 9 5 10 13 11 6 12
REMARK SMILES IDX 11 13 7 14 12 15 8 16 9 17 10 18 19 19 20 20 21 21 22 22
REMARK SMILES IDX 23 23 24 24 25 25 26 26 27 27 79 28 28 29 78 30 29 31 30 32
REMARK SMILES IDX 31 33 72 34 32 35 77 36 71 37 73 38 33 39 76 40 70 41 69 42
REMARK SMILES IDX 34 44 60 45 43 46 59 47 44 48 47 49 58 50 74 51 45 52 46 53
REMARK SMILES IDX 57 55 75 56 48 57 35 58 36 59 41 60 37 61 38 62 40 63 42 64
REMARK SMILES IDX 39 65 61 66 62 67 67 68 63 69 64 70 66 71 68 72 65 73 49 74
REMARK SMILES IDX 50 75 55 76 51 77 52 78 54 79 56 80 53 81
REMARK H PARENT 73 43 47 54
REMARK Flexibility Score: inf
ROOT
ATOM      1  C   UNL A   1      38.588  21.735  25.907  1.00  0.00     0.188 C 
ENDROOT
BRANCH   1   2
ATOM      2  O   UNL A   1      38.023  23.026  25.961  1.00  0.00    -0.376 OA
BRANCH   2   3
ATOM      3  C   UNL A   1      36.913  23.383  25.156  1.00  0.00     0.202 C 
BRANCH   3   4
ATOM      4  C   UNL A   1      35.591  22.601  25.117  1.00  0.00     0.261 C 
BRANCH   4   5
ATOM      5  O   UNL A   1      34.374  23.202  24.644  1.00  0.00    -0.463 OA
BRANCH   5   6
ATOM      6  C   UNL A   1      33.695  22.977  23.499  1.00  0.00     0.310 C 
ATOM      7  O   UNL A   1      34.127  23.432  22.440  1.00  0.00    -0.252 OA
BRANCH   6   8
ATOM      8  C   UNL A   1      32.361  22.261  23.536  1.00  0.00     0.158 C 
BRANCH   8   9
ATOM      9  C   UNL A   1      32.522  20.806  23.821  1.00  0.00    -0.030 A 
ATOM     10  C   UNL A   1      32.773  20.386  25.181  1.00  0.00     0.023 A 
ATOM     11  C   UNL A   1      32.473  19.889  22.844  1.00  0.00     0.076 A 
ATOM     12  C   UNL A   1      32.868  19.082  25.467  1.00  0.00     0.095 A 
ATOM     13  C   UNL A   1      32.468  18.442  23.158  1.00  0.00     0.255 A 
ATOM     14  N   UNL A   1      32.707  18.123  24.482  1.00  0.00    -0.258 N 
ATOM     15  O   UNL A   1      32.233  17.659  22.246  1.00  0.00    -0.269 OA
BRANCH  14  16
ATOM     16  C   UNL A   1      32.694  16.725  24.809  1.00  0.00     0.451 C 
ATOM     17  F   UNL A   1      33.475  16.029  23.947  1.00  0.00    -0.185 F 
ATOM     18  F   UNL A   1      33.157  16.511  26.064  1.00  0.00    -0.185 F 
ENDBRANCH  14  16
ENDBRANCH   8   9
ENDBRANCH   6   8
ENDBRANCH   5   6
ENDBRANCH   4   5
ENDBRANCH   3   4
ENDBRANCH   2   3
ENDBRANCH   1   2
BRANCH   1  19
ATOM     19  C   UNL A   1      39.975  21.438  26.476  1.00  0.00     0.188 C 
BRANCH  19  20
ATOM     20  O   UNL A   1      41.080  22.190  26.032  1.00  0.00    -0.376 OA
BRANCH  20  21
ATOM     21  C   UNL A   1      42.292  21.505  25.747  1.00  0.00     0.202 C 
BRANCH  21  22
ATOM     22  C   UNL A   1      43.517  22.255  25.202  1.00  0.00     0.261 C 
BRANCH  22  23
ATOM     23  O   UNL A   1      43.251  23.582  24.707  1.00  0.00    -0.460 OA
BRANCH  23  24
ATOM     24  C   UNL A   1      44.109  24.549  25.107  1.00  0.00     0.338 C 
ATOM     25  O   UNL A   1      45.227  24.781  24.659  1.00  0.00    -0.246 OA
BRANCH  24  26
ATOM     26  C   UNL A   1      43.468  25.409  26.115  1.00  0.00     0.060 A 
ATOM     27  C   UNL A   1      42.412  24.916  26.880  1.00  0.00     0.016 A 
ATOM     28  C   UNL A   1      43.986  26.688  26.364  1.00  0.00     0.016 A 
ATOM     29  C   UNL A   1      41.874  25.706  27.900  1.00  0.00     0.010 A 
ATOM     30  C   UNL A   1      43.433  27.485  27.371  1.00  0.00     0.010 A 
ATOM     31  C   UNL A   1      42.383  26.992  28.159  1.00  0.00    -0.014 A 
BRANCH  31  32
ATOM     32  C   UNL A   1      41.906  27.750  29.344  1.00  0.00     0.031 A 
ATOM     33  C   UNL A   1      42.575  27.640  30.680  1.00  0.00     0.074 A 
ATOM     34  C   UNL A   1      40.833  28.552  29.203  1.00  0.00     0.049 A 
ATOM     35  N   UNL A   1      42.332  28.306  31.782  1.00  0.00    -0.248 NA
ATOM     36  C   UNL A   1      43.650  26.647  30.797  1.00  0.00     0.031 C 
ATOM     37  C   UNL A   1      40.065  28.712  27.970  1.00  0.00     0.029 A 
ATOM     38  N   UNL A   1      40.208  29.379  30.102  1.00  0.00    -0.354 N 
ATOM     39  C   UNL A   1      43.238  27.836  32.721  1.00  0.00     0.074 A 
ATOM     40  C   UNL A   1      44.000  26.786  32.071  1.00  0.00     0.031 C 
ATOM     41  C   UNL A   1      39.077  29.594  28.184  1.00  0.00     0.029 A 
ATOM     42  C   UNL A   1      39.127  30.040  29.573  1.00  0.00     0.049 A 
ATOM     43  H   UNL A   1      40.503  29.486  31.034  1.00  0.00     0.167 HD
ATOM     44  C   UNL A   1      43.428  28.251  33.999  1.00  0.00     0.037 A 
ATOM     45  C   UNL A   1      38.267  30.905  30.142  1.00  0.00     0.037 A 
ATOM     46  C   UNL A   1      42.640  29.268  34.655  1.00  0.00     0.049 A 
ATOM     47  C   UNL A   1      38.456  31.305  31.577  1.00  0.00     0.074 A 
ATOM     48  C   UNL A   1      42.795  29.798  35.926  1.00  0.00     0.029 A 
ATOM     49  N   UNL A   1      41.524  29.886  34.106  1.00  0.00    -0.354 N 
ATOM     50  N   UNL A   1      39.389  30.939  32.422  1.00  0.00    -0.248 NA
ATOM     51  C   UNL A   1      37.473  32.244  32.138  1.00  0.00     0.031 C 
ATOM     52  C   UNL A   1      41.734  30.679  36.171  1.00  0.00     0.029 A 
ATOM     53  C   UNL A   1      40.950  30.748  35.031  1.00  0.00     0.049 A 
ATOM     54  H   UNL A   1      41.189  29.735  33.192  1.00  0.00     0.167 HD
ATOM     55  C   UNL A   1      39.109  31.601  33.611  1.00  0.00     0.074 A 
ATOM     56  C   UNL A   1      37.938  32.419  33.367  1.00  0.00     0.031 C 
ATOM     57  C   UNL A   1      39.760  31.532  34.798  1.00  0.00     0.037 A 
BRANCH  44  58
ATOM     58  C   UNL A   1      44.523  27.579  34.781  1.00  0.00     0.057 A 
ATOM     59  C   UNL A   1      44.265  26.426  35.536  1.00  0.00     0.134 A 
ATOM     60  C   UNL A   1      45.835  28.074  34.796  1.00  0.00     0.134 A 
ATOM     61  F   UNL A   1      43.030  25.905  35.584  1.00  0.00    -0.206 F 
ATOM     62  C   UNL A   1      45.273  25.784  36.257  1.00  0.00     0.040 A 
ATOM     63  C   UNL A   1      46.857  27.422  35.487  1.00  0.00     0.040 A 
ATOM     64  F   UNL A   1      46.154  29.173  34.095  1.00  0.00    -0.206 F 
ATOM     65  C   UNL A   1      46.577  26.274  36.224  1.00  0.00     0.006 A 
ENDBRANCH  44  58
BRANCH  45  66
ATOM     66  C   UNL A   1      37.138  31.441  29.343  1.00  0.00     0.057 A 
ATOM     67  C   UNL A   1      37.182  32.736  28.810  1.00  0.00     0.134 A 
ATOM     68  C   UNL A   1      35.987  30.683  29.104  1.00  0.00     0.134 A 
ATOM     69  F   UNL A   1      38.257  33.514  29.010  1.00  0.00    -0.206 F 
ATOM     70  C   UNL A   1      36.115  33.265  28.084  1.00  0.00     0.040 A 
ATOM     71  C   UNL A   1      34.924  31.189  28.356  1.00  0.00     0.040 A 
ATOM     72  F   UNL A   1      35.896  29.430  29.572  1.00  0.00    -0.206 F 
ATOM     73  C   UNL A   1      34.983  32.487  27.850  1.00  0.00     0.006 A 
ENDBRANCH  45  66
BRANCH  57  74
ATOM     74  C   UNL A   1      39.203  32.349  35.931  1.00  0.00     0.057 A 
ATOM     75  C   UNL A   1      38.253  31.814  36.811  1.00  0.00     0.134 A 
ATOM     76  C   UNL A   1      39.599  33.677  36.145  1.00  0.00     0.134 A 
ATOM     77  F   UNL A   1      37.823  30.552  36.665  1.00  0.00    -0.206 F 
ATOM     78  C   UNL A   1      37.720  32.567  37.860  1.00  0.00     0.040 A 
ATOM     79  C   UNL A   1      39.096  34.431  37.207  1.00  0.00     0.040 A 
ATOM     80  F   UNL A   1      40.518  34.247  35.350  1.00  0.00    -0.206 F 
ATOM     81  C   UNL A   1      38.147  33.878  38.065  1.00  0.00     0.006 A 
ENDBRANCH  57  74
ENDBRANCH  31  32
ENDBRANCH  24  26
ENDBRANCH  23  24
ENDBRANCH  22  23
ENDBRANCH  21  22
ENDBRANCH  20  21
ENDBRANCH  19  20
ENDBRANCH   1  19
TORSDOF 19
ENDMDL
MODEL 3
REMARK VINA RESULT:      -8.6      4.517      7.219
REMARK SMILES O=C(Cc1ccn(C(F)F)c(=O)c1)OCCOCCOCCOC(=O)c1ccc(-c2c3nc(c(-c4c(F)cccc4F)c4ccc([nH]4)c(-c4c(F)cccc4F)c4nc(c(-c5c(F)cccc5F)c5ccc2[nH]5)C=C4)C=C3)cc1
REMARK SMILES IDX 18 1 17 2 16 3 15 4 14 5 2 6 1 7 3 8 4 9 5 10 13 11 6 12
REMARK SMILES IDX 11 13 7 14 12 15 8 16 9 17 10 18 19 19 20 20 21 21 22 22
REMARK SMILES IDX 23 23 24 24 25 25 26 26 27 27 79 28 28 29 78 30 29 31 30 32
REMARK SMILES IDX 31 33 72 34 32 35 77 36 71 37 73 38 33 39 76 40 70 41 69 42
REMARK SMILES IDX 34 44 60 45 43 46 59 47 44 48 47 49 58 50 74 51 45 52 46 53
REMARK SMILES IDX 57 55 75 56 48 57 35 58 36 59 41 60 37 61 38 62 40 63 42 64
REMARK SMILES IDX 39 65 61 66 62 67 67 68 63 69 64 70 66 71 68 72 65 73 49 74
REMARK SMILES IDX 50 75 55 76 51 77 52 78 54 79 56 80 53 81
REMARK H PARENT 73 43 47 54
REMARK Flexibility Score: inf
ROOT
ATOM      1  C   UNL A   1      35.009  32.174  27.970  1.00  0.00     0.188 C 
ENDROOT
BRANCH   1   2
ATOM      2  O   UNL A   1      34.370  31.043  27.421  1.00  0.00    -0.376 OA
BRANCH   2   3
ATOM      3  C   UNL A   1      32.964  30.994  27.253  1.00  0.00     0.202 C 
BRANCH   3   4
ATOM      4  C   UNL A   1      32.264  30.396  26.023  1.00  0.00     0.261 C 
BRANCH   4   5
ATOM      5  O   UNL A   1      31.692  29.077  26.049  1.00  0.00    -0.463 OA
BRANCH   5   6
ATOM      6  C   UNL A   1      32.105  27.977  26.714  1.00  0.00     0.310 C 
ATOM      7  O   UNL A   1      31.359  27.456  27.543  1.00  0.00    -0.252 OA
BRANCH   6   8
ATOM      8  C   UNL A   1      33.512  27.455  26.518  1.00  0.00     0.158 C 
BRANCH   8   9
ATOM      9  C   UNL A   1      33.551  26.318  25.554  1.00  0.00    -0.030 A 
ATOM     10  C   UNL A   1      33.332  24.977  26.048  1.00  0.00     0.023 A 
ATOM     11  C   UNL A   1      33.815  26.508  24.253  1.00  0.00     0.076 A 
ATOM     12  C   UNL A   1      33.311  23.949  25.192  1.00  0.00     0.095 A 
ATOM     13  C   UNL A   1      33.687  25.400  23.281  1.00  0.00     0.255 A 
ATOM     14  N   UNL A   1      33.472  24.150  23.832  1.00  0.00    -0.258 N 
ATOM     15  O   UNL A   1      33.756  25.672  22.088  1.00  0.00    -0.269 OA
BRANCH  14  16
ATOM     16  C   UNL A   1      33.332  23.063  22.904  1.00  0.00     0.451 C 
ATOM     17  F   UNL A   1      33.914  21.942  23.396  1.00  0.00    -0.185 F 
ATOM     18  F   UNL A   1      32.028  22.790  22.662  1.00  0.00    -0.185 F 
ENDBRANCH  14  16
ENDBRANCH   8   9
ENDBRANCH   6   8
ENDBRANCH   5   6
ENDBRANCH   4   5
ENDBRANCH   3   4
ENDBRANCH   2   3
ENDBRANCH   1   2
BRANCH   1  19
ATOM     19  C   UNL A   1      34.379  32.985  29.102  1.00  0.00     0.188 C 
BRANCH  19  20
ATOM     20  O   UNL A   1      35.087  34.073  29.650  1.00  0.00    -0.376 OA
BRANCH  20  21
ATOM     21  C   UNL A   1      35.052  34.261  31.058  1.00  0.00     0.202 C 
BRANCH  21  22
ATOM     22  C   UNL A   1      34.323  33.267  31.973  1.00  0.00     0.261 C 
BRANCH  22  23
ATOM     23  O   UNL A   1      34.997  32.010  32.170  1.00  0.00    -0.460 OA
BRANCH  23  24
ATOM     24  C   UNL A   1      36.139  32.054  32.896  1.00  0.00     0.338 C 
ATOM     25  O   UNL A   1      36.274  32.471  34.041  1.00  0.00    -0.246 OA
BRANCH  24  26
ATOM     26  C   UNL A   1      37.234  31.405  32.156  1.00  0.00     0.060 A 
ATOM     27  C   UNL A   1      37.198  31.354  30.763  1.00  0.00     0.016 A 
ATOM     28  C   UNL A   1      38.352  30.927  32.854  1.00  0.00     0.016 A 
ATOM     29  C   UNL A   1      38.287  30.822  30.066  1.00  0.00     0.010 A 
ATOM     30  C   UNL A   1      39.432  30.376  32.156  1.00  0.00     0.010 A 
ATOM     31  C   UNL A   1      39.414  30.336  30.754  1.00  0.00    -0.014 A 
BRANCH  31  32
ATOM     32  C   UNL A   1      40.621  29.922  29.994  1.00  0.00     0.031 A 
ATOM     33  C   UNL A   1      41.752  30.868  29.723  1.00  0.00     0.074 A 
ATOM     34  C   UNL A   1      40.687  28.659  29.533  1.00  0.00     0.049 A 
ATOM     35  N   UNL A   1      42.909  30.628  29.155  1.00  0.00    -0.248 NA
ATOM     36  C   UNL A   1      41.556  32.263  30.135  1.00  0.00     0.031 C 
ATOM     37  C   UNL A   1      39.635  27.656  29.689  1.00  0.00     0.029 A 
ATOM     38  N   UNL A   1      41.677  28.007  28.842  1.00  0.00    -0.354 N 
ATOM     39  C   UNL A   1      43.594  31.835  29.162  1.00  0.00     0.074 A 
ATOM     40  C   UNL A   1      42.697  32.817  29.741  1.00  0.00     0.031 C 
ATOM     41  C   UNL A   1      40.039  26.510  29.121  1.00  0.00     0.029 A 
ATOM     42  C   UNL A   1      41.366  26.705  28.541  1.00  0.00     0.049 A 
ATOM     43  H   UNL A   1      42.527  28.432  28.586  1.00  0.00     0.167 HD
ATOM     44  C   UNL A   1      44.857  32.095  28.739  1.00  0.00     0.037 A 
ATOM     45  C   UNL A   1      42.063  25.771  27.869  1.00  0.00     0.037 A 
ATOM     46  C   UNL A   1      45.731  31.123  28.124  1.00  0.00     0.049 A 
ATOM     47  C   UNL A   1      43.436  26.097  27.352  1.00  0.00     0.074 A 
ATOM     48  C   UNL A   1      47.047  31.278  27.718  1.00  0.00     0.029 A 
ATOM     49  N   UNL A   1      45.368  29.825  27.793  1.00  0.00    -0.354 N 
ATOM     50  N   UNL A   1      44.119  27.210  27.467  1.00  0.00    -0.248 NA
ATOM     51  C   UNL A   1      44.136  25.035  26.617  1.00  0.00     0.031 C 
ATOM     52  C   UNL A   1      47.454  30.100  27.078  1.00  0.00     0.029 A 
ATOM     53  C   UNL A   1      46.414  29.187  27.139  1.00  0.00     0.049 A 
ATOM     54  H   UNL A   1      44.495  29.416  27.995  1.00  0.00     0.167 HD
ATOM     55  C   UNL A   1      45.328  26.984  26.822  1.00  0.00     0.074 A 
ATOM     56  C   UNL A   1      45.298  25.615  26.348  1.00  0.00     0.031 C 
ATOM     57  C   UNL A   1      46.366  27.836  26.633  1.00  0.00     0.037 A 
BRANCH  44  58
ATOM     58  C   UNL A   1      45.357  33.504  28.906  1.00  0.00     0.057 A 
ATOM     59  C   UNL A   1      45.072  34.487  27.949  1.00  0.00     0.134 A 
ATOM     60  C   UNL A   1      46.129  33.890  30.011  1.00  0.00     0.134 A 
ATOM     61  F   UNL A   1      44.354  34.188  26.856  1.00  0.00    -0.206 F 
ATOM     62  C   UNL A   1      45.520  35.802  28.096  1.00  0.00     0.040 A 
ATOM     63  C   UNL A   1      46.554  35.208  30.184  1.00  0.00     0.040 A 
ATOM     64  F   UNL A   1      46.439  33.001  30.967  1.00  0.00    -0.206 F 
ATOM     65  C   UNL A   1      46.252  36.169  29.223  1.00  0.00     0.006 A 
ENDBRANCH  44  58
BRANCH  45  66
ATOM     66  C   UNL A   1      41.460  24.436  27.638  1.00  0.00     0.057 A 
ATOM     67  C   UNL A   1      40.469  24.249  26.665  1.00  0.00     0.134 A 
ATOM     68  C   UNL A   1      41.846  23.321  28.389  1.00  0.00     0.134 A 
ATOM     69  F   UNL A   1      40.054  25.282  25.917  1.00  0.00    -0.206 F 
ATOM     70  C   UNL A   1      39.871  23.006  26.460  1.00  0.00     0.040 A 
ATOM     71  C   UNL A   1      41.276  22.066  28.175  1.00  0.00     0.040 A 
ATOM     72  F   UNL A   1      42.803  23.433  29.321  1.00  0.00    -0.206 F 
ATOM     73  C   UNL A   1      40.280  21.907  27.213  1.00  0.00     0.006 A 
ENDBRANCH  45  66
BRANCH  57  74
ATOM     74  C   UNL A   1      47.547  27.313  25.861  1.00  0.00     0.057 A 
ATOM     75  C   UNL A   1      47.567  27.346  24.461  1.00  0.00     0.134 A 
ATOM     76  C   UNL A   1      48.664  26.766  26.507  1.00  0.00     0.134 A 
ATOM     77  F   UNL A   1      46.531  27.851  23.775  1.00  0.00    -0.206 F 
ATOM     78  C   UNL A   1      48.654  26.853  23.734  1.00  0.00     0.040 A 
ATOM     79  C   UNL A   1      49.768  26.296  25.792  1.00  0.00     0.040 A 
ATOM     80  F   UNL A   1      48.718  26.719  27.847  1.00  0.00    -0.206 F 
ATOM     81  C   UNL A   1      49.761  26.333  24.399  1.00  0.00     0.006 A 
ENDBRANCH  57  74
ENDBRANCH  31  32
ENDBRANCH  24  26
ENDBRANCH  23  24
ENDBRANCH  22  23
ENDBRANCH  21  22
ENDBRANCH  20  21
ENDBRANCH  19  20
ENDBRANCH   1  19
TORSDOF 19
ENDMDL
