MODEL 1
REMARK VINA RESULT:     -12.0      0.000      0.000
REMARK SMILES O=C(CCC(=O)OCCOCCOCCOC(=O)c1ccc(-c2c3nc(c(-c4c(F)cccc4F)c4ccc([nH]4)c(-c4c(F)cccc4F)c4nc(c(-c5c(F)cccc5F)c5ccc2[nH]5)C=C4)C=C3)cc1)/[NH+]=C1\S[C@H]2CS(=O)(=O)C[C@@H]2N1c1ccc2c(c1)OCO2
REMARK SMILES IDX 11 1 10 2 9 3 8 4 7 5 5 6 6 7 4 8 3 9 2 10 1 11 73 12 74 13
REMARK SMILES IDX 75 15 83 16 76 17 82 18 77 19 81 20 78 21 79 22 80 23 84 24
REMARK SMILES IDX 85 25 89 26 86 27 88 28 87 29 90 30 92 31 91 32 12 33 13 34
REMARK SMILES IDX 14 35 15 36 16 37 17 38 18 39 19 40 20 41 72 42 21 43 71 44
REMARK SMILES IDX 22 45 23 46 24 47 65 48 25 49 70 50 64 51 66 52 26 53 69 54
REMARK SMILES IDX 63 55 62 56 27 58 53 59 36 60 52 61 37 62 40 63 51 64 67 65
REMARK SMILES IDX 38 66 39 67 50 69 68 70 41 71 28 72 29 73 34 74 30 75 31 76
REMARK SMILES IDX 33 77 35 78 32 79 54 80 55 81 60 82 56 83 57 84 59 85 61 86
REMARK SMILES IDX 58 87 42 88 43 89 48 90 44 91 45 92 47 93 49 94 46 95
REMARK H PARENT 73 14 66 57 40 68
REMARK Flexibility Score: inf
ROOT
ATOM      1  C   UNL A   1      45.929  18.827  25.486  1.00  0.00     0.188 C 
ENDROOT
BRANCH   1   2
ATOM      2  O   UNL A   1      44.661  18.228  25.135  1.00  0.00    -0.376 OA
BRANCH   2   3
ATOM      3  C   UNL A   1      43.464  19.025  25.026  1.00  0.00     0.202 C 
BRANCH   3   4
ATOM      4  C   UNL A   1      42.241  18.889  25.998  1.00  0.00     0.261 C 
BRANCH   4   5
ATOM      5  O   UNL A   1      41.238  19.908  25.970  1.00  0.00    -0.463 OA
BRANCH   5   6
ATOM      6  C   UNL A   1      41.371  20.950  26.806  1.00  0.00     0.306 C 
ATOM      7  O   UNL A   1      42.442  21.356  27.235  1.00  0.00    -0.252 OA
BRANCH   6   8
ATOM      8  C   UNL A   1      40.027  21.585  27.099  1.00  0.00     0.135 C 
BRANCH   8   9
ATOM      9  C   UNL A   1      39.225  22.067  25.869  1.00  0.00     0.139 C 
BRANCH   9  10
ATOM     10  C   UNL A   1      38.227  23.212  26.126  1.00  0.00     0.308 C 
ATOM     11  O   UNL A   1      38.719  24.207  26.670  1.00  0.00    -0.247 OA
ATOM     12  N   UNL A   1      36.887  23.269  25.727  1.00  0.00    -0.204 N 
ATOM     13  C   UNL A   1      36.033  22.333  25.497  1.00  0.00     0.319 C 
ATOM     14  H   UNL A   1      36.537  24.180  25.601  1.00  0.00     0.316 HD
ATOM     15  S   UNL A   1      36.427  20.685  25.424  1.00  0.00    -0.029 SA
ATOM     16  N   UNL A   1      34.663  22.353  25.225  1.00  0.00    -0.216 N 
ATOM     17  C   UNL A   1      34.999  20.125  24.570  1.00  0.00     0.120 C 
ATOM     18  C   UNL A   1      33.979  21.042  25.201  1.00  0.00     0.212 C 
ATOM     19  C   UNL A   1      34.494  18.711  24.680  1.00  0.00     0.156 C 
ATOM     20  C   UNL A   1      32.757  20.759  24.350  1.00  0.00     0.188 C 
ATOM     21  S   UNL A   1      32.780  18.942  24.237  1.00  0.00     0.155 S 
ATOM     22  O   UNL A   1      32.618  18.556  22.851  1.00  0.00    -0.229 OA
ATOM     23  O   UNL A   1      31.970  18.393  25.302  1.00  0.00    -0.229 OA
BRANCH  16  24
ATOM     24  C   UNL A   1      34.033  23.480  24.751  1.00  0.00     0.132 A 
ATOM     25  C   UNL A   1      33.359  24.330  25.645  1.00  0.00     0.056 A 
ATOM     26  C   UNL A   1      34.168  23.808  23.399  1.00  0.00     0.102 A 
ATOM     27  C   UNL A   1      32.864  25.554  25.208  1.00  0.00     0.055 A 
ATOM     28  C   UNL A   1      33.703  25.030  23.008  1.00  0.00     0.170 A 
ATOM     29  C   UNL A   1      33.084  25.888  23.890  1.00  0.00     0.166 A 
ATOM     30  O   UNL A   1      33.867  25.573  21.774  1.00  0.00    -0.453 OA
ATOM     31  O   UNL A   1      32.803  27.084  23.308  1.00  0.00    -0.454 OA
ATOM     32  C   UNL A   1      33.550  26.944  22.080  1.00  0.00     0.468 C 
ENDBRANCH  16  24
ENDBRANCH   9  10
ENDBRANCH   8   9
ENDBRANCH   6   8
ENDBRANCH   5   6
ENDBRANCH   4   5
ENDBRANCH   3   4
ENDBRANCH   2   3
ENDBRANCH   1   2
BRANCH   1  33
ATOM     33  C   UNL A   1      46.111  20.294  24.862  1.00  0.00     0.188 C 
BRANCH  33  34
ATOM     34  O   UNL A   1      46.078  21.438  25.742  1.00  0.00    -0.376 OA
BRANCH  34  35
ATOM     35  C   UNL A   1      46.406  22.809  25.405  1.00  0.00     0.202 C 
BRANCH  35  36
ATOM     36  C   UNL A   1      45.745  23.688  24.317  1.00  0.00     0.261 C 
BRANCH  36  37
ATOM     37  O   UNL A   1      44.859  24.653  24.822  1.00  0.00    -0.460 OA
BRANCH  37  38
ATOM     38  C   UNL A   1      43.582  24.192  24.866  1.00  0.00     0.338 C 
ATOM     39  O   UNL A   1      43.149  23.142  24.479  1.00  0.00    -0.246 OA
BRANCH  38  40
ATOM     40  C   UNL A   1      42.942  25.099  25.824  1.00  0.00     0.060 A 
ATOM     41  C   UNL A   1      43.124  26.463  25.590  1.00  0.00     0.016 A 
ATOM     42  C   UNL A   1      42.040  24.617  26.778  1.00  0.00     0.016 A 
ATOM     43  C   UNL A   1      42.365  27.376  26.304  1.00  0.00     0.010 A 
ATOM     44  C   UNL A   1      41.334  25.530  27.543  1.00  0.00     0.010 A 
ATOM     45  C   UNL A   1      41.530  26.904  27.323  1.00  0.00    -0.014 A 
BRANCH  45  46
ATOM     46  C   UNL A   1      41.219  27.828  28.418  1.00  0.00     0.031 A 
ATOM     47  C   UNL A   1      42.075  27.679  29.642  1.00  0.00     0.074 A 
ATOM     48  C   UNL A   1      40.227  28.724  28.322  1.00  0.00     0.049 A 
ATOM     49  N   UNL A   1      41.974  28.268  30.800  1.00  0.00    -0.248 NA
ATOM     50  C   UNL A   1      43.199  26.724  29.551  1.00  0.00     0.031 C 
ATOM     51  C   UNL A   1      39.391  28.955  27.144  1.00  0.00     0.029 A 
ATOM     52  N   UNL A   1      39.745  29.593  29.260  1.00  0.00    -0.354 N 
ATOM     53  C   UNL A   1      43.006  27.743  31.566  1.00  0.00     0.074 A 
ATOM     54  C   UNL A   1      43.723  26.789  30.761  1.00  0.00     0.031 C 
ATOM     55  C   UNL A   1      38.470  29.890  27.446  1.00  0.00     0.029 A 
ATOM     56  C   UNL A   1      38.635  30.284  28.843  1.00  0.00     0.049 A 
ATOM     57  H   UNL A   1      40.154  29.713  30.147  1.00  0.00     0.167 HD
ATOM     58  C   UNL A   1      43.318  28.030  32.846  1.00  0.00     0.037 A 
ATOM     59  C   UNL A   1      37.833  31.104  29.548  1.00  0.00     0.037 A 
ATOM     60  C   UNL A   1      42.576  28.968  33.632  1.00  0.00     0.049 A 
ATOM     61  C   UNL A   1      38.165  31.351  31.000  1.00  0.00     0.074 A 
ATOM     62  C   UNL A   1      42.796  29.358  34.937  1.00  0.00     0.029 A 
ATOM     63  N   UNL A   1      41.457  29.649  33.180  1.00  0.00    -0.354 N 
ATOM     64  N   UNL A   1      39.163  30.885  31.715  1.00  0.00    -0.248 NA
ATOM     65  C   UNL A   1      37.257  32.231  31.747  1.00  0.00     0.031 C 
ATOM     66  C   UNL A   1      41.772  30.237  35.295  1.00  0.00     0.029 A 
ATOM     67  C   UNL A   1      40.954  30.441  34.191  1.00  0.00     0.049 A 
ATOM     68  H   UNL A   1      41.076  29.577  32.274  1.00  0.00     0.167 HD
ATOM     69  C   UNL A   1      39.029  31.451  32.977  1.00  0.00     0.074 A 
ATOM     70  C   UNL A   1      37.854  32.295  32.928  1.00  0.00     0.031 C 
ATOM     71  C   UNL A   1      39.800  31.293  34.081  1.00  0.00     0.037 A 
BRANCH  58  72
ATOM     72  C   UNL A   1      44.457  27.290  33.468  1.00  0.00     0.057 A 
ATOM     73  C   UNL A   1      44.280  26.068  34.128  1.00  0.00     0.134 A 
ATOM     74  C   UNL A   1      45.758  27.802  33.385  1.00  0.00     0.134 A 
ATOM     75  F   UNL A   1      43.053  25.546  34.276  1.00  0.00    -0.206 F 
ATOM     76  C   UNL A   1      45.359  25.377  34.681  1.00  0.00     0.040 A 
ATOM     77  C   UNL A   1      46.847  27.108  33.911  1.00  0.00     0.040 A 
ATOM     78  F   UNL A   1      45.989  28.980  32.786  1.00  0.00    -0.206 F 
ATOM     79  C   UNL A   1      46.649  25.891  34.560  1.00  0.00     0.006 A 
ENDBRANCH  58  72
BRANCH  59  80
ATOM     80  C   UNL A   1      36.629  31.715  28.927  1.00  0.00     0.057 A 
ATOM     81  C   UNL A   1      36.591  33.076  28.603  1.00  0.00     0.134 A 
ATOM     82  C   UNL A   1      35.465  30.969  28.701  1.00  0.00     0.134 A 
ATOM     83  F   UNL A   1      37.666  33.850  28.811  1.00  0.00    -0.206 F 
ATOM     84  C   UNL A   1      35.430  33.681  28.115  1.00  0.00     0.040 A 
ATOM     85  C   UNL A   1      34.307  31.554  28.186  1.00  0.00     0.040 A 
ATOM     86  F   UNL A   1      35.434  29.658  28.984  1.00  0.00    -0.206 F 
ATOM     87  C   UNL A   1      34.283  32.918  27.905  1.00  0.00     0.006 A 
ENDBRANCH  59  80
BRANCH  71  88
ATOM     88  C   UNL A   1      39.445  32.099  35.293  1.00  0.00     0.057 A 
ATOM     89  C   UNL A   1      38.620  31.593  36.304  1.00  0.00     0.134 A 
ATOM     90  C   UNL A   1      40.015  33.364  35.486  1.00  0.00     0.134 A 
ATOM     91  F   UNL A   1      38.041  30.391  36.172  1.00  0.00    -0.206 F 
ATOM     92  C   UNL A   1      38.361  32.327  37.460  1.00  0.00     0.040 A 
ATOM     93  C   UNL A   1      39.791  34.092  36.652  1.00  0.00     0.040 A 
ATOM     94  F   UNL A   1      40.831  33.893  34.560  1.00  0.00    -0.206 F 
ATOM     95  C   UNL A   1      38.957  33.575  37.641  1.00  0.00     0.006 A 
ENDBRANCH  71  88
ENDBRANCH  45  46
ENDBRANCH  38  40
ENDBRANCH  37  38
ENDBRANCH  36  37
ENDBRANCH  35  36
ENDBRANCH  34  35
ENDBRANCH  33  34
ENDBRANCH   1  33
TORSDOF 20
ENDMDL
MODEL 2
REMARK VINA RESULT:     -11.6      2.810      8.629
REMARK SMILES O=C(CCC(=O)OCCOCCOCCOC(=O)c1ccc(-c2c3nc(c(-c4c(F)cccc4F)c4ccc([nH]4)c(-c4c(F)cccc4F)c4nc(c(-c5c(F)cccc5F)c5ccc2[nH]5)C=C4)C=C3)cc1)/[NH+]=C1\S[C@H]2CS(=O)(=O)C[C@@H]2N1c1ccc2c(c1)OCO2
REMARK SMILES IDX 11 1 10 2 9 3 8 4 7 5 5 6 6 7 4 8 3 9 2 10 1 11 73 12 74 13
REMARK SMILES IDX 75 15 83 16 76 17 82 18 77 19 81 20 78 21 79 22 80 23 84 24
REMARK SMILES IDX 85 25 89 26 86 27 88 28 87 29 90 30 92 31 91 32 12 33 13 34
REMARK SMILES IDX 14 35 15 36 16 37 17 38 18 39 19 40 20 41 72 42 21 43 71 44
REMARK SMILES IDX 22 45 23 46 24 47 65 48 25 49 70 50 64 51 66 52 26 53 69 54
REMARK SMILES IDX 63 55 62 56 27 58 53 59 36 60 52 61 37 62 40 63 51 64 67 65
REMARK SMILES IDX 38 66 39 67 50 69 68 70 41 71 28 72 29 73 34 74 30 75 31 76
REMARK SMILES IDX 33 77 35 78 32 79 54 80 55 81 60 82 56 83 57 84 59 85 61 86
REMARK SMILES IDX 58 87 42 88 43 89 48 90 44 91 45 92 47 93 49 94 46 95
REMARK H PARENT 73 14 66 57 40 68
REMARK Flexibility Score: inf
ROOT
ATOM      1  C   UNL A   1      34.038  27.618  24.037  1.00  0.00     0.188 C 
ENDROOT
BRANCH   1   2
ATOM      2  O   UNL A   1      33.139  26.747  23.314  1.00  0.00    -0.376 OA
BRANCH   2   3
ATOM      3  C   UNL A   1      32.171  27.280  22.387  1.00  0.00     0.202 C 
BRANCH   3   4
ATOM      4  C   UNL A   1      30.621  27.154  22.586  1.00  0.00     0.261 C 
BRANCH   4   5
ATOM      5  O   UNL A   1      30.128  26.864  23.898  1.00  0.00    -0.463 OA
BRANCH   5   6
ATOM      6  C   UNL A   1      29.958  25.578  24.241  1.00  0.00     0.306 C 
ATOM      7  O   UNL A   1      30.336  24.630  23.566  1.00  0.00    -0.252 OA
BRANCH   6   8
ATOM      8  C   UNL A   1      29.287  25.462  25.594  1.00  0.00     0.135 C 
BRANCH   8   9
ATOM      9  C   UNL A   1      30.167  24.911  26.739  1.00  0.00     0.139 C 
BRANCH   9  10
ATOM     10  C   UNL A   1      30.152  23.382  26.921  1.00  0.00     0.308 C 
ATOM     11  O   UNL A   1      29.178  22.952  27.550  1.00  0.00    -0.247 OA
ATOM     12  N   UNL A   1      31.050  22.457  26.377  1.00  0.00    -0.204 N 
ATOM     13  C   UNL A   1      32.281  22.585  26.021  1.00  0.00     0.319 C 
ATOM     14  H   UNL A   1      30.678  21.556  26.244  1.00  0.00     0.316 HD
ATOM     15  S   UNL A   1      33.097  24.069  25.937  1.00  0.00    -0.029 SA
ATOM     16  N   UNL A   1      33.240  21.662  25.598  1.00  0.00    -0.216 N 
ATOM     17  C   UNL A   1      34.428  23.565  24.909  1.00  0.00     0.120 C 
ATOM     18  C   UNL A   1      34.622  22.169  25.453  1.00  0.00     0.212 C 
ATOM     19  C   UNL A   1      35.762  24.262  24.913  1.00  0.00     0.156 C 
ATOM     20  C   UNL A   1      35.616  21.598  24.462  1.00  0.00     0.188 C 
ATOM     21  S   UNL A   1      36.812  22.959  24.290  1.00  0.00     0.155 S 
ATOM     22  O   UNL A   1      37.044  23.205  22.882  1.00  0.00    -0.229 OA
ATOM     23  O   UNL A   1      37.886  22.766  25.238  1.00  0.00    -0.229 OA
BRANCH  16  24
ATOM     24  C   UNL A   1      32.890  20.430  25.095  1.00  0.00     0.132 A 
ATOM     25  C   UNL A   1      32.458  20.317  23.763  1.00  0.00     0.056 A 
ATOM     26  C   UNL A   1      33.075  19.300  25.897  1.00  0.00     0.102 A 
ATOM     27  C   UNL A   1      32.263  19.063  23.193  1.00  0.00     0.055 A 
ATOM     28  C   UNL A   1      32.910  18.083  25.301  1.00  0.00     0.170 A 
ATOM     29  C   UNL A   1      32.533  17.966  23.982  1.00  0.00     0.166 A 
ATOM     30  O   UNL A   1      33.177  16.884  25.879  1.00  0.00    -0.453 OA
ATOM     31  O   UNL A   1      32.536  16.668  23.574  1.00  0.00    -0.454 OA
ATOM     32  C   UNL A   1      33.204  16.058  24.700  1.00  0.00     0.468 C 
ENDBRANCH  16  24
ENDBRANCH   9  10
ENDBRANCH   8   9
ENDBRANCH   6   8
ENDBRANCH   5   6
ENDBRANCH   4   5
ENDBRANCH   3   4
ENDBRANCH   2   3
ENDBRANCH   1   2
BRANCH   1  33
ATOM     33  C   UNL A   1      33.540  27.916  25.533  1.00  0.00     0.188 C 
BRANCH  33  34
ATOM     34  O   UNL A   1      32.196  28.402  25.740  1.00  0.00    -0.376 OA
BRANCH  34  35
ATOM     35  C   UNL A   1      31.699  29.737  25.474  1.00  0.00     0.202 C 
BRANCH  35  36
ATOM     36  C   UNL A   1      31.805  30.975  26.396  1.00  0.00     0.261 C 
BRANCH  36  37
ATOM     37  O   UNL A   1      32.859  30.909  27.322  1.00  0.00    -0.460 OA
BRANCH  37  38
ATOM     38  C   UNL A   1      33.418  32.127  27.539  1.00  0.00     0.338 C 
ATOM     39  O   UNL A   1      32.886  33.202  27.570  1.00  0.00    -0.246 OA
BRANCH  38  40
ATOM     40  C   UNL A   1      34.732  31.788  28.095  1.00  0.00     0.060 A 
ATOM     41  C   UNL A   1      34.966  30.432  28.330  1.00  0.00     0.016 A 
ATOM     42  C   UNL A   1      35.746  32.748  28.180  1.00  0.00     0.016 A 
ATOM     43  C   UNL A   1      36.250  30.011  28.629  1.00  0.00     0.010 A 
ATOM     44  C   UNL A   1      37.015  32.338  28.550  1.00  0.00     0.010 A 
ATOM     45  C   UNL A   1      37.248  30.976  28.807  1.00  0.00    -0.014 A 
BRANCH  45  46
ATOM     46  C   UNL A   1      38.379  30.621  29.670  1.00  0.00     0.031 A 
ATOM     47  C   UNL A   1      39.343  29.632  29.083  1.00  0.00     0.074 A 
ATOM     48  C   UNL A   1      38.517  31.140  30.898  1.00  0.00     0.049 A 
ATOM     49  N   UNL A   1      40.368  29.047  29.636  1.00  0.00    -0.248 NA
ATOM     50  C   UNL A   1      39.116  29.240  27.676  1.00  0.00     0.031 C 
ATOM     51  C   UNL A   1      37.645  32.142  31.509  1.00  0.00     0.029 A 
ATOM     52  N   UNL A   1      39.446  30.863  31.861  1.00  0.00    -0.354 N 
ATOM     53  C   UNL A   1      40.888  28.217  28.651  1.00  0.00     0.074 A 
ATOM     54  C   UNL A   1      40.077  28.360  27.471  1.00  0.00     0.031 C 
ATOM     55  C   UNL A   1      38.066  32.373  32.767  1.00  0.00     0.029 A 
ATOM     56  C   UNL A   1      39.207  31.505  33.050  1.00  0.00     0.049 A 
ATOM     57  H   UNL A   1      40.212  30.262  31.717  1.00  0.00     0.167 HD
ATOM     58  C   UNL A   1      41.950  27.393  28.737  1.00  0.00     0.037 A 
ATOM     59  C   UNL A   1      39.830  31.354  34.234  1.00  0.00     0.037 A 
ATOM     60  C   UNL A   1      42.728  27.253  29.931  1.00  0.00     0.049 A 
ATOM     61  C   UNL A   1      40.972  30.371  34.320  1.00  0.00     0.074 A 
ATOM     62  C   UNL A   1      43.838  26.462  30.145  1.00  0.00     0.029 A 
ATOM     63  N   UNL A   1      42.458  27.917  31.117  1.00  0.00    -0.354 N 
ATOM     64  N   UNL A   1      41.489  29.614  33.379  1.00  0.00    -0.248 NA
ATOM     65  C   UNL A   1      41.615  30.214  35.631  1.00  0.00     0.031 C 
ATOM     66  C   UNL A   1      44.207  26.605  31.483  1.00  0.00     0.029 A 
ATOM     67  C   UNL A   1      43.367  27.534  32.082  1.00  0.00     0.049 A 
ATOM     68  H   UNL A   1      41.728  28.564  31.252  1.00  0.00     0.167 HD
ATOM     69  C   UNL A   1      42.542  28.928  33.973  1.00  0.00     0.074 A 
ATOM     70  C   UNL A   1      42.591  29.362  35.353  1.00  0.00     0.031 C 
ATOM     71  C   UNL A   1      43.395  28.023  33.435  1.00  0.00     0.037 A 
BRANCH  58  72
ATOM     72  C   UNL A   1      42.285  26.560  27.543  1.00  0.00     0.057 A 
ATOM     73  C   UNL A   1      41.785  25.262  27.376  1.00  0.00     0.134 A 
ATOM     74  C   UNL A   1      43.104  27.076  26.532  1.00  0.00     0.134 A 
ATOM     75  F   UNL A   1      41.027  24.697  28.328  1.00  0.00    -0.206 F 
ATOM     76  C   UNL A   1      42.086  24.508  26.241  1.00  0.00     0.040 A 
ATOM     77  C   UNL A   1      43.391  26.341  25.382  1.00  0.00     0.040 A 
ATOM     78  F   UNL A   1      43.633  28.304  26.644  1.00  0.00    -0.206 F 
ATOM     79  C   UNL A   1      42.880  25.053  25.234  1.00  0.00     0.006 A 
ENDBRANCH  58  72
BRANCH  59  80
ATOM     80  C   UNL A   1      39.379  32.105  35.435  1.00  0.00     0.057 A 
ATOM     81  C   UNL A   1      38.423  31.573  36.308  1.00  0.00     0.134 A 
ATOM     82  C   UNL A   1      39.843  33.399  35.704  1.00  0.00     0.134 A 
ATOM     83  F   UNL A   1      37.925  30.346  36.096  1.00  0.00    -0.206 F 
ATOM     84  C   UNL A   1      37.917  32.311  37.380  1.00  0.00     0.040 A 
ATOM     85  C   UNL A   1      39.368  34.138  36.790  1.00  0.00     0.040 A 
ATOM     86  F   UNL A   1      40.764  33.968  34.912  1.00  0.00    -0.206 F 
ATOM     87  C   UNL A   1      38.391  33.599  37.623  1.00  0.00     0.006 A 
ENDBRANCH  59  80
BRANCH  71  88
ATOM     88  C   UNL A   1      44.491  27.500  34.312  1.00  0.00     0.057 A 
ATOM     89  C   UNL A   1      45.713  28.166  34.450  1.00  0.00     0.134 A 
ATOM     90  C   UNL A   1      44.276  26.360  35.098  1.00  0.00     0.134 A 
ATOM     91  F   UNL A   1      45.978  29.260  33.719  1.00  0.00    -0.206 F 
ATOM     92  C   UNL A   1      46.693  27.707  35.329  1.00  0.00     0.040 A 
ATOM     93  C   UNL A   1      45.234  25.910  36.004  1.00  0.00     0.040 A 
ATOM     94  F   UNL A   1      43.116  25.689  35.023  1.00  0.00    -0.206 F 
ATOM     95  C   UNL A   1      46.449  26.582  36.117  1.00  0.00     0.006 A 
ENDBRANCH  71  88
ENDBRANCH  45  46
ENDBRANCH  38  40
ENDBRANCH  37  38
ENDBRANCH  36  37
ENDBRANCH  35  36
ENDBRANCH  34  35
ENDBRANCH  33  34
ENDBRANCH   1  33
TORSDOF 20
ENDMDL
MODEL 3
REMARK VINA RESULT:     -11.1      3.710      9.517
REMARK SMILES O=C(CCC(=O)OCCOCCOCCOC(=O)c1ccc(-c2c3nc(c(-c4c(F)cccc4F)c4ccc([nH]4)c(-c4c(F)cccc4F)c4nc(c(-c5c(F)cccc5F)c5ccc2[nH]5)C=C4)C=C3)cc1)/[NH+]=C1\S[C@H]2CS(=O)(=O)C[C@@H]2N1c1ccc2c(c1)OCO2
REMARK SMILES IDX 11 1 10 2 9 3 8 4 7 5 5 6 6 7 4 8 3 9 2 10 1 11 73 12 74 13
REMARK SMILES IDX 75 15 83 16 76 17 82 18 77 19 81 20 78 21 79 22 80 23 84 24
REMARK SMILES IDX 85 25 89 26 86 27 88 28 87 29 90 30 92 31 91 32 12 33 13 34
REMARK SMILES IDX 14 35 15 36 16 37 17 38 18 39 19 40 20 41 72 42 21 43 71 44
REMARK SMILES IDX 22 45 23 46 24 47 65 48 25 49 70 50 64 51 66 52 26 53 69 54
REMARK SMILES IDX 63 55 62 56 27 58 53 59 36 60 52 61 37 62 40 63 51 64 67 65
REMARK SMILES IDX 38 66 39 67 50 69 68 70 41 71 28 72 29 73 34 74 30 75 31 76
REMARK SMILES IDX 33 77 35 78 32 79 54 80 55 81 60 82 56 83 57 84 59 85 61 86
REMARK SMILES IDX 58 87 42 88 43 89 48 90 44 91 45 92 47 93 49 94 46 95
REMARK H PARENT 73 14 66 57 40 68
REMARK Flexibility Score: inf
ROOT
ATOM      1  C   UNL A   1      33.264  28.814  23.213  1.00  0.00     0.188 C 
ENDROOT
BRANCH   1   2
ATOM      2  O   UNL A   1      33.909  27.543  22.975  1.00  0.00    -0.376 OA
BRANCH   2   3
ATOM      3  C   UNL A   1      33.340  26.576  22.067  1.00  0.00     0.202 C 
BRANCH   3   4
ATOM      4  C   UNL A   1      32.320  25.470  22.509  1.00  0.00     0.261 C 
BRANCH   4   5
ATOM      5  O   UNL A   1      31.476  25.737  23.632  1.00  0.00    -0.463 OA
BRANCH   5   6
ATOM      6  C   UNL A   1      30.610  24.785  24.015  1.00  0.00     0.306 C 
ATOM      7  O   UNL A   1      30.516  23.688  23.484  1.00  0.00    -0.252 OA
BRANCH   6   8
ATOM      8  C   UNL A   1      29.809  25.234  25.219  1.00  0.00     0.135 C 
BRANCH   8   9
ATOM      9  C   UNL A   1      30.298  24.709  26.589  1.00  0.00     0.139 C 
BRANCH   9  10
ATOM     10  C   UNL A   1      30.213  23.185  26.792  1.00  0.00     0.308 C 
ATOM     11  O   UNL A   1      29.177  22.800  27.346  1.00  0.00    -0.247 OA
ATOM     12  N   UNL A   1      31.120  22.221  26.338  1.00  0.00    -0.204 N 
ATOM     13  C   UNL A   1      32.380  22.300  26.083  1.00  0.00     0.319 C 
ATOM     14  H   UNL A   1      30.728  21.331  26.189  1.00  0.00     0.316 HD
ATOM     15  S   UNL A   1      33.252  23.754  26.044  1.00  0.00    -0.029 SA
ATOM     16  N   UNL A   1      33.337  21.337  25.755  1.00  0.00    -0.216 N 
ATOM     17  C   UNL A   1      34.644  23.186  25.137  1.00  0.00     0.120 C 
ATOM     18  C   UNL A   1      34.744  21.795  25.717  1.00  0.00     0.212 C 
ATOM     19  C   UNL A   1      35.997  23.837  25.241  1.00  0.00     0.156 C 
ATOM     20  C   UNL A   1      35.795  21.173  24.820  1.00  0.00     0.188 C 
ATOM     21  S   UNL A   1      37.047  22.489  24.726  1.00  0.00     0.155 S 
ATOM     22  O   UNL A   1      37.403  22.701  23.339  1.00  0.00    -0.229 OA
ATOM     23  O   UNL A   1      38.034  22.277  25.762  1.00  0.00    -0.229 OA
BRANCH  16  24
ATOM     24  C   UNL A   1      32.987  20.109  25.244  1.00  0.00     0.132 A 
ATOM     25  C   UNL A   1      32.689  19.981  23.877  1.00  0.00     0.056 A 
ATOM     26  C   UNL A   1      33.038  18.992  26.083  1.00  0.00     0.102 A 
ATOM     27  C   UNL A   1      32.498  18.723  23.316  1.00  0.00     0.055 A 
ATOM     28  C   UNL A   1      32.881  17.769  25.499  1.00  0.00     0.170 A 
ATOM     29  C   UNL A   1      32.636  17.635  24.150  1.00  0.00     0.166 A 
ATOM     30  O   UNL A   1      33.033  16.575  26.126  1.00  0.00    -0.453 OA
ATOM     31  O   UNL A   1      32.624  16.329  23.772  1.00  0.00    -0.454 OA
ATOM     32  C   UNL A   1      33.145  15.720  24.974  1.00  0.00     0.468 C 
ENDBRANCH  16  24
ENDBRANCH   9  10
ENDBRANCH   8   9
ENDBRANCH   6   8
ENDBRANCH   5   6
ENDBRANCH   4   5
ENDBRANCH   3   4
ENDBRANCH   2   3
ENDBRANCH   1   2
BRANCH   1  33
ATOM     33  C   UNL A   1      33.446  29.325  24.722  1.00  0.00     0.188 C 
BRANCH  33  34
ATOM     34  O   UNL A   1      32.288  29.400  25.582  1.00  0.00    -0.376 OA
BRANCH  34  35
ATOM     35  C   UNL A   1      31.960  30.458  26.516  1.00  0.00     0.202 C 
BRANCH  35  36
ATOM     36  C   UNL A   1      32.949  31.328  27.328  1.00  0.00     0.261 C 
BRANCH  36  37
ATOM     37  O   UNL A   1      34.045  30.617  27.843  1.00  0.00    -0.460 OA
BRANCH  37  38
ATOM     38  C   UNL A   1      34.772  31.368  28.710  1.00  0.00     0.338 C 
ATOM     39  O   UNL A   1      34.387  32.185  29.500  1.00  0.00    -0.246 OA
BRANCH  38  40
ATOM     40  C   UNL A   1      36.069  30.685  28.724  1.00  0.00     0.060 A 
ATOM     41  C   UNL A   1      36.421  30.065  29.925  1.00  0.00     0.016 A 
ATOM     42  C   UNL A   1      36.797  30.498  27.544  1.00  0.00     0.016 A 
ATOM     43  C   UNL A   1      37.509  29.210  29.948  1.00  0.00     0.010 A 
ATOM     44  C   UNL A   1      37.928  29.702  27.583  1.00  0.00     0.010 A 
ATOM     45  C   UNL A   1      38.295  29.092  28.795  1.00  0.00    -0.014 A 
BRANCH  45  46
ATOM     46  C   UNL A   1      39.698  28.708  28.976  1.00  0.00     0.031 A 
ATOM     47  C   UNL A   1      40.596  29.793  29.495  1.00  0.00     0.074 A 
ATOM     48  C   UNL A   1      40.134  27.476  28.677  1.00  0.00     0.049 A 
ATOM     49  N   UNL A   1      41.889  29.793  29.654  1.00  0.00    -0.248 NA
ATOM     50  C   UNL A   1      39.944  31.061  29.884  1.00  0.00     0.031 C 
ATOM     51  C   UNL A   1      39.307  26.361  28.216  1.00  0.00     0.029 A 
ATOM     52  N   UNL A   1      41.405  26.973  28.699  1.00  0.00    -0.354 N 
ATOM     53  C   UNL A   1      42.196  31.056  30.142  1.00  0.00     0.074 A 
ATOM     54  C   UNL A   1      40.971  31.803  30.253  1.00  0.00     0.031 C 
ATOM     55  C   UNL A   1      40.105  25.306  27.967  1.00  0.00     0.029 A 
ATOM     56  C   UNL A   1      41.492  25.692  28.213  1.00  0.00     0.049 A 
ATOM     57  H   UNL A   1      42.181  27.478  29.032  1.00  0.00     0.167 HD
ATOM     58  C   UNL A   1      43.409  31.551  30.457  1.00  0.00     0.037 A 
ATOM     59  C   UNL A   1      42.590  24.954  27.963  1.00  0.00     0.037 A 
ATOM     60  C   UNL A   1      44.615  30.793  30.317  1.00  0.00     0.049 A 
ATOM     61  C   UNL A   1      43.940  25.561  28.260  1.00  0.00     0.074 A 
ATOM     62  C   UNL A   1      45.907  31.174  30.615  1.00  0.00     0.029 A 
ATOM     63  N   UNL A   1      44.668  29.501  29.821  1.00  0.00    -0.354 N 
ATOM     64  N   UNL A   1      44.229  26.741  28.758  1.00  0.00    -0.248 NA
ATOM     65  C   UNL A   1      45.118  24.739  27.954  1.00  0.00     0.031 C 
ATOM     66  C   UNL A   1      46.753  30.128  30.244  1.00  0.00     0.029 A 
ATOM     67  C   UNL A   1      45.980  29.073  29.777  1.00  0.00     0.049 A 
ATOM     68  H   UNL A   1      43.889  28.967  29.541  1.00  0.00     0.167 HD
ATOM     69  C   UNL A   1      45.614  26.784  28.867  1.00  0.00     0.074 A 
ATOM     70  C   UNL A   1      46.106  25.511  28.385  1.00  0.00     0.031 C 
ATOM     71  C   UNL A   1      46.414  27.779  29.322  1.00  0.00     0.037 A 
BRANCH  58  72
ATOM     72  C   UNL A   1      43.483  32.969  30.923  1.00  0.00     0.057 A 
ATOM     73  C   UNL A   1      43.611  34.040  30.030  1.00  0.00     0.134 A 
ATOM     74  C   UNL A   1      43.403  33.266  32.289  1.00  0.00     0.134 A 
ATOM     75  F   UNL A   1      43.733  33.818  28.713  1.00  0.00    -0.206 F 
ATOM     76  C   UNL A   1      43.652  35.360  30.481  1.00  0.00     0.040 A 
ATOM     77  C   UNL A   1      43.417  34.582  32.749  1.00  0.00     0.040 A 
ATOM     78  F   UNL A   1      43.304  32.282  33.195  1.00  0.00    -0.206 F 
ATOM     79  C   UNL A   1      43.541  35.634  31.843  1.00  0.00     0.006 A 
ENDBRANCH  58  72
BRANCH  59  80
ATOM     80  C   UNL A   1      42.479  23.595  27.372  1.00  0.00     0.057 A 
ATOM     81  C   UNL A   1      42.493  23.402  25.986  1.00  0.00     0.134 A 
ATOM     82  C   UNL A   1      42.290  22.463  28.175  1.00  0.00     0.134 A 
ATOM     83  F   UNL A   1      42.651  24.447  25.161  1.00  0.00    -0.206 F 
ATOM     84  C   UNL A   1      42.285  22.143  25.419  1.00  0.00     0.040 A 
ATOM     85  C   UNL A   1      42.111  21.193  27.624  1.00  0.00     0.040 A 
ATOM     86  F   UNL A   1      42.272  22.575  29.512  1.00  0.00    -0.206 F 
ATOM     87  C   UNL A   1      42.093  21.033  26.240  1.00  0.00     0.006 A 
ENDBRANCH  59  80
BRANCH  71  88
ATOM     88  C   UNL A   1      47.886  27.506  29.390  1.00  0.00     0.057 A 
ATOM     89  C   UNL A   1      48.757  27.874  28.359  1.00  0.00     0.134 A 
ATOM     90  C   UNL A   1      48.443  26.949  30.548  1.00  0.00     0.134 A 
ATOM     91  F   UNL A   1      48.281  28.407  27.224  1.00  0.00    -0.206 F 
ATOM     92  C   UNL A   1      50.133  27.681  28.471  1.00  0.00     0.040 A 
ATOM     93  C   UNL A   1      49.819  26.782  30.685  1.00  0.00     0.040 A 
ATOM     94  F   UNL A   1      47.659  26.593  31.579  1.00  0.00    -0.206 F 
ATOM     95  C   UNL A   1      50.668  27.144  29.642  1.00  0.00     0.006 A 
ENDBRANCH  71  88
ENDBRANCH  45  46
ENDBRANCH  38  40
ENDBRANCH  37  38
ENDBRANCH  36  37
ENDBRANCH  35  36
ENDBRANCH  34  35
ENDBRANCH  33  34
ENDBRANCH   1  33
TORSDOF 20
ENDMDL
