MODEL 1
REMARK VINA RESULT:     -10.6      0.000      0.000
REMARK SMILES C[C@H]1CC[C@@](NC(=O)N[C@H]2CCOC2)(C(=O)OCCOCCOCCOC(=O)c2ccc(-c3c4nc(c(-c5c(F)cccc5F)c5ccc([nH]5)c(-c5c(F)cccc5F)c5nc(c(-c6c(F)cccc6F)c6ccc3[nH]6)C=C5)C=C4)cc2)CC1
REMARK SMILES IDX 21 1 20 2 19 3 18 4 17 5 15 6 16 7 5 8 1 9 2 10 84 11 3 12
REMARK SMILES IDX 83 13 4 14 6 15 7 16 8 18 9 19 10 21 11 22 14 23 12 24 13 25
REMARK SMILES IDX 22 26 23 27 24 28 25 29 26 30 27 31 28 32 29 33 30 34 82 35
REMARK SMILES IDX 31 36 81 37 32 38 33 39 34 40 75 41 35 42 80 43 74 44 76 45
REMARK SMILES IDX 36 46 79 47 73 48 72 49 37 51 63 52 46 53 62 54 47 55 50 56
REMARK SMILES IDX 61 57 77 58 48 59 49 60 60 62 78 63 51 64 38 65 39 66 44 67
REMARK SMILES IDX 40 68 41 69 43 70 45 71 42 72 64 73 65 74 70 75 66 76 67 77
REMARK SMILES IDX 69 78 71 79 68 80 52 81 53 82 58 83 54 84 55 85 57 86 59 87
REMARK SMILES IDX 56 88
REMARK H PARENT 6 17 9 20 76 50 50 61
REMARK Flexibility Score: inf
ROOT
ATOM      1  C   UNL A   1      33.316  31.001  27.609  1.00  0.00     0.188 C 
ENDROOT
BRANCH   1   2
ATOM      2  O   UNL A   1      32.289  31.037  26.624  1.00  0.00    -0.376 OA
BRANCH   2   3
ATOM      3  C   UNL A   1      32.300  29.940  25.717  1.00  0.00     0.202 C 
BRANCH   3   4
ATOM      4  C   UNL A   1      33.656  29.233  25.642  1.00  0.00     0.261 C 
BRANCH   4   5
ATOM      5  O   UNL A   1      33.794  27.860  26.094  1.00  0.00    -0.461 OA
BRANCH   5   6
ATOM      6  C   UNL A   1      32.797  27.012  26.449  1.00  0.00     0.331 C 
ATOM      7  O   UNL A   1      31.940  27.224  27.298  1.00  0.00    -0.249 OA
BRANCH   6   8
ATOM      8  C   UNL A   1      32.880  25.707  25.654  1.00  0.00     0.139 C 
ATOM      9  C   UNL A   1      28.878  26.353  23.889  1.00  0.00     0.007 C 
ATOM     10  C   UNL A   1      30.227  25.674  24.147  1.00  0.00    -0.014 C 
ATOM     11  C   UNL A   1      30.344  25.206  25.603  1.00  0.00     0.006 C 
ATOM     12  C   UNL A   1      31.368  26.617  23.755  1.00  0.00     0.006 C 
ATOM     13  C   UNL A   1      31.753  24.705  25.974  1.00  0.00     0.041 C 
ATOM     14  C   UNL A   1      32.747  26.079  24.146  1.00  0.00     0.041 C 
BRANCH   8  15
ATOM     15  N   UNL A   1      34.229  25.107  25.863  1.00  0.00    -0.322 N 
ATOM     16  C   UNL A   1      34.991  24.133  25.366  1.00  0.00     0.316 C 
ATOM     17  H   UNL A   1      34.702  25.573  26.590  1.00  0.00     0.166 HD
ATOM     18  O   UNL A   1      36.193  24.190  25.650  1.00  0.00    -0.249 OA
ATOM     19  N   UNL A   1      34.612  23.082  24.639  1.00  0.00    -0.333 N 
ATOM     20  H   UNL A   1      35.389  22.585  24.295  1.00  0.00     0.165 HD
BRANCH  19  21
ATOM     21  C   UNL A   1      33.369  22.474  24.218  1.00  0.00     0.112 C 
ATOM     22  C   UNL A   1      32.994  22.712  22.776  1.00  0.00     0.056 C 
ATOM     23  C   UNL A   1      33.309  20.946  24.288  1.00  0.00     0.185 C 
ATOM     24  C   UNL A   1      31.916  21.670  22.565  1.00  0.00     0.162 C 
ATOM     25  O   UNL A   1      32.285  20.534  23.363  1.00  0.00    -0.379 OA
ENDBRANCH  19  21
ENDBRANCH   8  15
ENDBRANCH   6   8
ENDBRANCH   5   6
ENDBRANCH   4   5
ENDBRANCH   3   4
ENDBRANCH   2   3
ENDBRANCH   1   2
BRANCH   1  26
ATOM     26  C   UNL A   1      34.042  32.351  27.744  1.00  0.00     0.188 C 
BRANCH  26  27
ATOM     27  O   UNL A   1      33.433  33.343  28.564  1.00  0.00    -0.376 OA
BRANCH  27  28
ATOM     28  C   UNL A   1      34.331  34.173  29.286  1.00  0.00     0.202 C 
BRANCH  28  29
ATOM     29  C   UNL A   1      34.363  33.948  30.807  1.00  0.00     0.261 C 
BRANCH  29  30
ATOM     30  O   UNL A   1      34.347  32.553  31.194  1.00  0.00    -0.460 OA
BRANCH  30  31
ATOM     31  C   UNL A   1      35.369  32.146  31.984  1.00  0.00     0.338 C 
ATOM     32  O   UNL A   1      35.608  32.515  33.122  1.00  0.00    -0.246 OA
BRANCH  31  33
ATOM     33  C   UNL A   1      36.205  31.117  31.326  1.00  0.00     0.060 A 
ATOM     34  C   UNL A   1      36.984  30.257  32.105  1.00  0.00     0.016 A 
ATOM     35  C   UNL A   1      36.447  31.204  29.955  1.00  0.00     0.016 A 
ATOM     36  C   UNL A   1      38.058  29.561  31.549  1.00  0.00     0.010 A 
ATOM     37  C   UNL A   1      37.507  30.478  29.388  1.00  0.00     0.010 A 
ATOM     38  C   UNL A   1      38.364  29.703  30.193  1.00  0.00    -0.014 A 
BRANCH  38  39
ATOM     39  C   UNL A   1      39.682  29.229  29.679  1.00  0.00     0.031 A 
ATOM     40  C   UNL A   1      40.851  30.184  29.676  1.00  0.00     0.074 A 
ATOM     41  C   UNL A   1      39.892  27.952  29.306  1.00  0.00     0.049 A 
ATOM     42  N   UNL A   1      42.026  30.065  29.111  1.00  0.00    -0.248 NA
ATOM     43  C   UNL A   1      40.668  31.444  30.415  1.00  0.00     0.031 C 
ATOM     44  C   UNL A   1      38.908  26.872  29.371  1.00  0.00     0.029 A 
ATOM     45  N   UNL A   1      41.020  27.345  28.806  1.00  0.00    -0.354 N 
ATOM     46  C   UNL A   1      42.692  31.258  29.368  1.00  0.00     0.074 A 
ATOM     47  C   UNL A   1      41.797  32.083  30.148  1.00  0.00     0.031 C 
ATOM     48  C   UNL A   1      39.479  25.734  28.941  1.00  0.00     0.029 A 
ATOM     49  C   UNL A   1      40.841  26.019  28.496  1.00  0.00     0.049 A 
ATOM     50  H   UNL A   1      41.876  27.816  28.682  1.00  0.00     0.167 HD
ATOM     51  C   UNL A   1      43.935  31.635  28.984  1.00  0.00     0.037 A 
ATOM     52  C   UNL A   1      41.661  25.145  27.878  1.00  0.00     0.037 A 
ATOM     53  C   UNL A   1      44.857  30.794  28.266  1.00  0.00     0.049 A 
ATOM     54  C   UNL A   1      43.013  25.602  27.400  1.00  0.00     0.074 A 
ATOM     55  C   UNL A   1      46.133  31.093  27.819  1.00  0.00     0.029 A 
ATOM     56  N   UNL A   1      44.608  29.478  27.913  1.00  0.00    -0.354 N 
ATOM     57  N   UNL A   1      43.592  26.768  27.542  1.00  0.00    -0.248 NA
ATOM     58  C   UNL A   1      43.817  24.622  26.653  1.00  0.00     0.031 C 
ATOM     59  C   UNL A   1      46.645  29.965  27.168  1.00  0.00     0.029 A 
ATOM     60  C   UNL A   1      45.703  28.952  27.246  1.00  0.00     0.049 A 
ATOM     61  H   UNL A   1      43.777  28.988  28.108  1.00  0.00     0.167 HD
ATOM     62  C   UNL A   1      44.825  26.662  26.909  1.00  0.00     0.074 A 
ATOM     63  C   UNL A   1      44.923  25.308  26.408  1.00  0.00     0.031 C 
ATOM     64  C   UNL A   1      45.787  27.604  26.749  1.00  0.00     0.037 A 
BRANCH  51  65
ATOM     65  C   UNL A   1      44.352  33.045  29.287  1.00  0.00     0.057 A 
ATOM     66  C   UNL A   1      44.111  34.106  28.406  1.00  0.00     0.134 A 
ATOM     67  C   UNL A   1      44.991  33.341  30.498  1.00  0.00     0.134 A 
ATOM     68  F   UNL A   1      43.520  33.885  27.223  1.00  0.00    -0.206 F 
ATOM     69  C   UNL A   1      44.511  35.409  28.710  1.00  0.00     0.040 A 
ATOM     70  C   UNL A   1      45.373  34.643  30.824  1.00  0.00     0.040 A 
ATOM     71  F   UNL A   1      45.249  32.370  31.387  1.00  0.00    -0.206 F 
ATOM     72  C   UNL A   1      45.138  35.681  29.925  1.00  0.00     0.006 A 
ENDBRANCH  51  65
BRANCH  52  73
ATOM     73  C   UNL A   1      41.201  23.758  27.605  1.00  0.00     0.057 A 
ATOM     74  C   UNL A   1      41.727  22.666  28.303  1.00  0.00     0.134 A 
ATOM     75  C   UNL A   1      40.249  23.490  26.613  1.00  0.00     0.134 A 
ATOM     76  F   UNL A   1      42.666  22.854  29.242  1.00  0.00    -0.206 F 
ATOM     77  C   UNL A   1      41.331  21.358  28.019  1.00  0.00     0.040 A 
ATOM     78  C   UNL A   1      39.823  22.191  26.337  1.00  0.00     0.040 A 
ATOM     79  F   UNL A   1      39.712  24.493  25.901  1.00  0.00    -0.206 F 
ATOM     80  C   UNL A   1      40.370  21.118  27.038  1.00  0.00     0.006 A 
ENDBRANCH  52  73
BRANCH  64  81
ATOM     81  C   UNL A   1      47.033  27.191  26.021  1.00  0.00     0.057 A 
ATOM     82  C   UNL A   1      48.112  26.596  26.686  1.00  0.00     0.134 A 
ATOM     83  C   UNL A   1      47.149  27.379  24.638  1.00  0.00     0.134 A 
ATOM     84  F   UNL A   1      48.070  26.399  28.013  1.00  0.00    -0.206 F 
ATOM     85  C   UNL A   1      49.276  26.229  26.006  1.00  0.00     0.040 A 
ATOM     86  C   UNL A   1      48.298  26.995  23.943  1.00  0.00     0.040 A 
ATOM     87  F   UNL A   1      46.149  27.936  23.940  1.00  0.00    -0.206 F 
ATOM     88  C   UNL A   1      49.368  26.426  24.630  1.00  0.00     0.006 A 
ENDBRANCH  64  81
ENDBRANCH  38  39
ENDBRANCH  31  33
ENDBRANCH  30  31
ENDBRANCH  29  30
ENDBRANCH  28  29
ENDBRANCH  27  28
ENDBRANCH  26  27
ENDBRANCH   1  26
TORSDOF 19
ENDMDL
MODEL 2
REMARK VINA RESULT:     -10.5      1.460      6.261
REMARK SMILES C[C@H]1CC[C@@](NC(=O)N[C@H]2CCOC2)(C(=O)OCCOCCOCCOC(=O)c2ccc(-c3c4nc(c(-c5c(F)cccc5F)c5ccc([nH]5)c(-c5c(F)cccc5F)c5nc(c(-c6c(F)cccc6F)c6ccc3[nH]6)C=C5)C=C4)cc2)CC1
REMARK SMILES IDX 21 1 20 2 19 3 18 4 17 5 15 6 16 7 5 8 1 9 2 10 84 11 3 12
REMARK SMILES IDX 83 13 4 14 6 15 7 16 8 18 9 19 10 21 11 22 14 23 12 24 13 25
REMARK SMILES IDX 22 26 23 27 24 28 25 29 26 30 27 31 28 32 29 33 30 34 82 35
REMARK SMILES IDX 31 36 81 37 32 38 33 39 34 40 75 41 35 42 80 43 74 44 76 45
REMARK SMILES IDX 36 46 79 47 73 48 72 49 37 51 63 52 46 53 62 54 47 55 50 56
REMARK SMILES IDX 61 57 77 58 48 59 49 60 60 62 78 63 51 64 38 65 39 66 44 67
REMARK SMILES IDX 40 68 41 69 43 70 45 71 42 72 64 73 65 74 70 75 66 76 67 77
REMARK SMILES IDX 69 78 71 79 68 80 52 81 53 82 58 83 54 84 55 85 57 86 59 87
REMARK SMILES IDX 56 88
REMARK H PARENT 6 17 9 20 76 50 50 61
REMARK Flexibility Score: inf
ROOT
ATOM      1  C   UNL A   1      34.708  31.608  28.274  1.00  0.00     0.188 C 
ENDROOT
BRANCH   1   2
ATOM      2  O   UNL A   1      33.521  31.244  27.576  1.00  0.00    -0.376 OA
BRANCH   2   3
ATOM      3  C   UNL A   1      33.484  29.890  27.137  1.00  0.00     0.202 C 
BRANCH   3   4
ATOM      4  C   UNL A   1      33.033  29.739  25.681  1.00  0.00     0.261 C 
BRANCH   4   5
ATOM      5  O   UNL A   1      32.792  28.422  25.120  1.00  0.00    -0.461 OA
BRANCH   5   6
ATOM      6  C   UNL A   1      31.594  27.808  24.960  1.00  0.00     0.331 C 
ATOM      7  O   UNL A   1      30.770  27.597  25.842  1.00  0.00    -0.249 OA
BRANCH   6   8
ATOM      8  C   UNL A   1      31.390  27.375  23.507  1.00  0.00     0.139 C 
ATOM      9  C   UNL A   1      27.658  29.721  23.174  1.00  0.00     0.007 C 
ATOM     10  C   UNL A   1      28.816  28.820  22.734  1.00  0.00    -0.014 C 
ATOM     11  C   UNL A   1      28.808  27.490  23.501  1.00  0.00     0.006 C 
ATOM     12  C   UNL A   1      30.144  29.564  22.895  1.00  0.00     0.006 C 
ATOM     13  C   UNL A   1      30.063  26.633  23.253  1.00  0.00     0.041 C 
ATOM     14  C   UNL A   1      31.362  28.672  22.642  1.00  0.00     0.041 C 
BRANCH   8  15
ATOM     15  N   UNL A   1      32.568  26.564  23.082  1.00  0.00    -0.322 N 
ATOM     16  C   UNL A   1      33.009  25.308  23.151  1.00  0.00     0.316 C 
ATOM     17  H   UNL A   1      33.218  27.128  22.605  1.00  0.00     0.166 HD
ATOM     18  O   UNL A   1      33.927  25.015  22.377  1.00  0.00    -0.249 OA
ATOM     19  N   UNL A   1      32.615  24.342  23.981  1.00  0.00    -0.333 N 
ATOM     20  H   UNL A   1      33.013  23.476  23.737  1.00  0.00     0.165 HD
BRANCH  19  21
ATOM     21  C   UNL A   1      31.761  24.222  25.143  1.00  0.00     0.112 C 
ATOM     22  C   UNL A   1      31.027  22.910  25.267  1.00  0.00     0.056 C 
ATOM     23  C   UNL A   1      32.459  24.296  26.503  1.00  0.00     0.185 C 
ATOM     24  C   UNL A   1      30.566  22.953  26.708  1.00  0.00     0.162 C 
ATOM     25  O   UNL A   1      31.593  23.636  27.445  1.00  0.00    -0.379 OA
ENDBRANCH  19  21
ENDBRANCH   8  15
ENDBRANCH   6   8
ENDBRANCH   5   6
ENDBRANCH   4   5
ENDBRANCH   3   4
ENDBRANCH   2   3
ENDBRANCH   1   2
BRANCH   1  26
ATOM     26  C   UNL A   1      34.551  32.936  29.036  1.00  0.00     0.188 C 
BRANCH  26  27
ATOM     27  O   UNL A   1      34.263  32.861  30.429  1.00  0.00    -0.376 OA
BRANCH  27  28
ATOM     28  C   UNL A   1      35.031  33.721  31.258  1.00  0.00     0.202 C 
BRANCH  28  29
ATOM     29  C   UNL A   1      35.104  33.320  32.741  1.00  0.00     0.261 C 
BRANCH  29  30
ATOM     30  O   UNL A   1      35.535  31.954  32.958  1.00  0.00    -0.460 OA
BRANCH  30  31
ATOM     31  C   UNL A   1      36.814  31.797  33.373  1.00  0.00     0.338 C 
ATOM     32  O   UNL A   1      37.329  32.285  34.366  1.00  0.00    -0.246 OA
BRANCH  31  33
ATOM     33  C   UNL A   1      37.578  30.888  32.488  1.00  0.00     0.060 A 
ATOM     34  C   UNL A   1      38.678  30.191  32.997  1.00  0.00     0.016 A 
ATOM     35  C   UNL A   1      37.395  30.961  31.108  1.00  0.00     0.016 A 
ATOM     36  C   UNL A   1      39.642  29.653  32.143  1.00  0.00     0.010 A 
ATOM     37  C   UNL A   1      38.347  30.392  30.247  1.00  0.00     0.010 A 
ATOM     38  C   UNL A   1      39.515  29.791  30.759  1.00  0.00    -0.014 A 
BRANCH  38  39
ATOM     39  C   UNL A   1      40.685  29.512  29.877  1.00  0.00     0.031 A 
ATOM     40  C   UNL A   1      40.794  28.160  29.214  1.00  0.00     0.074 A 
ATOM     41  C   UNL A   1      41.599  30.455  29.574  1.00  0.00     0.049 A 
ATOM     42  N   UNL A   1      41.800  27.625  28.568  1.00  0.00    -0.248 NA
ATOM     43  C   UNL A   1      39.604  27.297  29.289  1.00  0.00     0.031 C 
ATOM     44  C   UNL A   1      41.569  31.846  30.023  1.00  0.00     0.029 A 
ATOM     45  N   UNL A   1      42.731  30.379  28.797  1.00  0.00    -0.354 N 
ATOM     46  C   UNL A   1      41.388  26.343  28.223  1.00  0.00     0.074 A 
ATOM     47  C   UNL A   1      40.039  26.184  28.719  1.00  0.00     0.031 C 
ATOM     48  C   UNL A   1      42.626  32.495  29.503  1.00  0.00     0.029 A 
ATOM     49  C   UNL A   1      43.448  31.549  28.753  1.00  0.00     0.049 A 
ATOM     50  H   UNL A   1      43.003  29.562  28.319  1.00  0.00     0.167 HD
ATOM     51  C   UNL A   1      42.073  25.382  27.557  1.00  0.00     0.037 A 
ATOM     52  C   UNL A   1      44.654  31.819  28.213  1.00  0.00     0.037 A 
ATOM     53  C   UNL A   1      43.389  25.558  27.001  1.00  0.00     0.049 A 
ATOM     54  C   UNL A   1      45.429  30.721  27.535  1.00  0.00     0.074 A 
ATOM     55  C   UNL A   1      44.171  24.638  26.323  1.00  0.00     0.029 A 
ATOM     56  N   UNL A   1      44.107  26.741  27.038  1.00  0.00    -0.354 N 
ATOM     57  N   UNL A   1      45.083  29.477  27.315  1.00  0.00    -0.248 NA
ATOM     58  C   UNL A   1      46.775  31.063  27.051  1.00  0.00     0.031 C 
ATOM     59  C   UNL A   1      45.377  25.257  25.976  1.00  0.00     0.029 A 
ATOM     60  C   UNL A   1      45.327  26.575  26.402  1.00  0.00     0.049 A 
ATOM     61  H   UNL A   1      43.796  27.578  27.453  1.00  0.00     0.167 HD
ATOM     62  C   UNL A   1      46.163  28.890  26.664  1.00  0.00     0.074 A 
ATOM     63  C   UNL A   1      47.164  29.923  26.499  1.00  0.00     0.031 C 
ATOM     64  C   UNL A   1      46.316  27.609  26.248  1.00  0.00     0.037 A 
BRANCH  51  65
ATOM     65  C   UNL A   1      41.428  24.032  27.441  1.00  0.00     0.057 A 
ATOM     66  C   UNL A   1      40.375  23.776  26.555  1.00  0.00     0.134 A 
ATOM     67  C   UNL A   1      41.892  22.965  28.222  1.00  0.00     0.134 A 
ATOM     68  F   UNL A   1      39.872  24.759  25.794  1.00  0.00    -0.206 F 
ATOM     69  C   UNL A   1      39.789  22.511  26.468  1.00  0.00     0.040 A 
ATOM     70  C   UNL A   1      41.332  21.691  28.125  1.00  0.00     0.040 A 
ATOM     71  F   UNL A   1      42.902  23.143  29.087  1.00  0.00    -0.206 F 
ATOM     72  C   UNL A   1      40.273  21.463  27.250  1.00  0.00     0.006 A 
ENDBRANCH  51  65
BRANCH  52  73
ATOM     73  C   UNL A   1      45.246  33.175  28.353  1.00  0.00     0.057 A 
ATOM     74  C   UNL A   1      46.104  33.489  29.413  1.00  0.00     0.134 A 
ATOM     75  C   UNL A   1      44.938  34.200  27.448  1.00  0.00     0.134 A 
ATOM     76  F   UNL A   1      46.411  32.560  30.331  1.00  0.00    -0.206 F 
ATOM     77  C   UNL A   1      46.626  34.773  29.573  1.00  0.00     0.040 A 
ATOM     78  C   UNL A   1      45.474  35.480  27.581  1.00  0.00     0.040 A 
ATOM     79  F   UNL A   1      44.114  33.966  26.415  1.00  0.00    -0.206 F 
ATOM     80  C   UNL A   1      46.318  35.772  28.651  1.00  0.00     0.006 A 
ENDBRANCH  52  73
BRANCH  64  81
ATOM     81  C   UNL A   1      47.603  27.264  25.558  1.00  0.00     0.057 A 
ATOM     82  C   UNL A   1      48.686  26.707  26.251  1.00  0.00     0.134 A 
ATOM     83  C   UNL A   1      47.758  27.478  24.182  1.00  0.00     0.134 A 
ATOM     84  F   UNL A   1      48.607  26.489  27.573  1.00  0.00    -0.206 F 
ATOM     85  C   UNL A   1      49.887  26.403  25.607  1.00  0.00     0.040 A 
ATOM     86  C   UNL A   1      48.945  27.156  23.522  1.00  0.00     0.040 A 
ATOM     87  F   UNL A   1      46.757  28.000  23.457  1.00  0.00    -0.206 F 
ATOM     88  C   UNL A   1      50.016  26.625  24.237  1.00  0.00     0.006 A 
ENDBRANCH  64  81
ENDBRANCH  38  39
ENDBRANCH  31  33
ENDBRANCH  30  31
ENDBRANCH  29  30
ENDBRANCH  28  29
ENDBRANCH  27  28
ENDBRANCH  26  27
ENDBRANCH   1  26
TORSDOF 19
ENDMDL
MODEL 3
REMARK VINA RESULT:     -10.0      3.025      8.323
REMARK SMILES C[C@H]1CC[C@@](NC(=O)N[C@H]2CCOC2)(C(=O)OCCOCCOCCOC(=O)c2ccc(-c3c4nc(c(-c5c(F)cccc5F)c5ccc([nH]5)c(-c5c(F)cccc5F)c5nc(c(-c6c(F)cccc6F)c6ccc3[nH]6)C=C5)C=C4)cc2)CC1
REMARK SMILES IDX 21 1 20 2 19 3 18 4 17 5 15 6 16 7 5 8 1 9 2 10 84 11 3 12
REMARK SMILES IDX 83 13 4 14 6 15 7 16 8 18 9 19 10 21 11 22 14 23 12 24 13 25
REMARK SMILES IDX 22 26 23 27 24 28 25 29 26 30 27 31 28 32 29 33 30 34 82 35
REMARK SMILES IDX 31 36 81 37 32 38 33 39 34 40 75 41 35 42 80 43 74 44 76 45
REMARK SMILES IDX 36 46 79 47 73 48 72 49 37 51 63 52 46 53 62 54 47 55 50 56
REMARK SMILES IDX 61 57 77 58 48 59 49 60 60 62 78 63 51 64 38 65 39 66 44 67
REMARK SMILES IDX 40 68 41 69 43 70 45 71 42 72 64 73 65 74 70 75 66 76 67 77
REMARK SMILES IDX 69 78 71 79 68 80 52 81 53 82 58 83 54 84 55 85 57 86 59 87
REMARK SMILES IDX 56 88
REMARK H PARENT 6 17 9 20 76 50 50 61
REMARK Flexibility Score: inf
ROOT
ATOM      1  C   UNL A   1      37.897  22.274  25.913  1.00  0.00     0.188 C 
ENDROOT
BRANCH   1   2
ATOM      2  O   UNL A   1      37.545  21.928  24.577  1.00  0.00    -0.376 OA
BRANCH   2   3
ATOM      3  C   UNL A   1      36.671  22.852  23.938  1.00  0.00     0.202 C 
BRANCH   3   4
ATOM      4  C   UNL A   1      35.865  23.702  24.925  1.00  0.00     0.261 C 
BRANCH   4   5
ATOM      5  O   UNL A   1      35.040  24.798  24.447  1.00  0.00    -0.461 OA
BRANCH   5   6
ATOM      6  C   UNL A   1      33.929  25.302  25.038  1.00  0.00     0.331 C 
ATOM      7  O   UNL A   1      33.569  25.095  26.191  1.00  0.00    -0.249 OA
BRANCH   6   8
ATOM      8  C   UNL A   1      33.136  26.173  24.060  1.00  0.00     0.139 C 
ATOM      9  C   UNL A   1      32.071  29.045  27.248  1.00  0.00     0.007 C 
ATOM     10  C   UNL A   1      32.150  28.447  25.840  1.00  0.00    -0.014 C 
ATOM     11  C   UNL A   1      31.429  27.094  25.769  1.00  0.00     0.006 C 
ATOM     12  C   UNL A   1      33.613  28.339  25.402  1.00  0.00     0.006 C 
ATOM     13  C   UNL A   1      31.652  26.350  24.439  1.00  0.00     0.041 C 
ATOM     14  C   UNL A   1      33.786  27.590  24.078  1.00  0.00     0.041 C 
BRANCH   8  15
ATOM     15  N   UNL A   1      33.294  25.612  22.687  1.00  0.00    -0.322 N 
ATOM     16  C   UNL A   1      32.953  24.526  21.993  1.00  0.00     0.316 C 
ATOM     17  H   UNL A   1      33.805  26.233  22.120  1.00  0.00     0.166 HD
ATOM     18  O   UNL A   1      33.039  24.622  20.764  1.00  0.00    -0.249 OA
ATOM     19  N   UNL A   1      32.575  23.336  22.460  1.00  0.00    -0.333 N 
ATOM     20  H   UNL A   1      32.259  22.750  21.735  1.00  0.00     0.165 HD
BRANCH  19  21
ATOM     21  C   UNL A   1      32.501  22.673  23.744  1.00  0.00     0.112 C 
ATOM     22  C   UNL A   1      31.242  22.938  24.532  1.00  0.00     0.056 C 
ATOM     23  C   UNL A   1      32.510  21.143  23.712  1.00  0.00     0.185 C 
ATOM     24  C   UNL A   1      31.301  21.844  25.577  1.00  0.00     0.162 C 
ATOM     25  O   UNL A   1      31.901  20.704  24.941  1.00  0.00    -0.379 OA
ENDBRANCH  19  21
ENDBRANCH   8  15
ENDBRANCH   6   8
ENDBRANCH   5   6
ENDBRANCH   4   5
ENDBRANCH   3   4
ENDBRANCH   2   3
ENDBRANCH   1   2
BRANCH   1  26
ATOM     26  C   UNL A   1      39.406  22.125  26.174  1.00  0.00     0.188 C 
BRANCH  26  27
ATOM     27  O   UNL A   1      39.953  20.811  26.120  1.00  0.00    -0.376 OA
BRANCH  27  28
ATOM     28  C   UNL A   1      40.860  20.484  27.163  1.00  0.00     0.202 C 
BRANCH  28  29
ATOM     29  C   UNL A   1      41.977  19.497  26.784  1.00  0.00     0.261 C 
BRANCH  29  30
ATOM     30  O   UNL A   1      42.295  19.486  25.371  1.00  0.00    -0.460 OA
BRANCH  30  31
ATOM     31  C   UNL A   1      43.607  19.355  25.062  1.00  0.00     0.338 C 
ATOM     32  O   UNL A   1      44.203  18.319  24.816  1.00  0.00    -0.246 OA
BRANCH  31  33
ATOM     33  C   UNL A   1      44.296  20.664  24.998  1.00  0.00     0.060 A 
ATOM     34  C   UNL A   1      45.201  21.018  26.003  1.00  0.00     0.016 A 
ATOM     35  C   UNL A   1      43.825  21.645  24.126  1.00  0.00     0.016 A 
ATOM     36  C   UNL A   1      45.562  22.351  26.205  1.00  0.00     0.010 A 
ATOM     37  C   UNL A   1      44.213  22.982  24.307  1.00  0.00     0.010 A 
ATOM     38  C   UNL A   1      45.032  23.356  25.391  1.00  0.00    -0.014 A 
BRANCH  38  39
ATOM     39  C   UNL A   1      45.156  24.784  25.805  1.00  0.00     0.031 A 
ATOM     40  C   UNL A   1      46.471  25.495  25.592  1.00  0.00     0.074 A 
ATOM     41  C   UNL A   1      44.109  25.490  26.274  1.00  0.00     0.049 A 
ATOM     42  N   UNL A   1      46.873  26.659  26.037  1.00  0.00    -0.248 NA
ATOM     43  C   UNL A   1      47.464  24.797  24.759  1.00  0.00     0.031 C 
ATOM     44  C   UNL A   1      42.742  24.994  26.418  1.00  0.00     0.029 A 
ATOM     45  N   UNL A   1      44.038  26.794  26.706  1.00  0.00    -0.354 N 
ATOM     46  C   UNL A   1      48.185  26.798  25.597  1.00  0.00     0.074 A 
ATOM     47  C   UNL A   1      48.508  25.608  24.842  1.00  0.00     0.031 C 
ATOM     48  C   UNL A   1      41.965  25.984  26.891  1.00  0.00     0.029 A 
ATOM     49  C   UNL A   1      42.794  27.157  27.159  1.00  0.00     0.049 A 
ATOM     50  H   UNL A   1      44.807  27.409  26.693  1.00  0.00     0.167 HD
ATOM     51  C   UNL A   1      49.046  27.823  25.809  1.00  0.00     0.037 A 
ATOM     52  C   UNL A   1      42.377  28.286  27.766  1.00  0.00     0.037 A 
ATOM     53  C   UNL A   1      48.710  29.039  26.501  1.00  0.00     0.049 A 
ATOM     54  C   UNL A   1      43.363  29.386  28.052  1.00  0.00     0.074 A 
ATOM     55  C   UNL A   1      49.519  30.128  26.779  1.00  0.00     0.029 A 
ATOM     56  N   UNL A   1      47.454  29.337  27.003  1.00  0.00    -0.354 N 
ATOM     57  N   UNL A   1      44.633  29.463  27.738  1.00  0.00    -0.248 NA
ATOM     58  C   UNL A   1      42.860  30.550  28.799  1.00  0.00     0.031 C 
ATOM     59  C   UNL A   1      48.759  31.073  27.477  1.00  0.00     0.029 A 
ATOM     60  C   UNL A   1      47.466  30.589  27.597  1.00  0.00     0.049 A 
ATOM     61  H   UNL A   1      46.668  28.748  26.945  1.00  0.00     0.167 HD
ATOM     62  C   UNL A   1      45.078  30.680  28.243  1.00  0.00     0.074 A 
ATOM     63  C   UNL A   1      43.935  31.321  28.858  1.00  0.00     0.031 C 
ATOM     64  C   UNL A   1      46.323  31.215  28.209  1.00  0.00     0.037 A 
BRANCH  51  65
ATOM     65  C   UNL A   1      50.457  27.647  25.330  1.00  0.00     0.057 A 
ATOM     66  C   UNL A   1      51.504  27.291  26.188  1.00  0.00     0.134 A 
ATOM     67  C   UNL A   1      50.763  27.821  23.973  1.00  0.00     0.134 A 
ATOM     68  F   UNL A   1      51.280  27.129  27.501  1.00  0.00    -0.206 F 
ATOM     69  C   UNL A   1      52.810  27.137  25.719  1.00  0.00     0.040 A 
ATOM     70  C   UNL A   1      52.059  27.644  23.488  1.00  0.00     0.040 A 
ATOM     71  F   UNL A   1      49.804  28.158  23.097  1.00  0.00    -0.206 F 
ATOM     72  C   UNL A   1      53.088  27.307  24.363  1.00  0.00     0.006 A 
ENDBRANCH  51  65
BRANCH  52  73
ATOM     73  C   UNL A   1      40.966  28.411  28.218  1.00  0.00     0.057 A 
ATOM     74  C   UNL A   1      40.570  27.993  29.493  1.00  0.00     0.134 A 
ATOM     75  C   UNL A   1      39.974  28.920  27.369  1.00  0.00     0.134 A 
ATOM     76  F   UNL A   1      41.467  27.467  30.340  1.00  0.00    -0.206 F 
ATOM     77  C   UNL A   1      39.239  28.067  29.905  1.00  0.00     0.040 A 
ATOM     78  C   UNL A   1      38.645  29.026  27.777  1.00  0.00     0.040 A 
ATOM     79  F   UNL A   1      40.287  29.330  26.131  1.00  0.00    -0.206 F 
ATOM     80  C   UNL A   1      38.272  28.592  29.048  1.00  0.00     0.006 A 
ENDBRANCH  52  73
BRANCH  64  81
ATOM     81  C   UNL A   1      46.504  32.566  28.836  1.00  0.00     0.057 A 
ATOM     82  C   UNL A   1      46.876  32.712  30.178  1.00  0.00     0.134 A 
ATOM     83  C   UNL A   1      46.317  33.734  28.086  1.00  0.00     0.134 A 
ATOM     84  F   UNL A   1      47.059  31.633  30.955  1.00  0.00    -0.206 F 
ATOM     85  C   UNL A   1      47.028  33.973  30.760  1.00  0.00     0.040 A 
ATOM     86  C   UNL A   1      46.488  34.999  28.651  1.00  0.00     0.040 A 
ATOM     87  F   UNL A   1      45.968  33.665  26.792  1.00  0.00    -0.206 F 
ATOM     88  C   UNL A   1      46.836  35.120  29.994  1.00  0.00     0.006 A 
ENDBRANCH  64  81
ENDBRANCH  38  39
ENDBRANCH  31  33
ENDBRANCH  30  31
ENDBRANCH  29  30
ENDBRANCH  28  29
ENDBRANCH  27  28
ENDBRANCH  26  27
ENDBRANCH   1  26
TORSDOF 19
ENDMDL
