MODEL 1
REMARK VINA RESULT:     -10.2      0.000      0.000
REMARK SMILES Cc1c(-c2nn(-c3ccccc3)cc2/C=N/O)nnn1-c1ccc(C(=O)OCCOCCOCCOC(=O)c2ccc(-c3c4nc(c(-c5c(F)cccc5F)c5ccc([nH]5)c(-c5c(F)cccc5F)c5nc(c(-c6c(F)cccc6F)c6ccc3[nH]6)C=C5)C=C4)cc2)cc1
REMARK SMILES IDX 31 1 30 2 29 3 28 4 27 5 25 6 26 7 24 8 21 9 22 10 94 11
REMARK SMILES IDX 23 12 93 13 20 14 1 15 2 16 3 17 18 18 19 19 4 20 5 21 14 22
REMARK SMILES IDX 6 23 13 24 15 25 16 26 17 27 7 29 8 30 12 31 9 32 11 33
REMARK SMILES IDX 10 34 32 35 33 36 34 37 35 38 36 39 37 40 38 41 39 42 40 43
REMARK SMILES IDX 92 44 41 45 91 46 42 47 43 48 44 49 85 50 45 51 90 52 84 53
REMARK SMILES IDX 86 54 46 55 89 56 83 57 82 58 47 60 73 61 56 62 72 63 57 64
REMARK SMILES IDX 60 65 71 66 87 67 58 68 59 69 70 71 88 72 61 73 48 74 49 75
REMARK SMILES IDX 54 76 50 77 51 78 53 79 55 80 52 81 74 82 75 83 80 84 76 85
REMARK SMILES IDX 77 86 79 87 81 88 78 89 62 90 63 91 68 92 64 93 65 94 67 95
REMARK SMILES IDX 69 96 66 97
REMARK H PARENT 17 28 86 59 60 70
REMARK Flexibility Score: inf
ROOT
ATOM      1  C   UNL A   1      35.461  33.002  29.255  1.00  0.00     0.188 C 
ENDROOT
BRANCH   1   2
ATOM      2  O   UNL A   1      35.040  32.825  27.917  1.00  0.00    -0.376 OA
BRANCH   2   3
ATOM      3  C   UNL A   1      33.714  32.352  27.721  1.00  0.00     0.202 C 
BRANCH   3   4
ATOM      4  C   UNL A   1      33.474  30.901  27.249  1.00  0.00     0.261 C 
BRANCH   4   5
ATOM      5  O   UNL A   1      32.109  30.472  27.129  1.00  0.00    -0.460 OA
BRANCH   5   6
ATOM      6  C   UNL A   1      31.602  30.357  25.885  1.00  0.00     0.338 C 
ATOM      7  O   UNL A   1      30.947  31.202  25.286  1.00  0.00    -0.246 OA
BRANCH   6   8
ATOM      8  C   UNL A   1      32.099  29.108  25.262  1.00  0.00     0.060 A 
ATOM      9  C   UNL A   1      33.008  26.670  24.228  1.00  0.00     0.067 A 
ATOM     10  C   UNL A   1      31.718  26.762  24.764  1.00  0.00     0.029 A 
ATOM     11  C   UNL A   1      33.805  27.821  24.121  1.00  0.00     0.029 A 
ATOM     12  C   UNL A   1      31.282  27.971  25.314  1.00  0.00     0.018 A 
ATOM     13  C   UNL A   1      33.342  29.045  24.622  1.00  0.00     0.018 A 
BRANCH   9  14
ATOM     14  N   UNL A   1      33.510  25.392  23.870  1.00  0.00    -0.217 N 
ATOM     15  C   UNL A   1      33.797  24.346  26.178  1.00  0.00     0.069 C 
ATOM     16  C   UNL A   1      33.910  24.359  24.702  1.00  0.00     0.071 A 
ATOM     17  C   UNL A   1      34.270  23.358  23.820  1.00  0.00     0.137 A 
ATOM     18  N   UNL A   1      34.040  23.752  22.537  1.00  0.00    -0.128 NA
ATOM     19  N   UNL A   1      33.520  24.975  22.579  1.00  0.00    -0.061 NA
BRANCH  17  20
ATOM     20  C   UNL A   1      34.725  22.010  24.149  1.00  0.00     0.124 A 
ATOM     21  N   UNL A   1      33.960  20.933  23.932  1.00  0.00    -0.165 NA
ATOM     22  C   UNL A   1      35.930  21.691  24.818  1.00  0.00     0.044 A 
ATOM     23  N   UNL A   1      34.604  19.925  24.562  1.00  0.00    -0.240 N 
ATOM     24  C   UNL A   1      35.800  20.345  25.100  1.00  0.00     0.125 A 
BRANCH  22  25
ATOM     25  C   UNL A   1      37.063  22.499  25.188  1.00  0.00     0.166 C 
ATOM     26  N   UNL A   1      38.142  21.942  25.626  1.00  0.00    -0.097 NA
BRANCH  26  27
ATOM     27  O   UNL A   1      39.078  22.933  25.944  1.00  0.00    -0.411 OA
ATOM     28  H   UNL A   1      39.988  22.792  25.772  1.00  0.00     0.330 HD
ENDBRANCH  26  27
ENDBRANCH  22  25
BRANCH  23  29
ATOM     29  C   UNL A   1      34.029  18.635  24.656  1.00  0.00     0.065 A 
ATOM     30  C   UNL A   1      33.034  18.391  25.613  1.00  0.00     0.028 A 
ATOM     31  C   UNL A   1      34.459  17.601  23.813  1.00  0.00     0.028 A 
ATOM     32  C   UNL A   1      32.450  17.125  25.699  1.00  0.00     0.002 A 
ATOM     33  C   UNL A   1      33.902  16.327  23.939  1.00  0.00     0.002 A 
ATOM     34  C   UNL A   1      32.890  16.093  24.871  1.00  0.00     0.000 A 
ENDBRANCH  23  29
ENDBRANCH  17  20
ENDBRANCH   9  14
ENDBRANCH   6   8
ENDBRANCH   5   6
ENDBRANCH   4   5
ENDBRANCH   3   4
ENDBRANCH   2   3
ENDBRANCH   1   2
BRANCH   1  35
ATOM     35  C   UNL A   1      34.747  34.158  29.987  1.00  0.00     0.188 C 
BRANCH  35  36
ATOM     36  O   UNL A   1      34.035  33.945  31.202  1.00  0.00    -0.376 OA
BRANCH  36  37
ATOM     37  C   UNL A   1      34.439  32.951  32.136  1.00  0.00     0.202 C 
BRANCH  37  38
ATOM     38  C   UNL A   1      34.698  33.317  33.597  1.00  0.00     0.261 C 
BRANCH  38  39
ATOM     39  O   UNL A   1      35.997  33.832  33.846  1.00  0.00    -0.460 OA
BRANCH  39  40
ATOM     40  C   UNL A   1      36.421  33.661  35.110  1.00  0.00     0.338 C 
ATOM     41  O   UNL A   1      35.776  33.846  36.138  1.00  0.00    -0.246 OA
BRANCH  40  42
ATOM     42  C   UNL A   1      37.836  33.274  35.116  1.00  0.00     0.060 A 
ATOM     43  C   UNL A   1      38.725  34.189  34.550  1.00  0.00     0.016 A 
ATOM     44  C   UNL A   1      38.219  31.956  35.412  1.00  0.00     0.016 A 
ATOM     45  C   UNL A   1      39.913  33.716  34.044  1.00  0.00     0.010 A 
ATOM     46  C   UNL A   1      39.410  31.482  34.903  1.00  0.00     0.010 A 
ATOM     47  C   UNL A   1      40.184  32.346  34.131  1.00  0.00    -0.014 A 
BRANCH  47  48
ATOM     48  C   UNL A   1      41.228  31.848  33.262  1.00  0.00     0.031 A 
ATOM     49  C   UNL A   1      42.610  32.012  33.744  1.00  0.00     0.074 A 
ATOM     50  C   UNL A   1      40.957  31.308  32.060  1.00  0.00     0.049 A 
ATOM     51  N   UNL A   1      43.527  32.784  33.264  1.00  0.00    -0.248 NA
ATOM     52  C   UNL A   1      42.991  31.277  34.954  1.00  0.00     0.031 C 
ATOM     53  C   UNL A   1      39.669  30.840  31.540  1.00  0.00     0.029 A 
ATOM     54  N   UNL A   1      41.832  31.002  31.064  1.00  0.00    -0.354 N 
ATOM     55  C   UNL A   1      44.665  32.517  34.012  1.00  0.00     0.074 A 
ATOM     56  C   UNL A   1      44.255  31.669  35.104  1.00  0.00     0.031 C 
ATOM     57  C   UNL A   1      39.884  30.133  30.407  1.00  0.00     0.029 A 
ATOM     58  C   UNL A   1      41.295  30.219  30.061  1.00  0.00     0.049 A 
ATOM     59  H   UNL A   1      42.766  31.312  31.059  1.00  0.00     0.167 HD
ATOM     60  C   UNL A   1      45.906  32.854  33.573  1.00  0.00     0.037 A 
ATOM     61  C   UNL A   1      41.978  29.630  29.053  1.00  0.00     0.037 A 
ATOM     62  C   UNL A   1      45.872  33.844  32.533  1.00  0.00     0.049 A 
ATOM     63  C   UNL A   1      43.267  30.347  28.890  1.00  0.00     0.074 A 
ATOM     64  C   UNL A   1      45.422  35.148  32.442  1.00  0.00     0.029 A 
ATOM     65  N   UNL A   1      46.086  33.436  31.241  1.00  0.00    -0.354 N 
ATOM     66  N   UNL A   1      43.383  31.552  28.406  1.00  0.00    -0.248 NA
ATOM     67  C   UNL A   1      44.425  29.861  29.625  1.00  0.00     0.031 C 
ATOM     68  C   UNL A   1      44.965  35.298  31.100  1.00  0.00     0.029 A 
ATOM     69  C   UNL A   1      45.166  34.077  30.454  1.00  0.00     0.049 A 
ATOM     70  H   UNL A   1      46.774  32.800  30.936  1.00  0.00     0.167 HD
ATOM     71  C   UNL A   1      44.436  32.119  29.108  1.00  0.00     0.074 A 
ATOM     72  C   UNL A   1      45.113  30.998  29.749  1.00  0.00     0.031 C 
ATOM     73  C   UNL A   1      44.495  33.465  29.330  1.00  0.00     0.037 A 
BRANCH  60  74
ATOM     74  C   UNL A   1      47.133  32.050  33.885  1.00  0.00     0.057 A 
ATOM     75  C   UNL A   1      47.239  30.726  33.430  1.00  0.00     0.134 A 
ATOM     76  C   UNL A   1      48.094  32.444  34.840  1.00  0.00     0.134 A 
ATOM     77  F   UNL A   1      46.355  30.229  32.552  1.00  0.00    -0.206 F 
ATOM     78  C   UNL A   1      48.212  29.847  33.917  1.00  0.00     0.040 A 
ATOM     79  C   UNL A   1      49.101  31.591  35.292  1.00  0.00     0.040 A 
ATOM     80  F   UNL A   1      48.041  33.636  35.449  1.00  0.00    -0.206 F 
ATOM     81  C   UNL A   1      49.148  30.279  34.850  1.00  0.00     0.006 A 
ENDBRANCH  60  74
BRANCH  61  82
ATOM     82  C   UNL A   1      41.691  28.339  28.399  1.00  0.00     0.057 A 
ATOM     83  C   UNL A   1      41.936  27.122  29.045  1.00  0.00     0.134 A 
ATOM     84  C   UNL A   1      40.933  28.272  27.216  1.00  0.00     0.134 A 
ATOM     85  F   UNL A   1      42.608  27.089  30.205  1.00  0.00    -0.206 F 
ATOM     86  C   UNL A   1      41.446  25.906  28.550  1.00  0.00     0.040 A 
ATOM     87  C   UNL A   1      40.447  27.065  26.704  1.00  0.00     0.040 A 
ATOM     88  F   UNL A   1      40.564  29.383  26.562  1.00  0.00    -0.206 F 
ATOM     89  C   UNL A   1      40.694  25.878  27.379  1.00  0.00     0.006 A 
ENDBRANCH  61  82
BRANCH  73  90
ATOM     90  C   UNL A   1      43.561  34.335  28.539  1.00  0.00     0.057 A 
ATOM     91  C   UNL A   1      42.297  34.730  29.001  1.00  0.00     0.134 A 
ATOM     92  C   UNL A   1      44.004  34.899  27.338  1.00  0.00     0.134 A 
ATOM     93  F   UNL A   1      41.837  34.320  30.191  1.00  0.00    -0.206 F 
ATOM     94  C   UNL A   1      41.490  35.608  28.273  1.00  0.00     0.040 A 
ATOM     95  C   UNL A   1      43.220  35.802  26.616  1.00  0.00     0.040 A 
ATOM     96  F   UNL A   1      45.230  34.614  26.868  1.00  0.00    -0.206 F 
ATOM     97  C   UNL A   1      41.952  36.150  27.077  1.00  0.00     0.006 A 
ENDBRANCH  73  90
ENDBRANCH  47  48
ENDBRANCH  40  42
ENDBRANCH  39  40
ENDBRANCH  38  39
ENDBRANCH  37  38
ENDBRANCH  36  37
ENDBRANCH  35  36
ENDBRANCH   1  35
TORSDOF 22
ENDMDL
MODEL 2
REMARK VINA RESULT:      -9.9     10.342     15.815
REMARK SMILES Cc1c(-c2nn(-c3ccccc3)cc2/C=N/O)nnn1-c1ccc(C(=O)OCCOCCOCCOC(=O)c2ccc(-c3c4nc(c(-c5c(F)cccc5F)c5ccc([nH]5)c(-c5c(F)cccc5F)c5nc(c(-c6c(F)cccc6F)c6ccc3[nH]6)C=C5)C=C4)cc2)cc1
REMARK SMILES IDX 31 1 30 2 29 3 28 4 27 5 25 6 26 7 24 8 21 9 22 10 94 11
REMARK SMILES IDX 23 12 93 13 20 14 1 15 2 16 3 17 18 18 19 19 4 20 5 21 14 22
REMARK SMILES IDX 6 23 13 24 15 25 16 26 17 27 7 29 8 30 12 31 9 32 11 33
REMARK SMILES IDX 10 34 32 35 33 36 34 37 35 38 36 39 37 40 38 41 39 42 40 43
REMARK SMILES IDX 92 44 41 45 91 46 42 47 43 48 44 49 85 50 45 51 90 52 84 53
REMARK SMILES IDX 86 54 46 55 89 56 83 57 82 58 47 60 73 61 56 62 72 63 57 64
REMARK SMILES IDX 60 65 71 66 87 67 58 68 59 69 70 71 88 72 61 73 48 74 49 75
REMARK SMILES IDX 54 76 50 77 51 78 53 79 55 80 52 81 74 82 75 83 80 84 76 85
REMARK SMILES IDX 77 86 79 87 81 88 78 89 62 90 63 91 68 92 64 93 65 94 67 95
REMARK SMILES IDX 69 96 66 97
REMARK H PARENT 17 28 86 59 60 70
REMARK Flexibility Score: inf
ROOT
ATOM      1  C   UNL A   1      53.435  23.860  34.616  1.00  0.00     0.188 C 
ENDROOT
BRANCH   1   2
ATOM      2  O   UNL A   1      52.757  23.745  35.852  1.00  0.00    -0.376 OA
BRANCH   2   3
ATOM      3  C   UNL A   1      52.999  22.566  36.607  1.00  0.00     0.202 C 
BRANCH   3   4
ATOM      4  C   UNL A   1      52.686  21.181  35.998  1.00  0.00     0.261 C 
BRANCH   4   5
ATOM      5  O   UNL A   1      51.453  20.559  36.394  1.00  0.00    -0.460 OA
BRANCH   5   6
ATOM      6  C   UNL A   1      51.515  19.286  36.832  1.00  0.00     0.338 C 
ATOM      7  O   UNL A   1      52.254  18.405  36.407  1.00  0.00    -0.246 OA
BRANCH   6   8
ATOM      8  C   UNL A   1      50.666  19.137  38.038  1.00  0.00     0.060 A 
ATOM      9  C   UNL A   1      49.085  18.691  40.305  1.00  0.00     0.067 A 
ATOM     10  C   UNL A   1      50.396  18.202  40.263  1.00  0.00     0.029 A 
ATOM     11  C   UNL A   1      48.601  19.486  39.253  1.00  0.00     0.029 A 
ATOM     12  C   UNL A   1      51.169  18.393  39.114  1.00  0.00     0.018 A 
ATOM     13  C   UNL A   1      49.399  19.724  38.127  1.00  0.00     0.018 A 
BRANCH   9  14
ATOM     14  N   UNL A   1      48.246  18.308  41.383  1.00  0.00    -0.217 N 
ATOM     15  C   UNL A   1      46.396  17.091  40.117  1.00  0.00     0.069 C 
ATOM     16  C   UNL A   1      47.033  17.640  41.335  1.00  0.00     0.071 A 
ATOM     17  C   UNL A   1      46.688  17.507  42.667  1.00  0.00     0.137 A 
ATOM     18  N   UNL A   1      47.671  18.011  43.463  1.00  0.00    -0.128 NA
ATOM     19  N   UNL A   1      48.646  18.446  42.672  1.00  0.00    -0.061 NA
BRANCH  17  20
ATOM     20  C   UNL A   1      45.516  16.828  43.215  1.00  0.00     0.124 A 
ATOM     21  N   UNL A   1      45.390  15.496  43.180  1.00  0.00    -0.165 NA
ATOM     22  C   UNL A   1      44.361  17.468  43.722  1.00  0.00     0.044 A 
ATOM     23  N   UNL A   1      44.111  15.265  43.552  1.00  0.00    -0.240 N 
ATOM     24  C   UNL A   1      43.464  16.431  43.895  1.00  0.00     0.125 A 
BRANCH  22  25
ATOM     25  C   UNL A   1      44.076  18.851  44.002  1.00  0.00     0.166 C 
ATOM     26  N   UNL A   1      43.947  19.696  43.034  1.00  0.00    -0.097 NA
BRANCH  26  27
ATOM     27  O   UNL A   1      43.704  20.969  43.562  1.00  0.00    -0.411 OA
ATOM     28  H   UNL A   1      44.080  21.725  43.155  1.00  0.00     0.330 HD
ENDBRANCH  26  27
ENDBRANCH  22  25
BRANCH  23  29
ATOM     29  C   UNL A   1      43.564  13.960  43.519  1.00  0.00     0.065 A 
ATOM     30  C   UNL A   1      42.398  13.719  42.779  1.00  0.00     0.028 A 
ATOM     31  C   UNL A   1      44.169  12.916  44.233  1.00  0.00     0.028 A 
ATOM     32  C   UNL A   1      41.863  12.430  42.728  1.00  0.00     0.002 A 
ATOM     33  C   UNL A   1      43.599  11.642  44.214  1.00  0.00     0.002 A 
ATOM     34  C   UNL A   1      42.456  11.396  43.452  1.00  0.00     0.000 A 
ENDBRANCH  23  29
ENDBRANCH  17  20
ENDBRANCH   9  14
ENDBRANCH   6   8
ENDBRANCH   5   6
ENDBRANCH   4   5
ENDBRANCH   3   4
ENDBRANCH   2   3
ENDBRANCH   1   2
BRANCH   1  35
ATOM     35  C   UNL A   1      52.707  24.749  33.585  1.00  0.00     0.188 C 
BRANCH  35  36
ATOM     36  O   UNL A   1      51.678  24.230  32.747  1.00  0.00    -0.376 OA
BRANCH  36  37
ATOM     37  C   UNL A   1      51.351  22.845  32.741  1.00  0.00     0.202 C 
BRANCH  37  38
ATOM     38  C   UNL A   1      50.234  22.307  33.633  1.00  0.00     0.261 C 
BRANCH  38  39
ATOM     39  O   UNL A   1      49.661  23.278  34.497  1.00  0.00    -0.460 OA
BRANCH  39  40
ATOM     40  C   UNL A   1      48.429  22.962  34.935  1.00  0.00     0.338 C 
ATOM     41  O   UNL A   1      48.079  21.911  35.461  1.00  0.00    -0.246 OA
BRANCH  40  42
ATOM     42  C   UNL A   1      47.495  24.051  34.630  1.00  0.00     0.060 A 
ATOM     43  C   UNL A   1      46.168  23.846  35.010  1.00  0.00     0.016 A 
ATOM     44  C   UNL A   1      47.864  25.092  33.763  1.00  0.00     0.016 A 
ATOM     45  C   UNL A   1      45.182  24.518  34.325  1.00  0.00     0.010 A 
ATOM     46  C   UNL A   1      46.875  25.765  33.075  1.00  0.00     0.010 A 
ATOM     47  C   UNL A   1      45.552  25.385  33.290  1.00  0.00    -0.014 A 
BRANCH  47  48
ATOM     48  C   UNL A   1      44.503  25.754  32.365  1.00  0.00     0.031 A 
ATOM     49  C   UNL A   1      44.316  24.866  31.205  1.00  0.00     0.074 A 
ATOM     50  C   UNL A   1      43.770  26.870  32.528  1.00  0.00     0.049 A 
ATOM     51  N   UNL A   1      44.559  25.127  29.963  1.00  0.00    -0.248 NA
ATOM     52  C   UNL A   1      43.871  23.496  31.474  1.00  0.00     0.031 C 
ATOM     53  C   UNL A   1      43.642  27.712  33.721  1.00  0.00     0.029 A 
ATOM     54  N   UNL A   1      42.915  27.446  31.640  1.00  0.00    -0.354 N 
ATOM     55  C   UNL A   1      44.143  24.005  29.261  1.00  0.00     0.074 A 
ATOM     56  C   UNL A   1      43.834  22.992  30.241  1.00  0.00     0.031 C 
ATOM     57  C   UNL A   1      42.614  28.571  33.543  1.00  0.00     0.029 A 
ATOM     58  C   UNL A   1      42.111  28.428  32.185  1.00  0.00     0.049 A 
ATOM     59  H   UNL A   1      42.872  27.185  30.692  1.00  0.00     0.167 HD
ATOM     60  C   UNL A   1      43.898  24.046  27.925  1.00  0.00     0.037 A 
ATOM     61  C   UNL A   1      41.065  29.033  31.579  1.00  0.00     0.037 A 
ATOM     62  C   UNL A   1      44.502  25.184  27.290  1.00  0.00     0.049 A 
ATOM     63  C   UNL A   1      41.221  28.865  30.113  1.00  0.00     0.074 A 
ATOM     64  C   UNL A   1      45.797  25.635  27.124  1.00  0.00     0.029 A 
ATOM     65  N   UNL A   1      43.695  26.241  26.950  1.00  0.00    -0.354 N 
ATOM     66  N   UNL A   1      42.124  29.473  29.395  1.00  0.00    -0.248 NA
ATOM     67  C   UNL A   1      40.599  27.712  29.480  1.00  0.00     0.031 C 
ATOM     68  C   UNL A   1      45.706  27.057  27.131  1.00  0.00     0.029 A 
ATOM     69  C   UNL A   1      44.361  27.387  27.298  1.00  0.00     0.049 A 
ATOM     70  H   UNL A   1      42.804  26.186  26.534  1.00  0.00     0.167 HD
ATOM     71  C   UNL A   1      42.472  28.558  28.412  1.00  0.00     0.074 A 
ATOM     72  C   UNL A   1      41.419  27.551  28.439  1.00  0.00     0.031 C 
ATOM     73  C   UNL A   1      43.721  28.555  27.860  1.00  0.00     0.037 A 
BRANCH  60  74
ATOM     74  C   UNL A   1      42.848  23.208  27.258  1.00  0.00     0.057 A 
ATOM     75  C   UNL A   1      41.505  23.322  27.653  1.00  0.00     0.134 A 
ATOM     76  C   UNL A   1      43.148  22.107  26.430  1.00  0.00     0.134 A 
ATOM     77  F   UNL A   1      41.111  24.306  28.474  1.00  0.00    -0.206 F 
ATOM     78  C   UNL A   1      40.537  22.385  27.276  1.00  0.00     0.040 A 
ATOM     79  C   UNL A   1      42.179  21.197  26.005  1.00  0.00     0.040 A 
ATOM     80  F   UNL A   1      44.405  21.807  26.076  1.00  0.00    -0.206 F 
ATOM     81  C   UNL A   1      40.872  21.320  26.448  1.00  0.00     0.006 A 
ENDBRANCH  60  74
BRANCH  61  82
ATOM     82  C   UNL A   1      39.820  29.524  32.201  1.00  0.00     0.057 A 
ATOM     83  C   UNL A   1      39.556  30.893  32.327  1.00  0.00     0.134 A 
ATOM     84  C   UNL A   1      38.742  28.658  32.461  1.00  0.00     0.134 A 
ATOM     85  F   UNL A   1      40.506  31.798  32.053  1.00  0.00    -0.206 F 
ATOM     86  C   UNL A   1      38.289  31.375  32.681  1.00  0.00     0.040 A 
ATOM     87  C   UNL A   1      37.476  29.124  32.827  1.00  0.00     0.040 A 
ATOM     88  F   UNL A   1      38.857  27.334  32.286  1.00  0.00    -0.206 F 
ATOM     89  C   UNL A   1      37.244  30.489  32.926  1.00  0.00     0.006 A 
ENDBRANCH  61  82
BRANCH  73  90
ATOM     90  C   UNL A   1      44.595  29.747  28.125  1.00  0.00     0.057 A 
ATOM     91  C   UNL A   1      44.538  30.929  27.372  1.00  0.00     0.134 A 
ATOM     92  C   UNL A   1      45.419  29.753  29.256  1.00  0.00     0.134 A 
ATOM     93  F   UNL A   1      43.698  31.047  26.334  1.00  0.00    -0.206 F 
ATOM     94  C   UNL A   1      45.308  32.048  27.700  1.00  0.00     0.040 A 
ATOM     95  C   UNL A   1      46.170  30.874  29.613  1.00  0.00     0.040 A 
ATOM     96  F   UNL A   1      45.474  28.677  30.059  1.00  0.00    -0.206 F 
ATOM     97  C   UNL A   1      46.126  32.024  28.827  1.00  0.00     0.006 A 
ENDBRANCH  73  90
ENDBRANCH  47  48
ENDBRANCH  40  42
ENDBRANCH  39  40
ENDBRANCH  38  39
ENDBRANCH  37  38
ENDBRANCH  36  37
ENDBRANCH  35  36
ENDBRANCH   1  35
TORSDOF 22
ENDMDL
MODEL 3
REMARK VINA RESULT:      -9.8      5.294      8.876
REMARK SMILES Cc1c(-c2nn(-c3ccccc3)cc2/C=N/O)nnn1-c1ccc(C(=O)OCCOCCOCCOC(=O)c2ccc(-c3c4nc(c(-c5c(F)cccc5F)c5ccc([nH]5)c(-c5c(F)cccc5F)c5nc(c(-c6c(F)cccc6F)c6ccc3[nH]6)C=C5)C=C4)cc2)cc1
REMARK SMILES IDX 31 1 30 2 29 3 28 4 27 5 25 6 26 7 24 8 21 9 22 10 94 11
REMARK SMILES IDX 23 12 93 13 20 14 1 15 2 16 3 17 18 18 19 19 4 20 5 21 14 22
REMARK SMILES IDX 6 23 13 24 15 25 16 26 17 27 7 29 8 30 12 31 9 32 11 33
REMARK SMILES IDX 10 34 32 35 33 36 34 37 35 38 36 39 37 40 38 41 39 42 40 43
REMARK SMILES IDX 92 44 41 45 91 46 42 47 43 48 44 49 85 50 45 51 90 52 84 53
REMARK SMILES IDX 86 54 46 55 89 56 83 57 82 58 47 60 73 61 56 62 72 63 57 64
REMARK SMILES IDX 60 65 71 66 87 67 58 68 59 69 70 71 88 72 61 73 48 74 49 75
REMARK SMILES IDX 54 76 50 77 51 78 53 79 55 80 52 81 74 82 75 83 80 84 76 85
REMARK SMILES IDX 77 86 79 87 81 88 78 89 62 90 63 91 68 92 64 93 65 94 67 95
REMARK SMILES IDX 69 96 66 97
REMARK H PARENT 17 28 86 59 60 70
REMARK Flexibility Score: inf
ROOT
ATOM      1  C   UNL A   1      34.519  33.088  32.995  1.00  0.00     0.188 C 
ENDROOT
BRANCH   1   2
ATOM      2  O   UNL A   1      34.436  33.095  31.583  1.00  0.00    -0.376 OA
BRANCH   2   3
ATOM      3  C   UNL A   1      35.216  32.129  30.892  1.00  0.00     0.202 C 
BRANCH   3   4
ATOM      4  C   UNL A   1      36.448  32.573  30.072  1.00  0.00     0.261 C 
BRANCH   4   5
ATOM      5  O   UNL A   1      37.292  31.535  29.551  1.00  0.00    -0.460 OA
BRANCH   5   6
ATOM      6  C   UNL A   1      38.533  31.428  30.067  1.00  0.00     0.338 C 
ATOM      7  O   UNL A   1      38.922  31.898  31.130  1.00  0.00    -0.246 OA
BRANCH   6   8
ATOM      8  C   UNL A   1      39.337  30.503  29.234  1.00  0.00     0.060 A 
ATOM      9  C   UNL A   1      40.956  28.880  27.626  1.00  0.00     0.067 A 
ATOM     10  C   UNL A   1      41.518  29.577  28.703  1.00  0.00     0.029 A 
ATOM     11  C   UNL A   1      39.568  28.920  27.415  1.00  0.00     0.029 A 
ATOM     12  C   UNL A   1      40.714  30.415  29.479  1.00  0.00     0.018 A 
ATOM     13  C   UNL A   1      38.756  29.717  28.232  1.00  0.00     0.018 A 
BRANCH   9  14
ATOM     14  N   UNL A   1      41.817  28.205  26.723  1.00  0.00    -0.217 N 
ATOM     15  C   UNL A   1      42.519  26.215  28.155  1.00  0.00     0.069 C 
ATOM     16  C   UNL A   1      42.556  27.053  26.935  1.00  0.00     0.071 A 
ATOM     17  C   UNL A   1      43.173  26.839  25.718  1.00  0.00     0.137 A 
ATOM     18  N   UNL A   1      42.775  27.776  24.814  1.00  0.00    -0.128 NA
ATOM     19  N   UNL A   1      41.901  28.573  25.420  1.00  0.00    -0.061 NA
BRANCH  17  20
ATOM     20  C   UNL A   1      44.042  25.724  25.349  1.00  0.00     0.124 A 
ATOM     21  N   UNL A   1      43.594  24.463  25.305  1.00  0.00    -0.165 NA
ATOM     22  C   UNL A   1      45.435  25.811  25.118  1.00  0.00     0.044 A 
ATOM     23  N   UNL A   1      44.708  23.710  25.162  1.00  0.00    -0.240 N 
ATOM     24  C   UNL A   1      45.835  24.491  25.037  1.00  0.00     0.125 A 
BRANCH  22  25
ATOM     25  C   UNL A   1      46.319  26.942  25.005  1.00  0.00     0.166 C 
ATOM     26  N   UNL A   1      46.858  27.234  23.869  1.00  0.00    -0.097 NA
BRANCH  26  27
ATOM     27  O   UNL A   1      47.692  28.347  24.026  1.00  0.00    -0.411 OA
ATOM     28  H   UNL A   1      48.588  28.230  24.276  1.00  0.00     0.330 HD
ENDBRANCH  26  27
ENDBRANCH  22  25
BRANCH  23  29
ATOM     29  C   UNL A   1      44.645  22.296  25.196  1.00  0.00     0.065 A 
ATOM     30  C   UNL A   1      45.788  21.547  24.887  1.00  0.00     0.028 A 
ATOM     31  C   UNL A   1      43.447  21.645  25.521  1.00  0.00     0.028 A 
ATOM     32  C   UNL A   1      45.738  20.152  24.936  1.00  0.00     0.002 A 
ATOM     33  C   UNL A   1      43.395  20.250  25.521  1.00  0.00     0.002 A 
ATOM     34  C   UNL A   1      44.542  19.505  25.242  1.00  0.00     0.000 A 
ENDBRANCH  23  29
ENDBRANCH  17  20
ENDBRANCH   9  14
ENDBRANCH   6   8
ENDBRANCH   5   6
ENDBRANCH   4   5
ENDBRANCH   3   4
ENDBRANCH   2   3
ENDBRANCH   1   2
BRANCH   1  35
ATOM     35  C   UNL A   1      35.574  34.061  33.563  1.00  0.00     0.188 C 
BRANCH  35  36
ATOM     36  O   UNL A   1      36.855  33.606  33.988  1.00  0.00    -0.376 OA
BRANCH  36  37
ATOM     37  C   UNL A   1      37.167  32.219  34.057  1.00  0.00     0.202 C 
BRANCH  37  38
ATOM     38  C   UNL A   1      37.759  31.620  35.331  1.00  0.00     0.261 C 
BRANCH  38  39
ATOM     39  O   UNL A   1      38.561  32.521  36.080  1.00  0.00    -0.460 OA
BRANCH  39  40
ATOM     40  C   UNL A   1      39.833  32.117  36.243  1.00  0.00     0.338 C 
ATOM     41  O   UNL A   1      40.216  31.022  36.643  1.00  0.00    -0.246 OA
BRANCH  40  42
ATOM     42  C   UNL A   1      40.752  33.219  35.936  1.00  0.00     0.060 A 
ATOM     43  C   UNL A   1      40.160  34.424  35.556  1.00  0.00     0.016 A 
ATOM     44  C   UNL A   1      42.125  32.982  35.763  1.00  0.00     0.016 A 
ATOM     45  C   UNL A   1      40.886  35.289  34.772  1.00  0.00     0.010 A 
ATOM     46  C   UNL A   1      42.853  33.849  34.975  1.00  0.00     0.010 A 
ATOM     47  C   UNL A   1      42.188  34.930  34.401  1.00  0.00    -0.014 A 
BRANCH  47  48
ATOM     48  C   UNL A   1      42.755  35.658  33.287  1.00  0.00     0.031 A 
ATOM     49  C   UNL A   1      42.838  34.930  32.009  1.00  0.00     0.074 A 
ATOM     50  C   UNL A   1      43.224  36.912  33.419  1.00  0.00     0.049 A 
ATOM     51  N   UNL A   1      43.901  34.526  31.398  1.00  0.00    -0.248 NA
ATOM     52  C   UNL A   1      41.575  34.545  31.373  1.00  0.00     0.031 C 
ATOM     53  C   UNL A   1      42.998  37.860  34.514  1.00  0.00     0.029 A 
ATOM     54  N   UNL A   1      43.966  37.625  32.529  1.00  0.00    -0.354 N 
ATOM     55  C   UNL A   1      43.456  33.971  30.206  1.00  0.00     0.074 A 
ATOM     56  C   UNL A   1      42.017  33.907  30.290  1.00  0.00     0.031 C 
ATOM     57  C   UNL A   1      43.425  39.084  34.130  1.00  0.00     0.029 A 
ATOM     58  C   UNL A   1      44.071  38.970  32.831  1.00  0.00     0.049 A 
ATOM     59  H   UNL A   1      44.391  37.219  31.740  1.00  0.00     0.167 HD
ATOM     60  C   UNL A   1      44.289  33.778  29.151  1.00  0.00     0.037 A 
ATOM     61  C   UNL A   1      44.595  39.929  32.035  1.00  0.00     0.037 A 
ATOM     62  C   UNL A   1      45.674  33.798  29.532  1.00  0.00     0.049 A 
ATOM     63  C   UNL A   1      45.480  39.272  31.043  1.00  0.00     0.074 A 
ATOM     64  C   UNL A   1      46.466  33.036  30.369  1.00  0.00     0.029 A 
ATOM     65  N   UNL A   1      46.409  34.921  29.247  1.00  0.00    -0.354 N 
ATOM     66  N   UNL A   1      46.632  38.731  31.327  1.00  0.00    -0.248 NA
ATOM     67  C   UNL A   1      44.909  38.875  29.764  1.00  0.00     0.031 C 
ATOM     68  C   UNL A   1      47.433  33.938  30.899  1.00  0.00     0.029 A 
ATOM     69  C   UNL A   1      47.174  35.195  30.351  1.00  0.00     0.049 A 
ATOM     70  H   UNL A   1      46.390  35.434  28.407  1.00  0.00     0.167 HD
ATOM     71  C   UNL A   1      46.732  37.638  30.480  1.00  0.00     0.074 A 
ATOM     72  C   UNL A   1      45.710  37.850  29.463  1.00  0.00     0.031 C 
ATOM     73  C   UNL A   1      47.444  36.529  30.837  1.00  0.00     0.037 A 
BRANCH  60  74
ATOM     74  C   UNL A   1      43.840  33.879  27.723  1.00  0.00     0.057 A 
ATOM     75  C   UNL A   1      44.189  32.875  26.806  1.00  0.00     0.134 A 
ATOM     76  C   UNL A   1      43.304  35.056  27.162  1.00  0.00     0.134 A 
ATOM     77  F   UNL A   1      44.745  31.727  27.221  1.00  0.00    -0.206 F 
ATOM     78  C   UNL A   1      44.046  33.046  25.424  1.00  0.00     0.040 A 
ATOM     79  C   UNL A   1      43.108  35.216  25.789  1.00  0.00     0.040 A 
ATOM     80  F   UNL A   1      43.040  36.139  27.905  1.00  0.00    -0.206 F 
ATOM     81  C   UNL A   1      43.502  34.218  24.913  1.00  0.00     0.006 A 
ENDBRANCH  60  74
BRANCH  61  82
ATOM     82  C   UNL A   1      44.180  41.341  31.928  1.00  0.00     0.057 A 
ATOM     83  C   UNL A   1      45.085  42.388  32.140  1.00  0.00     0.134 A 
ATOM     84  C   UNL A   1      42.940  41.698  31.367  1.00  0.00     0.134 A 
ATOM     85  F   UNL A   1      46.311  42.141  32.625  1.00  0.00    -0.206 F 
ATOM     86  C   UNL A   1      44.781  43.713  31.803  1.00  0.00     0.040 A 
ATOM     87  C   UNL A   1      42.618  43.017  31.037  1.00  0.00     0.040 A 
ATOM     88  F   UNL A   1      42.032  40.767  31.040  1.00  0.00    -0.206 F 
ATOM     89  C   UNL A   1      43.545  44.029  31.244  1.00  0.00     0.006 A 
ENDBRANCH  61  82
BRANCH  73  90
ATOM     90  C   UNL A   1      48.355  36.648  32.025  1.00  0.00     0.057 A 
ATOM     91  C   UNL A   1      47.921  36.489  33.349  1.00  0.00     0.134 A 
ATOM     92  C   UNL A   1      49.731  36.792  31.819  1.00  0.00     0.134 A 
ATOM     93  F   UNL A   1      46.635  36.242  33.630  1.00  0.00    -0.206 F 
ATOM     94  C   UNL A   1      48.814  36.525  34.424  1.00  0.00     0.040 A 
ATOM     95  C   UNL A   1      50.637  36.798  32.882  1.00  0.00     0.040 A 
ATOM     96  F   UNL A   1      50.224  36.886  30.573  1.00  0.00    -0.206 F 
ATOM     97  C   UNL A   1      50.178  36.677  34.192  1.00  0.00     0.006 A 
ENDBRANCH  73  90
ENDBRANCH  47  48
ENDBRANCH  40  42
ENDBRANCH  39  40
ENDBRANCH  38  39
ENDBRANCH  37  38
ENDBRANCH  36  37
ENDBRANCH  35  36
ENDBRANCH   1  35
TORSDOF 22
ENDMDL
