MODEL 1
REMARK VINA RESULT:     -11.2      0.000      0.000
REMARK SMILES CC(C)Cc1ccc(-c2cc(Cl)cc3c2O[C@H](C(F)(F)F)C(C(=O)OCCOCCOCCOC(=O)c2ccc(-c4c5nc(c(-c6c(F)cccc6F)c6ccc([nH]6)c(-c6c(F)cccc6F)c6nc(c(-c7c(F)cccc7F)c7ccc4[nH]7)C=C6)C=C5)cc2)=C3)cc1
REMARK SMILES IDX 29 1 28 2 27 3 26 4 25 5 23 6 24 7 22 8 9 9 10 10 15 11
REMARK SMILES IDX 11 12 14 13 16 14 12 15 13 16 91 17 17 18 8 19 5 20 6 21
REMARK SMILES IDX 93 22 7 23 92 24 4 25 2 26 1 27 3 28 18 29 19 30 20 31 21 32
REMARK SMILES IDX 30 33 31 34 32 35 33 36 34 37 35 38 36 39 37 40 38 41 90 42
REMARK SMILES IDX 39 43 89 44 40 45 41 46 42 47 83 48 43 49 88 50 82 51 84 52
REMARK SMILES IDX 44 53 87 54 81 55 80 56 45 58 71 59 54 60 70 61 55 62 58 63
REMARK SMILES IDX 69 64 85 65 56 66 57 67 68 69 86 70 59 71 46 72 47 73 52 74
REMARK SMILES IDX 48 75 49 76 51 77 53 78 50 79 72 80 73 81 78 82 74 83 75 84
REMARK SMILES IDX 77 85 79 86 76 87 60 88 61 89 66 90 62 91 63 92 65 93 67 94
REMARK SMILES IDX 64 95
REMARK H PARENT 84 57 58 68
REMARK Flexibility Score: inf
ROOT
ATOM      1  C   UNL A   1      33.055  35.575  29.667  1.00  0.00     0.188 C 
ENDROOT
BRANCH   1   2
ATOM      2  O   UNL A   1      34.200  34.815  29.324  1.00  0.00    -0.376 OA
BRANCH   2   3
ATOM      3  C   UNL A   1      34.182  34.189  28.043  1.00  0.00     0.202 C 
BRANCH   3   4
ATOM      4  C   UNL A   1      32.946  33.331  27.737  1.00  0.00     0.261 C 
BRANCH   4   5
ATOM      5  O   UNL A   1      33.245  32.283  26.778  1.00  0.00    -0.460 OA
BRANCH   5   6
ATOM      6  C   UNL A   1      32.377  31.249  26.777  1.00  0.00     0.338 C 
ATOM      7  O   UNL A   1      31.243  31.299  26.319  1.00  0.00    -0.246 OA
BRANCH   6   8
ATOM      8  C   UNL A   1      32.991  29.985  27.271  1.00  0.00     0.087 C 
ATOM      9  C   UNL A   1      33.415  26.648  24.860  1.00  0.00     0.026 A 
ATOM     10  C   UNL A   1      32.394  26.774  23.885  1.00  0.00     0.033 A 
ATOM     11  C   UNL A   1      33.360  27.580  25.903  1.00  0.00     0.135 A 
ATOM     12  C   UNL A   1      31.329  27.661  23.995  1.00  0.00     0.042 A 
ATOM     13  C   UNL A   1      32.147  28.265  26.137  1.00  0.00     0.019 A 
ATOM     14  O   UNL A   1      34.443  28.003  26.669  1.00  0.00    -0.475 OA
ATOM     15  Cl  UNL A   1      30.215  27.844  22.705  1.00  0.00    -0.084 Cl
ATOM     16  C   UNL A   1      31.155  28.358  25.169  1.00  0.00     0.032 A 
ATOM     17  C   UNL A   1      32.044  29.041  27.391  1.00  0.00     0.027 C 
ATOM     18  C   UNL A   1      34.388  29.502  26.884  1.00  0.00     0.316 C 
BRANCH   9  19
ATOM     19  C   UNL A   1      34.242  25.416  24.707  1.00  0.00    -0.015 A 
ATOM     20  C   UNL A   1      34.785  22.597  24.553  1.00  0.00    -0.048 A 
ATOM     21  C   UNL A   1      34.464  23.328  23.412  1.00  0.00     0.004 A 
ATOM     22  C   UNL A   1      34.907  23.297  25.762  1.00  0.00     0.004 A 
ATOM     23  C   UNL A   1      34.212  24.706  23.494  1.00  0.00     0.009 A 
ATOM     24  C   UNL A   1      34.650  24.686  25.836  1.00  0.00     0.009 A 
BRANCH  20  25
ATOM     25  C   UNL A   1      34.941  21.087  24.475  1.00  0.00     0.038 C 
BRANCH  25  26
ATOM     26  C   UNL A   1      33.697  20.305  24.953  1.00  0.00    -0.013 C 
ATOM     27  C   UNL A   1      32.415  20.891  24.360  1.00  0.00     0.008 C 
ATOM     28  C   UNL A   1      33.799  18.819  24.594  1.00  0.00     0.008 C 
ENDBRANCH  25  26
ENDBRANCH  20  25
ENDBRANCH   9  19
BRANCH  18  29
ATOM     29  C   UNL A   1      35.383  29.983  27.948  1.00  0.00     0.430 C 
ATOM     30  F   UNL A   1      35.825  28.974  28.729  1.00  0.00    -0.167 F 
ATOM     31  F   UNL A   1      36.459  30.587  27.396  1.00  0.00    -0.167 F 
ATOM     32  F   UNL A   1      34.801  30.897  28.767  1.00  0.00    -0.167 F 
ENDBRANCH  18  29
ENDBRANCH   6   8
ENDBRANCH   5   6
ENDBRANCH   4   5
ENDBRANCH   3   4
ENDBRANCH   2   3
ENDBRANCH   1   2
BRANCH   1  33
ATOM     33  C   UNL A   1      32.760  35.668  31.181  1.00  0.00     0.188 C 
BRANCH  33  34
ATOM     34  O   UNL A   1      33.428  36.630  31.983  1.00  0.00    -0.376 OA
BRANCH  34  35
ATOM     35  C   UNL A   1      34.640  36.279  32.638  1.00  0.00     0.202 C 
BRANCH  35  36
ATOM     36  C   UNL A   1      34.851  34.825  33.076  1.00  0.00     0.261 C 
BRANCH  36  37
ATOM     37  O   UNL A   1      35.801  34.092  32.280  1.00  0.00    -0.460 OA
BRANCH  37  38
ATOM     38  C   UNL A   1      35.426  32.836  31.943  1.00  0.00     0.338 C 
ATOM     39  O   UNL A   1      34.312  32.343  32.043  1.00  0.00    -0.246 OA
BRANCH  38  40
ATOM     40  C   UNL A   1      36.526  32.139  31.247  1.00  0.00     0.060 A 
ATOM     41  C   UNL A   1      37.110  31.044  31.889  1.00  0.00     0.016 A 
ATOM     42  C   UNL A   1      37.040  32.598  30.032  1.00  0.00     0.016 A 
ATOM     43  C   UNL A   1      38.223  30.422  31.326  1.00  0.00     0.010 A 
ATOM     44  C   UNL A   1      38.161  31.967  29.469  1.00  0.00     0.010 A 
ATOM     45  C   UNL A   1      38.767  30.877  30.113  1.00  0.00    -0.014 A 
BRANCH  45  46
ATOM     46  C   UNL A   1      40.048  30.306  29.608  1.00  0.00     0.031 A 
ATOM     47  C   UNL A   1      41.299  31.128  29.714  1.00  0.00     0.074 A 
ATOM     48  C   UNL A   1      40.125  29.064  29.090  1.00  0.00     0.049 A 
ATOM     49  N   UNL A   1      42.511  30.845  29.314  1.00  0.00    -0.248 NA
ATOM     50  C   UNL A   1      41.162  32.452  30.340  1.00  0.00     0.031 C 
ATOM     51  C   UNL A   1      39.005  28.142  28.969  1.00  0.00     0.029 A 
ATOM     52  N   UNL A   1      41.199  28.342  28.620  1.00  0.00    -0.354 N 
ATOM     53  C   UNL A   1      43.265  31.981  29.573  1.00  0.00     0.074 A 
ATOM     54  C   UNL A   1      42.391  32.930  30.228  1.00  0.00     0.031 C 
ATOM     55  C   UNL A   1      39.463  26.945  28.562  1.00  0.00     0.029 A 
ATOM     56  C   UNL A   1      40.898  27.034  28.307  1.00  0.00     0.049 A 
ATOM     57  H   UNL A   1      42.101  28.726  28.517  1.00  0.00     0.167 HD
ATOM     58  C   UNL A   1      44.551  32.235  29.239  1.00  0.00     0.037 A 
ATOM     59  C   UNL A   1      41.685  26.033  27.859  1.00  0.00     0.037 A 
ATOM     60  C   UNL A   1      45.415  31.308  28.559  1.00  0.00     0.049 A 
ATOM     61  C   UNL A   1      43.122  26.337  27.507  1.00  0.00     0.074 A 
ATOM     62  C   UNL A   1      46.711  31.509  28.118  1.00  0.00     0.029 A 
ATOM     63  N   UNL A   1      45.070  30.011  28.217  1.00  0.00    -0.354 N 
ATOM     64  N   UNL A   1      43.813  27.430  27.719  1.00  0.00    -0.248 NA
ATOM     65  C   UNL A   1      43.871  25.285  26.799  1.00  0.00     0.031 C 
ATOM     66  C   UNL A   1      47.134  30.348  27.464  1.00  0.00     0.029 A 
ATOM     67  C   UNL A   1      46.124  29.405  27.552  1.00  0.00     0.049 A 
ATOM     68  H   UNL A   1      44.206  29.584  28.415  1.00  0.00     0.167 HD
ATOM     69  C   UNL A   1      45.067  27.202  27.164  1.00  0.00     0.074 A 
ATOM     70  C   UNL A   1      45.061  25.850  26.649  1.00  0.00     0.031 C 
ATOM     71  C   UNL A   1      46.118  28.050  27.064  1.00  0.00     0.037 A 
BRANCH  58  72
ATOM     72  C   UNL A   1      45.057  33.619  29.505  1.00  0.00     0.057 A 
ATOM     73  C   UNL A   1      44.983  34.640  28.552  1.00  0.00     0.134 A 
ATOM     74  C   UNL A   1      45.638  33.925  30.743  1.00  0.00     0.134 A 
ATOM     75  F   UNL A   1      44.464  34.401  27.338  1.00  0.00    -0.206 F 
ATOM     76  C   UNL A   1      45.488  35.915  28.814  1.00  0.00     0.040 A 
ATOM     77  C   UNL A   1      46.122  35.200  31.026  1.00  0.00     0.040 A 
ATOM     78  F   UNL A   1      45.744  32.986  31.696  1.00  0.00    -0.206 F 
ATOM     79  C   UNL A   1      46.053  36.199  30.057  1.00  0.00     0.006 A 
ENDBRANCH  58  72
BRANCH  59  80
ATOM     80  C   UNL A   1      41.160  24.647  27.674  1.00  0.00     0.057 A 
ATOM     81  C   UNL A   1      41.630  23.593  28.473  1.00  0.00     0.134 A 
ATOM     82  C   UNL A   1      40.239  24.320  26.672  1.00  0.00     0.134 A 
ATOM     83  F   UNL A   1      42.543  23.825  29.429  1.00  0.00    -0.206 F 
ATOM     84  C   UNL A   1      41.218  22.273  28.271  1.00  0.00     0.040 A 
ATOM     85  C   UNL A   1      39.790  23.011  26.483  1.00  0.00     0.040 A 
ATOM     86  F   UNL A   1      39.762  25.270  25.853  1.00  0.00    -0.206 F 
ATOM     87  C   UNL A   1      40.287  21.981  27.277  1.00  0.00     0.006 A 
ENDBRANCH  59  80
BRANCH  71  88
ATOM     88  C   UNL A   1      47.366  27.554  26.392  1.00  0.00     0.057 A 
ATOM     89  C   UNL A   1      48.401  26.946  27.114  1.00  0.00     0.134 A 
ATOM     90  C   UNL A   1      47.487  27.596  24.997  1.00  0.00     0.134 A 
ATOM     91  F   UNL A   1      48.348  26.879  28.452  1.00  0.00    -0.206 F 
ATOM     92  C   UNL A   1      49.514  26.401  26.472  1.00  0.00     0.040 A 
ATOM     93  C   UNL A   1      48.584  27.034  24.343  1.00  0.00     0.040 A 
ATOM     94  F   UNL A   1      46.526  28.156  24.247  1.00  0.00    -0.206 F 
ATOM     95  C   UNL A   1      49.602  26.434  25.081  1.00  0.00     0.006 A 
ENDBRANCH  71  88
ENDBRANCH  45  46
ENDBRANCH  38  40
ENDBRANCH  37  38
ENDBRANCH  36  37
ENDBRANCH  35  36
ENDBRANCH  34  35
ENDBRANCH  33  34
ENDBRANCH   1  33
TORSDOF 21
ENDMDL
MODEL 2
REMARK VINA RESULT:     -11.0      4.671     10.258
REMARK SMILES CC(C)Cc1ccc(-c2cc(Cl)cc3c2O[C@H](C(F)(F)F)C(C(=O)OCCOCCOCCOC(=O)c2ccc(-c4c5nc(c(-c6c(F)cccc6F)c6ccc([nH]6)c(-c6c(F)cccc6F)c6nc(c(-c7c(F)cccc7F)c7ccc4[nH]7)C=C6)C=C5)cc2)=C3)cc1
REMARK SMILES IDX 29 1 28 2 27 3 26 4 25 5 23 6 24 7 22 8 9 9 10 10 15 11
REMARK SMILES IDX 11 12 14 13 16 14 12 15 13 16 91 17 17 18 8 19 5 20 6 21
REMARK SMILES IDX 93 22 7 23 92 24 4 25 2 26 1 27 3 28 18 29 19 30 20 31 21 32
REMARK SMILES IDX 30 33 31 34 32 35 33 36 34 37 35 38 36 39 37 40 38 41 90 42
REMARK SMILES IDX 39 43 89 44 40 45 41 46 42 47 83 48 43 49 88 50 82 51 84 52
REMARK SMILES IDX 44 53 87 54 81 55 80 56 45 58 71 59 54 60 70 61 55 62 58 63
REMARK SMILES IDX 69 64 85 65 56 66 57 67 68 69 86 70 59 71 46 72 47 73 52 74
REMARK SMILES IDX 48 75 49 76 51 77 53 78 50 79 72 80 73 81 78 82 74 83 75 84
REMARK SMILES IDX 77 85 79 86 76 87 60 88 61 89 66 90 62 91 63 92 65 93 67 94
REMARK SMILES IDX 64 95
REMARK H PARENT 84 57 58 68
REMARK Flexibility Score: inf
ROOT
ATOM      1  C   UNL A   1      38.757  20.374  25.419  1.00  0.00     0.188 C 
ENDROOT
BRANCH   1   2
ATOM      2  O   UNL A   1      37.909  21.402  24.939  1.00  0.00    -0.376 OA
BRANCH   2   3
ATOM      3  C   UNL A   1      36.806  21.752  25.774  1.00  0.00     0.202 C 
BRANCH   3   4
ATOM      4  C   UNL A   1      35.433  21.244  25.311  1.00  0.00     0.261 C 
BRANCH   4   5
ATOM      5  O   UNL A   1      35.094  21.744  23.991  1.00  0.00    -0.460 OA
BRANCH   5   6
ATOM      6  C   UNL A   1      33.808  22.127  23.841  1.00  0.00     0.338 C 
ATOM      7  O   UNL A   1      32.979  21.517  23.177  1.00  0.00    -0.246 OA
BRANCH   6   8
ATOM      8  C   UNL A   1      33.457  23.303  24.685  1.00  0.00     0.087 C 
ATOM      9  C   UNL A   1      31.212  26.465  23.238  1.00  0.00     0.026 A 
ATOM     10  C   UNL A   1      31.436  26.457  21.838  1.00  0.00     0.033 A 
ATOM     11  C   UNL A   1      32.014  25.585  23.974  1.00  0.00     0.135 A 
ATOM     12  C   UNL A   1      32.456  25.738  21.226  1.00  0.00     0.042 A 
ATOM     13  C   UNL A   1      33.198  25.091  23.382  1.00  0.00     0.019 A 
ATOM     14  O   UNL A   1      31.689  25.034  25.210  1.00  0.00    -0.475 OA
ATOM     15  Cl  UNL A   1      32.570  25.678  19.515  1.00  0.00    -0.084 Cl
ATOM     16  C   UNL A   1      33.399  25.112  22.008  1.00  0.00     0.032 A 
ATOM     17  C   UNL A   1      34.145  24.378  24.266  1.00  0.00     0.027 C 
ATOM     18  C   UNL A   1      32.063  23.566  25.252  1.00  0.00     0.316 C 
BRANCH   9  19
ATOM     19  C   UNL A   1      30.306  27.558  23.695  1.00  0.00    -0.015 A 
ATOM     20  C   UNL A   1      28.792  29.995  23.498  1.00  0.00    -0.048 A 
ATOM     21  C   UNL A   1      28.231  28.772  23.139  1.00  0.00     0.004 A 
ATOM     22  C   UNL A   1      30.091  29.985  24.027  1.00  0.00     0.004 A 
ATOM     23  C   UNL A   1      28.973  27.585  23.249  1.00  0.00     0.009 A 
ATOM     24  C   UNL A   1      30.832  28.785  24.133  1.00  0.00     0.009 A 
BRANCH  20  25
ATOM     25  C   UNL A   1      28.025  31.285  23.265  1.00  0.00     0.038 C 
BRANCH  25  26
ATOM     26  C   UNL A   1      28.727  32.265  22.299  1.00  0.00    -0.013 C 
ATOM     27  C   UNL A   1      28.150  32.155  20.886  1.00  0.00     0.008 C 
ATOM     28  C   UNL A   1      28.615  33.712  22.790  1.00  0.00     0.008 C 
ENDBRANCH  25  26
ENDBRANCH  20  25
ENDBRANCH   9  19
BRANCH  18  29
ATOM     29  C   UNL A   1      31.996  22.979  26.668  1.00  0.00     0.430 C 
ATOM     30  F   UNL A   1      33.176  23.076  27.318  1.00  0.00    -0.167 F 
ATOM     31  F   UNL A   1      31.052  23.587  27.422  1.00  0.00    -0.167 F 
ATOM     32  F   UNL A   1      31.670  21.661  26.625  1.00  0.00    -0.167 F 
ENDBRANCH  18  29
ENDBRANCH   6   8
ENDBRANCH   5   6
ENDBRANCH   4   5
ENDBRANCH   3   4
ENDBRANCH   2   3
ENDBRANCH   1   2
BRANCH   1  33
ATOM     33  C   UNL A   1      40.004  20.861  26.191  1.00  0.00     0.188 C 
BRANCH  33  34
ATOM     34  O   UNL A   1      41.194  20.086  26.190  1.00  0.00    -0.376 OA
BRANCH  34  35
ATOM     35  C   UNL A   1      42.436  20.706  26.494  1.00  0.00     0.202 C 
BRANCH  35  36
ATOM     36  C   UNL A   1      43.197  21.429  25.376  1.00  0.00     0.261 C 
BRANCH  36  37
ATOM     37  O   UNL A   1      42.649  22.709  25.010  1.00  0.00    -0.460 OA
BRANCH  37  38
ATOM     38  C   UNL A   1      43.457  23.771  25.238  1.00  0.00     0.338 C 
ATOM     39  O   UNL A   1      44.498  24.047  24.658  1.00  0.00    -0.246 OA
BRANCH  38  40
ATOM     40  C   UNL A   1      42.828  24.701  26.195  1.00  0.00     0.060 A 
ATOM     41  C   UNL A   1      43.241  26.036  26.170  1.00  0.00     0.016 A 
ATOM     42  C   UNL A   1      41.916  24.266  27.159  1.00  0.00     0.016 A 
ATOM     43  C   UNL A   1      42.760  26.929  27.126  1.00  0.00     0.010 A 
ATOM     44  C   UNL A   1      41.435  25.170  28.119  1.00  0.00     0.010 A 
ATOM     45  C   UNL A   1      41.856  26.509  28.116  1.00  0.00    -0.014 A 
BRANCH  45  46
ATOM     46  C   UNL A   1      41.477  27.433  29.223  1.00  0.00     0.031 A 
ATOM     47  C   UNL A   1      42.376  27.535  30.420  1.00  0.00     0.074 A 
ATOM     48  C   UNL A   1      40.373  28.203  29.168  1.00  0.00     0.049 A 
ATOM     49  N   UNL A   1      42.228  28.246  31.507  1.00  0.00    -0.248 NA
ATOM     50  C   UNL A   1      43.595  26.712  30.397  1.00  0.00     0.031 C 
ATOM     51  C   UNL A   1      39.440  28.241  28.051  1.00  0.00     0.029 A 
ATOM     52  N   UNL A   1      39.877  29.142  30.045  1.00  0.00    -0.354 N 
ATOM     53  C   UNL A   1      43.294  27.904  32.327  1.00  0.00     0.074 A 
ATOM     54  C   UNL A   1      44.118  26.975  31.584  1.00  0.00     0.031 C 
ATOM     55  C   UNL A   1      38.548  29.227  28.257  1.00  0.00     0.029 A 
ATOM     56  C   UNL A   1      38.789  29.836  29.562  1.00  0.00     0.049 A 
ATOM     57  H   UNL A   1      40.265  29.302  30.936  1.00  0.00     0.167 HD
ATOM     58  C   UNL A   1      43.531  28.279  33.604  1.00  0.00     0.037 A 
ATOM     59  C   UNL A   1      38.069  30.838  30.112  1.00  0.00     0.037 A 
ATOM     60  C   UNL A   1      42.699  29.177  34.359  1.00  0.00     0.049 A 
ATOM     61  C   UNL A   1      38.363  31.250  31.534  1.00  0.00     0.074 A 
ATOM     62  C   UNL A   1      42.826  29.556  35.683  1.00  0.00     0.029 A 
ATOM     63  N   UNL A   1      41.584  29.828  33.859  1.00  0.00    -0.354 N 
ATOM     64  N   UNL A   1      39.352  30.887  32.315  1.00  0.00    -0.248 NA
ATOM     65  C   UNL A   1      37.404  32.168  32.174  1.00  0.00     0.031 C 
ATOM     66  C   UNL A   1      41.759  30.400  36.000  1.00  0.00     0.029 A 
ATOM     67  C   UNL A   1      41.002  30.594  34.856  1.00  0.00     0.049 A 
ATOM     68  H   UNL A   1      41.254  29.757  32.934  1.00  0.00     0.167 HD
ATOM     69  C   UNL A   1      39.129  31.521  33.532  1.00  0.00     0.074 A 
ATOM     70  C   UNL A   1      37.940  32.330  33.376  1.00  0.00     0.031 C 
ATOM     71  C   UNL A   1      39.832  31.416  34.685  1.00  0.00     0.037 A 
BRANCH  58  72
ATOM     72  C   UNL A   1      44.683  27.620  34.299  1.00  0.00     0.057 A 
ATOM     73  C   UNL A   1      44.598  26.329  34.831  1.00  0.00     0.134 A 
ATOM     74  C   UNL A   1      45.898  28.304  34.441  1.00  0.00     0.134 A 
ATOM     75  F   UNL A   1      43.452  25.635  34.751  1.00  0.00    -0.206 F 
ATOM     76  C   UNL A   1      45.677  25.748  35.499  1.00  0.00     0.040 A 
ATOM     77  C   UNL A   1      46.990  27.724  35.083  1.00  0.00     0.040 A 
ATOM     78  F   UNL A   1      46.040  29.547  33.957  1.00  0.00    -0.206 F 
ATOM     79  C   UNL A   1      46.879  26.444  35.620  1.00  0.00     0.006 A 
ENDBRANCH  58  72
BRANCH  59  80
ATOM     80  C   UNL A   1      36.974  31.519  29.360  1.00  0.00     0.057 A 
ATOM     81  C   UNL A   1      35.742  30.879  29.156  1.00  0.00     0.134 A 
ATOM     82  C   UNL A   1      37.137  32.780  28.774  1.00  0.00     0.134 A 
ATOM     83  F   UNL A   1      35.527  29.652  29.655  1.00  0.00    -0.206 F 
ATOM     84  C   UNL A   1      34.728  31.457  28.387  1.00  0.00     0.040 A 
ATOM     85  C   UNL A   1      36.119  33.387  28.035  1.00  0.00     0.040 A 
ATOM     86  F   UNL A   1      38.295  33.445  28.905  1.00  0.00    -0.206 F 
ATOM     87  C   UNL A   1      34.912  32.721  27.831  1.00  0.00     0.006 A 
ENDBRANCH  59  80
BRANCH  71  88
ATOM     88  C   UNL A   1      39.361  32.201  35.874  1.00  0.00     0.057 A 
ATOM     89  C   UNL A   1      39.778  33.519  36.101  1.00  0.00     0.134 A 
ATOM     90  C   UNL A   1      38.403  31.667  36.746  1.00  0.00     0.134 A 
ATOM     91  F   UNL A   1      40.698  34.087  35.308  1.00  0.00    -0.206 F 
ATOM     92  C   UNL A   1      39.263  34.275  37.156  1.00  0.00     0.040 A 
ATOM     93  C   UNL A   1      37.863  32.421  37.788  1.00  0.00     0.040 A 
ATOM     94  F   UNL A   1      37.953  30.414  36.576  1.00  0.00    -0.206 F 
ATOM     95  C   UNL A   1      38.293  33.730  37.995  1.00  0.00     0.006 A 
ENDBRANCH  71  88
ENDBRANCH  45  46
ENDBRANCH  38  40
ENDBRANCH  37  38
ENDBRANCH  36  37
ENDBRANCH  35  36
ENDBRANCH  34  35
ENDBRANCH  33  34
ENDBRANCH   1  33
TORSDOF 21
ENDMDL
MODEL 3
REMARK VINA RESULT:     -10.9      5.006     10.539
REMARK SMILES CC(C)Cc1ccc(-c2cc(Cl)cc3c2O[C@H](C(F)(F)F)C(C(=O)OCCOCCOCCOC(=O)c2ccc(-c4c5nc(c(-c6c(F)cccc6F)c6ccc([nH]6)c(-c6c(F)cccc6F)c6nc(c(-c7c(F)cccc7F)c7ccc4[nH]7)C=C6)C=C5)cc2)=C3)cc1
REMARK SMILES IDX 29 1 28 2 27 3 26 4 25 5 23 6 24 7 22 8 9 9 10 10 15 11
REMARK SMILES IDX 11 12 14 13 16 14 12 15 13 16 91 17 17 18 8 19 5 20 6 21
REMARK SMILES IDX 93 22 7 23 92 24 4 25 2 26 1 27 3 28 18 29 19 30 20 31 21 32
REMARK SMILES IDX 30 33 31 34 32 35 33 36 34 37 35 38 36 39 37 40 38 41 90 42
REMARK SMILES IDX 39 43 89 44 40 45 41 46 42 47 83 48 43 49 88 50 82 51 84 52
REMARK SMILES IDX 44 53 87 54 81 55 80 56 45 58 71 59 54 60 70 61 55 62 58 63
REMARK SMILES IDX 69 64 85 65 56 66 57 67 68 69 86 70 59 71 46 72 47 73 52 74
REMARK SMILES IDX 48 75 49 76 51 77 53 78 50 79 72 80 73 81 78 82 74 83 75 84
REMARK SMILES IDX 77 85 79 86 76 87 60 88 61 89 66 90 62 91 63 92 65 93 67 94
REMARK SMILES IDX 64 95
REMARK H PARENT 84 57 58 68
REMARK Flexibility Score: inf
ROOT
ATOM      1  C   UNL A   1      38.488  20.796  25.369  1.00  0.00     0.188 C 
ENDROOT
BRANCH   1   2
ATOM      2  O   UNL A   1      37.387  21.589  24.963  1.00  0.00    -0.376 OA
BRANCH   2   3
ATOM      3  C   UNL A   1      36.194  21.457  25.735  1.00  0.00     0.202 C 
BRANCH   3   4
ATOM      4  C   UNL A   1      35.004  20.806  25.016  1.00  0.00     0.261 C 
BRANCH   4   5
ATOM      5  O   UNL A   1      34.573  21.591  23.874  1.00  0.00    -0.460 OA
BRANCH   5   6
ATOM      6  C   UNL A   1      33.256  21.885  23.850  1.00  0.00     0.338 C 
ATOM      7  O   UNL A   1      32.404  21.196  23.302  1.00  0.00    -0.246 OA
BRANCH   6   8
ATOM      8  C   UNL A   1      32.917  23.073  24.683  1.00  0.00     0.087 C 
ATOM      9  C   UNL A   1      31.036  26.406  23.109  1.00  0.00     0.026 A 
ATOM     10  C   UNL A   1      31.379  26.401  21.734  1.00  0.00     0.033 A 
ATOM     11  C   UNL A   1      31.706  25.461  23.894  1.00  0.00     0.135 A 
ATOM     12  C   UNL A   1      32.395  25.618  21.198  1.00  0.00     0.042 A 
ATOM     13  C   UNL A   1      32.899  24.891  23.397  1.00  0.00     0.019 A 
ATOM     14  O   UNL A   1      31.237  24.919  25.088  1.00  0.00    -0.475 OA
ATOM     15  Cl  UNL A   1      32.652  25.572  19.503  1.00  0.00    -0.084 Cl
ATOM     16  C   UNL A   1      33.220  24.915  22.046  1.00  0.00     0.032 A 
ATOM     17  C   UNL A   1      33.713  24.100  24.345  1.00  0.00     0.027 C 
ATOM     18  C   UNL A   1      31.501  23.428  25.134  1.00  0.00     0.316 C 
BRANCH   9  19
ATOM     19  C   UNL A   1      30.173  27.556  23.508  1.00  0.00    -0.015 A 
ATOM     20  C   UNL A   1      28.589  29.928  23.138  1.00  0.00    -0.048 A 
ATOM     21  C   UNL A   1      28.014  28.661  23.055  1.00  0.00     0.004 A 
ATOM     22  C   UNL A   1      29.947  30.004  23.481  1.00  0.00     0.004 A 
ATOM     23  C   UNL A   1      28.792  27.509  23.248  1.00  0.00     0.009 A 
ATOM     24  C   UNL A   1      30.724  28.838  23.674  1.00  0.00     0.009 A 
BRANCH  20  25
ATOM     25  C   UNL A   1      27.767  31.163  22.812  1.00  0.00     0.038 C 
BRANCH  25  26
ATOM     26  C   UNL A   1      28.569  32.278  22.104  1.00  0.00    -0.013 C 
ATOM     27  C   UNL A   1      27.823  32.796  20.873  1.00  0.00     0.008 C 
ATOM     28  C   UNL A   1      28.867  33.443  23.054  1.00  0.00     0.008 C 
ENDBRANCH  25  26
ENDBRANCH  20  25
ENDBRANCH   9  19
BRANCH  18  29
ATOM     29  C   UNL A   1      31.270  22.829  26.527  1.00  0.00     0.430 C 
ATOM     30  F   UNL A   1      30.092  22.173  26.613  1.00  0.00    -0.167 F 
ATOM     31  F   UNL A   1      32.254  21.971  26.877  1.00  0.00    -0.167 F 
ATOM     32  F   UNL A   1      31.252  23.806  27.471  1.00  0.00    -0.167 F 
ENDBRANCH  18  29
ENDBRANCH   6   8
ENDBRANCH   5   6
ENDBRANCH   4   5
ENDBRANCH   3   4
ENDBRANCH   2   3
ENDBRANCH   1   2
BRANCH   1  33
ATOM     33  C   UNL A   1      39.551  21.535  26.213  1.00  0.00     0.188 C 
BRANCH  33  34
ATOM     34  O   UNL A   1      40.926  21.204  26.081  1.00  0.00    -0.376 OA
BRANCH  34  35
ATOM     35  C   UNL A   1      41.909  22.043  26.672  1.00  0.00     0.202 C 
BRANCH  35  36
ATOM     36  C   UNL A   1      42.292  23.348  25.964  1.00  0.00     0.261 C 
BRANCH  36  37
ATOM     37  O   UNL A   1      41.340  24.416  26.123  1.00  0.00    -0.460 OA
BRANCH  37  38
ATOM     38  C   UNL A   1      41.826  25.662  25.914  1.00  0.00     0.338 C 
ATOM     39  O   UNL A   1      42.105  26.178  24.842  1.00  0.00    -0.246 OA
BRANCH  38  40
ATOM     40  C   UNL A   1      41.825  26.434  27.172  1.00  0.00     0.060 A 
ATOM     41  C   UNL A   1      40.978  26.004  28.197  1.00  0.00     0.016 A 
ATOM     42  C   UNL A   1      42.568  27.608  27.320  1.00  0.00     0.016 A 
ATOM     43  C   UNL A   1      40.858  26.761  29.361  1.00  0.00     0.010 A 
ATOM     44  C   UNL A   1      42.443  28.366  28.495  1.00  0.00     0.010 A 
ATOM     45  C   UNL A   1      41.582  27.953  29.525  1.00  0.00    -0.014 A 
BRANCH  45  46
ATOM     46  C   UNL A   1      41.321  28.831  30.702  1.00  0.00     0.031 A 
ATOM     47  C   UNL A   1      40.119  29.728  30.683  1.00  0.00     0.074 A 
ATOM     48  C   UNL A   1      42.111  28.820  31.794  1.00  0.00     0.049 A 
ATOM     49  N   UNL A   1      39.718  30.592  31.578  1.00  0.00    -0.248 NA
ATOM     50  C   UNL A   1      39.265  29.654  29.488  1.00  0.00     0.031 C 
ATOM     51  C   UNL A   1      43.279  27.969  31.967  1.00  0.00     0.029 A 
ATOM     52  N   UNL A   1      42.021  29.504  32.985  1.00  0.00    -0.354 N 
ATOM     53  C   UNL A   1      38.608  31.216  31.026  1.00  0.00     0.074 A 
ATOM     54  C   UNL A   1      38.357  30.582  29.749  1.00  0.00     0.031 C 
ATOM     55  C   UNL A   1      43.734  28.098  33.226  1.00  0.00     0.029 A 
ATOM     56  C   UNL A   1      42.945  29.107  33.927  1.00  0.00     0.049 A 
ATOM     57  H   UNL A   1      41.355  30.211  33.150  1.00  0.00     0.167 HD
ATOM     58  C   UNL A   1      37.900  32.262  31.509  1.00  0.00     0.037 A 
ATOM     59  C   UNL A   1      43.137  29.517  35.199  1.00  0.00     0.037 A 
ATOM     60  C   UNL A   1      38.163  32.916  32.762  1.00  0.00     0.049 A 
ATOM     61  C   UNL A   1      42.324  30.677  35.721  1.00  0.00     0.074 A 
ATOM     62  C   UNL A   1      37.541  34.030  33.296  1.00  0.00     0.029 A 
ATOM     63  N   UNL A   1      39.131  32.522  33.671  1.00  0.00    -0.354 N 
ATOM     64  N   UNL A   1      41.302  31.287  35.171  1.00  0.00    -0.248 NA
ATOM     65  C   UNL A   1      42.730  31.246  37.018  1.00  0.00     0.031 C 
ATOM     66  C   UNL A   1      38.164  34.340  34.508  1.00  0.00     0.029 A 
ATOM     67  C   UNL A   1      39.134  33.383  34.756  1.00  0.00     0.049 A 
ATOM     68  H   UNL A   1      39.727  31.746  33.563  1.00  0.00     0.167 HD
ATOM     69  C   UNL A   1      40.953  32.310  36.045  1.00  0.00     0.074 A 
ATOM     70  C   UNL A   1      41.838  32.212  37.185  1.00  0.00     0.031 C 
ATOM     71  C   UNL A   1      40.003  33.264  35.899  1.00  0.00     0.037 A 
BRANCH  58  72
ATOM     72  C   UNL A   1      36.844  32.834  30.614  1.00  0.00     0.057 A 
ATOM     73  C   UNL A   1      37.131  33.782  29.626  1.00  0.00     0.134 A 
ATOM     74  C   UNL A   1      35.511  32.426  30.757  1.00  0.00     0.134 A 
ATOM     75  F   UNL A   1      38.384  34.233  29.461  1.00  0.00    -0.206 F 
ATOM     76  C   UNL A   1      36.124  34.321  28.824  1.00  0.00     0.040 A 
ATOM     77  C   UNL A   1      34.501  32.936  29.944  1.00  0.00     0.040 A 
ATOM     78  F   UNL A   1      35.171  31.523  31.690  1.00  0.00    -0.206 F 
ATOM     79  C   UNL A   1      34.806  33.892  28.978  1.00  0.00     0.006 A 
ENDBRANCH  58  72
BRANCH  59  80
ATOM     80  C   UNL A   1      44.152  28.873  36.085  1.00  0.00     0.057 A 
ATOM     81  C   UNL A   1      45.485  29.314  36.082  1.00  0.00     0.134 A 
ATOM     82  C   UNL A   1      43.850  27.775  36.899  1.00  0.00     0.134 A 
ATOM     83  F   UNL A   1      45.857  30.337  35.298  1.00  0.00    -0.206 F 
ATOM     84  C   UNL A   1      46.474  28.680  36.838  1.00  0.00     0.040 A 
ATOM     85  C   UNL A   1      44.821  27.155  37.689  1.00  0.00     0.040 A 
ATOM     86  F   UNL A   1      42.604  27.281  36.937  1.00  0.00    -0.206 F 
ATOM     87  C   UNL A   1      46.140  27.600  37.652  1.00  0.00     0.006 A 
ENDBRANCH  59  80
BRANCH  71  88
ATOM     88  C   UNL A   1      39.842  34.276  36.996  1.00  0.00     0.057 A 
ATOM     89  C   UNL A   1      40.406  35.555  36.909  1.00  0.00     0.134 A 
ATOM     90  C   UNL A   1      39.033  34.000  38.105  1.00  0.00     0.134 A 
ATOM     91  F   UNL A   1      41.197  35.881  35.876  1.00  0.00    -0.206 F 
ATOM     92  C   UNL A   1      40.173  36.523  37.888  1.00  0.00     0.040 A 
ATOM     93  C   UNL A   1      38.774  34.967  39.078  1.00  0.00     0.040 A 
ATOM     94  F   UNL A   1      38.454  32.797  38.243  1.00  0.00    -0.206 F 
ATOM     95  C   UNL A   1      39.345  36.232  38.971  1.00  0.00     0.006 A 
ENDBRANCH  71  88
ENDBRANCH  45  46
ENDBRANCH  38  40
ENDBRANCH  37  38
ENDBRANCH  36  37
ENDBRANCH  35  36
ENDBRANCH  34  35
ENDBRANCH  33  34
ENDBRANCH   1  33
TORSDOF 21
ENDMDL
