MODEL 1
REMARK VINA RESULT:     -10.9      0.000      0.000
REMARK SMILES Cc1cc(F)cc(N[C@@](C)(C(=O)OCCOCCOCCOC(=O)c2ccc(-c3c4nc(c(-c5c(F)cccc5F)c5ccc([nH]5)c(-c5c(F)cccc5F)c5nc(c(-c6c(F)cccc6F)c6ccc3[nH]6)C=C5)C=C4)cc2)c2ccc(O)cc2)c1
REMARK SMILES IDX 17 1 16 2 15 3 14 4 13 5 11 6 12 7 9 8 10 9 8 10 7 12 1 13
REMARK SMILES IDX 2 14 3 15 86 16 4 17 5 18 6 19 79 20 80 21 85 22 81 23 84 24
REMARK SMILES IDX 82 25 83 26 18 28 19 29 20 30 21 31 22 32 23 33 24 34 25 35
REMARK SMILES IDX 26 36 78 37 27 38 77 39 28 40 29 41 30 42 71 43 31 44 76 45
REMARK SMILES IDX 70 46 72 47 32 48 75 49 69 50 68 51 33 53 59 54 42 55 58 56
REMARK SMILES IDX 43 57 46 58 57 59 73 60 44 61 45 62 56 64 74 65 47 66 34 67
REMARK SMILES IDX 35 68 40 69 36 70 37 71 39 72 41 73 38 74 60 75 61 76 66 77
REMARK SMILES IDX 62 78 63 79 65 80 67 81 64 82 48 83 49 84 54 85 50 86 51 87
REMARK SMILES IDX 53 88 55 89 52 90
REMARK H PARENT 8 11 83 27 72 52 46 63
REMARK Flexibility Score: inf
ROOT
ATOM      1  C   UNL A   1      33.621  33.121  27.999  1.00  0.00     0.188 C 
ENDROOT
BRANCH   1   2
ATOM      2  O   UNL A   1      34.309  31.874  27.880  1.00  0.00    -0.376 OA
BRANCH   2   3
ATOM      3  C   UNL A   1      33.668  30.795  27.215  1.00  0.00     0.202 C 
BRANCH   3   4
ATOM      4  C   UNL A   1      33.903  29.409  27.819  1.00  0.00     0.261 C 
BRANCH   4   5
ATOM      5  O   UNL A   1      33.688  28.332  26.886  1.00  0.00    -0.461 OA
BRANCH   5   6
ATOM      6  C   UNL A   1      32.442  27.775  26.894  1.00  0.00     0.336 C 
ATOM      7  O   UNL A   1      31.660  27.902  27.832  1.00  0.00    -0.249 OA
BRANCH   6   8
ATOM      8  C   UNL A   1      32.114  26.933  25.599  1.00  0.00     0.158 C 
ATOM      9  C   UNL A   1      31.566  25.617  26.204  1.00  0.00     0.053 C 
BRANCH   8  10
ATOM     10  N   UNL A   1      33.357  26.562  24.830  1.00  0.00    -0.366 N 
ATOM     11  H   UNL A   1      33.968  27.319  24.682  1.00  0.00     0.162 HD
BRANCH  10  12
ATOM     12  C   UNL A   1      33.814  25.370  24.291  1.00  0.00     0.038 A 
ATOM     13  C   UNL A   1      36.570  22.776  25.056  1.00  0.00     0.044 C 
ATOM     14  C   UNL A   1      35.396  23.465  24.424  1.00  0.00    -0.046 A 
ATOM     15  C   UNL A   1      34.782  22.861  23.329  1.00  0.00     0.042 A 
ATOM     16  C   UNL A   1      34.891  24.695  24.907  1.00  0.00     0.029 A 
ATOM     17  C   UNL A   1      33.735  23.512  22.710  1.00  0.00     0.125 A 
ATOM     18  F   UNL A   1      33.164  22.955  21.634  1.00  0.00    -0.207 F 
ATOM     19  C   UNL A   1      33.293  24.760  23.152  1.00  0.00     0.065 A 
ENDBRANCH  10  12
ENDBRANCH   8  10
BRANCH   8  20
ATOM     20  C   UNL A   1      31.040  27.638  24.748  1.00  0.00    -0.011 A 
ATOM     21  C   UNL A   1      29.998  26.900  24.145  1.00  0.00     0.010 A 
ATOM     22  C   UNL A   1      31.107  29.019  24.458  1.00  0.00     0.010 A 
ATOM     23  C   UNL A   1      29.128  27.496  23.228  1.00  0.00     0.046 A 
ATOM     24  C   UNL A   1      30.217  29.620  23.561  1.00  0.00     0.046 A 
ATOM     25  C   UNL A   1      29.257  28.844  22.929  1.00  0.00     0.115 A 
BRANCH  25  26
ATOM     26  O   UNL A   1      28.429  29.368  21.984  1.00  0.00    -0.508 OA
ATOM     27  H   UNL A   1      28.093  28.823  21.300  1.00  0.00     0.293 HD
ENDBRANCH  25  26
ENDBRANCH   8  20
ENDBRANCH   6   8
ENDBRANCH   5   6
ENDBRANCH   4   5
ENDBRANCH   3   4
ENDBRANCH   2   3
ENDBRANCH   1   2
BRANCH   1  28
ATOM     28  C   UNL A   1      34.403  34.446  27.994  1.00  0.00     0.188 C 
BRANCH  28  29
ATOM     29  O   UNL A   1      34.898  34.799  29.276  1.00  0.00    -0.376 OA
BRANCH  29  30
ATOM     30  C   UNL A   1      33.913  34.892  30.291  1.00  0.00     0.202 C 
BRANCH  30  31
ATOM     31  C   UNL A   1      34.379  34.185  31.566  1.00  0.00     0.261 C 
BRANCH  31  32
ATOM     32  O   UNL A   1      34.834  32.834  31.358  1.00  0.00    -0.460 OA
BRANCH  32  33
ATOM     33  C   UNL A   1      35.649  32.326  32.308  1.00  0.00     0.338 C 
ATOM     34  O   UNL A   1      35.488  32.364  33.512  1.00  0.00    -0.246 OA
BRANCH  33  35
ATOM     35  C   UNL A   1      36.714  31.555  31.633  1.00  0.00     0.060 A 
ATOM     36  C   UNL A   1      37.567  30.770  32.411  1.00  0.00     0.016 A 
ATOM     37  C   UNL A   1      36.895  31.628  30.251  1.00  0.00     0.016 A 
ATOM     38  C   UNL A   1      38.619  30.070  31.818  1.00  0.00     0.010 A 
ATOM     39  C   UNL A   1      37.968  30.948  29.660  1.00  0.00     0.010 A 
ATOM     40  C   UNL A   1      38.853  30.187  30.444  1.00  0.00    -0.014 A 
BRANCH  40  41
ATOM     41  C   UNL A   1      40.122  29.673  29.866  1.00  0.00     0.031 A 
ATOM     42  C   UNL A   1      41.282  30.621  29.726  1.00  0.00     0.074 A 
ATOM     43  C   UNL A   1      40.263  28.388  29.492  1.00  0.00     0.049 A 
ATOM     44  N   UNL A   1      42.432  30.451  29.125  1.00  0.00    -0.248 NA
ATOM     45  C   UNL A   1      41.114  31.947  30.342  1.00  0.00     0.031 C 
ATOM     46  C   UNL A   1      39.250  27.345  29.637  1.00  0.00     0.029 A 
ATOM     47  N   UNL A   1      41.321  27.748  28.894  1.00  0.00    -0.354 N 
ATOM     48  C   UNL A   1      43.110  31.656  29.263  1.00  0.00     0.074 A 
ATOM     49  C   UNL A   1      42.242  32.550  29.999  1.00  0.00     0.031 C 
ATOM     50  C   UNL A   1      39.727  26.200  29.119  1.00  0.00     0.029 A 
ATOM     51  C   UNL A   1      41.064  26.438  28.573  1.00  0.00     0.049 A 
ATOM     52  H   UNL A   1      42.183  28.189  28.711  1.00  0.00     0.167 HD
ATOM     53  C   UNL A   1      44.342  31.992  28.812  1.00  0.00     0.037 A 
ATOM     54  C   UNL A   1      41.807  25.548  27.886  1.00  0.00     0.037 A 
ATOM     55  C   UNL A   1      45.215  31.098  28.097  1.00  0.00     0.049 A 
ATOM     56  C   UNL A   1      43.153  25.959  27.342  1.00  0.00     0.074 A 
ATOM     57  C   UNL A   1      46.485  31.345  27.603  1.00  0.00     0.029 A 
ATOM     58  N   UNL A   1      44.910  29.784  27.780  1.00  0.00    -0.354 N 
ATOM     59  N   UNL A   1      43.775  27.108  27.451  1.00  0.00    -0.248 NA
ATOM     60  C   UNL A   1      43.894  24.951  26.568  1.00  0.00     0.031 C 
ATOM     61  C   UNL A   1      46.929  30.193  26.946  1.00  0.00     0.029 A 
ATOM     62  C   UNL A   1      45.957  29.214  27.076  1.00  0.00     0.049 A 
ATOM     63  H   UNL A   1      44.073  29.325  28.019  1.00  0.00     0.167 HD
ATOM     64  C   UNL A   1      44.983  26.955  26.778  1.00  0.00     0.074 A 
ATOM     65  C   UNL A   1      45.015  25.596  26.279  1.00  0.00     0.031 C 
ATOM     66  C   UNL A   1      45.976  27.858  26.589  1.00  0.00     0.037 A 
BRANCH  53  67
ATOM     67  C   UNL A   1      44.795  33.404  29.034  1.00  0.00     0.057 A 
ATOM     68  C   UNL A   1      45.623  33.762  30.105  1.00  0.00     0.134 A 
ATOM     69  C   UNL A   1      44.407  34.418  28.149  1.00  0.00     0.134 A 
ATOM     70  F   UNL A   1      46.017  32.842  30.999  1.00  0.00    -0.206 F 
ATOM     71  C   UNL A   1      46.028  35.083  30.302  1.00  0.00     0.040 A 
ATOM     72  C   UNL A   1      44.825  35.738  28.322  1.00  0.00     0.040 A 
ATOM     73  F   UNL A   1      43.617  34.141  27.102  1.00  0.00    -0.206 F 
ATOM     74  C   UNL A   1      45.633  36.074  29.405  1.00  0.00     0.006 A 
ENDBRANCH  53  67
BRANCH  54  75
ATOM     75  C   UNL A   1      41.286  24.179  27.636  1.00  0.00     0.057 A 
ATOM     76  C   UNL A   1      40.287  23.946  26.684  1.00  0.00     0.134 A 
ATOM     77  C   UNL A   1      41.756  23.076  28.360  1.00  0.00     0.134 A 
ATOM     78  F   UNL A   1      39.776  24.967  25.979  1.00  0.00    -0.206 F 
ATOM     79  C   UNL A   1      39.764  22.670  26.469  1.00  0.00     0.040 A 
ATOM     80  C   UNL A   1      41.261  21.790  28.137  1.00  0.00     0.040 A 
ATOM     81  F   UNL A   1      42.711  23.233  29.288  1.00  0.00    -0.206 F 
ATOM     82  C   UNL A   1      40.257  21.586  27.194  1.00  0.00     0.006 A 
ENDBRANCH  54  75
BRANCH  66  83
ATOM     83  C   UNL A   1      47.193  27.404  25.836  1.00  0.00     0.057 A 
ATOM     84  C   UNL A   1      48.250  26.738  26.470  1.00  0.00     0.134 A 
ATOM     85  C   UNL A   1      47.285  27.590  24.450  1.00  0.00     0.134 A 
ATOM     86  F   UNL A   1      48.229  26.538  27.796  1.00  0.00    -0.206 F 
ATOM     87  C   UNL A   1      49.362  26.289  25.755  1.00  0.00     0.040 A 
ATOM     88  C   UNL A   1      48.380  27.122  23.721  1.00  0.00     0.040 A 
ATOM     89  F   UNL A   1      46.302  28.209  23.779  1.00  0.00    -0.206 F 
ATOM     90  C   UNL A   1      49.426  26.475  24.375  1.00  0.00     0.006 A 
ENDBRANCH  66  83
ENDBRANCH  40  41
ENDBRANCH  33  35
ENDBRANCH  32  33
ENDBRANCH  31  32
ENDBRANCH  30  31
ENDBRANCH  29  30
ENDBRANCH  28  29
ENDBRANCH   1  28
TORSDOF 21
ENDMDL
MODEL 2
REMARK VINA RESULT:     -10.6      4.074      8.804
REMARK SMILES Cc1cc(F)cc(N[C@@](C)(C(=O)OCCOCCOCCOC(=O)c2ccc(-c3c4nc(c(-c5c(F)cccc5F)c5ccc([nH]5)c(-c5c(F)cccc5F)c5nc(c(-c6c(F)cccc6F)c6ccc3[nH]6)C=C5)C=C4)cc2)c2ccc(O)cc2)c1
REMARK SMILES IDX 17 1 16 2 15 3 14 4 13 5 11 6 12 7 9 8 10 9 8 10 7 12 1 13
REMARK SMILES IDX 2 14 3 15 86 16 4 17 5 18 6 19 79 20 80 21 85 22 81 23 84 24
REMARK SMILES IDX 82 25 83 26 18 28 19 29 20 30 21 31 22 32 23 33 24 34 25 35
REMARK SMILES IDX 26 36 78 37 27 38 77 39 28 40 29 41 30 42 71 43 31 44 76 45
REMARK SMILES IDX 70 46 72 47 32 48 75 49 69 50 68 51 33 53 59 54 42 55 58 56
REMARK SMILES IDX 43 57 46 58 57 59 73 60 44 61 45 62 56 64 74 65 47 66 34 67
REMARK SMILES IDX 35 68 40 69 36 70 37 71 39 72 41 73 38 74 60 75 61 76 66 77
REMARK SMILES IDX 62 78 63 79 65 80 67 81 64 82 48 83 49 84 54 85 50 86 51 87
REMARK SMILES IDX 53 88 55 89 52 90
REMARK H PARENT 8 11 83 27 72 52 46 63
REMARK Flexibility Score: inf
ROOT
ATOM      1  C   UNL A   1      39.758  22.269  26.818  1.00  0.00     0.188 C 
ENDROOT
BRANCH   1   2
ATOM      2  O   UNL A   1      38.910  21.375  26.095  1.00  0.00    -0.376 OA
BRANCH   2   3
ATOM      3  C   UNL A   1      37.980  21.909  25.165  1.00  0.00     0.202 C 
BRANCH   3   4
ATOM      4  C   UNL A   1      36.776  22.635  25.771  1.00  0.00     0.261 C 
BRANCH   4   5
ATOM      5  O   UNL A   1      35.674  21.758  26.079  1.00  0.00    -0.461 OA
BRANCH   5   6
ATOM      6  C   UNL A   1      34.605  21.824  25.233  1.00  0.00     0.336 C 
ATOM      7  O   UNL A   1      34.722  21.927  24.015  1.00  0.00    -0.249 OA
BRANCH   6   8
ATOM      8  C   UNL A   1      33.209  21.782  25.970  1.00  0.00     0.158 C 
ATOM      9  C   UNL A   1      33.632  21.808  27.460  1.00  0.00     0.053 C 
BRANCH   8  10
ATOM     10  N   UNL A   1      32.491  20.472  25.756  1.00  0.00    -0.366 N 
ATOM     11  H   UNL A   1      31.694  20.363  26.323  1.00  0.00     0.162 HD
BRANCH  10  12
ATOM     12  C   UNL A   1      32.725  19.392  24.921  1.00  0.00     0.038 A 
ATOM     13  C   UNL A   1      34.202  15.836  25.218  1.00  0.00     0.044 C 
ATOM     14  C   UNL A   1      33.548  17.066  24.660  1.00  0.00    -0.046 A 
ATOM     15  C   UNL A   1      33.166  17.067  23.321  1.00  0.00     0.042 A 
ATOM     16  C   UNL A   1      33.301  18.215  25.449  1.00  0.00     0.029 A 
ATOM     17  C   UNL A   1      32.610  18.211  22.787  1.00  0.00     0.125 A 
ATOM     18  F   UNL A   1      32.274  18.232  21.490  1.00  0.00    -0.207 F 
ATOM     19  C   UNL A   1      32.438  19.363  23.558  1.00  0.00     0.065 A 
ENDBRANCH  10  12
ENDBRANCH   8  10
BRANCH   8  20
ATOM     20  C   UNL A   1      32.366  23.021  25.613  1.00  0.00    -0.011 A 
ATOM     21  C   UNL A   1      32.322  24.136  26.478  1.00  0.00     0.010 A 
ATOM     22  C   UNL A   1      31.537  23.055  24.470  1.00  0.00     0.010 A 
ATOM     23  C   UNL A   1      31.425  25.186  26.258  1.00  0.00     0.046 A 
ATOM     24  C   UNL A   1      30.660  24.120  24.237  1.00  0.00     0.046 A 
ATOM     25  C   UNL A   1      30.589  25.159  25.152  1.00  0.00     0.115 A 
BRANCH  25  26
ATOM     26  O   UNL A   1      29.688  26.170  25.011  1.00  0.00    -0.508 OA
ATOM     27  H   UNL A   1      29.264  26.529  25.764  1.00  0.00     0.293 HD
ENDBRANCH  25  26
ENDBRANCH   8  20
ENDBRANCH   6   8
ENDBRANCH   5   6
ENDBRANCH   4   5
ENDBRANCH   3   4
ENDBRANCH   2   3
ENDBRANCH   1   2
BRANCH   1  28
ATOM     28  C   UNL A   1      41.219  21.890  27.115  1.00  0.00     0.188 C 
BRANCH  28  29
ATOM     29  O   UNL A   1      41.713  20.879  26.249  1.00  0.00    -0.376 OA
BRANCH  29  30
ATOM     30  C   UNL A   1      41.969  19.632  26.873  1.00  0.00     0.202 C 
BRANCH  30  31
ATOM     31  C   UNL A   1      42.786  18.723  25.952  1.00  0.00     0.261 C 
BRANCH  31  32
ATOM     32  O   UNL A   1      43.147  19.329  24.696  1.00  0.00    -0.460 OA
BRANCH  32  33
ATOM     33  C   UNL A   1      44.471  19.478  24.464  1.00  0.00     0.338 C 
ATOM     34  O   UNL A   1      45.232  18.654  23.996  1.00  0.00    -0.246 OA
BRANCH  33  35
ATOM     35  C   UNL A   1      44.824  20.889  24.724  1.00  0.00     0.060 A 
ATOM     36  C   UNL A   1      45.410  21.216  25.949  1.00  0.00     0.016 A 
ATOM     37  C   UNL A   1      44.551  21.889  23.790  1.00  0.00     0.016 A 
ATOM     38  C   UNL A   1      45.709  22.545  26.255  1.00  0.00     0.010 A 
ATOM     39  C   UNL A   1      44.825  23.225  24.109  1.00  0.00     0.010 A 
ATOM     40  C   UNL A   1      45.380  23.564  25.356  1.00  0.00    -0.014 A 
BRANCH  40  41
ATOM     41  C   UNL A   1      45.441  24.982  25.794  1.00  0.00     0.031 A 
ATOM     42  C   UNL A   1      46.761  25.702  25.715  1.00  0.00     0.074 A 
ATOM     43  C   UNL A   1      44.350  25.637  26.231  1.00  0.00     0.049 A 
ATOM     44  N   UNL A   1      47.097  26.882  26.167  1.00  0.00    -0.248 NA
ATOM     45  C   UNL A   1      47.852  24.981  25.038  1.00  0.00     0.031 C 
ATOM     46  C   UNL A   1      42.997  25.089  26.293  1.00  0.00     0.029 A 
ATOM     47  N   UNL A   1      44.219  26.913  26.725  1.00  0.00    -0.354 N 
ATOM     48  C   UNL A   1      48.444  27.033  25.859  1.00  0.00     0.074 A 
ATOM     49  C   UNL A   1      48.864  25.822  25.187  1.00  0.00     0.031 C 
ATOM     50  C   UNL A   1      42.176  26.015  26.819  1.00  0.00     0.029 A 
ATOM     51  C   UNL A   1      42.952  27.207  27.165  1.00  0.00     0.049 A 
ATOM     52  H   UNL A   1      44.965  27.556  26.761  1.00  0.00     0.167 HD
ATOM     53  C   UNL A   1      49.260  28.082  26.119  1.00  0.00     0.037 A 
ATOM     54  C   UNL A   1      42.484  28.297  27.805  1.00  0.00     0.037 A 
ATOM     55  C   UNL A   1      48.839  29.295  26.769  1.00  0.00     0.049 A 
ATOM     56  C   UNL A   1      43.422  29.431  28.137  1.00  0.00     0.074 A 
ATOM     57  C   UNL A   1      49.592  30.417  27.073  1.00  0.00     0.029 A 
ATOM     58  N   UNL A   1      47.550  29.546  27.212  1.00  0.00    -0.354 N 
ATOM     59  N   UNL A   1      44.699  29.554  27.869  1.00  0.00    -0.248 NA
ATOM     60  C   UNL A   1      42.853  30.572  28.871  1.00  0.00     0.031 C 
ATOM     61  C   UNL A   1      48.768  31.328  27.740  1.00  0.00     0.029 A 
ATOM     62  C   UNL A   1      47.491  30.795  27.808  1.00  0.00     0.049 A 
ATOM     63  H   UNL A   1      46.790  28.928  27.118  1.00  0.00     0.167 HD
ATOM     64  C   UNL A   1      45.081  30.789  28.383  1.00  0.00     0.074 A 
ATOM     65  C   UNL A   1      43.896  31.385  28.964  1.00  0.00     0.031 C 
ATOM     66  C   UNL A   1      46.303  31.377  28.377  1.00  0.00     0.037 A 
BRANCH  53  67
ATOM     67  C   UNL A   1      50.704  27.939  25.743  1.00  0.00     0.057 A 
ATOM     68  C   UNL A   1      51.692  27.622  26.684  1.00  0.00     0.134 A 
ATOM     69  C   UNL A   1      51.108  28.105  24.412  1.00  0.00     0.134 A 
ATOM     70  F   UNL A   1      51.375  27.466  27.978  1.00  0.00    -0.206 F 
ATOM     71  C   UNL A   1      53.034  27.501  26.318  1.00  0.00     0.040 A 
ATOM     72  C   UNL A   1      52.442  27.962  24.030  1.00  0.00     0.040 A 
ATOM     73  F   UNL A   1      50.211  28.407  23.462  1.00  0.00    -0.206 F 
ATOM     74  C   UNL A   1      53.411  27.666  24.986  1.00  0.00     0.006 A 
ENDBRANCH  53  67
BRANCH  54  75
ATOM     75  C   UNL A   1      41.057  28.364  28.214  1.00  0.00     0.057 A 
ATOM     76  C   UNL A   1      40.083  28.902  27.364  1.00  0.00     0.134 A 
ATOM     77  C   UNL A   1      40.637  27.916  29.472  1.00  0.00     0.134 A 
ATOM     78  F   UNL A   1      40.429  29.375  26.157  1.00  0.00    -0.206 F 
ATOM     79  C   UNL A   1      38.747  29.004  27.755  1.00  0.00     0.040 A 
ATOM     80  C   UNL A   1      39.299  27.987  29.865  1.00  0.00     0.040 A 
ATOM     81  F   UNL A   1      41.521  27.392  30.333  1.00  0.00    -0.206 F 
ATOM     82  C   UNL A   1      38.351  28.540  29.008  1.00  0.00     0.006 A 
ENDBRANCH  54  75
BRANCH  66  83
ATOM     83  C   UNL A   1      46.419  32.742  28.990  1.00  0.00     0.057 A 
ATOM     84  C   UNL A   1      46.779  32.923  30.332  1.00  0.00     0.134 A 
ATOM     85  C   UNL A   1      46.218  33.892  28.215  1.00  0.00     0.134 A 
ATOM     86  F   UNL A   1      46.974  31.864  31.131  1.00  0.00    -0.206 F 
ATOM     87  C   UNL A   1      46.918  34.198  30.884  1.00  0.00     0.040 A 
ATOM     88  C   UNL A   1      46.379  35.171  28.749  1.00  0.00     0.040 A 
ATOM     89  F   UNL A   1      45.883  33.790  26.920  1.00  0.00    -0.206 F 
ATOM     90  C   UNL A   1      46.724  35.326  30.090  1.00  0.00     0.006 A 
ENDBRANCH  66  83
ENDBRANCH  40  41
ENDBRANCH  33  35
ENDBRANCH  32  33
ENDBRANCH  31  32
ENDBRANCH  30  31
ENDBRANCH  29  30
ENDBRANCH  28  29
ENDBRANCH   1  28
TORSDOF 21
ENDMDL
MODEL 3
REMARK VINA RESULT:     -10.5      4.011      8.154
REMARK SMILES Cc1cc(F)cc(N[C@@](C)(C(=O)OCCOCCOCCOC(=O)c2ccc(-c3c4nc(c(-c5c(F)cccc5F)c5ccc([nH]5)c(-c5c(F)cccc5F)c5nc(c(-c6c(F)cccc6F)c6ccc3[nH]6)C=C5)C=C4)cc2)c2ccc(O)cc2)c1
REMARK SMILES IDX 17 1 16 2 15 3 14 4 13 5 11 6 12 7 9 8 10 9 8 10 7 12 1 13
REMARK SMILES IDX 2 14 3 15 86 16 4 17 5 18 6 19 79 20 80 21 85 22 81 23 84 24
REMARK SMILES IDX 82 25 83 26 18 28 19 29 20 30 21 31 22 32 23 33 24 34 25 35
REMARK SMILES IDX 26 36 78 37 27 38 77 39 28 40 29 41 30 42 71 43 31 44 76 45
REMARK SMILES IDX 70 46 72 47 32 48 75 49 69 50 68 51 33 53 59 54 42 55 58 56
REMARK SMILES IDX 43 57 46 58 57 59 73 60 44 61 45 62 56 64 74 65 47 66 34 67
REMARK SMILES IDX 35 68 40 69 36 70 37 71 39 72 41 73 38 74 60 75 61 76 66 77
REMARK SMILES IDX 62 78 63 79 65 80 67 81 64 82 48 83 49 84 54 85 50 86 51 87
REMARK SMILES IDX 53 88 55 89 52 90
REMARK H PARENT 8 11 83 27 72 52 46 63
REMARK Flexibility Score: inf
ROOT
ATOM      1  C   UNL A   1      31.152  26.022  24.568  1.00  0.00     0.188 C 
ENDROOT
BRANCH   1   2
ATOM      2  O   UNL A   1      31.394  25.597  23.225  1.00  0.00    -0.376 OA
BRANCH   2   3
ATOM      3  C   UNL A   1      32.719  25.272  22.833  1.00  0.00     0.202 C 
BRANCH   3   4
ATOM      4  C   UNL A   1      33.754  25.234  23.960  1.00  0.00     0.261 C 
BRANCH   4   5
ATOM      5  O   UNL A   1      34.408  23.957  24.095  1.00  0.00    -0.461 OA
BRANCH   5   6
ATOM      6  C   UNL A   1      33.986  23.177  25.132  1.00  0.00     0.336 C 
ATOM      7  O   UNL A   1      33.180  23.564  25.975  1.00  0.00    -0.249 OA
BRANCH   6   8
ATOM      8  C   UNL A   1      34.649  21.744  25.161  1.00  0.00     0.158 C 
ATOM      9  C   UNL A   1      34.714  21.453  26.681  1.00  0.00     0.053 C 
BRANCH   8  10
ATOM     10  N   UNL A   1      36.076  21.767  24.673  1.00  0.00    -0.366 N 
ATOM     11  H   UNL A   1      36.169  21.537  23.721  1.00  0.00     0.162 HD
BRANCH  10  12
ATOM     12  C   UNL A   1      37.283  22.049  25.293  1.00  0.00     0.038 A 
ATOM     13  C   UNL A   1      38.941  25.059  27.053  1.00  0.00     0.044 C 
ATOM     14  C   UNL A   1      38.699  23.682  26.510  1.00  0.00    -0.046 A 
ATOM     15  C   UNL A   1      39.690  22.718  26.678  1.00  0.00     0.042 A 
ATOM     16  C   UNL A   1      37.501  23.331  25.844  1.00  0.00     0.029 A 
ATOM     17  C   UNL A   1      39.498  21.463  26.137  1.00  0.00     0.125 A 
ATOM     18  F   UNL A   1      40.462  20.542  26.263  1.00  0.00    -0.207 F 
ATOM     19  C   UNL A   1      38.341  21.151  25.420  1.00  0.00     0.065 A 
ENDBRANCH  10  12
ENDBRANCH   8  10
BRANCH   8  20
ATOM     20  C   UNL A   1      33.758  20.716  24.439  1.00  0.00    -0.011 A 
ATOM     21  C   UNL A   1      33.922  19.332  24.670  1.00  0.00     0.010 A 
ATOM     22  C   UNL A   1      32.820  21.102  23.457  1.00  0.00     0.010 A 
ATOM     23  C   UNL A   1      33.249  18.386  23.892  1.00  0.00     0.046 A 
ATOM     24  C   UNL A   1      32.127  20.153  22.698  1.00  0.00     0.046 A 
ATOM     25  C   UNL A   1      32.374  18.803  22.901  1.00  0.00     0.115 A 
BRANCH  25  26
ATOM     26  O   UNL A   1      31.789  17.849  22.125  1.00  0.00    -0.508 OA
ATOM     27  H   UNL A   1      31.324  17.140  22.523  1.00  0.00     0.293 HD
ENDBRANCH  25  26
ENDBRANCH   8  20
ENDBRANCH   6   8
ENDBRANCH   5   6
ENDBRANCH   4   5
ENDBRANCH   3   4
ENDBRANCH   2   3
ENDBRANCH   1   2
BRANCH   1  28
ATOM     28  C   UNL A   1      30.464  27.369  24.848  1.00  0.00     0.188 C 
BRANCH  28  29
ATOM     29  O   UNL A   1      30.944  28.416  24.019  1.00  0.00    -0.376 OA
BRANCH  29  30
ATOM     30  C   UNL A   1      31.287  29.609  24.704  1.00  0.00     0.202 C 
BRANCH  30  31
ATOM     31  C   UNL A   1      32.515  29.392  25.589  1.00  0.00     0.261 C 
BRANCH  31  32
ATOM     32  O   UNL A   1      32.392  29.943  26.915  1.00  0.00    -0.460 OA
BRANCH  32  33
ATOM     33  C   UNL A   1      32.943  31.162  27.109  1.00  0.00     0.338 C 
ATOM     34  O   UNL A   1      32.395  32.241  27.002  1.00  0.00    -0.246 OA
BRANCH  33  35
ATOM     35  C   UNL A   1      34.308  30.966  27.641  1.00  0.00     0.060 A 
ATOM     36  C   UNL A   1      34.722  29.671  27.957  1.00  0.00     0.016 A 
ATOM     37  C   UNL A   1      35.161  32.048  27.862  1.00  0.00     0.016 A 
ATOM     38  C   UNL A   1      35.984  29.450  28.514  1.00  0.00     0.010 A 
ATOM     39  C   UNL A   1      36.416  31.829  28.446  1.00  0.00     0.010 A 
ATOM     40  C   UNL A   1      36.823  30.531  28.802  1.00  0.00    -0.014 A 
BRANCH  40  41
ATOM     41  C   UNL A   1      38.032  30.323  29.639  1.00  0.00     0.031 A 
ATOM     42  C   UNL A   1      39.162  29.503  29.077  1.00  0.00     0.074 A 
ATOM     43  C   UNL A   1      38.149  30.867  30.864  1.00  0.00     0.049 A 
ATOM     44  N   UNL A   1      40.247  29.065  29.661  1.00  0.00    -0.248 NA
ATOM     45  C   UNL A   1      39.041  29.118  27.661  1.00  0.00     0.031 C 
ATOM     46  C   UNL A   1      37.168  31.739  31.504  1.00  0.00     0.029 A 
ATOM     47  N   UNL A   1      39.149  30.744  31.799  1.00  0.00    -0.354 N 
ATOM     48  C   UNL A   1      40.923  28.327  28.696  1.00  0.00     0.074 A 
ATOM     49  C   UNL A   1      40.122  28.373  27.491  1.00  0.00     0.031 C 
ATOM     50  C   UNL A   1      37.603  32.055  32.737  1.00  0.00     0.029 A 
ATOM     51  C   UNL A   1      38.876  31.376  32.986  1.00  0.00     0.049 A 
ATOM     52  H   UNL A   1      39.983  30.247  31.632  1.00  0.00     0.167 HD
ATOM     53  C   UNL A   1      42.099  27.666  28.804  1.00  0.00     0.037 A 
ATOM     54  C   UNL A   1      39.557  31.376  34.149  1.00  0.00     0.037 A 
ATOM     55  C   UNL A   1      42.906  27.636  29.996  1.00  0.00     0.049 A 
ATOM     56  C   UNL A   1      40.836  30.585  34.268  1.00  0.00     0.074 A 
ATOM     57  C   UNL A   1      44.117  26.996  30.202  1.00  0.00     0.029 A 
ATOM     58  N   UNL A   1      42.585  28.278  31.182  1.00  0.00    -0.354 N 
ATOM     59  N   UNL A   1      41.453  29.867  33.361  1.00  0.00    -0.248 NA
ATOM     60  C   UNL A   1      41.506  30.597  35.577  1.00  0.00     0.031 C 
ATOM     61  C   UNL A   1      44.505  27.214  31.527  1.00  0.00     0.029 A 
ATOM     62  C   UNL A   1      43.562  28.031  32.131  1.00  0.00     0.049 A 
ATOM     63  H   UNL A   1      41.782  28.828  31.327  1.00  0.00     0.167 HD
ATOM     64  C   UNL A   1      42.589  29.359  33.982  1.00  0.00     0.074 A 
ATOM     65  C   UNL A   1      42.585  29.865  35.339  1.00  0.00     0.031 C 
ATOM     66  C   UNL A   1      43.548  28.545  33.476  1.00  0.00     0.037 A 
BRANCH  53  67
ATOM     67  C   UNL A   1      42.556  26.876  27.614  1.00  0.00     0.057 A 
ATOM     68  C   UNL A   1      42.365  25.492  27.518  1.00  0.00     0.134 A 
ATOM     69  C   UNL A   1      43.184  27.519  26.539  1.00  0.00     0.134 A 
ATOM     70  F   UNL A   1      41.786  24.814  28.520  1.00  0.00    -0.206 F 
ATOM     71  C   UNL A   1      42.805  24.772  26.407  1.00  0.00     0.040 A 
ATOM     72  C   UNL A   1      43.606  26.813  25.412  1.00  0.00     0.040 A 
ATOM     73  F   UNL A   1      43.395  28.843  26.567  1.00  0.00    -0.206 F 
ATOM     74  C   UNL A   1      43.422  25.434  25.346  1.00  0.00     0.006 A 
ENDBRANCH  53  67
BRANCH  54  75
ATOM     75  C   UNL A   1      39.028  32.122  35.321  1.00  0.00     0.057 A 
ATOM     76  C   UNL A   1      39.312  33.481  35.503  1.00  0.00     0.134 A 
ATOM     77  C   UNL A   1      38.250  31.490  36.298  1.00  0.00     0.134 A 
ATOM     78  F   UNL A   1      40.077  34.135  34.616  1.00  0.00    -0.206 F 
ATOM     79  C   UNL A   1      38.852  34.180  36.620  1.00  0.00     0.040 A 
ATOM     80  C   UNL A   1      37.761  32.184  37.406  1.00  0.00     0.040 A 
ATOM     81  F   UNL A   1      37.945  30.190  36.183  1.00  0.00    -0.206 F 
ATOM     82  C   UNL A   1      38.069  33.532  37.573  1.00  0.00     0.006 A 
ENDBRANCH  54  75
BRANCH  66  83
ATOM     83  C   UNL A   1      44.688  28.171  34.379  1.00  0.00     0.057 A 
ATOM     84  C   UNL A   1      45.856  28.941  34.453  1.00  0.00     0.134 A 
ATOM     85  C   UNL A   1      44.594  27.056  35.223  1.00  0.00     0.134 A 
ATOM     86  F   UNL A   1      46.014  30.014  33.664  1.00  0.00    -0.206 F 
ATOM     87  C   UNL A   1      46.897  28.604  35.320  1.00  0.00     0.040 A 
ATOM     88  C   UNL A   1      45.617  26.725  36.112  1.00  0.00     0.040 A 
ATOM     89  F   UNL A   1      43.498  26.284  35.210  1.00  0.00    -0.206 F 
ATOM     90  C   UNL A   1      46.776  27.497  36.158  1.00  0.00     0.006 A 
ENDBRANCH  66  83
ENDBRANCH  40  41
ENDBRANCH  33  35
ENDBRANCH  32  33
ENDBRANCH  31  32
ENDBRANCH  30  31
ENDBRANCH  29  30
ENDBRANCH  28  29
ENDBRANCH   1  28
TORSDOF 21
ENDMDL
