MODEL 1
REMARK VINA RESULT:     -12.5      0.000      0.000
REMARK SMILES O=C(OCCOCCOCCOC(=O)[C@H]1Cc2c([nH]c3ccccc23)[C@H](c2c[nH]c3ccccc23)[NH2+]1)c1ccc(-c2c3nc(c(-c4c(F)cccc4F)c4ccc([nH]4)c(-c4c(F)cccc4F)c4nc(c(-c5c(F)cccc5F)c5ccc2[nH]5)C=C4)C=C3)cc1
REMARK SMILES IDX 7 1 6 2 5 3 4 4 3 5 2 6 1 7 37 8 38 9 90 10 39 11 89 12
REMARK SMILES IDX 40 13 41 14 42 15 83 16 43 17 88 18 82 19 84 20 44 21 87 22
REMARK SMILES IDX 81 23 80 24 45 26 71 27 54 28 70 29 55 30 58 31 69 32 85 33
REMARK SMILES IDX 56 34 57 35 68 37 86 38 59 39 46 40 47 41 52 42 48 43 49 44
REMARK SMILES IDX 51 45 53 46 50 47 72 48 73 49 78 50 74 51 75 52 77 53 79 54
REMARK SMILES IDX 76 55 60 56 61 57 66 58 62 59 63 60 65 61 67 62 64 63 8 64
REMARK SMILES IDX 9 65 10 66 11 67 12 68 13 69 14 70 15 71 16 72 36 73 17 74
REMARK SMILES IDX 26 75 18 78 25 79 19 80 20 81 24 82 21 84 23 85 22 86 27 87
REMARK SMILES IDX 28 88 35 89 29 90 30 91 34 92 31 94 33 95 32 96
REMARK H PARENT 84 25 58 36 36 76 36 77 19 83 29 93
REMARK Flexibility Score: inf
ROOT
ATOM      1  C   UNL A   1      41.022  20.006  25.877  1.00  0.00     0.188 C 
ENDROOT
BRANCH   1   2
ATOM      2  O   UNL A   1      41.639  18.719  25.774  1.00  0.00    -0.376 OA
BRANCH   2   3
ATOM      3  C   UNL A   1      42.657  18.462  26.747  1.00  0.00     0.202 C 
BRANCH   3   4
ATOM      4  C   UNL A   1      44.012  18.022  26.178  1.00  0.00     0.261 C 
BRANCH   4   5
ATOM      5  O   UNL A   1      44.197  18.411  24.814  1.00  0.00    -0.460 OA
BRANCH   5   6
ATOM      6  C   UNL A   1      45.117  19.284  24.335  1.00  0.00     0.338 C 
ATOM      7  O   UNL A   1      46.068  18.843  23.699  1.00  0.00    -0.246 OA
BRANCH   6   8
ATOM      8  C   UNL A   1      45.033  20.766  24.527  1.00  0.00     0.060 A 
ATOM      9  C   UNL A   1      44.583  21.714  23.598  1.00  0.00     0.016 A 
ATOM     10  C   UNL A   1      45.366  21.223  25.801  1.00  0.00     0.016 A 
ATOM     11  C   UNL A   1      44.493  23.078  23.894  1.00  0.00     0.010 A 
ATOM     12  C   UNL A   1      45.248  22.577  26.109  1.00  0.00     0.010 A 
ATOM     13  C   UNL A   1      44.807  23.526  25.162  1.00  0.00    -0.014 A 
BRANCH  13  14
ATOM     14  C   UNL A   1      44.888  24.968  25.507  1.00  0.00     0.031 A 
ATOM     15  C   UNL A   1      46.273  25.541  25.507  1.00  0.00     0.074 A 
ATOM     16  C   UNL A   1      43.830  25.734  25.841  1.00  0.00     0.049 A 
ATOM     17  N   UNL A   1      46.744  26.606  26.088  1.00  0.00    -0.248 NA
ATOM     18  C   UNL A   1      47.280  24.763  24.756  1.00  0.00     0.031 C 
ATOM     19  C   UNL A   1      42.420  25.388  25.687  1.00  0.00     0.029 A 
ATOM     20  N   UNL A   1      43.786  26.968  26.456  1.00  0.00    -0.354 N 
ATOM     21  C   UNL A   1      48.097  26.608  25.784  1.00  0.00     0.074 A 
ATOM     22  C   UNL A   1      48.397  25.377  25.095  1.00  0.00     0.031 C 
ATOM     23  C   UNL A   1      41.656  26.311  26.299  1.00  0.00     0.029 A 
ATOM     24  C   UNL A   1      42.525  27.297  26.915  1.00  0.00     0.049 A 
ATOM     25  H   UNL A   1      44.570  27.553  26.557  1.00  0.00     0.167 HD
ATOM     26  C   UNL A   1      48.994  27.595  25.996  1.00  0.00     0.037 A 
ATOM     27  C   UNL A   1      42.139  28.253  27.785  1.00  0.00     0.037 A 
ATOM     28  C   UNL A   1      48.639  28.823  26.643  1.00  0.00     0.049 A 
ATOM     29  C   UNL A   1      43.188  29.230  28.229  1.00  0.00     0.074 A 
ATOM     30  C   UNL A   1      49.419  29.933  26.890  1.00  0.00     0.029 A 
ATOM     31  N   UNL A   1      47.369  29.093  27.144  1.00  0.00    -0.354 N 
ATOM     32  N   UNL A   1      44.474  29.234  27.965  1.00  0.00    -0.248 NA
ATOM     33  C   UNL A   1      42.728  30.373  29.024  1.00  0.00     0.031 C 
ATOM     34  C   UNL A   1      48.633  30.856  27.590  1.00  0.00     0.029 A 
ATOM     35  C   UNL A   1      47.349  30.345  27.725  1.00  0.00     0.049 A 
ATOM     36  H   UNL A   1      46.600  28.481  27.094  1.00  0.00     0.167 HD
ATOM     37  C   UNL A   1      44.959  30.431  28.464  1.00  0.00     0.074 A 
ATOM     38  C   UNL A   1      43.841  31.090  29.114  1.00  0.00     0.031 C 
ATOM     39  C   UNL A   1      46.200  30.966  28.339  1.00  0.00     0.037 A 
BRANCH  26  40
ATOM     40  C   UNL A   1      50.394  27.343  25.516  1.00  0.00     0.057 A 
ATOM     41  C   UNL A   1      50.750  27.472  24.163  1.00  0.00     0.134 A 
ATOM     42  C   UNL A   1      51.368  26.858  26.394  1.00  0.00     0.134 A 
ATOM     43  F   UNL A   1      49.854  27.904  23.261  1.00  0.00    -0.206 F 
ATOM     44  C   UNL A   1      51.998  27.062  23.692  1.00  0.00     0.040 A 
ATOM     45  C   UNL A   1      52.634  26.480  25.939  1.00  0.00     0.040 A 
ATOM     46  F   UNL A   1      51.098  26.706  27.698  1.00  0.00    -0.206 F 
ATOM     47  C   UNL A   1      52.944  26.562  24.583  1.00  0.00     0.006 A 
ENDBRANCH  26  40
BRANCH  27  48
ATOM     48  C   UNL A   1      40.727  28.383  28.244  1.00  0.00     0.057 A 
ATOM     49  C   UNL A   1      39.744  28.947  27.427  1.00  0.00     0.134 A 
ATOM     50  C   UNL A   1      40.319  27.991  29.526  1.00  0.00     0.134 A 
ATOM     51  F   UNL A   1      40.065  29.402  26.208  1.00  0.00    -0.206 F 
ATOM     52  C   UNL A   1      38.418  29.093  27.858  1.00  0.00     0.040 A 
ATOM     53  C   UNL A   1      38.997  28.110  29.966  1.00  0.00     0.040 A 
ATOM     54  F   UNL A   1      41.200  27.497  30.401  1.00  0.00    -0.206 F 
ATOM     55  C   UNL A   1      38.038  28.662  29.127  1.00  0.00     0.006 A 
ENDBRANCH  27  48
BRANCH  39  56
ATOM     56  C   UNL A   1      46.381  32.370  28.817  1.00  0.00     0.057 A 
ATOM     57  C   UNL A   1      46.862  32.668  30.094  1.00  0.00     0.134 A 
ATOM     58  C   UNL A   1      46.158  33.435  27.932  1.00  0.00     0.134 A 
ATOM     59  F   UNL A   1      47.074  31.691  30.988  1.00  0.00    -0.206 F 
ATOM     60  C   UNL A   1      47.117  33.984  30.478  1.00  0.00     0.040 A 
ATOM     61  C   UNL A   1      46.439  34.749  28.294  1.00  0.00     0.040 A 
ATOM     62  F   UNL A   1      45.702  33.205  26.691  1.00  0.00    -0.206 F 
ATOM     63  C   UNL A   1      46.920  35.026  29.572  1.00  0.00     0.006 A 
ENDBRANCH  39  56
ENDBRANCH  13  14
ENDBRANCH   6   8
ENDBRANCH   5   6
ENDBRANCH   4   5
ENDBRANCH   3   4
ENDBRANCH   2   3
ENDBRANCH   1   2
BRANCH   1  64
ATOM     64  C   UNL A   1      41.484  20.781  27.112  1.00  0.00     0.188 C 
BRANCH  64  65
ATOM     65  O   UNL A   1      41.470  22.202  27.035  1.00  0.00    -0.376 OA
BRANCH  65  66
ATOM     66  C   UNL A   1      40.367  22.881  27.620  1.00  0.00     0.202 C 
BRANCH  66  67
ATOM     67  C   UNL A   1      39.216  23.361  26.714  1.00  0.00     0.261 C 
BRANCH  67  68
ATOM     68  O   UNL A   1      38.362  22.351  26.130  1.00  0.00    -0.459 OA
BRANCH  68  69
ATOM     69  C   UNL A   1      37.296  22.873  25.472  1.00  0.00     0.365 C 
ATOM     70  O   UNL A   1      37.277  24.028  25.043  1.00  0.00    -0.245 OA
BRANCH  69  71
ATOM     71  C   UNL A   1      36.027  21.999  25.408  1.00  0.00     0.298 C 
ATOM     72  C   UNL A   1      36.111  20.536  24.901  1.00  0.00     0.115 C 
ATOM     73  N   UNL A   1      35.375  22.165  26.743  1.00  0.00    -0.323 N 
ATOM     74  C   UNL A   1      34.782  19.851  25.133  1.00  0.00    -0.006 A 
ATOM     75  C   UNL A   1      34.008  21.658  26.813  1.00  0.00     0.264 C 
ATOM     76  H   UNL A   1      35.359  23.159  26.969  1.00  0.00     0.347 HD
ATOM     77  H   UNL A   1      35.923  21.616  27.406  1.00  0.00     0.347 HD
ATOM     78  C   UNL A   1      33.885  20.383  26.044  1.00  0.00     0.083 A 
ATOM     79  C   UNL A   1      34.217  18.612  24.679  1.00  0.00     0.003 A 
ATOM     80  N   UNL A   1      32.865  19.488  26.211  1.00  0.00    -0.353 N 
ATOM     81  C   UNL A   1      33.109  18.349  25.488  1.00  0.00     0.046 A 
ATOM     82  C   UNL A   1      34.553  17.629  23.730  1.00  0.00     0.010 A 
ATOM     83  H   UNL A   1      32.069  19.641  26.770  1.00  0.00     0.166 HD
ATOM     84  C   UNL A   1      32.450  17.110  25.514  1.00  0.00     0.026 A 
ATOM     85  C   UNL A   1      33.912  16.375  23.754  1.00  0.00     0.001 A 
ATOM     86  C   UNL A   1      32.907  16.105  24.671  1.00  0.00     0.002 A 
BRANCH  75  87
ATOM     87  C   UNL A   1      32.939  22.663  26.428  1.00  0.00     0.041 A 
ATOM     88  C   UNL A   1      32.028  23.159  27.355  1.00  0.00     0.093 A 
ATOM     89  C   UNL A   1      32.575  23.276  25.168  1.00  0.00     0.009 A 
ATOM     90  N   UNL A   1      31.089  23.903  26.706  1.00  0.00    -0.361 N 
ATOM     91  C   UNL A   1      31.375  23.963  25.368  1.00  0.00     0.046 A 
ATOM     92  C   UNL A   1      33.101  23.316  23.858  1.00  0.00     0.011 A 
ATOM     93  H   UNL A   1      30.316  24.335  27.137  1.00  0.00     0.166 HD
ATOM     94  C   UNL A   1      30.659  24.582  24.333  1.00  0.00     0.026 A 
ATOM     95  C   UNL A   1      32.402  23.913  22.805  1.00  0.00     0.001 A 
ATOM     96  C   UNL A   1      31.183  24.524  23.040  1.00  0.00     0.002 A 
ENDBRANCH  75  87
ENDBRANCH  69  71
ENDBRANCH  68  69
ENDBRANCH  67  68
ENDBRANCH  66  67
ENDBRANCH  65  66
ENDBRANCH  64  65
ENDBRANCH   1  64
TORSDOF 18
ENDMDL
MODEL 2
REMARK VINA RESULT:     -12.2      0.824      3.450
REMARK SMILES O=C(OCCOCCOCCOC(=O)[C@H]1Cc2c([nH]c3ccccc23)[C@H](c2c[nH]c3ccccc23)[NH2+]1)c1ccc(-c2c3nc(c(-c4c(F)cccc4F)c4ccc([nH]4)c(-c4c(F)cccc4F)c4nc(c(-c5c(F)cccc5F)c5ccc2[nH]5)C=C4)C=C3)cc1
REMARK SMILES IDX 7 1 6 2 5 3 4 4 3 5 2 6 1 7 37 8 38 9 90 10 39 11 89 12
REMARK SMILES IDX 40 13 41 14 42 15 83 16 43 17 88 18 82 19 84 20 44 21 87 22
REMARK SMILES IDX 81 23 80 24 45 26 71 27 54 28 70 29 55 30 58 31 69 32 85 33
REMARK SMILES IDX 56 34 57 35 68 37 86 38 59 39 46 40 47 41 52 42 48 43 49 44
REMARK SMILES IDX 51 45 53 46 50 47 72 48 73 49 78 50 74 51 75 52 77 53 79 54
REMARK SMILES IDX 76 55 60 56 61 57 66 58 62 59 63 60 65 61 67 62 64 63 8 64
REMARK SMILES IDX 9 65 10 66 11 67 12 68 13 69 14 70 15 71 16 72 36 73 17 74
REMARK SMILES IDX 26 75 18 78 25 79 19 80 20 81 24 82 21 84 23 85 22 86 27 87
REMARK SMILES IDX 28 88 35 89 29 90 30 91 34 92 31 94 33 95 32 96
REMARK H PARENT 84 25 58 36 36 76 36 77 19 83 29 93
REMARK Flexibility Score: inf
ROOT
ATOM      1  C   UNL A   1      41.952  20.822  26.149  1.00  0.00     0.188 C 
ENDROOT
BRANCH   1   2
ATOM      2  O   UNL A   1      41.882  19.554  25.488  1.00  0.00    -0.376 OA
BRANCH   2   3
ATOM      3  C   UNL A   1      42.425  18.459  26.233  1.00  0.00     0.202 C 
BRANCH   3   4
ATOM      4  C   UNL A   1      43.917  18.187  26.007  1.00  0.00     0.261 C 
BRANCH   4   5
ATOM      5  O   UNL A   1      44.335  18.450  24.664  1.00  0.00    -0.460 OA
BRANCH   5   6
ATOM      6  C   UNL A   1      45.288  19.329  24.267  1.00  0.00     0.338 C 
ATOM      7  O   UNL A   1      46.285  18.895  23.700  1.00  0.00    -0.246 OA
BRANCH   6   8
ATOM      8  C   UNL A   1      45.189  20.809  24.468  1.00  0.00     0.060 A 
ATOM      9  C   UNL A   1      44.635  21.746  23.585  1.00  0.00     0.016 A 
ATOM     10  C   UNL A   1      45.624  21.274  25.707  1.00  0.00     0.016 A 
ATOM     11  C   UNL A   1      44.541  23.108  23.890  1.00  0.00     0.010 A 
ATOM     12  C   UNL A   1      45.505  22.625  26.027  1.00  0.00     0.010 A 
ATOM     13  C   UNL A   1      44.958  23.563  25.125  1.00  0.00    -0.014 A 
BRANCH  13  14
ATOM     14  C   UNL A   1      45.038  25.007  25.464  1.00  0.00     0.031 A 
ATOM     15  C   UNL A   1      46.422  25.581  25.466  1.00  0.00     0.074 A 
ATOM     16  C   UNL A   1      43.978  25.774  25.791  1.00  0.00     0.049 A 
ATOM     17  N   UNL A   1      46.891  26.648  26.043  1.00  0.00    -0.248 NA
ATOM     18  C   UNL A   1      47.432  24.799  24.722  1.00  0.00     0.031 C 
ATOM     19  C   UNL A   1      42.569  25.427  25.634  1.00  0.00     0.029 A 
ATOM     20  N   UNL A   1      43.931  27.011  26.399  1.00  0.00    -0.354 N 
ATOM     21  C   UNL A   1      48.245  26.649  25.744  1.00  0.00     0.074 A 
ATOM     22  C   UNL A   1      48.548  25.416  25.062  1.00  0.00     0.031 C 
ATOM     23  C   UNL A   1      41.802  26.352  26.239  1.00  0.00     0.029 A 
ATOM     24  C   UNL A   1      42.668  27.341  26.853  1.00  0.00     0.049 A 
ATOM     25  H   UNL A   1      44.715  27.596  26.501  1.00  0.00     0.167 HD
ATOM     26  C   UNL A   1      49.140  27.638  25.954  1.00  0.00     0.037 A 
ATOM     27  C   UNL A   1      42.279  28.301  27.717  1.00  0.00     0.037 A 
ATOM     28  C   UNL A   1      48.783  28.869  26.594  1.00  0.00     0.049 A 
ATOM     29  C   UNL A   1      43.327  29.280  28.161  1.00  0.00     0.074 A 
ATOM     30  C   UNL A   1      49.561  29.981  26.839  1.00  0.00     0.029 A 
ATOM     31  N   UNL A   1      47.511  29.140  27.090  1.00  0.00    -0.354 N 
ATOM     32  N   UNL A   1      44.613  29.284  27.901  1.00  0.00    -0.248 NA
ATOM     33  C   UNL A   1      42.863  30.427  28.949  1.00  0.00     0.031 C 
ATOM     34  C   UNL A   1      48.773  30.906  27.532  1.00  0.00     0.029 A 
ATOM     35  C   UNL A   1      47.488  30.395  27.665  1.00  0.00     0.049 A 
ATOM     36  H   UNL A   1      46.742  28.528  27.040  1.00  0.00     0.167 HD
ATOM     37  C   UNL A   1      45.096  30.483  28.395  1.00  0.00     0.074 A 
ATOM     38  C   UNL A   1      43.976  31.145  29.039  1.00  0.00     0.031 C 
ATOM     39  C   UNL A   1      46.337  31.019  28.273  1.00  0.00     0.037 A 
BRANCH  26  40
ATOM     40  C   UNL A   1      50.542  27.385  25.481  1.00  0.00     0.057 A 
ATOM     41  C   UNL A   1      51.557  26.959  26.355  1.00  0.00     0.134 A 
ATOM     42  C   UNL A   1      50.910  27.678  24.164  1.00  0.00     0.134 A 
ATOM     43  F   UNL A   1      51.279  26.689  27.641  1.00  0.00    -0.206 F 
ATOM     44  C   UNL A   1      52.892  26.902  25.954  1.00  0.00     0.040 A 
ATOM     45  C   UNL A   1      52.239  27.587  23.742  1.00  0.00     0.040 A 
ATOM     46  F   UNL A   1      49.995  28.092  23.276  1.00  0.00    -0.206 F 
ATOM     47  C   UNL A   1      53.236  27.219  24.643  1.00  0.00     0.006 A 
ENDBRANCH  26  40
BRANCH  27  48
ATOM     48  C   UNL A   1      40.865  28.432  28.171  1.00  0.00     0.057 A 
ATOM     49  C   UNL A   1      40.456  27.960  29.422  1.00  0.00     0.134 A 
ATOM     50  C   UNL A   1      39.869  28.990  27.361  1.00  0.00     0.134 A 
ATOM     51  F   UNL A   1      41.336  27.359  30.234  1.00  0.00    -0.206 F 
ATOM     52  C   UNL A   1      39.125  28.059  29.849  1.00  0.00     0.040 A 
ATOM     53  C   UNL A   1      38.540  29.116  27.779  1.00  0.00     0.040 A 
ATOM     54  F   UNL A   1      40.151  29.413  26.126  1.00  0.00    -0.206 F 
ATOM     55  C   UNL A   1      38.164  28.650  29.032  1.00  0.00     0.006 A 
ENDBRANCH  27  48
BRANCH  39  56
ATOM     56  C   UNL A   1      46.516  32.425  28.744  1.00  0.00     0.057 A 
ATOM     57  C   UNL A   1      46.251  33.526  27.926  1.00  0.00     0.134 A 
ATOM     58  C   UNL A   1      46.869  32.667  30.079  1.00  0.00     0.134 A 
ATOM     59  F   UNL A   1      45.929  33.354  26.635  1.00  0.00    -0.206 F 
ATOM     60  C   UNL A   1      46.331  34.826  28.422  1.00  0.00     0.040 A 
ATOM     61  C   UNL A   1      46.921  33.959  30.593  1.00  0.00     0.040 A 
ATOM     62  F   UNL A   1      47.130  31.646  30.910  1.00  0.00    -0.206 F 
ATOM     63  C   UNL A   1      46.651  35.044  29.762  1.00  0.00     0.006 A 
ENDBRANCH  39  56
ENDBRANCH  13  14
ENDBRANCH   6   8
ENDBRANCH   5   6
ENDBRANCH   4   5
ENDBRANCH   3   4
ENDBRANCH   2   3
ENDBRANCH   1   2
BRANCH   1  64
ATOM     64  C   UNL A   1      40.672  21.154  26.917  1.00  0.00     0.188 C 
BRANCH  64  65
ATOM     65  O   UNL A   1      40.753  22.168  27.913  1.00  0.00    -0.376 OA
BRANCH  65  66
ATOM     66  C   UNL A   1      40.083  23.395  27.659  1.00  0.00     0.202 C 
BRANCH  66  67
ATOM     67  C   UNL A   1      39.354  23.587  26.313  1.00  0.00     0.261 C 
BRANCH  67  68
ATOM     68  O   UNL A   1      37.912  23.688  26.346  1.00  0.00    -0.459 OA
BRANCH  68  69
ATOM     69  C   UNL A   1      37.295  22.660  25.710  1.00  0.00     0.365 C 
ATOM     70  O   UNL A   1      37.913  21.750  25.154  1.00  0.00    -0.245 OA
BRANCH  69  71
ATOM     71  C   UNL A   1      35.761  22.750  25.578  1.00  0.00     0.298 C 
ATOM     72  C   UNL A   1      35.051  24.127  25.639  1.00  0.00     0.115 C 
ATOM     73  N   UNL A   1      35.426  21.923  24.377  1.00  0.00    -0.323 N 
ATOM     74  C   UNL A   1      33.591  23.952  25.279  1.00  0.00    -0.006 A 
ATOM     75  C   UNL A   1      34.005  21.626  24.226  1.00  0.00     0.264 C 
ATOM     76  H   UNL A   1      35.931  21.040  24.447  1.00  0.00     0.347 HD
ATOM     77  H   UNL A   1      35.698  22.471  23.560  1.00  0.00     0.347 HD
ATOM     78  C   UNL A   1      33.183  22.816  24.602  1.00  0.00     0.083 A 
ATOM     79  C   UNL A   1      32.440  24.803  25.384  1.00  0.00     0.003 A 
ATOM     80  N   UNL A   1      31.877  22.986  24.231  1.00  0.00    -0.353 N 
ATOM     81  C   UNL A   1      31.443  24.238  24.583  1.00  0.00     0.046 A 
ATOM     82  C   UNL A   1      32.138  26.033  25.994  1.00  0.00     0.010 A 
ATOM     83  H   UNL A   1      31.329  22.307  23.775  1.00  0.00     0.166 HD
ATOM     84  C   UNL A   1      30.263  24.911  24.232  1.00  0.00     0.026 A 
ATOM     85  C   UNL A   1      30.965  26.729  25.640  1.00  0.00     0.001 A 
ATOM     86  C   UNL A   1      30.065  26.193  24.730  1.00  0.00     0.002 A 
BRANCH  75  87
ATOM     87  C   UNL A   1      33.543  20.366  24.931  1.00  0.00     0.041 A 
ATOM     88  C   UNL A   1      33.180  20.365  26.274  1.00  0.00     0.093 A 
ATOM     89  C   UNL A   1      33.405  18.991  24.497  1.00  0.00     0.009 A 
ATOM     90  N   UNL A   1      32.972  19.081  26.682  1.00  0.00    -0.361 N 
ATOM     91  C   UNL A   1      33.137  18.219  25.630  1.00  0.00     0.046 A 
ATOM     92  C   UNL A   1      33.500  18.288  23.276  1.00  0.00     0.011 A 
ATOM     93  H   UNL A   1      32.739  18.813  27.600  1.00  0.00     0.166 HD
ATOM     94  C   UNL A   1      33.060  16.819  25.608  1.00  0.00     0.026 A 
ATOM     95  C   UNL A   1      33.441  16.893  23.227  1.00  0.00     0.001 A 
ATOM     96  C   UNL A   1      33.241  16.165  24.388  1.00  0.00     0.002 A 
ENDBRANCH  75  87
ENDBRANCH  69  71
ENDBRANCH  68  69
ENDBRANCH  67  68
ENDBRANCH  66  67
ENDBRANCH  65  66
ENDBRANCH  64  65
ENDBRANCH   1  64
TORSDOF 18
ENDMDL
MODEL 3
REMARK VINA RESULT:     -12.1      4.339      9.406
REMARK SMILES O=C(OCCOCCOCCOC(=O)[C@H]1Cc2c([nH]c3ccccc23)[C@H](c2c[nH]c3ccccc23)[NH2+]1)c1ccc(-c2c3nc(c(-c4c(F)cccc4F)c4ccc([nH]4)c(-c4c(F)cccc4F)c4nc(c(-c5c(F)cccc5F)c5ccc2[nH]5)C=C4)C=C3)cc1
REMARK SMILES IDX 7 1 6 2 5 3 4 4 3 5 2 6 1 7 37 8 38 9 90 10 39 11 89 12
REMARK SMILES IDX 40 13 41 14 42 15 83 16 43 17 88 18 82 19 84 20 44 21 87 22
REMARK SMILES IDX 81 23 80 24 45 26 71 27 54 28 70 29 55 30 58 31 69 32 85 33
REMARK SMILES IDX 56 34 57 35 68 37 86 38 59 39 46 40 47 41 52 42 48 43 49 44
REMARK SMILES IDX 51 45 53 46 50 47 72 48 73 49 78 50 74 51 75 52 77 53 79 54
REMARK SMILES IDX 76 55 60 56 61 57 66 58 62 59 63 60 65 61 67 62 64 63 8 64
REMARK SMILES IDX 9 65 10 66 11 67 12 68 13 69 14 70 15 71 16 72 36 73 17 74
REMARK SMILES IDX 26 75 18 78 25 79 19 80 20 81 24 82 21 84 23 85 22 86 27 87
REMARK SMILES IDX 28 88 35 89 29 90 30 91 34 92 31 94 33 95 32 96
REMARK H PARENT 84 25 58 36 36 76 36 77 19 83 29 93
REMARK Flexibility Score: inf
ROOT
ATOM      1  C   UNL A   1      33.377  35.753  30.225  1.00  0.00     0.188 C 
ENDROOT
BRANCH   1   2
ATOM      2  O   UNL A   1      32.779  35.200  31.401  1.00  0.00    -0.376 OA
BRANCH   2   3
ATOM      3  C   UNL A   1      33.616  35.213  32.563  1.00  0.00     0.202 C 
BRANCH   3   4
ATOM      4  C   UNL A   1      35.092  34.884  32.312  1.00  0.00     0.261 C 
BRANCH   4   5
ATOM      5  O   UNL A   1      35.397  33.500  32.509  1.00  0.00    -0.460 OA
BRANCH   5   6
ATOM      6  C   UNL A   1      35.441  32.533  31.559  1.00  0.00     0.338 C 
ATOM      7  O   UNL A   1      34.425  32.299  30.915  1.00  0.00    -0.246 OA
BRANCH   6   8
ATOM      8  C   UNL A   1      36.670  31.740  31.239  1.00  0.00     0.060 A 
ATOM      9  C   UNL A   1      37.429  30.963  32.125  1.00  0.00     0.016 A 
ATOM     10  C   UNL A   1      37.034  31.720  29.894  1.00  0.00     0.016 A 
ATOM     11  C   UNL A   1      38.535  30.213  31.714  1.00  0.00     0.010 A 
ATOM     12  C   UNL A   1      38.117  30.950  29.476  1.00  0.00     0.010 A 
ATOM     13  C   UNL A   1      38.883  30.182  30.378  1.00  0.00    -0.014 A 
BRANCH  13  14
ATOM     14  C   UNL A   1      40.131  29.541  29.888  1.00  0.00     0.031 A 
ATOM     15  C   UNL A   1      41.285  30.476  29.689  1.00  0.00     0.074 A 
ATOM     16  C   UNL A   1      40.251  28.231  29.593  1.00  0.00     0.049 A 
ATOM     17  N   UNL A   1      42.356  30.348  28.962  1.00  0.00    -0.248 NA
ATOM     18  C   UNL A   1      41.186  31.766  30.403  1.00  0.00     0.031 C 
ATOM     19  C   UNL A   1      39.303  27.172  29.926  1.00  0.00     0.029 A 
ATOM     20  N   UNL A   1      41.221  27.570  28.870  1.00  0.00    -0.354 N 
ATOM     21  C   UNL A   1      43.040  31.544  29.122  1.00  0.00     0.074 A 
ATOM     22  C   UNL A   1      42.204  32.431  29.891  1.00  0.00     0.031 C 
ATOM     23  C   UNL A   1      39.661  26.031  29.310  1.00  0.00     0.029 A 
ATOM     24  C   UNL A   1      40.848  26.287  28.515  1.00  0.00     0.049 A 
ATOM     25  H   UNL A   1      42.088  27.969  28.631  1.00  0.00     0.167 HD
ATOM     26  C   UNL A   1      44.295  31.842  28.722  1.00  0.00     0.037 A 
ATOM     27  C   UNL A   1      41.380  25.449  27.602  1.00  0.00     0.037 A 
ATOM     28  C   UNL A   1      45.109  30.910  28.000  1.00  0.00     0.049 A 
ATOM     29  C   UNL A   1      42.667  25.876  26.957  1.00  0.00     0.074 A 
ATOM     30  C   UNL A   1      46.410  31.045  27.566  1.00  0.00     0.029 A 
ATOM     31  N   UNL A   1      44.674  29.647  27.610  1.00  0.00    -0.354 N 
ATOM     32  N   UNL A   1      43.315  27.010  27.085  1.00  0.00    -0.248 NA
ATOM     33  C   UNL A   1      43.337  24.886  26.108  1.00  0.00     0.031 C 
ATOM     34  C   UNL A   1      46.747  29.881  26.866  1.00  0.00     0.029 A 
ATOM     35  C   UNL A   1      45.676  28.999  26.915  1.00  0.00     0.049 A 
ATOM     36  H   UNL A   1      43.784  29.272  27.799  1.00  0.00     0.167 HD
ATOM     37  C   UNL A   1      44.520  26.834  26.425  1.00  0.00     0.074 A 
ATOM     38  C   UNL A   1      44.476  25.509  25.833  1.00  0.00     0.031 C 
ATOM     39  C   UNL A   1      45.589  27.667  26.367  1.00  0.00     0.037 A 
BRANCH  26  40
ATOM     40  C   UNL A   1      44.803  33.209  29.076  1.00  0.00     0.057 A 
ATOM     41  C   UNL A   1      44.542  34.332  28.270  1.00  0.00     0.134 A 
ATOM     42  C   UNL A   1      45.657  33.389  30.169  1.00  0.00     0.134 A 
ATOM     43  F   UNL A   1      43.756  34.224  27.187  1.00  0.00    -0.206 F 
ATOM     44  C   UNL A   1      45.166  35.558  28.499  1.00  0.00     0.040 A 
ATOM     45  C   UNL A   1      46.256  34.624  30.430  1.00  0.00     0.040 A 
ATOM     46  F   UNL A   1      45.953  32.363  30.979  1.00  0.00    -0.206 F 
ATOM     47  C   UNL A   1      46.028  35.705  29.583  1.00  0.00     0.006 A 
ENDBRANCH  26  40
BRANCH  27  48
ATOM     48  C   UNL A   1      40.762  24.131  27.281  1.00  0.00     0.057 A 
ATOM     49  C   UNL A   1      39.602  24.040  26.507  1.00  0.00     0.134 A 
ATOM     50  C   UNL A   1      41.279  22.925  27.770  1.00  0.00     0.134 A 
ATOM     51  F   UNL A   1      39.010  25.153  26.050  1.00  0.00    -0.206 F 
ATOM     52  C   UNL A   1      39.002  22.807  26.218  1.00  0.00     0.040 A 
ATOM     53  C   UNL A   1      40.706  21.684  27.474  1.00  0.00     0.040 A 
ATOM     54  F   UNL A   1      42.350  22.915  28.568  1.00  0.00    -0.206 F 
ATOM     55  C   UNL A   1      39.560  21.622  26.691  1.00  0.00     0.006 A 
ENDBRANCH  27  48
BRANCH  39  56
ATOM     56  C   UNL A   1      46.833  27.126  25.739  1.00  0.00     0.057 A 
ATOM     57  C   UNL A   1      47.213  27.451  24.435  1.00  0.00     0.134 A 
ATOM     58  C   UNL A   1      47.709  26.344  26.505  1.00  0.00     0.134 A 
ATOM     59  F   UNL A   1      46.404  28.180  23.651  1.00  0.00    -0.206 F 
ATOM     60  C   UNL A   1      48.428  27.014  23.909  1.00  0.00     0.040 A 
ATOM     61  C   UNL A   1      48.939  25.928  26.001  1.00  0.00     0.040 A 
ATOM     62  F   UNL A   1      47.397  26.007  27.766  1.00  0.00    -0.206 F 
ATOM     63  C   UNL A   1      49.300  26.264  24.698  1.00  0.00     0.006 A 
ENDBRANCH  39  56
ENDBRANCH  13  14
ENDBRANCH   6   8
ENDBRANCH   5   6
ENDBRANCH   4   5
ENDBRANCH   3   4
ENDBRANCH   2   3
ENDBRANCH   1   2
BRANCH   1  64
ATOM     64  C   UNL A   1      32.956  35.019  28.951  1.00  0.00     0.188 C 
BRANCH  64  65
ATOM     65  O   UNL A   1      33.822  33.997  28.470  1.00  0.00    -0.376 OA
BRANCH  65  66
ATOM     66  C   UNL A   1      33.253  32.986  27.649  1.00  0.00     0.202 C 
BRANCH  66  67
ATOM     67  C   UNL A   1      33.899  31.586  27.627  1.00  0.00     0.261 C 
BRANCH  67  68
ATOM     68  O   UNL A   1      33.185  30.534  26.937  1.00  0.00    -0.459 OA
BRANCH  68  69
ATOM     69  C   UNL A   1      33.801  29.328  27.028  1.00  0.00     0.365 C 
ATOM     70  O   UNL A   1      34.714  29.103  27.824  1.00  0.00    -0.245 OA
BRANCH  69  71
ATOM     71  C   UNL A   1      33.408  28.271  25.977  1.00  0.00     0.298 C 
ATOM     72  C   UNL A   1      34.110  26.888  25.959  1.00  0.00     0.115 C 
ATOM     73  N   UNL A   1      31.914  28.216  26.021  1.00  0.00    -0.323 N 
ATOM     74  C   UNL A   1      33.402  25.982  24.976  1.00  0.00    -0.006 A 
ATOM     75  C   UNL A   1      31.304  27.493  24.910  1.00  0.00     0.264 C 
ATOM     76  H   UNL A   1      31.560  29.172  26.012  1.00  0.00     0.347 HD
ATOM     77  H   UNL A   1      31.666  27.709  26.870  1.00  0.00     0.347 HD
ATOM     78  C   UNL A   1      32.114  26.284  24.569  1.00  0.00     0.083 A 
ATOM     79  C   UNL A   1      33.728  24.711  24.393  1.00  0.00     0.003 A 
ATOM     80  N   UNL A   1      31.635  25.227  23.846  1.00  0.00    -0.353 N 
ATOM     81  C   UNL A   1      32.551  24.206  23.834  1.00  0.00     0.046 A 
ATOM     82  C   UNL A   1      34.860  23.879  24.338  1.00  0.00     0.010 A 
ATOM     83  H   UNL A   1      30.758  25.202  23.399  1.00  0.00     0.166 HD
ATOM     84  C   UNL A   1      32.413  22.880  23.396  1.00  0.00     0.026 A 
ATOM     85  C   UNL A   1      34.734  22.541  23.917  1.00  0.00     0.001 A 
ATOM     86  C   UNL A   1      33.511  22.036  23.500  1.00  0.00     0.002 A 
BRANCH  75  87
ATOM     87  C   UNL A   1      31.002  28.342  23.690  1.00  0.00     0.041 A 
ATOM     88  C   UNL A   1      32.012  28.859  22.886  1.00  0.00     0.093 A 
ATOM     89  C   UNL A   1      29.766  28.830  23.114  1.00  0.00     0.009 A 
ATOM     90  N   UNL A   1      31.467  29.712  21.973  1.00  0.00    -0.361 N 
ATOM     91  C   UNL A   1      30.104  29.742  22.111  1.00  0.00     0.046 A 
ATOM     92  C   UNL A   1      28.386  28.633  23.333  1.00  0.00     0.011 A 
ATOM     93  H   UNL A   1      31.978  30.231  21.312  1.00  0.00     0.166 HD
ATOM     94  C   UNL A   1      29.157  30.507  21.414  1.00  0.00     0.026 A 
ATOM     95  C   UNL A   1      27.422  29.391  22.664  1.00  0.00     0.001 A 
ATOM     96  C   UNL A   1      27.808  30.332  21.725  1.00  0.00     0.002 A 
ENDBRANCH  75  87
ENDBRANCH  69  71
ENDBRANCH  68  69
ENDBRANCH  67  68
ENDBRANCH  66  67
ENDBRANCH  65  66
ENDBRANCH  64  65
ENDBRANCH   1  64
TORSDOF 18
ENDMDL
