MODEL 1
REMARK VINA RESULT:     -10.5      0.000      0.000
REMARK SMILES CC1(C)OC(=O)C(/C=N/[C@@H](CCC(N)=O)C(=O)OCCOCCOCCOC(=O)c2ccc(-c3c4nc(c(-c5c(F)cccc5F)c5ccc([nH]5)c(-c5c(F)cccc5F)c5nc(c(-c6c(F)cccc6F)c6ccc3[nH]6)C=C5)C=C4)cc2)C(=O)O1
REMARK SMILES IDX 22 1 21 2 20 3 19 4 18 5 16 6 17 7 10 8 9 9 8 10 7 11 1 12
REMARK SMILES IDX 2 13 3 14 4 15 86 16 5 17 84 18 6 19 85 20 11 21 12 22 13 23
REMARK SMILES IDX 14 24 15 25 23 28 24 29 25 30 26 31 27 32 28 33 29 34 30 35
REMARK SMILES IDX 31 36 83 37 32 38 82 39 33 40 34 41 35 42 76 43 36 44 81 45
REMARK SMILES IDX 75 46 77 47 37 48 80 49 74 50 73 51 38 53 64 54 47 55 63 56
REMARK SMILES IDX 48 57 51 58 62 59 78 60 49 61 50 62 61 64 79 65 52 66 39 67
REMARK SMILES IDX 40 68 45 69 41 70 42 71 44 72 46 73 43 74 65 75 66 76 71 77
REMARK SMILES IDX 67 78 68 79 70 80 72 81 69 82 53 83 54 84 59 85 55 86 56 87
REMARK SMILES IDX 58 88 60 89 57 90
REMARK H PARENT 14 26 14 27 77 52 51 63
REMARK Flexibility Score: inf
ROOT
ATOM      1  C   UNL A   1      34.313  31.905  28.440  1.00  0.00     0.188 C 
ENDROOT
BRANCH   1   2
ATOM      2  O   UNL A   1      34.227  31.183  27.220  1.00  0.00    -0.376 OA
BRANCH   2   3
ATOM      3  C   UNL A   1      33.255  30.150  27.096  1.00  0.00     0.202 C 
BRANCH   3   4
ATOM      4  C   UNL A   1      32.941  29.564  25.710  1.00  0.00     0.261 C 
BRANCH   4   5
ATOM      5  O   UNL A   1      31.628  28.976  25.571  1.00  0.00    -0.462 OA
BRANCH   5   6
ATOM      6  C   UNL A   1      31.537  27.656  25.855  1.00  0.00     0.330 C 
ATOM      7  O   UNL A   1      31.072  27.223  26.911  1.00  0.00    -0.250 OA
BRANCH   6   8
ATOM      8  C   UNL A   1      32.115  26.693  24.822  1.00  0.00     0.215 C 
BRANCH   8   9
ATOM      9  N   UNL A   1      32.527  25.319  25.149  1.00  0.00    -0.281 NA
ATOM     10  C   UNL A   1      33.595  24.977  25.766  1.00  0.00     0.106 C 
BRANCH  10  11
ATOM     11  C   UNL A   1      33.756  23.541  26.206  1.00  0.00     0.250 C 
ATOM     12  C   UNL A   1      32.237  22.030  23.110  1.00  0.00     0.106 C 
ATOM     13  C   UNL A   1      32.681  21.584  24.500  1.00  0.00     0.252 C 
ATOM     14  C   UNL A   1      32.431  20.085  24.672  1.00  0.00     0.106 C 
ATOM     15  O   UNL A   1      31.872  22.254  25.465  1.00  0.00    -0.422 OA
ATOM     16  O   UNL A   1      34.094  21.763  24.599  1.00  0.00    -0.422 OA
ATOM     17  C   UNL A   1      32.478  22.859  26.497  1.00  0.00     0.329 C 
ATOM     18  C   UNL A   1      34.630  22.790  25.271  1.00  0.00     0.329 C 
ATOM     19  O   UNL A   1      31.944  22.912  27.600  1.00  0.00    -0.251 OA
ATOM     20  O   UNL A   1      35.818  23.063  25.126  1.00  0.00    -0.251 OA
ENDBRANCH  10  11
ENDBRANCH   8   9
BRANCH   8  21
ATOM     21  C   UNL A   1      31.332  26.744  23.507  1.00  0.00     0.049 C 
BRANCH  21  22
ATOM     22  C   UNL A   1      31.621  25.633  22.500  1.00  0.00     0.102 C 
BRANCH  22  23
ATOM     23  C   UNL A   1      32.669  25.963  21.464  1.00  0.00     0.217 C 
ATOM     24  N   UNL A   1      32.366  25.633  20.180  1.00  0.00    -0.370 N 
ATOM     25  O   UNL A   1      33.732  26.507  21.744  1.00  0.00    -0.275 OA
ATOM     26  H   UNL A   1      31.507  25.198  19.974  1.00  0.00     0.159 HD
ATOM     27  H   UNL A   1      33.004  25.830  19.459  1.00  0.00     0.159 HD
ENDBRANCH  22  23
ENDBRANCH  21  22
ENDBRANCH   8  21
ENDBRANCH   6   8
ENDBRANCH   5   6
ENDBRANCH   4   5
ENDBRANCH   3   4
ENDBRANCH   2   3
ENDBRANCH   1   2
BRANCH   1  28
ATOM     28  C   UNL A   1      34.256  33.442  28.404  1.00  0.00     0.188 C 
BRANCH  28  29
ATOM     29  O   UNL A   1      34.998  34.103  29.403  1.00  0.00    -0.376 OA
BRANCH  29  30
ATOM     30  C   UNL A   1      34.346  34.499  30.600  1.00  0.00     0.202 C 
BRANCH  30  31
ATOM     31  C   UNL A   1      34.243  33.616  31.861  1.00  0.00     0.261 C 
BRANCH  31  32
ATOM     32  O   UNL A   1      34.917  32.354  31.854  1.00  0.00    -0.460 OA
BRANCH  32  33
ATOM     33  C   UNL A   1      35.948  32.191  32.716  1.00  0.00     0.338 C 
ATOM     34  O   UNL A   1      35.980  32.461  33.904  1.00  0.00    -0.246 OA
BRANCH  33  35
ATOM     35  C   UNL A   1      37.004  31.443  32.000  1.00  0.00     0.060 A 
ATOM     36  C   UNL A   1      37.886  30.624  32.721  1.00  0.00     0.016 A 
ATOM     37  C   UNL A   1      37.101  31.535  30.611  1.00  0.00     0.016 A 
ATOM     38  C   UNL A   1      38.885  29.912  32.053  1.00  0.00     0.010 A 
ATOM     39  C   UNL A   1      38.117  30.845  29.949  1.00  0.00     0.010 A 
ATOM     40  C   UNL A   1      39.033  30.056  30.669  1.00  0.00    -0.014 A 
BRANCH  40  41
ATOM     41  C   UNL A   1      40.255  29.560  29.992  1.00  0.00     0.031 A 
ATOM     42  C   UNL A   1      41.384  30.529  29.768  1.00  0.00     0.074 A 
ATOM     43  C   UNL A   1      40.368  28.287  29.572  1.00  0.00     0.049 A 
ATOM     44  N   UNL A   1      42.512  30.364  29.125  1.00  0.00    -0.248 NA
ATOM     45  C   UNL A   1      41.207  31.873  30.341  1.00  0.00     0.031 C 
ATOM     46  C   UNL A   1      39.366  27.241  29.760  1.00  0.00     0.029 A 
ATOM     47  N   UNL A   1      41.379  27.669  28.880  1.00  0.00    -0.354 N 
ATOM     48  C   UNL A   1      43.172  31.583  29.207  1.00  0.00     0.074 A 
ATOM     49  C   UNL A   1      42.305  32.488  29.930  1.00  0.00     0.031 C 
ATOM     50  C   UNL A   1      39.805  26.110  29.179  1.00  0.00     0.029 A 
ATOM     51  C   UNL A   1      41.102  26.364  28.551  1.00  0.00     0.049 A 
ATOM     52  H   UNL A   1      42.222  28.116  28.642  1.00  0.00     0.167 HD
ATOM     53  C   UNL A   1      44.393  31.918  28.729  1.00  0.00     0.037 A 
ATOM     54  C   UNL A   1      41.803  25.487  27.805  1.00  0.00     0.037 A 
ATOM     55  C   UNL A   1      45.251  31.019  28.004  1.00  0.00     0.049 A 
ATOM     56  C   UNL A   1      43.126  25.905  27.214  1.00  0.00     0.074 A 
ATOM     57  C   UNL A   1      46.516  31.256  27.496  1.00  0.00     0.029 A 
ATOM     58  N   UNL A   1      44.924  29.714  27.670  1.00  0.00    -0.354 N 
ATOM     59  N   UNL A   1      43.758  27.049  27.322  1.00  0.00    -0.248 NA
ATOM     60  C   UNL A   1      43.834  24.907  26.399  1.00  0.00     0.031 C 
ATOM     61  C   UNL A   1      46.928  30.115  26.801  1.00  0.00     0.029 A 
ATOM     62  C   UNL A   1      45.950  29.143  26.934  1.00  0.00     0.049 A 
ATOM     63  H   UNL A   1      44.086  29.259  27.918  1.00  0.00     0.167 HD
ATOM     64  C   UNL A   1      44.950  26.897  26.619  1.00  0.00     0.074 A 
ATOM     65  C   UNL A   1      44.957  25.546  26.100  1.00  0.00     0.031 C 
ATOM     66  C   UNL A   1      45.949  27.793  26.427  1.00  0.00     0.037 A 
BRANCH  53  67
ATOM     67  C   UNL A   1      44.855  33.330  28.950  1.00  0.00     0.057 A 
ATOM     68  C   UNL A   1      44.558  34.361  28.047  1.00  0.00     0.134 A 
ATOM     69  C   UNL A   1      45.595  33.666  30.090  1.00  0.00     0.134 A 
ATOM     70  F   UNL A   1      43.866  34.105  26.926  1.00  0.00    -0.206 F 
ATOM     71  C   UNL A   1      45.008  35.666  28.256  1.00  0.00     0.040 A 
ATOM     72  C   UNL A   1      46.022  34.974  30.326  1.00  0.00     0.040 A 
ATOM     73  F   UNL A   1      45.911  32.730  30.999  1.00  0.00    -0.206 F 
ATOM     74  C   UNL A   1      45.736  35.977  29.402  1.00  0.00     0.006 A 
ENDBRANCH  53  67
BRANCH  54  75
ATOM     75  C   UNL A   1      41.267  24.124  27.559  1.00  0.00     0.057 A 
ATOM     76  C   UNL A   1      40.209  23.910  26.667  1.00  0.00     0.134 A 
ATOM     77  C   UNL A   1      41.780  23.004  28.227  1.00  0.00     0.134 A 
ATOM     78  F   UNL A   1      39.655  24.944  26.017  1.00  0.00    -0.206 F 
ATOM     79  C   UNL A   1      39.670  22.638  26.460  1.00  0.00     0.040 A 
ATOM     80  C   UNL A   1      41.269  21.723  28.008  1.00  0.00     0.040 A 
ATOM     81  F   UNL A   1      42.790  23.140  29.098  1.00  0.00    -0.206 F 
ATOM     82  C   UNL A   1      40.206  21.540  27.129  1.00  0.00     0.006 A 
ENDBRANCH  54  75
BRANCH  66  83
ATOM     83  C   UNL A   1      47.158  27.334  25.659  1.00  0.00     0.057 A 
ATOM     84  C   UNL A   1      47.283  27.528  24.278  1.00  0.00     0.134 A 
ATOM     85  C   UNL A   1      48.234  26.729  26.324  1.00  0.00     0.134 A 
ATOM     86  F   UNL A   1      46.287  28.092  23.577  1.00  0.00    -0.206 F 
ATOM     87  C   UNL A   1      48.421  27.115  23.581  1.00  0.00     0.040 A 
ATOM     88  C   UNL A   1      49.389  26.340  25.644  1.00  0.00     0.040 A 
ATOM     89  F   UNL A   1      48.188  26.523  27.649  1.00  0.00    -0.206 F 
ATOM     90  C   UNL A   1      49.482  26.526  24.267  1.00  0.00     0.006 A 
ENDBRANCH  66  83
ENDBRANCH  40  41
ENDBRANCH  33  35
ENDBRANCH  32  33
ENDBRANCH  31  32
ENDBRANCH  30  31
ENDBRANCH  29  30
ENDBRANCH  28  29
ENDBRANCH   1  28
TORSDOF 22
ENDMDL
MODEL 2
REMARK VINA RESULT:     -10.2      4.077      9.827
REMARK SMILES CC1(C)OC(=O)C(/C=N/[C@@H](CCC(N)=O)C(=O)OCCOCCOCCOC(=O)c2ccc(-c3c4nc(c(-c5c(F)cccc5F)c5ccc([nH]5)c(-c5c(F)cccc5F)c5nc(c(-c6c(F)cccc6F)c6ccc3[nH]6)C=C5)C=C4)cc2)C(=O)O1
REMARK SMILES IDX 22 1 21 2 20 3 19 4 18 5 16 6 17 7 10 8 9 9 8 10 7 11 1 12
REMARK SMILES IDX 2 13 3 14 4 15 86 16 5 17 84 18 6 19 85 20 11 21 12 22 13 23
REMARK SMILES IDX 14 24 15 25 23 28 24 29 25 30 26 31 27 32 28 33 29 34 30 35
REMARK SMILES IDX 31 36 83 37 32 38 82 39 33 40 34 41 35 42 76 43 36 44 81 45
REMARK SMILES IDX 75 46 77 47 37 48 80 49 74 50 73 51 38 53 64 54 47 55 63 56
REMARK SMILES IDX 48 57 51 58 62 59 78 60 49 61 50 62 61 64 79 65 52 66 39 67
REMARK SMILES IDX 40 68 45 69 41 70 42 71 44 72 46 73 43 74 65 75 66 76 71 77
REMARK SMILES IDX 67 78 68 79 70 80 72 81 69 82 53 83 54 84 59 85 55 86 56 87
REMARK SMILES IDX 58 88 60 89 57 90
REMARK H PARENT 14 26 14 27 77 52 51 63
REMARK Flexibility Score: inf
ROOT
ATOM      1  C   UNL A   1      39.776  22.087  26.836  1.00  0.00     0.188 C 
ENDROOT
BRANCH   1   2
ATOM      2  O   UNL A   1      38.484  22.327  26.300  1.00  0.00    -0.376 OA
BRANCH   2   3
ATOM      3  C   UNL A   1      37.957  21.422  25.335  1.00  0.00     0.202 C 
BRANCH   3   4
ATOM      4  C   UNL A   1      36.981  21.935  24.265  1.00  0.00     0.261 C 
BRANCH   4   5
ATOM      5  O   UNL A   1      36.527  23.296  24.444  1.00  0.00    -0.462 OA
BRANCH   5   6
ATOM      6  C   UNL A   1      35.399  23.637  23.778  1.00  0.00     0.330 C 
ATOM      7  O   UNL A   1      35.232  23.419  22.577  1.00  0.00    -0.250 OA
BRANCH   6   8
ATOM      8  C   UNL A   1      34.337  24.391  24.574  1.00  0.00     0.215 C 
BRANCH   8   9
ATOM      9  N   UNL A   1      33.834  25.718  24.183  1.00  0.00    -0.281 NA
ATOM     10  C   UNL A   1      34.164  26.835  24.711  1.00  0.00     0.106 C 
BRANCH  10  11
ATOM     11  C   UNL A   1      33.716  28.116  24.048  1.00  0.00     0.250 C 
ATOM     12  C   UNL A   1      30.103  27.112  23.703  1.00  0.00     0.106 C 
ATOM     13  C   UNL A   1      31.033  28.219  23.215  1.00  0.00     0.252 C 
ATOM     14  C   UNL A   1      30.261  29.199  22.331  1.00  0.00     0.106 C 
ATOM     15  O   UNL A   1      32.043  27.629  22.399  1.00  0.00    -0.422 OA
ATOM     16  O   UNL A   1      31.471  28.970  24.348  1.00  0.00    -0.422 OA
ATOM     17  C   UNL A   1      33.324  27.951  22.633  1.00  0.00     0.329 C 
ATOM     18  C   UNL A   1      32.695  28.815  24.868  1.00  0.00     0.329 C 
ATOM     19  O   UNL A   1      34.137  28.013  21.717  1.00  0.00    -0.251 OA
ATOM     20  O   UNL A   1      32.951  29.273  25.978  1.00  0.00    -0.251 OA
ENDBRANCH  10  11
ENDBRANCH   8   9
BRANCH   8  21
ATOM     21  C   UNL A   1      33.196  23.465  25.005  1.00  0.00     0.049 C 
BRANCH  21  22
ATOM     22  C   UNL A   1      33.582  22.263  25.862  1.00  0.00     0.102 C 
BRANCH  22  23
ATOM     23  C   UNL A   1      33.495  22.484  27.354  1.00  0.00     0.217 C 
ATOM     24  N   UNL A   1      34.679  22.557  28.018  1.00  0.00    -0.370 N 
ATOM     25  O   UNL A   1      32.427  22.603  27.946  1.00  0.00    -0.275 OA
ATOM     26  H   UNL A   1      35.526  22.460  27.526  1.00  0.00     0.159 HD
ATOM     27  H   UNL A   1      34.688  22.708  28.989  1.00  0.00     0.159 HD
ENDBRANCH  22  23
ENDBRANCH  21  22
ENDBRANCH   8  21
ENDBRANCH   6   8
ENDBRANCH   5   6
ENDBRANCH   4   5
ENDBRANCH   3   4
ENDBRANCH   2   3
ENDBRANCH   1   2
BRANCH   1  28
ATOM     28  C   UNL A   1      40.883  21.553  25.910  1.00  0.00     0.188 C 
BRANCH  28  29
ATOM     29  O   UNL A   1      41.804  20.670  26.507  1.00  0.00    -0.376 OA
BRANCH  29  30
ATOM     30  C   UNL A   1      43.033  20.403  25.847  1.00  0.00     0.202 C 
BRANCH  30  31
ATOM     31  C   UNL A   1      44.046  21.490  25.432  1.00  0.00     0.261 C 
BRANCH  31  32
ATOM     32  O   UNL A   1      44.132  22.669  26.238  1.00  0.00    -0.460 OA
BRANCH  32  33
ATOM     33  C   UNL A   1      44.160  23.862  25.598  1.00  0.00     0.338 C 
ATOM     34  O   UNL A   1      44.519  24.090  24.456  1.00  0.00    -0.246 OA
BRANCH  33  35
ATOM     35  C   UNL A   1      43.495  24.847  26.477  1.00  0.00     0.060 A 
ATOM     36  C   UNL A   1      43.886  26.194  26.433  1.00  0.00     0.016 A 
ATOM     37  C   UNL A   1      42.467  24.438  27.326  1.00  0.00     0.016 A 
ATOM     38  C   UNL A   1      43.262  27.132  27.258  1.00  0.00     0.010 A 
ATOM     39  C   UNL A   1      41.863  25.372  28.171  1.00  0.00     0.010 A 
ATOM     40  C   UNL A   1      42.279  26.716  28.163  1.00  0.00    -0.014 A 
BRANCH  40  41
ATOM     41  C   UNL A   1      41.827  27.623  29.246  1.00  0.00     0.031 A 
ATOM     42  C   UNL A   1      42.553  27.571  30.563  1.00  0.00     0.074 A 
ATOM     43  C   UNL A   1      40.793  28.467  29.080  1.00  0.00     0.049 A 
ATOM     44  N   UNL A   1      42.294  28.194  31.684  1.00  0.00    -0.248 NA
ATOM     45  C   UNL A   1      43.726  26.684  30.622  1.00  0.00     0.031 C 
ATOM     46  C   UNL A   1      40.032  28.641  27.846  1.00  0.00     0.029 A 
ATOM     47  N   UNL A   1      40.197  29.324  29.972  1.00  0.00    -0.354 N 
ATOM     48  C   UNL A   1      43.263  27.766  32.583  1.00  0.00     0.074 A 
ATOM     49  C   UNL A   1      44.093  26.806  31.887  1.00  0.00     0.031 C 
ATOM     50  C   UNL A   1      39.054  29.539  28.063  1.00  0.00     0.029 A 
ATOM     51  C   UNL A   1      39.102  29.975  29.459  1.00  0.00     0.049 A 
ATOM     52  H   UNL A   1      40.523  29.460  30.890  1.00  0.00     0.167 HD
ATOM     53  C   UNL A   1      43.451  28.143  33.869  1.00  0.00     0.037 A 
ATOM     54  C   UNL A   1      38.223  30.804  30.059  1.00  0.00     0.037 A 
ATOM     55  C   UNL A   1      42.620  29.093  34.561  1.00  0.00     0.049 A 
ATOM     56  C   UNL A   1      38.403  31.150  31.515  1.00  0.00     0.074 A 
ATOM     57  C   UNL A   1      42.739  29.558  35.859  1.00  0.00     0.029 A 
ATOM     58  N   UNL A   1      41.505  29.712  34.015  1.00  0.00    -0.354 N 
ATOM     59  N   UNL A   1      39.339  30.767  32.350  1.00  0.00    -0.248 NA
ATOM     60  C   UNL A   1      37.403  32.048  32.112  1.00  0.00     0.031 C 
ATOM     61  C   UNL A   1      41.661  30.410  36.118  1.00  0.00     0.029 A 
ATOM     62  C   UNL A   1      40.909  30.530  34.961  1.00  0.00     0.049 A 
ATOM     63  H   UNL A   1      41.184  29.588  33.092  1.00  0.00     0.167 HD
ATOM     64  C   UNL A   1      39.061  31.401  33.556  1.00  0.00     0.074 A 
ATOM     65  C   UNL A   1      37.876  32.203  33.341  1.00  0.00     0.031 C 
ATOM     66  C   UNL A   1      39.731  31.330  34.733  1.00  0.00     0.037 A 
BRANCH  53  67
ATOM     67  C   UNL A   1      44.581  27.498  34.618  1.00  0.00     0.057 A 
ATOM     68  C   UNL A   1      44.421  26.292  35.313  1.00  0.00     0.134 A 
ATOM     69  C   UNL A   1      45.852  28.086  34.631  1.00  0.00     0.134 A 
ATOM     70  F   UNL A   1      43.226  25.683  35.355  1.00  0.00    -0.206 F 
ATOM     71  C   UNL A   1      45.476  25.711  36.020  1.00  0.00     0.040 A 
ATOM     72  C   UNL A   1      46.922  27.497  35.307  1.00  0.00     0.040 A 
ATOM     73  F   UNL A   1      46.078  29.239  33.983  1.00  0.00    -0.206 F 
ATOM     74  C   UNL A   1      46.733  26.311  36.012  1.00  0.00     0.006 A 
ENDBRANCH  53  67
BRANCH  54  75
ATOM     75  C   UNL A   1      37.080  31.359  29.289  1.00  0.00     0.057 A 
ATOM     76  C   UNL A   1      35.925  30.604  29.057  1.00  0.00     0.134 A 
ATOM     77  C   UNL A   1      37.124  32.649  28.744  1.00  0.00     0.134 A 
ATOM     78  F   UNL A   1      35.832  29.351  29.528  1.00  0.00    -0.206 F 
ATOM     79  C   UNL A   1      34.863  31.102  28.299  1.00  0.00     0.040 A 
ATOM     80  C   UNL A   1      36.058  33.170  28.008  1.00  0.00     0.040 A 
ATOM     81  F   UNL A   1      38.203  33.424  28.925  1.00  0.00    -0.206 F 
ATOM     82  C   UNL A   1      34.927  32.392  27.777  1.00  0.00     0.006 A 
ENDBRANCH  54  75
BRANCH  66  83
ATOM     83  C   UNL A   1      39.228  32.174  35.873  1.00  0.00     0.057 A 
ATOM     84  C   UNL A   1      39.631  33.503  36.053  1.00  0.00     0.134 A 
ATOM     85  C   UNL A   1      38.288  31.658  36.777  1.00  0.00     0.134 A 
ATOM     86  F   UNL A   1      40.536  34.057  35.230  1.00  0.00    -0.206 F 
ATOM     87  C   UNL A   1      39.139  34.280  37.104  1.00  0.00     0.040 A 
ATOM     88  C   UNL A   1      37.766  32.435  37.812  1.00  0.00     0.040 A 
ATOM     89  F   UNL A   1      37.848  30.397  36.657  1.00  0.00    -0.206 F 
ATOM     90  C   UNL A   1      38.198  33.748  37.982  1.00  0.00     0.006 A 
ENDBRANCH  66  83
ENDBRANCH  40  41
ENDBRANCH  33  35
ENDBRANCH  32  33
ENDBRANCH  31  32
ENDBRANCH  30  31
ENDBRANCH  29  30
ENDBRANCH  28  29
ENDBRANCH   1  28
TORSDOF 22
ENDMDL
MODEL 3
REMARK VINA RESULT:     -10.0      4.150      9.623
REMARK SMILES CC1(C)OC(=O)C(/C=N/[C@@H](CCC(N)=O)C(=O)OCCOCCOCCOC(=O)c2ccc(-c3c4nc(c(-c5c(F)cccc5F)c5ccc([nH]5)c(-c5c(F)cccc5F)c5nc(c(-c6c(F)cccc6F)c6ccc3[nH]6)C=C5)C=C4)cc2)C(=O)O1
REMARK SMILES IDX 22 1 21 2 20 3 19 4 18 5 16 6 17 7 10 8 9 9 8 10 7 11 1 12
REMARK SMILES IDX 2 13 3 14 4 15 86 16 5 17 84 18 6 19 85 20 11 21 12 22 13 23
REMARK SMILES IDX 14 24 15 25 23 28 24 29 25 30 26 31 27 32 28 33 29 34 30 35
REMARK SMILES IDX 31 36 83 37 32 38 82 39 33 40 34 41 35 42 76 43 36 44 81 45
REMARK SMILES IDX 75 46 77 47 37 48 80 49 74 50 73 51 38 53 64 54 47 55 63 56
REMARK SMILES IDX 48 57 51 58 62 59 78 60 49 61 50 62 61 64 79 65 52 66 39 67
REMARK SMILES IDX 40 68 45 69 41 70 42 71 44 72 46 73 43 74 65 75 66 76 71 77
REMARK SMILES IDX 67 78 68 79 70 80 72 81 69 82 53 83 54 84 59 85 55 86 56 87
REMARK SMILES IDX 58 88 60 89 57 90
REMARK H PARENT 14 26 14 27 77 52 51 63
REMARK Flexibility Score: inf
ROOT
ATOM      1  C   UNL A   1      40.151  21.427  26.381  1.00  0.00     0.188 C 
ENDROOT
BRANCH   1   2
ATOM      2  O   UNL A   1      38.846  21.857  26.023  1.00  0.00    -0.376 OA
BRANCH   2   3
ATOM      3  C   UNL A   1      38.424  23.166  26.393  1.00  0.00     0.202 C 
BRANCH   3   4
ATOM      4  C   UNL A   1      37.458  23.939  25.482  1.00  0.00     0.261 C 
BRANCH   4   5
ATOM      5  O   UNL A   1      37.153  23.301  24.221  1.00  0.00    -0.462 OA
BRANCH   5   6
ATOM      6  C   UNL A   1      35.845  23.042  23.990  1.00  0.00     0.330 C 
ATOM      7  O   UNL A   1      35.356  22.992  22.860  1.00  0.00    -0.250 OA
BRANCH   6   8
ATOM      8  C   UNL A   1      34.952  22.882  25.217  1.00  0.00     0.215 C 
BRANCH   8   9
ATOM      9  N   UNL A   1      33.740  23.687  25.437  1.00  0.00    -0.281 NA
ATOM     10  C   UNL A   1      33.120  23.830  26.547  1.00  0.00     0.106 C 
BRANCH  10  11
ATOM     11  C   UNL A   1      32.019  24.861  26.641  1.00  0.00     0.250 C 
ATOM     12  C   UNL A   1      30.719  24.336  23.147  1.00  0.00     0.106 C 
ATOM     13  C   UNL A   1      30.534  25.318  24.300  1.00  0.00     0.252 C 
ATOM     14  C   UNL A   1      29.523  26.398  23.910  1.00  0.00     0.106 C 
ATOM     15  O   UNL A   1      31.777  25.977  24.531  1.00  0.00    -0.422 OA
ATOM     16  O   UNL A   1      29.956  24.616  25.400  1.00  0.00    -0.422 OA
ATOM     17  C   UNL A   1      32.239  26.048  25.789  1.00  0.00     0.329 C 
ATOM     18  C   UNL A   1      30.685  24.237  26.458  1.00  0.00     0.329 C 
ATOM     19  O   UNL A   1      32.886  27.017  26.170  1.00  0.00    -0.251 OA
ATOM     20  O   UNL A   1      30.230  23.423  27.255  1.00  0.00    -0.251 OA
ENDBRANCH  10  11
ENDBRANCH   8   9
BRANCH   8  21
ATOM     21  C   UNL A   1      34.710  21.407  25.548  1.00  0.00     0.049 C 
BRANCH  21  22
ATOM     22  C   UNL A   1      33.869  20.615  24.549  1.00  0.00     0.102 C 
BRANCH  22  23
ATOM     23  C   UNL A   1      32.533  20.140  25.070  1.00  0.00     0.217 C 
ATOM     24  N   UNL A   1      31.712  21.101  25.570  1.00  0.00    -0.370 N 
ATOM     25  O   UNL A   1      32.189  18.964  25.041  1.00  0.00    -0.275 OA
ATOM     26  H   UNL A   1      32.004  22.041  25.585  1.00  0.00     0.159 HD
ATOM     27  H   UNL A   1      30.824  20.856  25.917  1.00  0.00     0.159 HD
ENDBRANCH  22  23
ENDBRANCH  21  22
ENDBRANCH   8  21
ENDBRANCH   6   8
ENDBRANCH   5   6
ENDBRANCH   4   5
ENDBRANCH   3   4
ENDBRANCH   2   3
ENDBRANCH   1   2
BRANCH   1  28
ATOM     28  C   UNL A   1      40.566  19.975  26.088  1.00  0.00     0.188 C 
BRANCH  28  29
ATOM     29  O   UNL A   1      41.899  19.646  26.405  1.00  0.00    -0.376 OA
BRANCH  29  30
ATOM     30  C   UNL A   1      42.947  20.474  25.922  1.00  0.00     0.202 C 
BRANCH  30  31
ATOM     31  C   UNL A   1      43.613  21.595  26.746  1.00  0.00     0.261 C 
BRANCH  31  32
ATOM     32  O   UNL A   1      44.317  22.621  26.038  1.00  0.00    -0.460 OA
BRANCH  32  33
ATOM     33  C   UNL A   1      43.588  23.452  25.255  1.00  0.00     0.338 C 
ATOM     34  O   UNL A   1      43.287  23.303  24.084  1.00  0.00    -0.246 OA
BRANCH  33  35
ATOM     35  C   UNL A   1      43.049  24.516  26.129  1.00  0.00     0.060 A 
ATOM     36  C   UNL A   1      43.758  25.718  26.280  1.00  0.00     0.016 A 
ATOM     37  C   UNL A   1      41.828  24.331  26.777  1.00  0.00     0.016 A 
ATOM     38  C   UNL A   1      43.256  26.729  27.101  1.00  0.00     0.010 A 
ATOM     39  C   UNL A   1      41.340  25.332  27.619  1.00  0.00     0.010 A 
ATOM     40  C   UNL A   1      42.066  26.521  27.810  1.00  0.00    -0.014 A 
BRANCH  40  41
ATOM     41  C   UNL A   1      41.679  27.443  28.905  1.00  0.00     0.031 A 
ATOM     42  C   UNL A   1      42.445  27.368  30.198  1.00  0.00     0.074 A 
ATOM     43  C   UNL A   1      40.667  28.318  28.772  1.00  0.00     0.049 A 
ATOM     44  N   UNL A   1      42.242  27.999  31.327  1.00  0.00    -0.248 NA
ATOM     45  C   UNL A   1      43.591  26.445  30.220  1.00  0.00     0.031 C 
ATOM     46  C   UNL A   1      39.872  28.517  27.563  1.00  0.00     0.029 A 
ATOM     47  N   UNL A   1      40.127  29.194  29.682  1.00  0.00    -0.354 N 
ATOM     48  C   UNL A   1      43.226  27.541  32.193  1.00  0.00     0.074 A 
ATOM     49  C   UNL A   1      44.002  26.555  31.473  1.00  0.00     0.031 C 
ATOM     50  C   UNL A   1      38.930  29.445  27.811  1.00  0.00     0.029 A 
ATOM     51  C   UNL A   1      39.037  29.879  29.204  1.00  0.00     0.049 A 
ATOM     52  H   UNL A   1      40.487  29.320  30.588  1.00  0.00     0.167 HD
ATOM     53  C   UNL A   1      43.467  27.912  33.472  1.00  0.00     0.037 A 
ATOM     54  C   UNL A   1      38.205  30.736  29.830  1.00  0.00     0.037 A 
ATOM     55  C   UNL A   1      42.689  28.888  34.190  1.00  0.00     0.049 A 
ATOM     56  C   UNL A   1      38.443  31.076  31.280  1.00  0.00     0.074 A 
ATOM     57  C   UNL A   1      42.865  29.349  35.483  1.00  0.00     0.029 A 
ATOM     58  N   UNL A   1      41.578  29.541  33.680  1.00  0.00    -0.354 N 
ATOM     59  N   UNL A   1      39.393  30.664  32.084  1.00  0.00    -0.248 NA
ATOM     60  C   UNL A   1      37.491  32.005  31.908  1.00  0.00     0.031 C 
ATOM     61  C   UNL A   1      41.823  30.235  35.776  1.00  0.00     0.029 A 
ATOM     62  C   UNL A   1      41.038  30.378  34.643  1.00  0.00     0.049 A 
ATOM     63  H   UNL A   1      41.223  29.427  32.768  1.00  0.00     0.167 HD
ATOM     64  C   UNL A   1      39.174  31.307  33.298  1.00  0.00     0.074 A 
ATOM     65  C   UNL A   1      38.009  32.146  33.121  1.00  0.00     0.031 C 
ATOM     66  C   UNL A   1      39.879  31.215  34.453  1.00  0.00     0.037 A 
BRANCH  53  67
ATOM     67  C   UNL A   1      44.599  27.232  34.186  1.00  0.00     0.057 A 
ATOM     68  C   UNL A   1      44.421  26.041  34.903  1.00  0.00     0.134 A 
ATOM     69  C   UNL A   1      45.893  27.768  34.140  1.00  0.00     0.134 A 
ATOM     70  F   UNL A   1      43.205  25.482  35.000  1.00  0.00    -0.206 F 
ATOM     71  C   UNL A   1      45.479  25.427  35.575  1.00  0.00     0.040 A 
ATOM     72  C   UNL A   1      46.965  27.146  34.782  1.00  0.00     0.040 A 
ATOM     73  F   UNL A   1      46.137  28.904  33.468  1.00  0.00    -0.206 F 
ATOM     74  C   UNL A   1      46.757  25.977  35.510  1.00  0.00     0.006 A 
ENDBRANCH  53  67
BRANCH  54  75
ATOM     75  C   UNL A   1      37.056  31.327  29.098  1.00  0.00     0.057 A 
ATOM     76  C   UNL A   1      37.100  32.642  28.619  1.00  0.00     0.134 A 
ATOM     77  C   UNL A   1      35.876  30.603  28.880  1.00  0.00     0.134 A 
ATOM     78  F   UNL A   1      38.190  33.398  28.820  1.00  0.00    -0.206 F 
ATOM     79  C   UNL A   1      36.010  33.221  27.966  1.00  0.00     0.040 A 
ATOM     80  C   UNL A   1      34.789  31.161  28.204  1.00  0.00     0.040 A 
ATOM     81  F   UNL A   1      35.767  29.340  29.316  1.00  0.00    -0.206 F 
ATOM     82  C   UNL A   1      34.852  32.476  27.752  1.00  0.00     0.006 A 
ENDBRANCH  54  75
BRANCH  66  83
ATOM     83  C   UNL A   1      39.440  32.074  35.607  1.00  0.00     0.057 A 
ATOM     84  C   UNL A   1      38.539  31.618  36.577  1.00  0.00     0.134 A 
ATOM     85  C   UNL A   1      39.966  33.363  35.773  1.00  0.00     0.134 A 
ATOM     86  F   UNL A   1      37.989  30.397  36.475  1.00  0.00    -0.206 F 
ATOM     87  C   UNL A   1      38.157  32.420  37.655  1.00  0.00     0.040 A 
ATOM     88  C   UNL A   1      39.615  34.162  36.863  1.00  0.00     0.040 A 
ATOM     89  F   UNL A   1      40.844  33.860  34.888  1.00  0.00    -0.206 F 
ATOM     90  C   UNL A   1      38.702  33.694  37.804  1.00  0.00     0.006 A 
ENDBRANCH  66  83
ENDBRANCH  40  41
ENDBRANCH  33  35
ENDBRANCH  32  33
ENDBRANCH  31  32
ENDBRANCH  30  31
ENDBRANCH  29  30
ENDBRANCH  28  29
ENDBRANCH   1  28
TORSDOF 22
ENDMDL
