MODEL 1
REMARK VINA RESULT:     -11.1      0.000      0.000
REMARK SMILES CS(=O)(=O)c1ccc(N2N=C(C(=O)OCCOCCOCCOC(=O)c3ccc(-c4c5nc(c(-c6c(F)cccc6F)c6ccc([nH]6)c(-c6c(F)cccc6F)c6nc(c(-c7c(F)cccc7F)c7ccc4[nH]7)C=C6)C=C5)cc3)C[C@H]2c2cccs2)cc1
REMARK SMILES IDX 18 1 17 2 16 3 15 4 14 5 12 6 13 7 11 8 9 9 10 10 81 11
REMARK SMILES IDX 80 12 8 13 5 14 6 15 88 16 7 17 87 18 2 19 1 20 3 21 4 22
REMARK SMILES IDX 82 23 83 24 86 25 84 26 85 27 19 28 20 29 21 30 22 31 23 32
REMARK SMILES IDX 24 33 25 34 26 35 27 36 79 37 28 38 78 39 29 40 30 41 31 42
REMARK SMILES IDX 72 43 32 44 77 45 71 46 73 47 33 48 76 49 70 50 69 51 34 53
REMARK SMILES IDX 60 54 43 55 59 56 44 57 47 58 58 59 74 60 45 61 46 62 57 64
REMARK SMILES IDX 75 65 48 66 35 67 36 68 41 69 37 70 38 71 40 72 42 73 39 74
REMARK SMILES IDX 61 75 62 76 67 77 63 78 64 79 66 80 68 81 65 82 49 83 50 84
REMARK SMILES IDX 55 85 51 86 52 87 54 88 56 89 53 90
REMARK H PARENT 73 52 47 63
REMARK Flexibility Score: inf
ROOT
ATOM      1  C   UNL A   1      35.383  21.271  24.831  1.00  0.00     0.188 C 
ENDROOT
BRANCH   1   2
ATOM      2  O   UNL A   1      34.067  20.775  24.638  1.00  0.00    -0.376 OA
BRANCH   2   3
ATOM      3  C   UNL A   1      33.125  20.820  25.703  1.00  0.00     0.202 C 
BRANCH   3   4
ATOM      4  C   UNL A   1      31.958  21.823  25.684  1.00  0.00     0.261 C 
BRANCH   4   5
ATOM      5  O   UNL A   1      32.067  22.870  26.658  1.00  0.00    -0.459 OA
BRANCH   5   6
ATOM      6  C   UNL A   1      31.034  23.734  26.703  1.00  0.00     0.354 C 
ATOM      7  O   UNL A   1      29.969  23.597  27.275  1.00  0.00    -0.245 OA
BRANCH   6   8
ATOM      8  C   UNL A   1      31.421  25.028  26.031  1.00  0.00     0.148 C 
ATOM      9  N   UNL A   1      31.259  26.890  25.039  1.00  0.00    -0.256 N 
ATOM     10  N   UNL A   1      30.550  25.943  25.723  1.00  0.00    -0.169 NA
ATOM     11  C   UNL A   1      32.586  26.386  24.620  1.00  0.00     0.154 C 
ATOM     12  C   UNL A   1      32.852  25.360  25.734  1.00  0.00     0.099 C 
BRANCH   9  13
ATOM     13  C   UNL A   1      30.577  27.932  24.425  1.00  0.00     0.060 A 
ATOM     14  C   UNL A   1      29.094  30.026  23.254  1.00  0.00     0.067 A 
ATOM     15  C   UNL A   1      28.706  28.703  23.043  1.00  0.00     0.022 A 
ATOM     16  C   UNL A   1      30.236  30.311  24.005  1.00  0.00     0.022 A 
ATOM     17  C   UNL A   1      29.453  27.666  23.626  1.00  0.00     0.029 A 
ATOM     18  C   UNL A   1      30.976  29.266  24.567  1.00  0.00     0.029 A 
BRANCH  14  19
ATOM     19  S   UNL A   1      28.120  31.375  22.626  1.00  0.00     0.175 S 
ATOM     20  C   UNL A   1      29.114  32.831  22.796  1.00  0.00     0.163 C 
ATOM     21  O   UNL A   1      26.980  31.534  23.511  1.00  0.00    -0.224 OA
ATOM     22  O   UNL A   1      27.930  31.116  21.211  1.00  0.00    -0.224 OA
ENDBRANCH  14  19
ENDBRANCH   9  13
BRANCH  11  23
ATOM     23  C   UNL A   1      32.702  25.786  23.222  1.00  0.00     0.030 A 
ATOM     24  C   UNL A   1      32.568  26.454  22.015  1.00  0.00     0.017 A 
ATOM     25  S   UNL A   1      33.019  24.116  22.947  1.00  0.00    -0.147 S 
ATOM     26  C   UNL A   1      32.725  25.598  20.887  1.00  0.00     0.012 A 
ATOM     27  C   UNL A   1      33.016  24.306  21.257  1.00  0.00     0.065 A 
ENDBRANCH  11  23
ENDBRANCH   6   8
ENDBRANCH   5   6
ENDBRANCH   4   5
ENDBRANCH   3   4
ENDBRANCH   2   3
ENDBRANCH   1   2
BRANCH   1  28
ATOM     28  C   UNL A   1      36.556  20.283  24.982  1.00  0.00     0.188 C 
BRANCH  28  29
ATOM     29  O   UNL A   1      37.827  20.784  24.647  1.00  0.00    -0.376 OA
BRANCH  29  30
ATOM     30  C   UNL A   1      38.860  20.783  25.619  1.00  0.00     0.202 C 
BRANCH  30  31
ATOM     31  C   UNL A   1      39.648  19.543  26.100  1.00  0.00     0.261 C 
BRANCH  31  32
ATOM     32  O   UNL A   1      40.851  19.181  25.416  1.00  0.00    -0.460 OA
BRANCH  32  33
ATOM     33  C   UNL A   1      41.989  19.181  26.148  1.00  0.00     0.338 C 
ATOM     34  O   UNL A   1      42.755  18.245  26.331  1.00  0.00    -0.246 OA
BRANCH  33  35
ATOM     35  C   UNL A   1      42.279  20.572  26.544  1.00  0.00     0.060 A 
ATOM     36  C   UNL A   1      42.564  21.521  25.551  1.00  0.00     0.016 A 
ATOM     37  C   UNL A   1      42.264  20.936  27.890  1.00  0.00     0.016 A 
ATOM     38  C   UNL A   1      42.840  22.842  25.906  1.00  0.00     0.010 A 
ATOM     39  C   UNL A   1      42.568  22.252  28.244  1.00  0.00     0.010 A 
ATOM     40  C   UNL A   1      42.878  23.206  27.257  1.00  0.00    -0.014 A 
BRANCH  40  41
ATOM     41  C   UNL A   1      43.391  24.538  27.658  1.00  0.00     0.031 A 
ATOM     42  C   UNL A   1      42.404  25.589  28.084  1.00  0.00     0.074 A 
ATOM     43  C   UNL A   1      44.706  24.816  27.636  1.00  0.00     0.049 A 
ATOM     44  N   UNL A   1      42.603  26.848  28.376  1.00  0.00    -0.248 NA
ATOM     45  C   UNL A   1      41.001  25.157  28.193  1.00  0.00     0.031 C 
ATOM     46  C   UNL A   1      45.765  23.871  27.292  1.00  0.00     0.029 A 
ATOM     47  N   UNL A   1      45.369  25.991  27.891  1.00  0.00    -0.354 N 
ATOM     48  C   UNL A   1      41.352  27.363  28.687  1.00  0.00     0.074 A 
ATOM     49  C   UNL A   1      40.397  26.287  28.527  1.00  0.00     0.031 C 
ATOM     50  C   UNL A   1      46.948  24.511  27.333  1.00  0.00     0.029 A 
ATOM     51  C   UNL A   1      46.722  25.916  27.666  1.00  0.00     0.049 A 
ATOM     52  H   UNL A   1      44.918  26.808  28.204  1.00  0.00     0.167 HD
ATOM     53  C   UNL A   1      41.029  28.619  29.076  1.00  0.00     0.037 A 
ATOM     54  C   UNL A   1      47.663  26.882  27.691  1.00  0.00     0.037 A 
ATOM     55  C   UNL A   1      41.979  29.689  29.222  1.00  0.00     0.049 A 
ATOM     56  C   UNL A   1      47.264  28.295  28.033  1.00  0.00     0.074 A 
ATOM     57  C   UNL A   1      41.753  30.993  29.630  1.00  0.00     0.029 A 
ATOM     58  N   UNL A   1      43.336  29.583  28.954  1.00  0.00    -0.354 N 
ATOM     59  N   UNL A   1      46.084  28.769  28.355  1.00  0.00    -0.248 NA
ATOM     60  C   UNL A   1      48.330  29.309  28.014  1.00  0.00     0.031 C 
ATOM     61  C   UNL A   1      42.962  31.690  29.550  1.00  0.00     0.029 A 
ATOM     62  C   UNL A   1      43.954  30.806  29.157  1.00  0.00     0.049 A 
ATOM     63  H   UNL A   1      43.791  28.761  28.662  1.00  0.00     0.167 HD
ATOM     64  C   UNL A   1      46.272  30.123  28.608  1.00  0.00     0.074 A 
ATOM     65  C   UNL A   1      47.681  30.393  28.413  1.00  0.00     0.031 C 
ATOM     66  C   UNL A   1      45.360  31.059  28.971  1.00  0.00     0.037 A 
BRANCH  53  67
ATOM     67  C   UNL A   1      39.579  28.912  29.336  1.00  0.00     0.057 A 
ATOM     68  C   UNL A   1      39.012  28.778  30.610  1.00  0.00     0.134 A 
ATOM     69  C   UNL A   1      38.747  29.360  28.302  1.00  0.00     0.134 A 
ATOM     70  F   UNL A   1      39.750  28.338  31.640  1.00  0.00    -0.206 F 
ATOM     71  C   UNL A   1      37.663  29.058  30.841  1.00  0.00     0.040 A 
ATOM     72  C   UNL A   1      37.405  29.671  28.528  1.00  0.00     0.040 A 
ATOM     73  F   UNL A   1      39.227  29.514  27.059  1.00  0.00    -0.206 F 
ATOM     74  C   UNL A   1      36.858  29.514  29.799  1.00  0.00     0.006 A 
ENDBRANCH  53  67
BRANCH  54  75
ATOM     75  C   UNL A   1      49.074  26.558  27.361  1.00  0.00     0.057 A 
ATOM     76  C   UNL A   1      49.551  26.651  26.049  1.00  0.00     0.134 A 
ATOM     77  C   UNL A   1      49.971  26.117  28.342  1.00  0.00     0.134 A 
ATOM     78  F   UNL A   1      48.733  27.041  25.061  1.00  0.00    -0.206 F 
ATOM     79  C   UNL A   1      50.863  26.301  25.719  1.00  0.00     0.040 A 
ATOM     80  C   UNL A   1      51.292  25.790  28.033  1.00  0.00     0.040 A 
ATOM     81  F   UNL A   1      49.576  26.001  29.619  1.00  0.00    -0.206 F 
ATOM     82  C   UNL A   1      51.739  25.874  26.716  1.00  0.00     0.006 A 
ENDBRANCH  54  75
BRANCH  66  83
ATOM     83  C   UNL A   1      45.858  32.453  29.230  1.00  0.00     0.057 A 
ATOM     84  C   UNL A   1      45.901  33.428  28.225  1.00  0.00     0.134 A 
ATOM     85  C   UNL A   1      46.247  32.840  30.521  1.00  0.00     0.134 A 
ATOM     86  F   UNL A   1      45.553  33.121  26.966  1.00  0.00    -0.206 F 
ATOM     87  C   UNL A   1      46.331  34.730  28.489  1.00  0.00     0.040 A 
ATOM     88  C   UNL A   1      46.650  34.145  30.803  1.00  0.00     0.040 A 
ATOM     89  F   UNL A   1      46.220  31.960  31.532  1.00  0.00    -0.206 F 
ATOM     90  C   UNL A   1      46.699  35.094  29.784  1.00  0.00     0.006 A 
ENDBRANCH  66  83
ENDBRANCH  40  41
ENDBRANCH  33  35
ENDBRANCH  32  33
ENDBRANCH  31  32
ENDBRANCH  30  31
ENDBRANCH  29  30
ENDBRANCH  28  29
ENDBRANCH   1  28
TORSDOF 20
ENDMDL
MODEL 2
REMARK VINA RESULT:     -10.2      3.673      9.199
REMARK SMILES CS(=O)(=O)c1ccc(N2N=C(C(=O)OCCOCCOCCOC(=O)c3ccc(-c4c5nc(c(-c6c(F)cccc6F)c6ccc([nH]6)c(-c6c(F)cccc6F)c6nc(c(-c7c(F)cccc7F)c7ccc4[nH]7)C=C6)C=C5)cc3)C[C@H]2c2cccs2)cc1
REMARK SMILES IDX 18 1 17 2 16 3 15 4 14 5 12 6 13 7 11 8 9 9 10 10 81 11
REMARK SMILES IDX 80 12 8 13 5 14 6 15 88 16 7 17 87 18 2 19 1 20 3 21 4 22
REMARK SMILES IDX 82 23 83 24 86 25 84 26 85 27 19 28 20 29 21 30 22 31 23 32
REMARK SMILES IDX 24 33 25 34 26 35 27 36 79 37 28 38 78 39 29 40 30 41 31 42
REMARK SMILES IDX 72 43 32 44 77 45 71 46 73 47 33 48 76 49 70 50 69 51 34 53
REMARK SMILES IDX 60 54 43 55 59 56 44 57 47 58 58 59 74 60 45 61 46 62 57 64
REMARK SMILES IDX 75 65 48 66 35 67 36 68 41 69 37 70 38 71 40 72 42 73 39 74
REMARK SMILES IDX 61 75 62 76 67 77 63 78 64 79 66 80 68 81 65 82 49 83 50 84
REMARK SMILES IDX 55 85 51 86 52 87 54 88 56 89 53 90
REMARK H PARENT 73 52 47 63
REMARK Flexibility Score: inf
ROOT
ATOM      1  C   UNL A   1      33.663  35.374  29.974  1.00  0.00     0.188 C 
ENDROOT
BRANCH   1   2
ATOM      2  O   UNL A   1      33.158  34.278  29.227  1.00  0.00    -0.376 OA
BRANCH   2   3
ATOM      3  C   UNL A   1      33.989  33.157  28.953  1.00  0.00     0.202 C 
BRANCH   3   4
ATOM      4  C   UNL A   1      34.001  32.503  27.560  1.00  0.00     0.261 C 
BRANCH   4   5
ATOM      5  O   UNL A   1      33.330  31.238  27.498  1.00  0.00    -0.459 OA
BRANCH   5   6
ATOM      6  C   UNL A   1      34.109  30.178  27.205  1.00  0.00     0.354 C 
ATOM      7  O   UNL A   1      35.325  30.129  27.175  1.00  0.00    -0.245 OA
BRANCH   6   8
ATOM      8  C   UNL A   1      33.253  28.947  27.038  1.00  0.00     0.148 C 
ATOM      9  N   UNL A   1      32.684  26.952  26.618  1.00  0.00    -0.256 N 
ATOM     10  N   UNL A   1      33.761  27.768  26.827  1.00  0.00    -0.169 NA
ATOM     11  C   UNL A   1      31.448  27.728  26.370  1.00  0.00     0.154 C 
ATOM     12  C   UNL A   1      31.762  29.004  27.169  1.00  0.00     0.099 C 
BRANCH   9  13
ATOM     13  C   UNL A   1      32.897  25.646  26.199  1.00  0.00     0.060 A 
ATOM     14  C   UNL A   1      33.425  22.984  25.430  1.00  0.00     0.067 A 
ATOM     15  C   UNL A   1      34.332  23.992  25.101  1.00  0.00     0.022 A 
ATOM     16  C   UNL A   1      32.240  23.298  26.098  1.00  0.00     0.022 A 
ATOM     17  C   UNL A   1      34.060  25.315  25.483  1.00  0.00     0.029 A 
ATOM     18  C   UNL A   1      31.978  24.623  26.460  1.00  0.00     0.029 A 
BRANCH  14  19
ATOM     19  S   UNL A   1      33.778  21.280  25.061  1.00  0.00     0.175 S 
ATOM     20  C   UNL A   1      35.535  21.161  24.882  1.00  0.00     0.163 C 
ATOM     21  O   UNL A   1      33.198  20.992  23.762  1.00  0.00    -0.224 OA
ATOM     22  O   UNL A   1      33.386  20.520  26.233  1.00  0.00    -0.224 OA
ENDBRANCH  14  19
ENDBRANCH   9  13
BRANCH  11  23
ATOM     23  C   UNL A   1      31.076  28.015  24.919  1.00  0.00     0.030 A 
ATOM     24  C   UNL A   1      31.401  29.143  24.182  1.00  0.00     0.017 A 
ATOM     25  S   UNL A   1      30.150  26.924  23.960  1.00  0.00    -0.147 S 
ATOM     26  C   UNL A   1      30.891  29.103  22.852  1.00  0.00     0.012 A 
ATOM     27  C   UNL A   1      30.226  27.929  22.590  1.00  0.00     0.065 A 
ENDBRANCH  11  23
ENDBRANCH   6   8
ENDBRANCH   5   6
ENDBRANCH   4   5
ENDBRANCH   3   4
ENDBRANCH   2   3
ENDBRANCH   1   2
BRANCH   1  28
ATOM     28  C   UNL A   1      33.265  35.537  31.454  1.00  0.00     0.188 C 
BRANCH  28  29
ATOM     29  O   UNL A   1      34.312  35.430  32.386  1.00  0.00    -0.376 OA
BRANCH  29  30
ATOM     30  C   UNL A   1      35.139  34.278  32.382  1.00  0.00     0.202 C 
BRANCH  30  31
ATOM     31  C   UNL A   1      34.653  32.816  32.250  1.00  0.00     0.261 C 
BRANCH  31  32
ATOM     32  O   UNL A   1      35.554  31.755  32.580  1.00  0.00    -0.460 OA
BRANCH  32  33
ATOM     33  C   UNL A   1      36.635  32.085  33.324  1.00  0.00     0.338 C 
ATOM     34  O   UNL A   1      36.648  32.483  34.480  1.00  0.00    -0.246 OA
BRANCH  33  35
ATOM     35  C   UNL A   1      37.844  31.696  32.573  1.00  0.00     0.060 A 
ATOM     36  C   UNL A   1      37.795  31.656  31.171  1.00  0.00     0.016 A 
ATOM     37  C   UNL A   1      39.019  31.378  33.251  1.00  0.00     0.016 A 
ATOM     38  C   UNL A   1      38.928  31.291  30.443  1.00  0.00     0.010 A 
ATOM     39  C   UNL A   1      40.143  30.986  32.520  1.00  0.00     0.010 A 
ATOM     40  C   UNL A   1      40.098  30.920  31.115  1.00  0.00    -0.014 A 
BRANCH  40  41
ATOM     41  C   UNL A   1      41.227  30.314  30.372  1.00  0.00     0.031 A 
ATOM     42  C   UNL A   1      42.434  31.162  30.084  1.00  0.00     0.074 A 
ATOM     43  C   UNL A   1      41.181  29.039  29.949  1.00  0.00     0.049 A 
ATOM     44  N   UNL A   1      43.492  30.887  29.366  1.00  0.00    -0.248 NA
ATOM     45  C   UNL A   1      42.446  32.504  30.690  1.00  0.00     0.031 C 
ATOM     46  C   UNL A   1      40.093  28.100  30.207  1.00  0.00     0.029 A 
ATOM     47  N   UNL A   1      42.075  28.323  29.190  1.00  0.00    -0.354 N 
ATOM     48  C   UNL A   1      44.287  32.025  29.419  1.00  0.00     0.074 A 
ATOM     49  C   UNL A   1      43.580  33.001  30.220  1.00  0.00     0.031 C 
ATOM     50  C   UNL A   1      40.370  26.935  29.594  1.00  0.00     0.029 A 
ATOM     51  C   UNL A   1      41.633  27.062  28.869  1.00  0.00     0.049 A 
ATOM     52  H   UNL A   1      42.946  28.679  28.903  1.00  0.00     0.167 HD
ATOM     53  C   UNL A   1      45.500  32.235  28.854  1.00  0.00     0.037 A 
ATOM     54  C   UNL A   1      42.172  26.133  28.055  1.00  0.00     0.037 A 
ATOM     55  C   UNL A   1      46.195  31.266  28.048  1.00  0.00     0.049 A 
ATOM     56  C   UNL A   1      43.477  26.426  27.359  1.00  0.00     0.074 A 
ATOM     57  C   UNL A   1      47.436  31.377  27.447  1.00  0.00     0.029 A 
ATOM     58  N   UNL A   1      45.700  30.012  27.720  1.00  0.00    -0.354 N 
ATOM     59  N   UNL A   1      44.239  27.491  27.437  1.00  0.00    -0.248 NA
ATOM     60  C   UNL A   1      43.999  25.385  26.461  1.00  0.00     0.031 C 
ATOM     61  C   UNL A   1      47.668  30.214  26.707  1.00  0.00     0.029 A 
ATOM     62  C   UNL A   1      46.600  29.352  26.899  1.00  0.00     0.049 A 
ATOM     63  H   UNL A   1      44.839  29.647  28.024  1.00  0.00     0.167 HD
ATOM     64  C   UNL A   1      45.339  27.236  26.627  1.00  0.00     0.074 A 
ATOM     65  C   UNL A   1      45.153  25.910  26.076  1.00  0.00     0.031 C 
ATOM     66  C   UNL A   1      46.409  28.027  26.365  1.00  0.00     0.037 A 
BRANCH  53  67
ATOM     67  C   UNL A   1      46.136  33.579  29.061  1.00  0.00     0.057 A 
ATOM     68  C   UNL A   1      46.970  33.845  30.154  1.00  0.00     0.134 A 
ATOM     69  C   UNL A   1      45.934  34.612  28.137  1.00  0.00     0.134 A 
ATOM     70  F   UNL A   1      47.192  32.904  31.085  1.00  0.00    -0.206 F 
ATOM     71  C   UNL A   1      47.560  35.098  30.334  1.00  0.00     0.040 A 
ATOM     72  C   UNL A   1      46.543  35.858  28.290  1.00  0.00     0.040 A 
ATOM     73  F   UNL A   1      45.150  34.423  27.065  1.00  0.00    -0.206 F 
ATOM     74  C   UNL A   1      47.354  36.106  29.395  1.00  0.00     0.006 A 
ENDBRANCH  53  67
BRANCH  54  75
ATOM     75  C   UNL A   1      41.473  24.843  27.829  1.00  0.00     0.057 A 
ATOM     76  C   UNL A   1      41.874  23.676  28.490  1.00  0.00     0.134 A 
ATOM     77  C   UNL A   1      40.409  24.736  26.924  1.00  0.00     0.134 A 
ATOM     78  F   UNL A   1      42.904  23.708  29.347  1.00  0.00    -0.206 F 
ATOM     79  C   UNL A   1      41.256  22.447  28.248  1.00  0.00     0.040 A 
ATOM     80  C   UNL A   1      39.764  23.520  26.692  1.00  0.00     0.040 A 
ATOM     81  F   UNL A   1      39.978  25.815  26.255  1.00  0.00    -0.206 F 
ATOM     82  C   UNL A   1      40.193  22.369  27.350  1.00  0.00     0.006 A 
ENDBRANCH  54  75
BRANCH  66  83
ATOM     83  C   UNL A   1      47.488  27.468  25.482  1.00  0.00     0.057 A 
ATOM     84  C   UNL A   1      47.489  27.660  24.094  1.00  0.00     0.134 A 
ATOM     85  C   UNL A   1      48.573  26.775  26.038  1.00  0.00     0.134 A 
ATOM     86  F   UNL A   1      46.476  28.305  23.497  1.00  0.00    -0.206 F 
ATOM     87  C   UNL A   1      48.519  27.167  23.290  1.00  0.00     0.040 A 
ATOM     88  C   UNL A   1      49.622  26.304  25.248  1.00  0.00     0.040 A 
ATOM     89  F   UNL A   1      48.641  26.565  27.360  1.00  0.00    -0.206 F 
ATOM     90  C   UNL A   1      49.594  26.494  23.868  1.00  0.00     0.006 A 
ENDBRANCH  66  83
ENDBRANCH  40  41
ENDBRANCH  33  35
ENDBRANCH  32  33
ENDBRANCH  31  32
ENDBRANCH  30  31
ENDBRANCH  29  30
ENDBRANCH  28  29
ENDBRANCH   1  28
TORSDOF 20
ENDMDL
MODEL 3
REMARK VINA RESULT:     -10.1      3.350      8.364
REMARK SMILES CS(=O)(=O)c1ccc(N2N=C(C(=O)OCCOCCOCCOC(=O)c3ccc(-c4c5nc(c(-c6c(F)cccc6F)c6ccc([nH]6)c(-c6c(F)cccc6F)c6nc(c(-c7c(F)cccc7F)c7ccc4[nH]7)C=C6)C=C5)cc3)C[C@H]2c2cccs2)cc1
REMARK SMILES IDX 18 1 17 2 16 3 15 4 14 5 12 6 13 7 11 8 9 9 10 10 81 11
REMARK SMILES IDX 80 12 8 13 5 14 6 15 88 16 7 17 87 18 2 19 1 20 3 21 4 22
REMARK SMILES IDX 82 23 83 24 86 25 84 26 85 27 19 28 20 29 21 30 22 31 23 32
REMARK SMILES IDX 24 33 25 34 26 35 27 36 79 37 28 38 78 39 29 40 30 41 31 42
REMARK SMILES IDX 72 43 32 44 77 45 71 46 73 47 33 48 76 49 70 50 69 51 34 53
REMARK SMILES IDX 60 54 43 55 59 56 44 57 47 58 58 59 74 60 45 61 46 62 57 64
REMARK SMILES IDX 75 65 48 66 35 67 36 68 41 69 37 70 38 71 40 72 42 73 39 74
REMARK SMILES IDX 61 75 62 76 67 77 63 78 64 79 66 80 68 81 65 82 49 83 50 84
REMARK SMILES IDX 55 85 51 86 52 87 54 88 56 89 53 90
REMARK H PARENT 73 52 47 63
REMARK Flexibility Score: inf
ROOT
ATOM      1  C   UNL A   1      34.177  34.598  29.515  1.00  0.00     0.188 C 
ENDROOT
BRANCH   1   2
ATOM      2  O   UNL A   1      35.346  34.057  28.920  1.00  0.00    -0.376 OA
BRANCH   2   3
ATOM      3  C   UNL A   1      35.244  32.976  28.000  1.00  0.00     0.202 C 
BRANCH   3   4
ATOM      4  C   UNL A   1      33.879  32.349  27.666  1.00  0.00     0.261 C 
BRANCH   4   5
ATOM      5  O   UNL A   1      33.730  30.993  28.107  1.00  0.00    -0.459 OA
BRANCH   5   6
ATOM      6  C   UNL A   1      34.324  30.061  27.337  1.00  0.00     0.354 C 
ATOM      7  O   UNL A   1      35.489  30.012  26.987  1.00  0.00    -0.245 OA
BRANCH   6   8
ATOM      8  C   UNL A   1      33.353  28.943  27.048  1.00  0.00     0.148 C 
ATOM      9  N   UNL A   1      32.602  27.033  26.531  1.00  0.00    -0.256 N 
ATOM     10  N   UNL A   1      33.736  27.711  26.881  1.00  0.00    -0.169 NA
ATOM     11  C   UNL A   1      31.509  27.954  26.148  1.00  0.00     0.154 C 
ATOM     12  C   UNL A   1      31.875  29.182  26.999  1.00  0.00     0.099 C 
BRANCH   9  13
ATOM     13  C   UNL A   1      32.705  25.711  26.120  1.00  0.00     0.060 A 
ATOM     14  C   UNL A   1      32.812  23.042  25.214  1.00  0.00     0.067 A 
ATOM     15  C   UNL A   1      31.776  23.445  26.057  1.00  0.00     0.022 A 
ATOM     16  C   UNL A   1      33.816  23.944  24.856  1.00  0.00     0.022 A 
ATOM     17  C   UNL A   1      31.732  24.773  26.507  1.00  0.00     0.029 A 
ATOM     18  C   UNL A   1      33.764  25.261  25.324  1.00  0.00     0.029 A 
BRANCH  14  19
ATOM     19  S   UNL A   1      32.851  21.400  24.533  1.00  0.00     0.175 S 
ATOM     20  C   UNL A   1      34.391  20.686  25.036  1.00  0.00     0.163 C 
ATOM     21  O   UNL A   1      32.897  21.533  23.088  1.00  0.00    -0.224 OA
ATOM     22  O   UNL A   1      31.776  20.667  25.176  1.00  0.00    -0.224 OA
ENDBRANCH  14  19
ENDBRANCH   9  13
BRANCH  11  23
ATOM     23  C   UNL A   1      31.354  28.285  24.667  1.00  0.00     0.030 A 
ATOM     24  C   UNL A   1      30.225  28.099  23.884  1.00  0.00     0.017 A 
ATOM     25  S   UNL A   1      32.629  28.958  23.723  1.00  0.00    -0.147 S 
ATOM     26  C   UNL A   1      30.415  28.504  22.531  1.00  0.00     0.012 A 
ATOM     27  C   UNL A   1      31.667  29.029  22.321  1.00  0.00     0.065 A 
ENDBRANCH  11  23
ENDBRANCH   6   8
ENDBRANCH   5   6
ENDBRANCH   4   5
ENDBRANCH   3   4
ENDBRANCH   2   3
ENDBRANCH   1   2
BRANCH   1  28
ATOM     28  C   UNL A   1      33.985  34.506  31.041  1.00  0.00     0.188 C 
BRANCH  28  29
ATOM     29  O   UNL A   1      35.154  34.621  31.814  1.00  0.00    -0.376 OA
BRANCH  29  30
ATOM     30  C   UNL A   1      35.897  33.458  32.140  1.00  0.00     0.202 C 
BRANCH  30  31
ATOM     31  C   UNL A   1      35.561  32.016  31.694  1.00  0.00     0.261 C 
BRANCH  31  32
ATOM     32  O   UNL A   1      36.435  31.356  30.774  1.00  0.00    -0.460 OA
BRANCH  32  33
ATOM     33  C   UNL A   1      36.897  30.139  31.141  1.00  0.00     0.338 C 
ATOM     34  O   UNL A   1      36.281  29.251  31.711  1.00  0.00    -0.246 OA
BRANCH  33  35
ATOM     35  C   UNL A   1      38.242  29.966  30.559  1.00  0.00     0.060 A 
ATOM     36  C   UNL A   1      38.398  30.021  29.166  1.00  0.00     0.016 A 
ATOM     37  C   UNL A   1      39.343  29.754  31.387  1.00  0.00     0.016 A 
ATOM     38  C   UNL A   1      39.661  29.861  28.596  1.00  0.00     0.010 A 
ATOM     39  C   UNL A   1      40.603  29.566  30.813  1.00  0.00     0.010 A 
ATOM     40  C   UNL A   1      40.765  29.597  29.416  1.00  0.00    -0.014 A 
BRANCH  40  41
ATOM     41  C   UNL A   1      42.061  29.198  28.818  1.00  0.00     0.031 A 
ATOM     42  C   UNL A   1      42.248  27.767  28.398  1.00  0.00     0.074 A 
ATOM     43  C   UNL A   1      43.061  30.083  28.661  1.00  0.00     0.049 A 
ATOM     44  N   UNL A   1      43.318  27.163  27.953  1.00  0.00    -0.248 NA
ATOM     45  C   UNL A   1      41.061  26.901  28.496  1.00  0.00     0.031 C 
ATOM     46  C   UNL A   1      42.989  31.506  28.980  1.00  0.00     0.029 A 
ATOM     47  N   UNL A   1      44.345  29.901  28.208  1.00  0.00    -0.354 N 
ATOM     48  C   UNL A   1      42.941  25.845  27.733  1.00  0.00     0.074 A 
ATOM     49  C   UNL A   1      41.550  25.731  28.115  1.00  0.00     0.031 C 
ATOM     50  C   UNL A   1      44.187  32.067  28.738  1.00  0.00     0.029 A 
ATOM     51  C   UNL A   1      45.118  31.035  28.285  1.00  0.00     0.049 A 
ATOM     52  H   UNL A   1      44.678  29.042  27.863  1.00  0.00     0.167 HD
ATOM     53  C   UNL A   1      43.687  24.822  27.252  1.00  0.00     0.037 A 
ATOM     54  C   UNL A   1      46.433  31.207  28.050  1.00  0.00     0.037 A 
ATOM     55  C   UNL A   1      45.074  24.936  26.884  1.00  0.00     0.049 A 
ATOM     56  C   UNL A   1      47.266  30.031  27.606  1.00  0.00     0.074 A 
ATOM     57  C   UNL A   1      45.911  23.962  26.369  1.00  0.00     0.029 A 
ATOM     58  N   UNL A   1      45.830  26.092  27.007  1.00  0.00    -0.354 N 
ATOM     59  N   UNL A   1      46.898  28.794  27.372  1.00  0.00    -0.248 NA
ATOM     60  C   UNL A   1      48.702  30.276  27.395  1.00  0.00     0.031 C 
ATOM     61  C   UNL A   1      47.189  24.513  26.235  1.00  0.00     0.029 A 
ATOM     62  C   UNL A   1      47.133  25.847  26.605  1.00  0.00     0.049 A 
ATOM     63  H   UNL A   1      45.492  26.957  27.331  1.00  0.00     0.167 HD
ATOM     64  C   UNL A   1      48.043  28.125  26.956  1.00  0.00     0.074 A 
ATOM     65  C   UNL A   1      49.118  29.095  26.959  1.00  0.00     0.031 C 
ATOM     66  C   UNL A   1      48.192  26.825  26.601  1.00  0.00     0.037 A 
BRANCH  53  67
ATOM     67  C   UNL A   1      43.025  23.480  27.129  1.00  0.00     0.057 A 
ATOM     68  C   UNL A   1      42.799  22.659  28.241  1.00  0.00     0.134 A 
ATOM     69  C   UNL A   1      42.581  23.017  25.884  1.00  0.00     0.134 A 
ATOM     70  F   UNL A   1      43.214  23.036  29.461  1.00  0.00    -0.206 F 
ATOM     71  C   UNL A   1      42.177  21.415  28.116  1.00  0.00     0.040 A 
ATOM     72  C   UNL A   1      41.932  21.789  25.750  1.00  0.00     0.040 A 
ATOM     73  F   UNL A   1      42.762  23.755  24.778  1.00  0.00    -0.206 F 
ATOM     74  C   UNL A   1      41.734  20.981  26.868  1.00  0.00     0.006 A 
ENDBRANCH  53  67
BRANCH  54  75
ATOM     75  C   UNL A   1      47.059  32.539  28.249  1.00  0.00     0.057 A 
ATOM     76  C   UNL A   1      47.138  33.466  27.203  1.00  0.00     0.134 A 
ATOM     77  C   UNL A   1      47.621  32.906  29.477  1.00  0.00     0.134 A 
ATOM     78  F   UNL A   1      46.642  33.162  25.995  1.00  0.00    -0.206 F 
ATOM     79  C   UNL A   1      47.768  34.701  27.365  1.00  0.00     0.040 A 
ATOM     80  C   UNL A   1      48.230  34.149  29.662  1.00  0.00     0.040 A 
ATOM     81  F   UNL A   1      47.583  32.063  30.519  1.00  0.00    -0.206 F 
ATOM     82  C   UNL A   1      48.312  35.048  28.600  1.00  0.00     0.006 A 
ENDBRANCH  54  75
BRANCH  66  83
ATOM     83  C   UNL A   1      49.551  26.380  26.140  1.00  0.00     0.057 A 
ATOM     84  C   UNL A   1      50.042  26.686  24.864  1.00  0.00     0.134 A 
ATOM     85  C   UNL A   1      50.403  25.683  27.009  1.00  0.00     0.134 A 
ATOM     86  F   UNL A   1      49.275  27.341  23.980  1.00  0.00    -0.206 F 
ATOM     87  C   UNL A   1      51.322  26.299  24.463  1.00  0.00     0.040 A 
ATOM     88  C   UNL A   1      51.695  25.317  26.629  1.00  0.00     0.040 A 
ATOM     89  F   UNL A   1      50.000  25.367  28.248  1.00  0.00    -0.206 F 
ATOM     90  C   UNL A   1      52.155  25.619  25.349  1.00  0.00     0.006 A 
ENDBRANCH  66  83
ENDBRANCH  40  41
ENDBRANCH  33  35
ENDBRANCH  32  33
ENDBRANCH  31  32
ENDBRANCH  30  31
ENDBRANCH  29  30
ENDBRANCH  28  29
ENDBRANCH   1  28
TORSDOF 20
ENDMDL
