MODEL 1
REMARK VINA RESULT:     -10.8      0.000      0.000
REMARK SMILES C[C@@H]1CN(C(=O)NC[C@@H]2CC[C@H](C(=O)OCCOCCOCCOC(=O)c3ccc(-c4c5nc(c(-c6c(F)cccc6F)c6ccc([nH]6)c(-c6c(F)cccc6F)c6nc(c(-c7c(F)cccc7F)c7ccc4[nH]7)C=C6)C=C5)cc3)O2)CC(C)(C)O1
REMARK SMILES IDX 19 1 18 2 17 3 16 4 15 5 13 6 14 7 12 8 9 9 10 10 81 11
REMARK SMILES IDX 11 12 8 13 7 14 5 15 6 16 4 18 1 19 2 20 3 21 86 22 83 23
REMARK SMILES IDX 82 24 84 25 85 26 20 27 21 28 22 29 23 30 24 31 25 32 26 33
REMARK SMILES IDX 27 34 28 35 80 36 29 37 79 38 30 39 31 40 32 41 73 42 33 43
REMARK SMILES IDX 78 44 72 45 74 46 34 47 77 48 71 49 70 50 35 52 61 53 44 54
REMARK SMILES IDX 60 55 45 56 48 57 59 58 75 59 46 60 47 61 58 63 76 64 49 65
REMARK SMILES IDX 36 66 37 67 42 68 38 69 39 70 41 71 43 72 40 73 62 74 63 75
REMARK SMILES IDX 68 76 64 77 65 78 67 79 69 80 66 81 50 82 51 83 56 84 52 85
REMARK SMILES IDX 53 86 55 87 57 88 54 89
REMARK H PARENT 7 17 74 51 48 62
REMARK Flexibility Score: inf
ROOT
ATOM      1  C   UNL A   1      39.494  21.774  26.005  1.00  0.00     0.188 C 
ENDROOT
BRANCH   1   2
ATOM      2  O   UNL A   1      39.111  22.967  26.671  1.00  0.00    -0.376 OA
BRANCH   2   3
ATOM      3  C   UNL A   1      38.027  23.713  26.108  1.00  0.00     0.202 C 
BRANCH   3   4
ATOM      4  C   UNL A   1      36.803  22.928  25.605  1.00  0.00     0.261 C 
BRANCH   4   5
ATOM      5  O   UNL A   1      35.647  23.036  26.473  1.00  0.00    -0.461 OA
BRANCH   5   6
ATOM      6  C   UNL A   1      34.765  22.005  26.414  1.00  0.00     0.335 C 
ATOM      7  O   UNL A   1      34.295  21.460  27.408  1.00  0.00    -0.249 OA
BRANCH   6   8
ATOM      8  C   UNL A   1      34.387  21.570  24.984  1.00  0.00     0.228 C 
ATOM      9  C   UNL A   1      32.190  22.225  24.665  1.00  0.00     0.138 C 
ATOM     10  C   UNL A   1      32.153  20.706  24.736  1.00  0.00     0.037 C 
ATOM     11  O   UNL A   1      33.559  22.585  24.405  1.00  0.00    -0.361 OA
ATOM     12  C   UNL A   1      33.607  20.299  24.706  1.00  0.00     0.047 C 
BRANCH   9  13
ATOM     13  C   UNL A   1      31.678  22.836  25.986  1.00  0.00     0.149 C 
BRANCH  13  14
ATOM     14  N   UNL A   1      30.665  23.853  25.807  1.00  0.00    -0.335 N 
ATOM     15  C   UNL A   1      30.614  25.186  25.795  1.00  0.00     0.317 C 
ATOM     16  O   UNL A   1      29.522  25.662  25.463  1.00  0.00    -0.249 OA
ATOM     17  H   UNL A   1      29.778  23.454  25.652  1.00  0.00     0.165 HD
BRANCH  15  18
ATOM     18  N   UNL A   1      31.677  25.979  26.083  1.00  0.00    -0.319 N 
ATOM     19  C   UNL A   1      33.632  26.175  23.574  1.00  0.00     0.040 C 
ATOM     20  C   UNL A   1      33.799  26.642  25.017  1.00  0.00     0.135 C 
ATOM     21  C   UNL A   1      33.109  25.720  26.033  1.00  0.00     0.153 C 
ATOM     22  O   UNL A   1      33.440  28.023  25.185  1.00  0.00    -0.369 OA
ATOM     23  C   UNL A   1      32.043  28.318  25.410  1.00  0.00     0.081 C 
ATOM     24  C   UNL A   1      31.408  27.367  26.449  1.00  0.00     0.156 C 
ATOM     25  C   UNL A   1      31.261  28.314  24.090  1.00  0.00     0.044 C 
ATOM     26  C   UNL A   1      32.023  29.741  25.981  1.00  0.00     0.044 C 
ENDBRANCH  15  18
ENDBRANCH  13  14
ENDBRANCH   9  13
ENDBRANCH   6   8
ENDBRANCH   5   6
ENDBRANCH   4   5
ENDBRANCH   3   4
ENDBRANCH   2   3
ENDBRANCH   1   2
BRANCH   1  27
ATOM     27  C   UNL A   1      40.468  20.851  26.744  1.00  0.00     0.188 C 
BRANCH  27  28
ATOM     28  O   UNL A   1      41.268  20.055  25.898  1.00  0.00    -0.376 OA
BRANCH  28  29
ATOM     29  C   UNL A   1      42.659  19.897  26.138  1.00  0.00     0.202 C 
BRANCH  29  30
ATOM     30  C   UNL A   1      43.674  20.973  25.694  1.00  0.00     0.261 C 
BRANCH  30  31
ATOM     31  O   UNL A   1      43.671  22.227  26.398  1.00  0.00    -0.460 OA
BRANCH  31  32
ATOM     32  C   UNL A   1      43.464  23.361  25.686  1.00  0.00     0.338 C 
ATOM     33  O   UNL A   1      43.389  23.458  24.473  1.00  0.00    -0.246 OA
BRANCH  32  34
ATOM     34  C   UNL A   1      43.023  24.405  26.655  1.00  0.00     0.060 A 
ATOM     35  C   UNL A   1      43.550  25.702  26.525  1.00  0.00     0.016 A 
ATOM     36  C   UNL A   1      42.000  24.159  27.574  1.00  0.00     0.016 A 
ATOM     37  C   UNL A   1      43.061  26.748  27.316  1.00  0.00     0.010 A 
ATOM     38  C   UNL A   1      41.532  25.199  28.384  1.00  0.00     0.010 A 
ATOM     39  C   UNL A   1      42.067  26.496  28.271  1.00  0.00    -0.014 A 
BRANCH  39  40
ATOM     40  C   UNL A   1      41.692  27.522  29.277  1.00  0.00     0.031 A 
ATOM     41  C   UNL A   1      42.427  27.529  30.588  1.00  0.00     0.074 A 
ATOM     42  C   UNL A   1      40.701  28.406  29.062  1.00  0.00     0.049 A 
ATOM     43  N   UNL A   1      42.183  28.207  31.678  1.00  0.00    -0.248 NA
ATOM     44  C   UNL A   1      43.596  26.639  30.677  1.00  0.00     0.031 C 
ATOM     45  C   UNL A   1      39.946  28.553  27.821  1.00  0.00     0.029 A 
ATOM     46  N   UNL A   1      40.143  29.337  29.908  1.00  0.00    -0.354 N 
ATOM     47  C   UNL A   1      43.156  27.817  32.589  1.00  0.00     0.074 A 
ATOM     48  C   UNL A   1      43.984  26.830  31.929  1.00  0.00     0.031 C 
ATOM     49  C   UNL A   1      39.004  29.498  27.994  1.00  0.00     0.029 A 
ATOM     50  C   UNL A   1      39.058  29.988  29.371  1.00  0.00     0.049 A 
ATOM     51  H   UNL A   1      40.488  29.520  30.812  1.00  0.00     0.167 HD
ATOM     52  C   UNL A   1      43.343  28.241  33.860  1.00  0.00     0.037 A 
ATOM     53  C   UNL A   1      38.185  30.844  29.940  1.00  0.00     0.037 A 
ATOM     54  C   UNL A   1      42.516  29.215  34.520  1.00  0.00     0.049 A 
ATOM     55  C   UNL A   1      38.344  31.216  31.393  1.00  0.00     0.074 A 
ATOM     56  C   UNL A   1      42.641  29.724  35.800  1.00  0.00     0.029 A 
ATOM     57  N   UNL A   1      41.403  29.817  33.955  1.00  0.00    -0.354 N 
ATOM     58  N   UNL A   1      39.276  30.859  32.244  1.00  0.00    -0.248 NA
ATOM     59  C   UNL A   1      37.319  32.102  31.971  1.00  0.00     0.031 C 
ATOM     60  C   UNL A   1      41.566  30.589  36.032  1.00  0.00     0.029 A 
ATOM     61  C   UNL A   1      40.806  30.662  34.876  1.00  0.00     0.049 A 
ATOM     62  H   UNL A   1      41.083  29.666  33.036  1.00  0.00     0.167 HD
ATOM     63  C   UNL A   1      38.964  31.490  33.444  1.00  0.00     0.074 A 
ATOM     64  C   UNL A   1      37.764  32.265  33.209  1.00  0.00     0.031 C 
ATOM     65  C   UNL A   1      39.613  31.432  34.632  1.00  0.00     0.037 A 
BRANCH  52  66
ATOM     66  C   UNL A   1      44.468  27.622  34.635  1.00  0.00     0.057 A 
ATOM     67  C   UNL A   1      44.298  26.449  35.382  1.00  0.00     0.134 A 
ATOM     68  C   UNL A   1      45.747  28.192  34.608  1.00  0.00     0.134 A 
ATOM     69  F   UNL A   1      43.094  25.863  35.463  1.00  0.00    -0.206 F 
ATOM     70  C   UNL A   1      45.355  25.878  36.091  1.00  0.00     0.040 A 
ATOM     71  C   UNL A   1      46.818  27.615  35.290  1.00  0.00     0.040 A 
ATOM     72  F   UNL A   1      45.978  29.315  33.910  1.00  0.00    -0.206 F 
ATOM     73  C   UNL A   1      46.622  26.458  36.040  1.00  0.00     0.006 A 
ENDBRANCH  52  66
BRANCH  53  74
ATOM     74  C   UNL A   1      37.042  31.381  29.154  1.00  0.00     0.057 A 
ATOM     75  C   UNL A   1      37.036  32.702  28.692  1.00  0.00     0.134 A 
ATOM     76  C   UNL A   1      35.912  30.601  28.882  1.00  0.00     0.134 A 
ATOM     77  F   UNL A   1      38.074  33.512  28.950  1.00  0.00    -0.206 F 
ATOM     78  C   UNL A   1      35.945  33.232  28.000  1.00  0.00     0.040 A 
ATOM     79  C   UNL A   1      34.825  31.108  28.168  1.00  0.00     0.040 A 
ATOM     80  F   UNL A   1      35.848  29.330  29.305  1.00  0.00    -0.206 F 
ATOM     81  C   UNL A   1      34.837  32.432  27.731  1.00  0.00     0.006 A 
ENDBRANCH  53  74
BRANCH  65  82
ATOM     82  C   UNL A   1      39.061  32.240  35.772  1.00  0.00     0.057 A 
ATOM     83  C   UNL A   1      38.201  31.680  36.724  1.00  0.00     0.134 A 
ATOM     84  C   UNL A   1      39.452  33.572  35.958  1.00  0.00     0.134 A 
ATOM     85  F   UNL A   1      37.780  30.413  36.600  1.00  0.00    -0.206 F 
ATOM     86  C   UNL A   1      37.741  32.420  37.816  1.00  0.00     0.040 A 
ATOM     87  C   UNL A   1      39.020  34.314  37.059  1.00  0.00     0.040 A 
ATOM     88  F   UNL A   1      40.282  34.167  35.088  1.00  0.00    -0.206 F 
ATOM     89  C   UNL A   1      38.159  33.739  37.990  1.00  0.00     0.006 A 
ENDBRANCH  65  82
ENDBRANCH  39  40
ENDBRANCH  32  34
ENDBRANCH  31  32
ENDBRANCH  30  31
ENDBRANCH  29  30
ENDBRANCH  28  29
ENDBRANCH  27  28
ENDBRANCH   1  27
TORSDOF 20
ENDMDL
MODEL 2
REMARK VINA RESULT:     -10.3      1.830      7.074
REMARK SMILES C[C@@H]1CN(C(=O)NC[C@@H]2CC[C@H](C(=O)OCCOCCOCCOC(=O)c3ccc(-c4c5nc(c(-c6c(F)cccc6F)c6ccc([nH]6)c(-c6c(F)cccc6F)c6nc(c(-c7c(F)cccc7F)c7ccc4[nH]7)C=C6)C=C5)cc3)O2)CC(C)(C)O1
REMARK SMILES IDX 19 1 18 2 17 3 16 4 15 5 13 6 14 7 12 8 9 9 10 10 81 11
REMARK SMILES IDX 11 12 8 13 7 14 5 15 6 16 4 18 1 19 2 20 3 21 86 22 83 23
REMARK SMILES IDX 82 24 84 25 85 26 20 27 21 28 22 29 23 30 24 31 25 32 26 33
REMARK SMILES IDX 27 34 28 35 80 36 29 37 79 38 30 39 31 40 32 41 73 42 33 43
REMARK SMILES IDX 78 44 72 45 74 46 34 47 77 48 71 49 70 50 35 52 61 53 44 54
REMARK SMILES IDX 60 55 45 56 48 57 59 58 75 59 46 60 47 61 58 63 76 64 49 65
REMARK SMILES IDX 36 66 37 67 42 68 38 69 39 70 41 71 43 72 40 73 62 74 63 75
REMARK SMILES IDX 68 76 64 77 65 78 67 79 69 80 66 81 50 82 51 83 56 84 52 85
REMARK SMILES IDX 53 86 55 87 57 88 54 89
REMARK H PARENT 7 17 74 51 48 62
REMARK Flexibility Score: inf
ROOT
ATOM      1  C   UNL A   1      44.785  18.849  24.998  1.00  0.00     0.188 C 
ENDROOT
BRANCH   1   2
ATOM      2  O   UNL A   1      44.160  18.038  25.980  1.00  0.00    -0.376 OA
BRANCH   2   3
ATOM      3  C   UNL A   1      42.843  18.413  26.398  1.00  0.00     0.202 C 
BRANCH   3   4
ATOM      4  C   UNL A   1      42.220  19.667  25.760  1.00  0.00     0.261 C 
BRANCH   4   5
ATOM      5  O   UNL A   1      41.753  20.640  26.729  1.00  0.00    -0.461 OA
BRANCH   5   6
ATOM      6  C   UNL A   1      41.730  21.930  26.306  1.00  0.00     0.335 C 
ATOM      7  O   UNL A   1      42.253  22.308  25.262  1.00  0.00    -0.249 OA
BRANCH   6   8
ATOM      8  C   UNL A   1      40.978  22.896  27.242  1.00  0.00     0.228 C 
ATOM      9  C   UNL A   1      38.733  22.704  26.709  1.00  0.00     0.138 C 
ATOM     10  C   UNL A   1      39.148  24.086  26.227  1.00  0.00     0.037 C 
ATOM     11  O   UNL A   1      39.748  22.279  27.638  1.00  0.00    -0.361 OA
ATOM     12  C   UNL A   1      40.535  24.276  26.794  1.00  0.00     0.047 C 
BRANCH   9  13
ATOM     13  C   UNL A   1      38.608  21.735  25.515  1.00  0.00     0.149 C 
BRANCH  13  14
ATOM     14  N   UNL A   1      37.830  22.259  24.415  1.00  0.00    -0.335 N 
ATOM     15  C   UNL A   1      36.566  22.633  24.205  1.00  0.00     0.317 C 
ATOM     16  O   UNL A   1      36.356  23.165  23.109  1.00  0.00    -0.249 OA
ATOM     17  H   UNL A   1      38.380  22.370  23.605  1.00  0.00     0.165 HD
BRANCH  15  18
ATOM     18  N   UNL A   1      35.580  22.485  25.125  1.00  0.00    -0.319 N 
ATOM     19  C   UNL A   1      33.426  24.816  24.830  1.00  0.00     0.040 C 
ATOM     20  C   UNL A   1      33.610  23.747  25.904  1.00  0.00     0.135 C 
ATOM     21  C   UNL A   1      35.082  23.389  26.153  1.00  0.00     0.153 C 
ATOM     22  O   UNL A   1      32.789  22.592  25.666  1.00  0.00    -0.369 OA
ATOM     23  C   UNL A   1      33.318  21.579  24.780  1.00  0.00     0.081 C 
ATOM     24  C   UNL A   1      34.796  21.253  25.086  1.00  0.00     0.156 C 
ATOM     25  C   UNL A   1      33.120  21.976  23.311  1.00  0.00     0.044 C 
ATOM     26  C   UNL A   1      32.478  20.327  25.060  1.00  0.00     0.044 C 
ENDBRANCH  15  18
ENDBRANCH  13  14
ENDBRANCH   9  13
ENDBRANCH   6   8
ENDBRANCH   5   6
ENDBRANCH   4   5
ENDBRANCH   3   4
ENDBRANCH   2   3
ENDBRANCH   1   2
BRANCH   1  27
ATOM     27  C   UNL A   1      46.099  19.529  25.397  1.00  0.00     0.188 C 
BRANCH  27  28
ATOM     28  O   UNL A   1      46.263  20.827  24.871  1.00  0.00    -0.376 OA
BRANCH  28  29
ATOM     29  C   UNL A   1      45.684  21.957  25.509  1.00  0.00     0.202 C 
BRANCH  29  30
ATOM     30  C   UNL A   1      45.852  23.377  24.927  1.00  0.00     0.261 C 
BRANCH  30  31
ATOM     31  O   UNL A   1      44.912  24.384  25.340  1.00  0.00    -0.460 OA
BRANCH  31  32
ATOM     32  C   UNL A   1      45.357  25.657  25.483  1.00  0.00     0.338 C 
ATOM     33  O   UNL A   1      45.993  26.303  24.668  1.00  0.00    -0.246 OA
BRANCH  32  34
ATOM     34  C   UNL A   1      44.658  26.229  26.669  1.00  0.00     0.060 A 
ATOM     35  C   UNL A   1      44.719  27.618  26.874  1.00  0.00     0.016 A 
ATOM     36  C   UNL A   1      43.833  25.442  27.477  1.00  0.00     0.016 A 
ATOM     37  C   UNL A   1      43.962  28.218  27.887  1.00  0.00     0.010 A 
ATOM     38  C   UNL A   1      43.099  26.040  28.506  1.00  0.00     0.010 A 
ATOM     39  C   UNL A   1      43.168  27.428  28.727  1.00  0.00    -0.014 A 
BRANCH  39  40
ATOM     40  C   UNL A   1      42.539  27.997  29.946  1.00  0.00     0.031 A 
ATOM     41  C   UNL A   1      41.248  28.751  29.789  1.00  0.00     0.074 A 
ATOM     42  C   UNL A   1      43.106  27.890  31.162  1.00  0.00     0.049 A 
ATOM     43  N   UNL A   1      40.591  29.473  30.660  1.00  0.00    -0.248 NA
ATOM     44  C   UNL A   1      40.617  28.684  28.461  1.00  0.00     0.031 C 
ATOM     45  C   UNL A   1      44.321  27.141  31.470  1.00  0.00     0.029 A 
ATOM     46  N   UNL A   1      42.737  28.445  32.366  1.00  0.00    -0.354 N 
ATOM     47  C   UNL A   1      39.480  29.958  29.983  1.00  0.00     0.074 A 
ATOM     48  C   UNL A   1      39.560  29.463  28.626  1.00  0.00     0.031 C 
ATOM     49  C   UNL A   1      44.614  27.304  32.773  1.00  0.00     0.029 A 
ATOM     50  C   UNL A   1      43.636  28.207  33.378  1.00  0.00     0.049 A 
ATOM     51  H   UNL A   1      41.909  28.962  32.490  1.00  0.00     0.167 HD
ATOM     52  C   UNL A   1      38.483  30.745  30.450  1.00  0.00     0.037 A 
ATOM     53  C   UNL A   1      43.686  28.700  34.633  1.00  0.00     0.037 A 
ATOM     54  C   UNL A   1      38.407  31.244  31.796  1.00  0.00     0.049 A 
ATOM     55  C   UNL A   1      42.626  29.668  35.098  1.00  0.00     0.074 A 
ATOM     56  C   UNL A   1      37.423  32.032  32.368  1.00  0.00     0.029 A 
ATOM     57  N   UNL A   1      39.359  31.016  32.777  1.00  0.00    -0.354 N 
ATOM     58  N   UNL A   1      41.567  30.108  34.460  1.00  0.00    -0.248 NA
ATOM     59  C   UNL A   1      42.775  30.220  36.455  1.00  0.00     0.031 C 
ATOM     60  C   UNL A   1      37.811  32.331  33.678  1.00  0.00     0.029 A 
ATOM     61  C   UNL A   1      39.007  31.682  33.939  1.00  0.00     0.049 A 
ATOM     62  H   UNL A   1      40.166  30.463  32.664  1.00  0.00     0.167 HD
ATOM     63  C   UNL A   1      40.917  30.966  35.342  1.00  0.00     0.074 A 
ATOM     64  C   UNL A   1      41.691  30.974  36.565  1.00  0.00     0.031 C 
ATOM     65  C   UNL A   1      39.783  31.682  35.153  1.00  0.00     0.037 A 
BRANCH  52  66
ATOM     66  C   UNL A   1      37.411  31.146  29.481  1.00  0.00     0.057 A 
ATOM     67  C   UNL A   1      36.352  30.292  29.149  1.00  0.00     0.134 A 
ATOM     68  C   UNL A   1      37.423  32.419  28.896  1.00  0.00     0.134 A 
ATOM     69  F   UNL A   1      36.291  29.053  29.662  1.00  0.00    -0.206 F 
ATOM     70  C   UNL A   1      35.355  30.681  28.253  1.00  0.00     0.040 A 
ATOM     71  C   UNL A   1      36.418  32.829  28.021  1.00  0.00     0.040 A 
ATOM     72  F   UNL A   1      38.409  33.287  29.172  1.00  0.00    -0.206 F 
ATOM     73  C   UNL A   1      35.383  31.957  27.692  1.00  0.00     0.006 A 
ENDBRANCH  52  66
BRANCH  53  74
ATOM     74  C   UNL A   1      44.806  28.330  35.539  1.00  0.00     0.057 A 
ATOM     75  C   UNL A   1      45.995  29.066  35.561  1.00  0.00     0.134 A 
ATOM     76  C   UNL A   1      44.729  27.209  36.375  1.00  0.00     0.134 A 
ATOM     77  F   UNL A   1      46.145  30.131  34.759  1.00  0.00    -0.206 F 
ATOM     78  C   UNL A   1      47.073  28.695  36.368  1.00  0.00     0.040 A 
ATOM     79  C   UNL A   1      45.787  26.841  37.208  1.00  0.00     0.040 A 
ATOM     80  F   UNL A   1      43.621  26.453  36.395  1.00  0.00    -0.206 F 
ATOM     81  C   UNL A   1      46.967  27.582  37.201  1.00  0.00     0.006 A 
ENDBRANCH  53  74
BRANCH  65  82
ATOM     82  C   UNL A   1      39.287  32.522  36.296  1.00  0.00     0.057 A 
ATOM     83  C   UNL A   1      38.359  32.033  37.223  1.00  0.00     0.134 A 
ATOM     84  C   UNL A   1      39.797  33.809  36.510  1.00  0.00     0.134 A 
ATOM     85  F   UNL A   1      37.824  30.813  37.070  1.00  0.00    -0.206 F 
ATOM     86  C   UNL A   1      37.949  32.797  38.318  1.00  0.00     0.040 A 
ATOM     87  C   UNL A   1      39.415  34.572  37.615  1.00  0.00     0.040 A 
ATOM     88  F   UNL A   1      40.697  34.335  35.666  1.00  0.00    -0.206 F 
ATOM     89  C   UNL A   1      38.486  34.068  38.521  1.00  0.00     0.006 A 
ENDBRANCH  65  82
ENDBRANCH  39  40
ENDBRANCH  32  34
ENDBRANCH  31  32
ENDBRANCH  30  31
ENDBRANCH  29  30
ENDBRANCH  28  29
ENDBRANCH  27  28
ENDBRANCH   1  27
TORSDOF 20
ENDMDL
MODEL 3
REMARK VINA RESULT:     -10.3      1.682      3.949
REMARK SMILES C[C@@H]1CN(C(=O)NC[C@@H]2CC[C@H](C(=O)OCCOCCOCCOC(=O)c3ccc(-c4c5nc(c(-c6c(F)cccc6F)c6ccc([nH]6)c(-c6c(F)cccc6F)c6nc(c(-c7c(F)cccc7F)c7ccc4[nH]7)C=C6)C=C5)cc3)O2)CC(C)(C)O1
REMARK SMILES IDX 19 1 18 2 17 3 16 4 15 5 13 6 14 7 12 8 9 9 10 10 81 11
REMARK SMILES IDX 11 12 8 13 7 14 5 15 6 16 4 18 1 19 2 20 3 21 86 22 83 23
REMARK SMILES IDX 82 24 84 25 85 26 20 27 21 28 22 29 23 30 24 31 25 32 26 33
REMARK SMILES IDX 27 34 28 35 80 36 29 37 79 38 30 39 31 40 32 41 73 42 33 43
REMARK SMILES IDX 78 44 72 45 74 46 34 47 77 48 71 49 70 50 35 52 61 53 44 54
REMARK SMILES IDX 60 55 45 56 48 57 59 58 75 59 46 60 47 61 58 63 76 64 49 65
REMARK SMILES IDX 36 66 37 67 42 68 38 69 39 70 41 71 43 72 40 73 62 74 63 75
REMARK SMILES IDX 68 76 64 77 65 78 67 79 69 80 66 81 50 82 51 83 56 84 52 85
REMARK SMILES IDX 53 86 55 87 57 88 54 89
REMARK H PARENT 7 17 74 51 48 62
REMARK Flexibility Score: inf
ROOT
ATOM      1  C   UNL A   1      38.745  20.763  25.722  1.00  0.00     0.188 C 
ENDROOT
BRANCH   1   2
ATOM      2  O   UNL A   1      37.780  21.512  24.999  1.00  0.00    -0.376 OA
BRANCH   2   3
ATOM      3  C   UNL A   1      37.502  22.839  25.459  1.00  0.00     0.202 C 
BRANCH   3   4
ATOM      4  C   UNL A   1      36.541  23.700  24.621  1.00  0.00     0.261 C 
BRANCH   4   5
ATOM      5  O   UNL A   1      35.270  23.055  24.352  1.00  0.00    -0.461 OA
BRANCH   5   6
ATOM      6  C   UNL A   1      34.178  23.862  24.392  1.00  0.00     0.335 C 
ATOM      7  O   UNL A   1      33.458  24.073  23.420  1.00  0.00    -0.249 OA
BRANCH   6   8
ATOM      8  C   UNL A   1      33.902  24.496  25.770  1.00  0.00     0.228 C 
ATOM      9  C   UNL A   1      32.791  22.890  27.013  1.00  0.00     0.138 C 
ATOM     10  C   UNL A   1      31.757  23.968  26.726  1.00  0.00     0.037 C 
ATOM     11  O   UNL A   1      34.078  23.491  26.775  1.00  0.00    -0.361 OA
ATOM     12  C   UNL A   1      32.557  25.099  26.126  1.00  0.00     0.047 C 
BRANCH   9  13
ATOM     13  C   UNL A   1      32.555  21.664  26.106  1.00  0.00     0.149 C 
BRANCH  13  14
ATOM     14  N   UNL A   1      33.760  20.933  25.784  1.00  0.00    -0.335 N 
ATOM     15  C   UNL A   1      34.072  19.783  25.183  1.00  0.00     0.317 C 
ATOM     16  O   UNL A   1      35.281  19.602  25.000  1.00  0.00    -0.249 OA
ATOM     17  H   UNL A   1      34.565  21.413  26.089  1.00  0.00     0.165 HD
BRANCH  15  18
ATOM     18  N   UNL A   1      33.146  18.884  24.762  1.00  0.00    -0.319 N 
ATOM     19  C   UNL A   1      34.316  17.118  22.380  1.00  0.00     0.040 C 
ATOM     20  C   UNL A   1      32.903  17.234  22.946  1.00  0.00     0.135 C 
ATOM     21  C   UNL A   1      32.568  18.647  23.447  1.00  0.00     0.153 C 
ATOM     22  O   UNL A   1      32.624  16.217  23.921  1.00  0.00    -0.369 OA
ATOM     23  C   UNL A   1      33.029  16.482  25.284  1.00  0.00     0.081 C 
ATOM     24  C   UNL A   1      32.655  17.911  25.734  1.00  0.00     0.156 C 
ATOM     25  C   UNL A   1      34.526  16.203  25.476  1.00  0.00     0.044 C 
ATOM     26  C   UNL A   1      32.237  15.483  26.136  1.00  0.00     0.044 C 
ENDBRANCH  15  18
ENDBRANCH  13  14
ENDBRANCH   9  13
ENDBRANCH   6   8
ENDBRANCH   5   6
ENDBRANCH   4   5
ENDBRANCH   3   4
ENDBRANCH   2   3
ENDBRANCH   1   2
BRANCH   1  27
ATOM     27  C   UNL A   1      39.942  21.537  26.284  1.00  0.00     0.188 C 
BRANCH  27  28
ATOM     28  O   UNL A   1      40.933  20.725  26.872  1.00  0.00    -0.376 OA
BRANCH  28  29
ATOM     29  C   UNL A   1      41.938  20.104  26.082  1.00  0.00     0.202 C 
BRANCH  29  30
ATOM     30  C   UNL A   1      43.314  20.772  25.870  1.00  0.00     0.261 C 
BRANCH  30  31
ATOM     31  O   UNL A   1      43.526  22.068  26.458  1.00  0.00    -0.460 OA
BRANCH  31  32
ATOM     32  C   UNL A   1      43.226  23.163  25.718  1.00  0.00     0.338 C 
ATOM     33  O   UNL A   1      43.060  23.205  24.510  1.00  0.00    -0.246 OA
BRANCH  32  34
ATOM     34  C   UNL A   1      42.820  24.233  26.673  1.00  0.00     0.060 A 
ATOM     35  C   UNL A   1      43.413  25.500  26.550  1.00  0.00     0.016 A 
ATOM     36  C   UNL A   1      41.768  24.042  27.573  1.00  0.00     0.016 A 
ATOM     37  C   UNL A   1      42.962  26.573  27.327  1.00  0.00     0.010 A 
ATOM     38  C   UNL A   1      41.336  25.108  28.370  1.00  0.00     0.010 A 
ATOM     39  C   UNL A   1      41.938  26.376  28.262  1.00  0.00    -0.014 A 
BRANCH  39  40
ATOM     40  C   UNL A   1      41.595  27.425  29.257  1.00  0.00     0.031 A 
ATOM     41  C   UNL A   1      42.351  27.440  30.556  1.00  0.00     0.074 A 
ATOM     42  C   UNL A   1      40.615  28.321  29.043  1.00  0.00     0.049 A 
ATOM     43  N   UNL A   1      42.134  28.140  31.639  1.00  0.00    -0.248 NA
ATOM     44  C   UNL A   1      43.507  26.533  30.643  1.00  0.00     0.031 C 
ATOM     45  C   UNL A   1      39.844  28.460  27.811  1.00  0.00     0.029 A 
ATOM     46  N   UNL A   1      40.086  29.275  29.881  1.00  0.00    -0.354 N 
ATOM     47  C   UNL A   1      43.114  27.749  32.541  1.00  0.00     0.074 A 
ATOM     48  C   UNL A   1      43.916  26.738  31.885  1.00  0.00     0.031 C 
ATOM     49  C   UNL A   1      38.920  29.423  27.982  1.00  0.00     0.029 A 
ATOM     50  C   UNL A   1      39.003  29.934  29.350  1.00  0.00     0.049 A 
ATOM     51  H   UNL A   1      40.448  29.467  30.777  1.00  0.00     0.167 HD
ATOM     52  C   UNL A   1      43.328  28.190  33.802  1.00  0.00     0.037 A 
ATOM     53  C   UNL A   1      38.153  30.814  29.918  1.00  0.00     0.037 A 
ATOM     54  C   UNL A   1      42.527  29.188  34.458  1.00  0.00     0.049 A 
ATOM     55  C   UNL A   1      38.340  31.207  31.363  1.00  0.00     0.074 A 
ATOM     56  C   UNL A   1      42.680  29.716  35.728  1.00  0.00     0.029 A 
ATOM     57  N   UNL A   1      41.415  29.799  33.901  1.00  0.00    -0.354 N 
ATOM     58  N   UNL A   1      39.280  30.848  32.205  1.00  0.00    -0.248 NA
ATOM     59  C   UNL A   1      37.339  32.118  31.942  1.00  0.00     0.031 C 
ATOM     60  C   UNL A   1      41.624  30.602  35.962  1.00  0.00     0.029 A 
ATOM     61  C   UNL A   1      40.846  30.669  34.816  1.00  0.00     0.049 A 
ATOM     62  H   UNL A   1      41.079  29.638  32.989  1.00  0.00     0.167 HD
ATOM     63  C   UNL A   1      38.997  31.504  33.399  1.00  0.00     0.074 A 
ATOM     64  C   UNL A   1      37.806  32.295  33.170  1.00  0.00     0.031 C 
ATOM     65  C   UNL A   1      39.663  31.454  34.578  1.00  0.00     0.037 A 
BRANCH  52  66
ATOM     66  C   UNL A   1      44.455  27.565  34.570  1.00  0.00     0.057 A 
ATOM     67  C   UNL A   1      45.745  28.110  34.571  1.00  0.00     0.134 A 
ATOM     68  C   UNL A   1      44.236  26.418  35.344  1.00  0.00     0.134 A 
ATOM     69  F   UNL A   1      46.025  29.197  33.837  1.00  0.00    -0.206 F 
ATOM     70  C   UNL A   1      46.782  27.524  35.297  1.00  0.00     0.040 A 
ATOM     71  C   UNL A   1      45.258  25.839  36.095  1.00  0.00     0.040 A 
ATOM     72  F   UNL A   1      43.022  25.847  35.388  1.00  0.00    -0.206 F 
ATOM     73  C   UNL A   1      46.538  26.389  36.069  1.00  0.00     0.006 A 
ENDBRANCH  52  66
BRANCH  53  74
ATOM     74  C   UNL A   1      37.007  31.357  29.141  1.00  0.00     0.057 A 
ATOM     75  C   UNL A   1      37.005  32.678  28.678  1.00  0.00     0.134 A 
ATOM     76  C   UNL A   1      35.870  30.583  28.878  1.00  0.00     0.134 A 
ATOM     77  F   UNL A   1      38.050  33.482  28.927  1.00  0.00    -0.206 F 
ATOM     78  C   UNL A   1      35.912  33.214  27.995  1.00  0.00     0.040 A 
ATOM     79  C   UNL A   1      34.780  31.096  28.173  1.00  0.00     0.040 A 
ATOM     80  F   UNL A   1      35.803  29.312  29.303  1.00  0.00    -0.206 F 
ATOM     81  C   UNL A   1      34.797  32.419  27.734  1.00  0.00     0.006 A 
ENDBRANCH  53  74
BRANCH  65  82
ATOM     82  C   UNL A   1      39.142  32.290  35.713  1.00  0.00     0.057 A 
ATOM     83  C   UNL A   1      38.255  31.771  36.663  1.00  0.00     0.134 A 
ATOM     84  C   UNL A   1      39.589  33.605  35.895  1.00  0.00     0.134 A 
ATOM     85  F   UNL A   1      37.780  30.523  36.542  1.00  0.00    -0.206 F 
ATOM     86  C   UNL A   1      37.823  32.534  37.751  1.00  0.00     0.040 A 
ATOM     87  C   UNL A   1      39.185  34.368  36.992  1.00  0.00     0.040 A 
ATOM     88  F   UNL A   1      40.447  34.160  35.027  1.00  0.00    -0.206 F 
ATOM     89  C   UNL A   1      38.296  33.834  37.922  1.00  0.00     0.006 A 
ENDBRANCH  65  82
ENDBRANCH  39  40
ENDBRANCH  32  34
ENDBRANCH  31  32
ENDBRANCH  30  31
ENDBRANCH  29  30
ENDBRANCH  28  29
ENDBRANCH  27  28
ENDBRANCH   1  27
TORSDOF 20
ENDMDL
