MODEL 1
REMARK VINA RESULT:     -11.9      0.000      0.000
REMARK SMILES Cc1ccc(NC(=O)C[C@@H](C(=O)OCCOCCOCCOC(=O)c2ccc(-c3c4nc(c(-c5c(F)cccc5F)c5ccc([nH]5)c(-c5c(F)cccc5F)c5nc(c(-c6c(F)cccc6F)c6ccc3[nH]6)C=C5)C=C4)cc2)[C@@H](C)c2ccccc2)cc1Br
REMARK SMILES IDX 17 1 16 2 15 3 14 4 13 5 11 6 12 7 10 8 9 9 7 10 6 11 8 13
REMARK SMILES IDX 5 14 1 15 2 16 3 17 88 18 4 19 87 20 89 21 79 22 80 23 81 24
REMARK SMILES IDX 82 25 86 26 83 27 85 28 84 29 18 30 19 31 20 32 21 33 22 34
REMARK SMILES IDX 23 35 24 36 25 37 26 38 78 39 27 40 77 41 28 42 29 43 30 44
REMARK SMILES IDX 71 45 31 46 76 47 70 48 72 49 32 50 75 51 69 52 68 53 33 55
REMARK SMILES IDX 59 56 42 57 58 58 43 59 46 60 57 61 73 62 44 63 45 64 56 66
REMARK SMILES IDX 74 67 47 68 34 69 35 70 40 71 36 72 37 73 39 74 41 75 38 76
REMARK SMILES IDX 60 77 61 78 66 79 62 80 63 81 65 82 67 83 64 84 48 85 49 86
REMARK SMILES IDX 54 87 50 88 51 89 53 90 55 91 52 92
REMARK H PARENT 6 12 72 54 46 65
REMARK Flexibility Score: inf
ROOT
ATOM      1  C   UNL A   1      40.589  19.743  26.134  1.00  0.00     0.188 C 
ENDROOT
BRANCH   1   2
ATOM      2  O   UNL A   1      40.016  20.998  26.485  1.00  0.00    -0.376 OA
BRANCH   2   3
ATOM      3  C   UNL A   1      38.799  21.639  25.785  1.00  0.00     0.202 C 
BRANCH   3   4
ATOM      4  C   UNL A   1      36.988  20.743  24.950  1.00  0.00     0.261 C 
BRANCH   4   5
ATOM      5  O   UNL A   1      35.470  20.737  25.767  1.00  0.00    -0.463 OA
BRANCH   5   6
ATOM      6  C   UNL A   1      34.217  20.691  25.247  1.00  0.00     0.310 C 
ATOM      7  O   UNL A   1      33.735  19.609  24.928  1.00  0.00    -0.252 OA
BRANCH   6   8
ATOM      8  C   UNL A   1      33.491  22.080  24.933  1.00  0.00     0.116 C 
BRANCH   8   9
ATOM      9  C   UNL A   1      34.279  23.408  24.743  1.00  0.00     0.116 C 
BRANCH   9  10
ATOM     10  C   UNL A   1      34.854  23.877  23.435  1.00  0.00     0.225 C 
ATOM     11  N   UNL A   1      34.468  25.036  22.858  1.00  0.00    -0.326 N 
ATOM     12  H   UNL A   1      34.790  25.169  21.937  1.00  0.00     0.169 HD
ATOM     13  O   UNL A   1      35.642  23.158  22.814  1.00  0.00    -0.275 OA
BRANCH  11  14
ATOM     14  C   UNL A   1      33.686  26.072  23.361  1.00  0.00     0.042 A 
ATOM     15  C   UNL A   1      30.702  29.922  24.733  1.00  0.00     0.045 C 
ATOM     16  C   UNL A   1      31.840  29.037  24.286  1.00  0.00    -0.037 A 
ATOM     17  C   UNL A   1      31.874  28.481  22.584  1.00  0.00     0.007 A 
ATOM     18  C   UNL A   1      32.739  28.159  25.550  1.00  0.00     0.022 A 
ATOM     19  C   UNL A   1      32.781  27.009  22.119  1.00  0.00     0.026 A 
ATOM     20  C   UNL A   1      33.688  26.681  25.084  1.00  0.00     0.042 A 
ATOM     21  Br  UNL A   1      32.353  28.588  27.373  1.00  0.00    -0.050 Br
ENDBRANCH  11  14
ENDBRANCH   9  10
ENDBRANCH   8   9
BRANCH   8  22
ATOM     22  C   UNL A   1      32.266  22.439  25.911  1.00  0.00     0.031 C 
ATOM     23  C   UNL A   1      32.669  22.593  27.393  1.00  0.00     0.013 C 
BRANCH  22  24
ATOM     24  C   UNL A   1      31.366  23.554  25.426  1.00  0.00    -0.044 A 
ATOM     25  C   UNL A   1      30.900  24.601  26.213  1.00  0.00     0.004 A 
ATOM     26  C   UNL A   1      31.025  23.555  24.069  1.00  0.00     0.004 A 
ATOM     27  C   UNL A   1      30.177  25.646  25.626  1.00  0.00     0.000 A 
ATOM     28  C   UNL A   1      30.335  24.597  23.468  1.00  0.00     0.000 A 
ATOM     29  C   UNL A   1      29.919  25.658  24.253  1.00  0.00     0.000 A 
ENDBRANCH  22  24
ENDBRANCH   8  22
ENDBRANCH   6   8
ENDBRANCH   5   6
ENDBRANCH   4   5
ENDBRANCH   3   4
ENDBRANCH   2   3
ENDBRANCH   1   2
BRANCH   1  30
ATOM     30  C   UNL A   1      42.094  19.496  26.252  1.00  0.00     0.188 C 
BRANCH  30  31
ATOM     31  O   UNL A   1      42.953  20.164  25.371  1.00  0.00    -0.376 OA
BRANCH  31  32
ATOM     32  C   UNL A   1      43.431  21.461  25.646  1.00  0.00     0.202 C 
BRANCH  32  33
ATOM     33  C   UNL A   1      43.444  22.683  24.697  1.00  0.00     0.261 C 
BRANCH  33  34
ATOM     34  O   UNL A   1      44.257  23.829  24.964  1.00  0.00    -0.460 OA
BRANCH  34  35
ATOM     35  C   UNL A   1      44.819  23.970  26.190  1.00  0.00     0.338 C 
ATOM     36  O   UNL A   1      45.899  23.542  26.549  1.00  0.00    -0.246 OA
BRANCH  35  37
ATOM     37  C   UNL A   1      43.997  24.955  26.958  1.00  0.00     0.060 A 
ATOM     38  C   UNL A   1      44.230  26.333  26.779  1.00  0.00     0.016 A 
ATOM     39  C   UNL A   1      42.912  24.532  27.731  1.00  0.00     0.016 A 
ATOM     40  C   UNL A   1      43.409  27.280  27.402  1.00  0.00     0.010 A 
ATOM     41  C   UNL A   1      42.123  25.479  28.397  1.00  0.00     0.010 A 
ATOM     42  C   UNL A   1      42.396  26.854  28.271  1.00  0.00    -0.014 A 
BRANCH  42  43
ATOM     43  C   UNL A   1      41.880  27.786  29.306  1.00  0.00     0.031 A 
ATOM     44  C   UNL A   1      42.580  27.756  30.642  1.00  0.00     0.074 A 
ATOM     45  C   UNL A   1      40.838  28.613  29.107  1.00  0.00     0.049 A 
ATOM     46  N   UNL A   1      42.292  28.378  31.756  1.00  0.00    -0.248 NA
ATOM     47  C   UNL A   1      43.768  26.889  30.729  1.00  0.00     0.031 C 
ATOM     48  C   UNL A   1      40.111  28.784  27.853  1.00  0.00     0.029 A 
ATOM     49  N   UNL A   1      40.203  29.460  29.985  1.00  0.00    -0.354 N 
ATOM     50  C   UNL A   1      43.255  27.968  32.671  1.00  0.00     0.074 A 
ATOM     51  C   UNL A   1      44.115  27.024  31.997  1.00  0.00     0.031 C 
ATOM     52  C   UNL A   1      39.112  29.665  28.047  1.00  0.00     0.029 A 
ATOM     53  C   UNL A   1      39.106  30.092  29.447  1.00  0.00     0.049 A 
ATOM     54  H   UNL A   1      40.504  29.600  30.911  1.00  0.00     0.167 HD
ATOM     55  C   UNL A   1      43.412  28.342  33.961  1.00  0.00     0.037 A 
ATOM     56  C   UNL A   1      38.195  30.897  30.031  1.00  0.00     0.037 A 
ATOM     57  C   UNL A   1      42.541  29.262  34.638  1.00  0.00     0.049 A 
ATOM     58  C   UNL A   1      38.333  31.226  31.501  1.00  0.00     0.074 A 
ATOM     59  C   UNL A   1      42.615  29.716  35.942  1.00  0.00     0.029 A 
ATOM     60  N   UNL A   1      41.423  29.851  34.067  1.00  0.00    -0.354 N 
ATOM     61  N   UNL A   1      39.260  30.858  32.353  1.00  0.00    -0.248 NA
ATOM     62  C   UNL A   1      37.293  32.086  32.089  1.00  0.00     0.031 C 
ATOM     63  C   UNL A   1      41.501  30.525  36.182  1.00  0.00     0.029 A 
ATOM     64  C   UNL A   1      40.777  30.639  35.004  1.00  0.00     0.049 A 
ATOM     65  H   UNL A   1      41.133  29.727  33.135  1.00  0.00     0.167 HD
ATOM     66  C   UNL A   1      38.940  31.472  33.561  1.00  0.00     0.074 A 
ATOM     67  C   UNL A   1      37.737  32.243  33.328  1.00  0.00     0.031 C 
ATOM     68  C   UNL A   1      39.585  31.409  34.752  1.00  0.00     0.037 A 
BRANCH  55  69
ATOM     69  C   UNL A   1      44.540  27.714  34.728  1.00  0.00     0.057 A 
ATOM     70  C   UNL A   1      45.775  28.353  34.901  1.00  0.00     0.134 A 
ATOM     71  C   UNL A   1      44.385  26.446  35.304  1.00  0.00     0.134 A 
ATOM     72  F   UNL A   1      45.999  29.559  34.356  1.00  0.00    -0.206 F 
ATOM     73  C   UNL A   1      46.824  27.744  35.592  1.00  0.00     0.040 A 
ATOM     74  C   UNL A   1      45.416  25.841  36.026  1.00  0.00     0.040 A 
ATOM     75  F   UNL A   1      43.232  25.774  35.176  1.00  0.00    -0.206 F 
ATOM     76  C   UNL A   1      46.642  26.487  36.163  1.00  0.00     0.006 A 
ENDBRANCH  55  69
BRANCH  56  77
ATOM     77  C   UNL A   1      37.056  31.445  29.244  1.00  0.00     0.057 A 
ATOM     78  C   UNL A   1      37.073  32.757  28.757  1.00  0.00     0.134 A 
ATOM     79  C   UNL A   1      35.905  30.685  28.995  1.00  0.00     0.134 A 
ATOM     80  F   UNL A   1      38.130  33.549  28.989  1.00  0.00    -0.206 F 
ATOM     81  C   UNL A   1      35.985  33.300  28.070  1.00  0.00     0.040 A 
ATOM     82  C   UNL A   1      34.822  31.205  28.284  1.00  0.00     0.040 A 
ATOM     83  F   UNL A   1      35.817  29.423  29.441  1.00  0.00    -0.206 F 
ATOM     84  C   UNL A   1      34.856  32.520  27.827  1.00  0.00     0.006 A 
ENDBRANCH  56  77
BRANCH  68  85
ATOM     85  C   UNL A   1      39.041  32.234  35.886  1.00  0.00     0.057 A 
ATOM     86  C   UNL A   1      38.186  31.699  36.857  1.00  0.00     0.134 A 
ATOM     87  C   UNL A   1      39.429  33.573  36.036  1.00  0.00     0.134 A 
ATOM     88  F   UNL A   1      37.769  30.426  36.772  1.00  0.00    -0.206 F 
ATOM     89  C   UNL A   1      37.712  32.474  37.919  1.00  0.00     0.040 A 
ATOM     90  C   UNL A   1      38.991  34.347  37.112  1.00  0.00     0.040 A 
ATOM     91  F   UNL A   1      40.261  34.145  35.153  1.00  0.00    -0.206 F 
ATOM     92  C   UNL A   1      38.122  33.800  38.052  1.00  0.00     0.006 A 
ENDBRANCH  68  85
ENDBRANCH  42  43
ENDBRANCH  35  37
ENDBRANCH  34  35
ENDBRANCH  33  34
ENDBRANCH  32  33
ENDBRANCH  31  32
ENDBRANCH  30  31
ENDBRANCH   1  30
TORSDOF 22
ENDMDL
MODEL 2
REMARK VINA RESULT:     -11.4      3.952      8.858
REMARK SMILES Cc1ccc(NC(=O)C[C@@H](C(=O)OCCOCCOCCOC(=O)c2ccc(-c3c4nc(c(-c5c(F)cccc5F)c5ccc([nH]5)c(-c5c(F)cccc5F)c5nc(c(-c6c(F)cccc6F)c6ccc3[nH]6)C=C5)C=C4)cc2)[C@@H](C)c2ccccc2)cc1Br
REMARK SMILES IDX 17 1 16 2 15 3 14 4 13 5 11 6 12 7 10 8 9 9 7 10 6 11 8 13
REMARK SMILES IDX 5 14 1 15 2 16 3 17 88 18 4 19 87 20 89 21 79 22 80 23 81 24
REMARK SMILES IDX 82 25 86 26 83 27 85 28 84 29 18 30 19 31 20 32 21 33 22 34
REMARK SMILES IDX 23 35 24 36 25 37 26 38 78 39 27 40 77 41 28 42 29 43 30 44
REMARK SMILES IDX 71 45 31 46 76 47 70 48 72 49 32 50 75 51 69 52 68 53 33 55
REMARK SMILES IDX 59 56 42 57 58 58 43 59 46 60 57 61 73 62 44 63 45 64 56 66
REMARK SMILES IDX 74 67 47 68 34 69 35 70 40 71 36 72 37 73 39 74 41 75 38 76
REMARK SMILES IDX 60 77 61 78 66 79 62 80 63 81 65 82 67 83 64 84 48 85 49 86
REMARK SMILES IDX 54 87 50 88 51 89 53 90 55 91 52 92
REMARK H PARENT 6 12 72 54 46 65
REMARK Flexibility Score: inf
ROOT
ATOM      1  C   UNL A   1      35.920  32.901  28.513  1.00  0.00     0.188 C 
ENDROOT
BRANCH   1   2
ATOM      2  O   UNL A   1      36.135  31.619  27.930  1.00  0.00    -0.376 OA
BRANCH   2   3
ATOM      3  C   UNL A   1      35.128  30.450  27.977  1.00  0.00     0.202 C 
BRANCH   3   4
ATOM      4  C   UNL A   1      33.765  29.668  26.458  1.00  0.00     0.261 C 
BRANCH   4   5
ATOM      5  O   UNL A   1      34.269  28.633  25.175  1.00  0.00    -0.463 OA
BRANCH   5   6
ATOM      6  C   UNL A   1      33.543  28.130  24.144  1.00  0.00     0.310 C 
ATOM      7  O   UNL A   1      33.354  28.816  23.145  1.00  0.00    -0.252 OA
BRANCH   6   8
ATOM      8  C   UNL A   1      32.836  26.711  24.356  1.00  0.00     0.116 C 
BRANCH   8   9
ATOM      9  C   UNL A   1      31.607  26.259  23.517  1.00  0.00     0.116 C 
BRANCH   9  10
ATOM     10  C   UNL A   1      31.678  25.781  22.093  1.00  0.00     0.225 C 
ATOM     11  N   UNL A   1      32.406  24.699  21.737  1.00  0.00    -0.326 N 
ATOM     12  H   UNL A   1      32.506  24.567  20.766  1.00  0.00     0.169 HD
ATOM     13  O   UNL A   1      31.130  26.428  21.196  1.00  0.00    -0.275 OA
BRANCH  11  14
ATOM     14  C   UNL A   1      33.036  23.742  22.527  1.00  0.00     0.042 A 
ATOM     15  C   UNL A   1      35.731  20.529  25.360  1.00  0.00     0.045 C 
ATOM     16  C   UNL A   1      35.049  21.280  24.242  1.00  0.00    -0.037 A 
ATOM     17  C   UNL A   1      35.778  22.813  23.672  1.00  0.00     0.007 A 
ATOM     18  C   UNL A   1      33.327  20.924  23.948  1.00  0.00     0.022 A 
ATOM     19  C   UNL A   1      34.786  24.041  22.828  1.00  0.00     0.026 A 
ATOM     20  C   UNL A   1      32.318  22.149  23.065  1.00  0.00     0.042 A 
ATOM     21  Br  UNL A   1      32.549  19.461  24.901  1.00  0.00    -0.050 Br
ENDBRANCH  11  14
ENDBRANCH   9  10
ENDBRANCH   8   9
BRANCH   8  22
ATOM     22  C   UNL A   1      32.474  26.357  25.882  1.00  0.00     0.031 C 
ATOM     23  C   UNL A   1      31.086  26.862  26.332  1.00  0.00     0.013 C 
BRANCH  22  24
ATOM     24  C   UNL A   1      32.738  24.923  26.286  1.00  0.00    -0.044 A 
ATOM     25  C   UNL A   1      33.997  24.368  26.475  1.00  0.00     0.004 A 
ATOM     26  C   UNL A   1      31.622  24.116  26.539  1.00  0.00     0.004 A 
ATOM     27  C   UNL A   1      34.116  23.064  26.973  1.00  0.00     0.000 A 
ATOM     28  C   UNL A   1      31.725  22.835  27.060  1.00  0.00     0.000 A 
ATOM     29  C   UNL A   1      32.984  22.310  27.291  1.00  0.00     0.000 A 
ENDBRANCH  22  24
ENDBRANCH   8  22
ENDBRANCH   6   8
ENDBRANCH   5   6
ENDBRANCH   4   5
ENDBRANCH   3   4
ENDBRANCH   2   3
ENDBRANCH   1   2
BRANCH   1  30
ATOM     30  C   UNL A   1      34.736  33.162  29.445  1.00  0.00     0.188 C 
BRANCH  30  31
ATOM     31  O   UNL A   1      33.644  33.887  28.953  1.00  0.00    -0.376 OA
BRANCH  31  32
ATOM     32  C   UNL A   1      33.687  35.290  28.820  1.00  0.00     0.202 C 
BRANCH  32  33
ATOM     33  C   UNL A   1      32.960  36.342  29.691  1.00  0.00     0.261 C 
BRANCH  33  34
ATOM     34  O   UNL A   1      33.310  36.550  31.062  1.00  0.00    -0.460 OA
BRANCH  34  35
ATOM     35  C   UNL A   1      32.846  35.688  32.001  1.00  0.00     0.338 C 
ATOM     36  O   UNL A   1      31.684  35.397  32.211  1.00  0.00    -0.246 OA
BRANCH  35  37
ATOM     37  C   UNL A   1      34.020  34.963  32.576  1.00  0.00     0.060 A 
ATOM     38  C   UNL A   1      35.294  35.563  32.517  1.00  0.00     0.016 A 
ATOM     39  C   UNL A   1      33.847  33.777  33.294  1.00  0.00     0.016 A 
ATOM     40  C   UNL A   1      36.394  34.959  33.138  1.00  0.00     0.010 A 
ATOM     41  C   UNL A   1      34.957  33.146  33.870  1.00  0.00     0.010 A 
ATOM     42  C   UNL A   1      36.241  33.712  33.756  1.00  0.00    -0.014 A 
BRANCH  42  43
ATOM     43  C   UNL A   1      37.429  32.840  33.949  1.00  0.00     0.031 A 
ATOM     44  C   UNL A   1      38.240  33.080  35.198  1.00  0.00     0.074 A 
ATOM     45  C   UNL A   1      37.803  31.891  33.072  1.00  0.00     0.049 A 
ATOM     46  N   UNL A   1      39.371  32.546  35.581  1.00  0.00    -0.248 NA
ATOM     47  C   UNL A   1      37.694  34.072  36.141  1.00  0.00     0.031 C 
ATOM     48  C   UNL A   1      37.082  31.518  31.859  1.00  0.00     0.029 A 
ATOM     49  N   UNL A   1      38.910  31.075  33.073  1.00  0.00    -0.354 N 
ATOM     50  C   UNL A   1      39.671  33.147  36.798  1.00  0.00     0.074 A 
ATOM     51  C   UNL A   1      38.626  34.104  37.077  1.00  0.00     0.031 C 
ATOM     52  C   UNL A   1      37.777  30.560  31.218  1.00  0.00     0.029 A 
ATOM     53  C   UNL A   1      39.010  30.279  31.956  1.00  0.00     0.049 A 
ATOM     54  H   UNL A   1      39.569  31.062  33.803  1.00  0.00     0.167 HD
ATOM     55  C   UNL A   1      40.726  32.924  37.616  1.00  0.00     0.037 A 
ATOM     56  C   UNL A   1      39.997  29.446  31.570  1.00  0.00     0.037 A 
ATOM     57  C   UNL A   1      41.778  31.991  37.326  1.00  0.00     0.049 A 
ATOM     58  C   UNL A   1      41.215  29.283  32.451  1.00  0.00     0.074 A 
ATOM     59  C   UNL A   1      42.889  31.682  38.089  1.00  0.00     0.029 A 
ATOM     60  N   UNL A   1      41.859  31.231  36.169  1.00  0.00    -0.354 N 
ATOM     61  N   UNL A   1      41.481  29.832  33.613  1.00  0.00    -0.248 NA
ATOM     62  C   UNL A   1      42.273  28.382  31.964  1.00  0.00     0.031 C 
ATOM     63  C   UNL A   1      43.679  30.787  37.361  1.00  0.00     0.029 A 
ATOM     64  C   UNL A   1      43.020  30.479  36.181  1.00  0.00     0.049 A 
ATOM     65  H   UNL A   1      41.190  31.229  35.446  1.00  0.00     0.167 HD
ATOM     66  C   UNL A   1      42.710  29.313  34.013  1.00  0.00     0.074 A 
ATOM     67  C   UNL A   1      43.133  28.400  32.973  1.00  0.00     0.031 C 
ATOM     68  C   UNL A   1      43.421  29.565  35.140  1.00  0.00     0.037 A 
BRANCH  55  69
ATOM     69  C   UNL A   1      40.809  33.744  38.872  1.00  0.00     0.057 A 
ATOM     70  C   UNL A   1      40.154  33.370  40.053  1.00  0.00     0.134 A 
ATOM     71  C   UNL A   1      41.560  34.926  38.898  1.00  0.00     0.134 A 
ATOM     72  F   UNL A   1      39.398  32.261  40.091  1.00  0.00    -0.206 F 
ATOM     73  C   UNL A   1      40.216  34.158  41.205  1.00  0.00     0.040 A 
ATOM     74  C   UNL A   1      41.658  35.704  40.054  1.00  0.00     0.040 A 
ATOM     75  F   UNL A   1      42.210  35.346  37.803  1.00  0.00    -0.206 F 
ATOM     76  C   UNL A   1      40.978  35.324  41.208  1.00  0.00     0.006 A 
ENDBRANCH  55  69
BRANCH  56  77
ATOM     77  C   UNL A   1      39.899  28.703  30.283  1.00  0.00     0.057 A 
ATOM     78  C   UNL A   1      40.452  29.216  29.103  1.00  0.00     0.134 A 
ATOM     79  C   UNL A   1      39.216  27.483  30.191  1.00  0.00     0.134 A 
ATOM     80  F   UNL A   1      41.091  30.395  29.115  1.00  0.00    -0.206 F 
ATOM     81  C   UNL A   1      40.313  28.557  27.879  1.00  0.00     0.040 A 
ATOM     82  C   UNL A   1      39.095  26.799  28.980  1.00  0.00     0.040 A 
ATOM     83  F   UNL A   1      38.653  26.938  31.280  1.00  0.00    -0.206 F 
ATOM     84  C   UNL A   1      39.637  27.341  27.817  1.00  0.00     0.006 A 
ENDBRANCH  56  77
BRANCH  68  85
ATOM     85  C   UNL A   1      44.703  28.806  35.341  1.00  0.00     0.057 A 
ATOM     86  C   UNL A   1      44.740  27.547  35.953  1.00  0.00     0.134 A 
ATOM     87  C   UNL A   1      45.915  29.325  34.863  1.00  0.00     0.134 A 
ATOM     88  F   UNL A   1      43.619  26.993  36.440  1.00  0.00    -0.206 F 
ATOM     89  C   UNL A   1      45.939  26.845  36.108  1.00  0.00     0.040 A 
ATOM     90  C   UNL A   1      47.112  28.618  34.979  1.00  0.00     0.040 A 
ATOM     91  F   UNL A   1      45.951  30.518  34.250  1.00  0.00    -0.206 F 
ATOM     92  C   UNL A   1      47.127  27.377  35.611  1.00  0.00     0.006 A 
ENDBRANCH  68  85
ENDBRANCH  42  43
ENDBRANCH  35  37
ENDBRANCH  34  35
ENDBRANCH  33  34
ENDBRANCH  32  33
ENDBRANCH  31  32
ENDBRANCH  30  31
ENDBRANCH   1  30
TORSDOF 22
ENDMDL
MODEL 3
REMARK VINA RESULT:     -11.2      4.879      9.998
REMARK SMILES Cc1ccc(NC(=O)C[C@@H](C(=O)OCCOCCOCCOC(=O)c2ccc(-c3c4nc(c(-c5c(F)cccc5F)c5ccc([nH]5)c(-c5c(F)cccc5F)c5nc(c(-c6c(F)cccc6F)c6ccc3[nH]6)C=C5)C=C4)cc2)[C@@H](C)c2ccccc2)cc1Br
REMARK SMILES IDX 17 1 16 2 15 3 14 4 13 5 11 6 12 7 10 8 9 9 7 10 6 11 8 13
REMARK SMILES IDX 5 14 1 15 2 16 3 17 88 18 4 19 87 20 89 21 79 22 80 23 81 24
REMARK SMILES IDX 82 25 86 26 83 27 85 28 84 29 18 30 19 31 20 32 21 33 22 34
REMARK SMILES IDX 23 35 24 36 25 37 26 38 78 39 27 40 77 41 28 42 29 43 30 44
REMARK SMILES IDX 71 45 31 46 76 47 70 48 72 49 32 50 75 51 69 52 68 53 33 55
REMARK SMILES IDX 59 56 42 57 58 58 43 59 46 60 57 61 73 62 44 63 45 64 56 66
REMARK SMILES IDX 74 67 47 68 34 69 35 70 40 71 36 72 37 73 39 74 41 75 38 76
REMARK SMILES IDX 60 77 61 78 66 79 62 80 63 81 65 82 67 83 64 84 48 85 49 86
REMARK SMILES IDX 54 87 50 88 51 89 53 90 55 91 52 92
REMARK H PARENT 6 12 72 54 46 65
REMARK Flexibility Score: inf
ROOT
ATOM      1  C   UNL A   1      35.665  31.843  28.004  1.00  0.00     0.188 C 
ENDROOT
BRANCH   1   2
ATOM      2  O   UNL A   1      35.785  30.484  27.593  1.00  0.00    -0.376 OA
BRANCH   2   3
ATOM      3  C   UNL A   1      34.627  29.464  27.574  1.00  0.00     0.202 C 
BRANCH   3   4
ATOM      4  C   UNL A   1      34.034  27.994  26.070  1.00  0.00     0.261 C 
BRANCH   4   5
ATOM      5  O   UNL A   1      32.865  26.760  26.358  1.00  0.00    -0.463 OA
BRANCH   5   6
ATOM      6  C   UNL A   1      31.515  26.865  26.456  1.00  0.00     0.310 C 
ATOM      7  O   UNL A   1      31.027  27.696  27.216  1.00  0.00    -0.252 OA
BRANCH   6   8
ATOM      8  C   UNL A   1      30.628  25.783  25.683  1.00  0.00     0.116 C 
BRANCH   8   9
ATOM      9  C   UNL A   1      30.952  24.262  25.717  1.00  0.00     0.116 C 
BRANCH   9  10
ATOM     10  C   UNL A   1      30.559  23.333  26.832  1.00  0.00     0.225 C 
ATOM     11  N   UNL A   1      31.253  22.205  27.102  1.00  0.00    -0.326 N 
ATOM     12  H   UNL A   1      30.823  21.597  27.746  1.00  0.00     0.169 HD
ATOM     13  O   UNL A   1      29.530  23.546  27.480  1.00  0.00    -0.275 OA
BRANCH  11  14
ATOM     14  C   UNL A   1      32.480  21.768  26.611  1.00  0.00     0.042 A 
ATOM     15  C   UNL A   1      37.127  20.600  24.981  1.00  0.00     0.045 C 
ATOM     16  C   UNL A   1      35.709  21.094  25.135  1.00  0.00    -0.037 A 
ATOM     17  C   UNL A   1      35.425  22.607  26.052  1.00  0.00     0.007 A 
ATOM     18  C   UNL A   1      34.398  19.908  24.906  1.00  0.00     0.022 A 
ATOM     19  C   UNL A   1      33.831  22.945  26.792  1.00  0.00     0.026 A 
ATOM     20  C   UNL A   1      32.767  20.255  25.626  1.00  0.00     0.042 A 
ATOM     21  Br  UNL A   1      34.875  18.176  24.252  1.00  0.00    -0.050 Br
ENDBRANCH  11  14
ENDBRANCH   9  10
ENDBRANCH   8   9
BRANCH   8  22
ATOM     22  C   UNL A   1      30.331  26.130  24.141  1.00  0.00     0.031 C 
ATOM     23  C   UNL A   1      28.916  26.690  23.885  1.00  0.00     0.013 C 
BRANCH  22  24
ATOM     24  C   UNL A   1      31.413  26.923  23.444  1.00  0.00    -0.044 A 
ATOM     25  C   UNL A   1      31.431  28.307  23.317  1.00  0.00     0.004 A 
ATOM     26  C   UNL A   1      32.503  26.205  22.936  1.00  0.00     0.004 A 
ATOM     27  C   UNL A   1      32.548  28.941  22.761  1.00  0.00     0.000 A 
ATOM     28  C   UNL A   1      33.629  26.822  22.411  1.00  0.00     0.000 A 
ATOM     29  C   UNL A   1      33.656  28.203  22.336  1.00  0.00     0.000 A 
ENDBRANCH  22  24
ENDBRANCH   8  22
ENDBRANCH   6   8
ENDBRANCH   5   6
ENDBRANCH   4   5
ENDBRANCH   3   4
ENDBRANCH   2   3
ENDBRANCH   1   2
BRANCH   1  30
ATOM     30  C   UNL A   1      34.447  32.330  28.792  1.00  0.00     0.188 C 
BRANCH  30  31
ATOM     31  O   UNL A   1      34.511  33.581  29.416  1.00  0.00    -0.376 OA
BRANCH  31  32
ATOM     32  C   UNL A   1      34.112  33.761  30.757  1.00  0.00     0.202 C 
BRANCH  32  33
ATOM     33  C   UNL A   1      34.907  33.397  32.034  1.00  0.00     0.261 C 
BRANCH  33  34
ATOM     34  O   UNL A   1      35.506  32.109  32.201  1.00  0.00    -0.460 OA
BRANCH  34  35
ATOM     35  C   UNL A   1      36.624  31.994  32.960  1.00  0.00     0.338 C 
ATOM     36  O   UNL A   1      36.715  32.194  34.156  1.00  0.00    -0.246 OA
BRANCH  35  37
ATOM     37  C   UNL A   1      37.677  31.340  32.125  1.00  0.00     0.060 A 
ATOM     38  C   UNL A   1      38.841  30.847  32.747  1.00  0.00     0.016 A 
ATOM     39  C   UNL A   1      37.457  31.082  30.769  1.00  0.00     0.016 A 
ATOM     40  C   UNL A   1      39.796  30.136  32.011  1.00  0.00     0.010 A 
ATOM     41  C   UNL A   1      38.436  30.417  30.021  1.00  0.00     0.010 A 
ATOM     42  C   UNL A   1      39.629  29.982  30.629  1.00  0.00    -0.014 A 
BRANCH  42  43
ATOM     43  C   UNL A   1      40.815  29.715  29.774  1.00  0.00     0.031 A 
ATOM     44  C   UNL A   1      40.914  28.331  29.181  1.00  0.00     0.074 A 
ATOM     45  C   UNL A   1      41.776  30.624  29.533  1.00  0.00     0.049 A 
ATOM     46  N   UNL A   1      41.875  27.783  28.483  1.00  0.00    -0.248 NA
ATOM     47  C   UNL A   1      39.765  27.441  29.424  1.00  0.00     0.031 C 
ATOM     48  C   UNL A   1      41.776  32.008  29.994  1.00  0.00     0.029 A 
ATOM     49  N   UNL A   1      42.958  30.497  28.840  1.00  0.00    -0.354 N 
ATOM     50  C   UNL A   1      41.447  26.487  28.217  1.00  0.00     0.074 A 
ATOM     51  C   UNL A   1      40.161  26.318  28.850  1.00  0.00     0.031 C 
ATOM     52  C   UNL A   1      42.916  32.600  29.591  1.00  0.00     0.029 A 
ATOM     53  C   UNL A   1      43.742  31.626  28.876  1.00  0.00     0.049 A 
ATOM     54  H   UNL A   1      43.218  29.676  28.365  1.00  0.00     0.167 HD
ATOM     55  C   UNL A   1      42.070  25.518  27.507  1.00  0.00     0.037 A 
ATOM     56  C   UNL A   1      44.990  31.830  28.408  1.00  0.00     0.037 A 
ATOM     57  C   UNL A   1      43.361  25.678  26.898  1.00  0.00     0.049 A 
ATOM     58  C   UNL A   1      45.710  30.703  27.702  1.00  0.00     0.074 A 
ATOM     59  C   UNL A   1      44.080  24.764  26.151  1.00  0.00     0.029 A 
ATOM     60  N   UNL A   1      44.136  26.824  26.988  1.00  0.00    -0.354 N 
ATOM     61  N   UNL A   1      45.290  29.490  27.429  1.00  0.00    -0.248 NA
ATOM     62  C   UNL A   1      47.080  30.976  27.238  1.00  0.00     0.031 C 
ATOM     63  C   UNL A   1      45.320  25.332  25.847  1.00  0.00     0.029 A 
ATOM     64  C   UNL A   1      45.342  26.629  26.338  1.00  0.00     0.049 A 
ATOM     65  H   UNL A   1      43.868  27.654  27.447  1.00  0.00     0.167 HD
ATOM     66  C   UNL A   1      46.324  28.874  26.729  1.00  0.00     0.074 A 
ATOM     67  C   UNL A   1      47.387  29.849  26.612  1.00  0.00     0.031 C 
ATOM     68  C   UNL A   1      46.386  27.617  26.223  1.00  0.00     0.037 A 
BRANCH  55  69
ATOM     69  C   UNL A   1      41.378  24.190  27.399  1.00  0.00     0.057 A 
ATOM     70  C   UNL A   1      41.788  23.071  28.136  1.00  0.00     0.134 A 
ATOM     71  C   UNL A   1      40.280  24.030  26.543  1.00  0.00     0.134 A 
ATOM     72  F   UNL A   1      42.846  23.147  28.958  1.00  0.00    -0.206 F 
ATOM     73  C   UNL A   1      41.152  21.834  28.004  1.00  0.00     0.040 A 
ATOM     74  C   UNL A   1      39.615  22.808  26.428  1.00  0.00     0.040 A 
ATOM     75  F   UNL A   1      39.835  25.058  25.805  1.00  0.00    -0.206 F 
ATOM     76  C   UNL A   1      40.056  21.705  27.153  1.00  0.00     0.006 A 
ENDBRANCH  55  69
BRANCH  56  77
ATOM     77  C   UNL A   1      45.662  33.146  28.596  1.00  0.00     0.057 A 
ATOM     78  C   UNL A   1      45.566  34.156  27.631  1.00  0.00     0.134 A 
ATOM     79  C   UNL A   1      46.449  33.412  29.724  1.00  0.00     0.134 A 
ATOM     80  F   UNL A   1      44.856  33.955  26.511  1.00  0.00    -0.206 F 
ATOM     81  C   UNL A   1      46.242  35.371  27.769  1.00  0.00     0.040 A 
ATOM     82  C   UNL A   1      47.105  34.633  29.890  1.00  0.00     0.040 A 
ATOM     83  F   UNL A   1      46.592  32.486  30.684  1.00  0.00    -0.206 F 
ATOM     84  C   UNL A   1      47.010  35.614  28.906  1.00  0.00     0.006 A 
ENDBRANCH  56  77
BRANCH  68  85
ATOM     85  C   UNL A   1      47.617  27.234  25.449  1.00  0.00     0.057 A 
ATOM     86  C   UNL A   1      47.739  27.465  24.073  1.00  0.00     0.134 A 
ATOM     87  C   UNL A   1      48.722  26.677  26.108  1.00  0.00     0.134 A 
ATOM     88  F   UNL A   1      46.718  27.991  23.378  1.00  0.00    -0.206 F 
ATOM     89  C   UNL A   1      48.901  27.127  23.376  1.00  0.00     0.040 A 
ATOM     90  C   UNL A   1      49.902  26.368  25.429  1.00  0.00     0.040 A 
ATOM     91  F   UNL A   1      48.682  26.445  27.429  1.00  0.00    -0.206 F 
ATOM     92  C   UNL A   1      49.990  26.586  24.057  1.00  0.00     0.006 A 
ENDBRANCH  68  85
ENDBRANCH  42  43
ENDBRANCH  35  37
ENDBRANCH  34  35
ENDBRANCH  33  34
ENDBRANCH  32  33
ENDBRANCH  31  32
ENDBRANCH  30  31
ENDBRANCH   1  30
TORSDOF 22
ENDMDL
