MODEL 1
REMARK VINA RESULT:      -8.3      0.000      0.000
REMARK SMILES COc1cc(NC(=O)C2CCN(S(=O)(=O)c3cccs3)CC2)c(Cl)cc1C(=O)OCCOCCOCCOC(=O)c1ccc(-c2c3nc(c(-c4c(F)cccc4F)c4ccc([nH]4)c(-c4c(F)cccc4F)c4nc(c(-c5c(F)cccc5F)c5ccc2[nH]5)C=C4)C=C3)cc1
REMARK SMILES IDX 33 1 32 2 31 3 30 4 29 5 27 6 28 7 26 8 3 9 4 10 5 11 25 12
REMARK SMILES IDX 23 13 24 14 2 15 1 16 6 17 7 18 8 20 9 21 10 22 22 23 11 24
REMARK SMILES IDX 21 25 12 26 13 27 14 28 15 29 16 30 17 31 20 32 18 33 19 34
REMARK SMILES IDX 34 35 35 36 36 37 37 38 38 39 39 40 40 41 41 42 42 43 94 44
REMARK SMILES IDX 43 45 93 46 44 47 45 48 46 49 87 50 47 51 92 52 86 53 88 54
REMARK SMILES IDX 48 55 91 56 85 57 84 58 49 60 75 61 58 62 74 63 59 64 62 65
REMARK SMILES IDX 73 66 89 67 60 68 61 69 72 71 90 72 63 73 50 74 51 75 56 76
REMARK SMILES IDX 52 77 53 78 55 79 57 80 54 81 76 82 77 83 82 84 78 85 79 86
REMARK SMILES IDX 81 87 83 88 80 89 64 90 65 91 70 92 66 93 67 94 69 95 71 96
REMARK SMILES IDX 68 97
REMARK H PARENT 6 19 88 59 62 70
REMARK Flexibility Score: inf
ROOT
ATOM      1  C   UNL A   1      32.862  36.409  31.265  1.00  0.00     0.188 C 
ENDROOT
BRANCH   1   2
ATOM      2  O   UNL A   1      33.857  37.008  32.076  1.00  0.00    -0.376 OA
BRANCH   2   3
ATOM      3  C   UNL A   1      34.047  36.453  33.368  1.00  0.00     0.202 C 
BRANCH   3   4
ATOM      4  C   UNL A   1      34.673  35.056  33.536  1.00  0.00     0.261 C 
BRANCH   4   5
ATOM      5  O   UNL A   1      36.042  34.983  33.964  1.00  0.00    -0.460 OA
BRANCH   5   6
ATOM      6  C   UNL A   1      36.659  33.780  33.944  1.00  0.00     0.342 C 
ATOM      7  O   UNL A   1      36.250  32.743  34.432  1.00  0.00    -0.246 OA
BRANCH   6   8
ATOM      8  C   UNL A   1      37.837  33.865  33.048  1.00  0.00     0.103 A 
ATOM      9  C   UNL A   1      39.117  34.149  33.528  1.00  0.00     0.135 A 
ATOM     10  C   UNL A   1      40.213  34.161  32.657  1.00  0.00     0.075 A 
ATOM     11  C   UNL A   1      40.018  34.133  31.276  1.00  0.00     0.063 A 
ATOM     12  C   UNL A   1      37.645  33.696  31.672  1.00  0.00     0.042 A 
ATOM     13  C   UNL A   1      38.724  33.857  30.792  1.00  0.00     0.065 A 
ATOM     14  Cl  UNL A   1      38.395  33.830  29.094  1.00  0.00    -0.082 Cl
BRANCH   9  15
ATOM     15  O   UNL A   1      39.327  34.454  34.848  1.00  0.00    -0.496 OA
ATOM     16  C   UNL A   1      40.039  35.699  34.961  1.00  0.00     0.278 C 
ENDBRANCH   9  15
BRANCH  11  17
ATOM     17  N   UNL A   1      41.047  34.441  30.356  1.00  0.00    -0.324 N 
ATOM     18  C   UNL A   1      42.072  33.704  29.823  1.00  0.00     0.227 C 
ATOM     19  H   UNL A   1      41.021  35.371  30.034  1.00  0.00     0.169 HD
ATOM     20  O   UNL A   1      42.770  34.251  28.963  1.00  0.00    -0.274 OA
BRANCH  18  21
ATOM     21  C   UNL A   1      42.396  32.278  30.295  1.00  0.00     0.081 C 
ATOM     22  C   UNL A   1      43.762  32.148  30.974  1.00  0.00     0.030 C 
ATOM     23  C   UNL A   1      42.359  31.256  29.136  1.00  0.00     0.030 C 
ATOM     24  C   UNL A   1      44.882  32.397  29.991  1.00  0.00     0.103 C 
ATOM     25  C   UNL A   1      43.594  31.302  28.220  1.00  0.00     0.103 C 
ATOM     26  N   UNL A   1      44.855  31.292  29.019  1.00  0.00    -0.197 NA
BRANCH  26  27
ATOM     27  S   UNL A   1      46.316  31.210  28.127  1.00  0.00     0.252 S 
ATOM     28  O   UNL A   1      46.092  31.859  26.858  1.00  0.00    -0.206 OA
ATOM     29  O   UNL A   1      47.391  31.631  29.009  1.00  0.00    -0.206 OA
BRANCH  27  30
ATOM     30  C   UNL A   1      46.607  29.500  27.741  1.00  0.00     0.135 A 
ATOM     31  C   UNL A   1      45.735  28.438  27.599  1.00  0.00     0.033 A 
ATOM     32  S   UNL A   1      48.228  29.014  27.490  1.00  0.00    -0.131 S 
ATOM     33  C   UNL A   1      46.405  27.219  27.300  1.00  0.00     0.013 A 
ATOM     34  C   UNL A   1      47.766  27.395  27.193  1.00  0.00     0.066 A 
ENDBRANCH  27  30
ENDBRANCH  26  27
ENDBRANCH  18  21
ENDBRANCH  11  17
ENDBRANCH   6   8
ENDBRANCH   5   6
ENDBRANCH   4   5
ENDBRANCH   3   4
ENDBRANCH   2   3
ENDBRANCH   1   2
BRANCH   1  35
ATOM     35  C   UNL A   1      33.473  35.402  30.275  1.00  0.00     0.188 C 
BRANCH  35  36
ATOM     36  O   UNL A   1      32.600  34.842  29.315  1.00  0.00    -0.376 OA
BRANCH  36  37
ATOM     37  C   UNL A   1      33.125  34.261  28.126  1.00  0.00     0.202 C 
BRANCH  37  38
ATOM     38  C   UNL A   1      34.341  33.301  28.026  1.00  0.00     0.261 C 
BRANCH  38  39
ATOM     39  O   UNL A   1      34.302  32.046  28.711  1.00  0.00    -0.460 OA
BRANCH  39  40
ATOM     40  C   UNL A   1      34.639  30.945  28.002  1.00  0.00     0.338 C 
ATOM     41  O   UNL A   1      34.105  30.522  26.991  1.00  0.00    -0.246 OA
BRANCH  40  42
ATOM     42  C   UNL A   1      35.901  30.414  28.563  1.00  0.00     0.060 A 
ATOM     43  C   UNL A   1      37.099  30.624  27.868  1.00  0.00     0.016 A 
ATOM     44  C   UNL A   1      35.902  29.732  29.780  1.00  0.00     0.016 A 
ATOM     45  C   UNL A   1      38.308  30.161  28.395  1.00  0.00     0.010 A 
ATOM     46  C   UNL A   1      37.109  29.242  30.291  1.00  0.00     0.010 A 
ATOM     47  C   UNL A   1      38.317  29.444  29.598  1.00  0.00    -0.014 A 
BRANCH  47  48
ATOM     48  C   UNL A   1      39.562  28.793  30.081  1.00  0.00     0.031 A 
ATOM     49  C   UNL A   1      40.235  29.335  31.312  1.00  0.00     0.074 A 
ATOM     50  C   UNL A   1      40.104  27.750  29.425  1.00  0.00     0.049 A 
ATOM     51  N   UNL A   1      41.384  29.008  31.843  1.00  0.00    -0.248 NA
ATOM     52  C   UNL A   1      39.512  30.390  32.039  1.00  0.00     0.031 C 
ATOM     53  C   UNL A   1      39.531  27.097  28.250  1.00  0.00     0.029 A 
ATOM     54  N   UNL A   1      41.278  27.071  29.648  1.00  0.00    -0.354 N 
ATOM     55  C   UNL A   1      41.533  29.827  32.956  1.00  0.00     0.074 A 
ATOM     56  C   UNL A   1      40.362  30.676  33.015  1.00  0.00     0.031 C 
ATOM     57  C   UNL A   1      40.365  26.124  27.843  1.00  0.00     0.029 A 
ATOM     58  C   UNL A   1      41.550  26.115  28.699  1.00  0.00     0.049 A 
ATOM     59  H   UNL A   1      41.868  27.253  30.415  1.00  0.00     0.167 HD
ATOM     60  C   UNL A   1      42.552  29.868  33.845  1.00  0.00     0.037 A 
ATOM     61  C   UNL A   1      42.646  25.349  28.521  1.00  0.00     0.037 A 
ATOM     62  C   UNL A   1      43.716  29.021  33.788  1.00  0.00     0.049 A 
ATOM     63  C   UNL A   1      43.809  25.484  29.473  1.00  0.00     0.074 A 
ATOM     64  C   UNL A   1      44.785  28.968  34.666  1.00  0.00     0.029 A 
ATOM     65  N   UNL A   1      43.971  28.091  32.792  1.00  0.00    -0.354 N 
ATOM     66  N   UNL A   1      43.927  26.236  30.541  1.00  0.00    -0.248 NA
ATOM     67  C   UNL A   1      44.997  24.664  29.189  1.00  0.00     0.031 C 
ATOM     68  C   UNL A   1      45.717  28.054  34.166  1.00  0.00     0.029 A 
ATOM     69  C   UNL A   1      45.199  27.489  33.013  1.00  0.00     0.049 A 
ATOM     70  H   UNL A   1      43.369  27.889  32.040  1.00  0.00     0.167 HD
ATOM     71  C   UNL A   1      45.182  25.955  31.071  1.00  0.00     0.074 A 
ATOM     72  C   UNL A   1      45.781  24.952  30.218  1.00  0.00     0.031 C 
ATOM     73  C   UNL A   1      45.784  26.482  32.165  1.00  0.00     0.037 A 
BRANCH  60  74
ATOM     74  C   UNL A   1      42.482  30.886  34.945  1.00  0.00     0.057 A 
ATOM     75  C   UNL A   1      42.746  32.243  34.722  1.00  0.00     0.134 A 
ATOM     76  C   UNL A   1      42.081  30.507  36.234  1.00  0.00     0.134 A 
ATOM     77  F   UNL A   1      43.145  32.669  33.515  1.00  0.00    -0.206 F 
ATOM     78  C   UNL A   1      42.626  33.186  35.745  1.00  0.00     0.040 A 
ATOM     79  C   UNL A   1      41.931  31.445  37.256  1.00  0.00     0.040 A 
ATOM     80  F   UNL A   1      41.808  29.224  36.513  1.00  0.00    -0.206 F 
ATOM     81  C   UNL A   1      42.207  32.789  37.014  1.00  0.00     0.006 A 
ENDBRANCH  60  74
BRANCH  61  82
ATOM     82  C   UNL A   1      42.730  24.403  27.377  1.00  0.00     0.057 A 
ATOM     83  C   UNL A   1      42.404  23.049  27.531  1.00  0.00     0.134 A 
ATOM     84  C   UNL A   1      43.202  24.811  26.123  1.00  0.00     0.134 A 
ATOM     85  F   UNL A   1      41.976  22.589  28.716  1.00  0.00    -0.206 F 
ATOM     86  C   UNL A   1      42.570  22.132  26.491  1.00  0.00     0.040 A 
ATOM     87  C   UNL A   1      43.341  23.911  25.065  1.00  0.00     0.040 A 
ATOM     88  F   UNL A   1      43.538  26.091  25.908  1.00  0.00    -0.206 F 
ATOM     89  C   UNL A   1      43.036  22.564  25.252  1.00  0.00     0.006 A 
ENDBRANCH  61  82
BRANCH  73  90
ATOM     90  C   UNL A   1      47.143  25.954  32.532  1.00  0.00     0.057 A 
ATOM     91  C   UNL A   1      48.315  26.445  31.945  1.00  0.00     0.134 A 
ATOM     92  C   UNL A   1      47.282  24.970  33.521  1.00  0.00     0.134 A 
ATOM     93  F   UNL A   1      48.255  27.379  30.984  1.00  0.00    -0.206 F 
ATOM     94  C   UNL A   1      49.574  25.957  32.306  1.00  0.00     0.040 A 
ATOM     95  C   UNL A   1      48.536  24.498  33.914  1.00  0.00     0.040 A 
ATOM     96  F   UNL A   1      46.202  24.463  34.135  1.00  0.00    -0.206 F 
ATOM     97  C   UNL A   1      49.686  24.986  33.299  1.00  0.00     0.006 A 
ENDBRANCH  73  90
ENDBRANCH  47  48
ENDBRANCH  40  42
ENDBRANCH  39  40
ENDBRANCH  38  39
ENDBRANCH  37  38
ENDBRANCH  36  37
ENDBRANCH  35  36
ENDBRANCH   1  35
TORSDOF 22
ENDMDL
MODEL 2
REMARK VINA RESULT:      -8.1      5.257     10.320
REMARK SMILES COc1cc(NC(=O)C2CCN(S(=O)(=O)c3cccs3)CC2)c(Cl)cc1C(=O)OCCOCCOCCOC(=O)c1ccc(-c2c3nc(c(-c4c(F)cccc4F)c4ccc([nH]4)c(-c4c(F)cccc4F)c4nc(c(-c5c(F)cccc5F)c5ccc2[nH]5)C=C4)C=C3)cc1
REMARK SMILES IDX 33 1 32 2 31 3 30 4 29 5 27 6 28 7 26 8 3 9 4 10 5 11 25 12
REMARK SMILES IDX 23 13 24 14 2 15 1 16 6 17 7 18 8 20 9 21 10 22 22 23 11 24
REMARK SMILES IDX 21 25 12 26 13 27 14 28 15 29 16 30 17 31 20 32 18 33 19 34
REMARK SMILES IDX 34 35 35 36 36 37 37 38 38 39 39 40 40 41 41 42 42 43 94 44
REMARK SMILES IDX 43 45 93 46 44 47 45 48 46 49 87 50 47 51 92 52 86 53 88 54
REMARK SMILES IDX 48 55 91 56 85 57 84 58 49 60 75 61 58 62 74 63 59 64 62 65
REMARK SMILES IDX 73 66 89 67 60 68 61 69 72 71 90 72 63 73 50 74 51 75 56 76
REMARK SMILES IDX 52 77 53 78 55 79 57 80 54 81 76 82 77 83 82 84 78 85 79 86
REMARK SMILES IDX 81 87 83 88 80 89 64 90 65 91 70 92 66 93 67 94 69 95 71 96
REMARK SMILES IDX 68 97
REMARK H PARENT 6 19 88 59 62 70
REMARK Flexibility Score: inf
ROOT
ATOM      1  C   UNL A   1      34.475  31.232  27.781  1.00  0.00     0.188 C 
ENDROOT
BRANCH   1   2
ATOM      2  O   UNL A   1      33.292  30.464  27.656  1.00  0.00    -0.376 OA
BRANCH   2   3
ATOM      3  C   UNL A   1      32.690  30.424  26.371  1.00  0.00     0.202 C 
BRANCH   3   4
ATOM      4  C   UNL A   1      33.092  29.343  25.351  1.00  0.00     0.261 C 
BRANCH   4   5
ATOM      5  O   UNL A   1      32.494  29.396  24.047  1.00  0.00    -0.460 OA
BRANCH   5   6
ATOM      6  C   UNL A   1      31.205  29.014  23.914  1.00  0.00     0.342 C 
ATOM      7  O   UNL A   1      30.225  29.737  23.926  1.00  0.00    -0.246 OA
BRANCH   6   8
ATOM      8  C   UNL A   1      31.169  27.581  23.540  1.00  0.00     0.103 A 
ATOM      9  C   UNL A   1      30.660  26.601  24.395  1.00  0.00     0.135 A 
ATOM     10  C   UNL A   1      30.590  25.267  23.981  1.00  0.00     0.075 A 
ATOM     11  C   UNL A   1      31.242  24.852  22.820  1.00  0.00     0.063 A 
ATOM     12  C   UNL A   1      31.705  27.197  22.305  1.00  0.00     0.042 A 
ATOM     13  C   UNL A   1      31.765  25.839  21.962  1.00  0.00     0.065 A 
ATOM     14  Cl  UNL A   1      32.609  25.405  20.516  1.00  0.00    -0.082 Cl
BRANCH   9  15
ATOM     15  O   UNL A   1      30.250  26.915  25.666  1.00  0.00    -0.496 OA
ATOM     16  C   UNL A   1      31.223  26.465  26.625  1.00  0.00     0.278 C 
ENDBRANCH   9  15
BRANCH  11  17
ATOM     17  N   UNL A   1      31.458  23.488  22.515  1.00  0.00    -0.324 N 
ATOM     18  C   UNL A   1      31.866  22.417  23.266  1.00  0.00     0.227 C 
ATOM     19  H   UNL A   1      31.277  23.263  21.573  1.00  0.00     0.169 HD
ATOM     20  O   UNL A   1      31.877  21.313  22.713  1.00  0.00    -0.274 OA
BRANCH  18  21
ATOM     21  C   UNL A   1      32.345  22.564  24.720  1.00  0.00     0.081 C 
ATOM     22  C   UNL A   1      33.428  23.630  24.906  1.00  0.00     0.030 C 
ATOM     23  C   UNL A   1      32.901  21.239  25.289  1.00  0.00     0.030 C 
ATOM     24  C   UNL A   1      34.708  23.231  24.209  1.00  0.00     0.103 C 
ATOM     25  C   UNL A   1      34.312  20.886  24.790  1.00  0.00     0.103 C 
ATOM     26  N   UNL A   1      35.235  22.053  24.918  1.00  0.00    -0.197 NA
BRANCH  26  27
ATOM     27  S   UNL A   1      36.877  21.768  24.521  1.00  0.00     0.252 S 
ATOM     28  O   UNL A   1      37.162  20.383  24.804  1.00  0.00    -0.206 OA
ATOM     29  O   UNL A   1      37.111  22.331  23.202  1.00  0.00    -0.206 OA
BRANCH  27  30
ATOM     30  C   UNL A   1      37.869  22.700  25.662  1.00  0.00     0.135 A 
ATOM     31  C   UNL A   1      37.728  23.984  26.153  1.00  0.00     0.033 A 
ATOM     32  S   UNL A   1      39.259  21.937  26.305  1.00  0.00    -0.131 S 
ATOM     33  C   UNL A   1      38.775  24.344  27.046  1.00  0.00     0.013 A 
ATOM     34  C   UNL A   1      39.667  23.313  27.233  1.00  0.00     0.066 A 
ENDBRANCH  27  30
ENDBRANCH  26  27
ENDBRANCH  18  21
ENDBRANCH  11  17
ENDBRANCH   6   8
ENDBRANCH   5   6
ENDBRANCH   4   5
ENDBRANCH   3   4
ENDBRANCH   2   3
ENDBRANCH   1   2
BRANCH   1  35
ATOM     35  C   UNL A   1      34.163  32.686  28.176  1.00  0.00     0.188 C 
BRANCH  35  36
ATOM     36  O   UNL A   1      34.797  33.180  29.340  1.00  0.00    -0.376 OA
BRANCH  36  37
ATOM     37  C   UNL A   1      35.330  32.274  30.300  1.00  0.00     0.202 C 
BRANCH  37  38
ATOM     38  C   UNL A   1      36.627  32.465  31.130  1.00  0.00     0.261 C 
BRANCH  38  39
ATOM     39  O   UNL A   1      37.146  31.365  31.884  1.00  0.00    -0.460 OA
BRANCH  39  40
ATOM     40  C   UNL A   1      37.163  30.155  31.279  1.00  0.00     0.338 C 
ATOM     41  O   UNL A   1      36.227  29.390  31.124  1.00  0.00    -0.246 OA
BRANCH  40  42
ATOM     42  C   UNL A   1      38.496  29.977  30.662  1.00  0.00     0.060 A 
ATOM     43  C   UNL A   1      38.614  30.012  29.266  1.00  0.00     0.016 A 
ATOM     44  C   UNL A   1      39.627  29.798  31.460  1.00  0.00     0.016 A 
ATOM     45  C   UNL A   1      39.868  29.880  28.663  1.00  0.00     0.010 A 
ATOM     46  C   UNL A   1      40.876  29.634  30.853  1.00  0.00     0.010 A 
ATOM     47  C   UNL A   1      41.004  29.663  29.452  1.00  0.00    -0.014 A 
BRANCH  47  48
ATOM     48  C   UNL A   1      42.311  29.343  28.825  1.00  0.00     0.031 A 
ATOM     49  C   UNL A   1      42.565  27.938  28.350  1.00  0.00     0.074 A 
ATOM     50  C   UNL A   1      43.272  30.276  28.697  1.00  0.00     0.049 A 
ATOM     51  N   UNL A   1      43.665  27.403  27.887  1.00  0.00    -0.248 NA
ATOM     52  C   UNL A   1      41.422  27.013  28.410  1.00  0.00     0.031 C 
ATOM     53  C   UNL A   1      43.141  31.683  29.070  1.00  0.00     0.029 A 
ATOM     54  N   UNL A   1      44.562  30.169  28.235  1.00  0.00    -0.354 N 
ATOM     55  C   UNL A   1      43.354  26.076  27.616  1.00  0.00     0.074 A 
ATOM     56  C   UNL A   1      41.966  25.884  27.980  1.00  0.00     0.031 C 
ATOM     57  C   UNL A   1      44.311  32.305  28.840  1.00  0.00     0.029 A 
ATOM     58  C   UNL A   1      45.285  31.332  28.348  1.00  0.00     0.049 A 
ATOM     59  H   UNL A   1      44.933  29.338  27.859  1.00  0.00     0.167 HD
ATOM     60  C   UNL A   1      44.153  25.106  27.112  1.00  0.00     0.037 A 
ATOM     61  C   UNL A   1      46.593  31.572  28.118  1.00  0.00     0.037 A 
ATOM     62  C   UNL A   1      45.533  25.298  26.747  1.00  0.00     0.049 A 
ATOM     63  C   UNL A   1      47.483  30.448  27.647  1.00  0.00     0.074 A 
ATOM     64  C   UNL A   1      46.412  24.382  26.195  1.00  0.00     0.029 A 
ATOM     65  N   UNL A   1      46.239  26.480  26.909  1.00  0.00    -0.354 N 
ATOM     66  N   UNL A   1      47.173  29.206  27.361  1.00  0.00    -0.248 NA
ATOM     67  C   UNL A   1      48.910  30.761  27.471  1.00  0.00     0.031 C 
ATOM     68  C   UNL A   1      47.666  24.989  26.086  1.00  0.00     0.029 A 
ATOM     69  C   UNL A   1      47.552  26.304  26.507  1.00  0.00     0.049 A 
ATOM     70  H   UNL A   1      45.862  27.319  27.259  1.00  0.00     0.167 HD
ATOM     71  C   UNL A   1      48.355  28.604  26.942  1.00  0.00     0.074 A 
ATOM     72  C   UNL A   1      49.384  29.620  26.994  1.00  0.00     0.031 C 
ATOM     73  C   UNL A   1      48.568  27.324  26.551  1.00  0.00     0.037 A 
BRANCH  60  74
ATOM     74  C   UNL A   1      43.572  23.732  26.952  1.00  0.00     0.057 A 
ATOM     75  C   UNL A   1      43.242  23.204  25.698  1.00  0.00     0.134 A 
ATOM     76  C   UNL A   1      43.401  22.903  28.069  1.00  0.00     0.134 A 
ATOM     77  F   UNL A   1      43.371  23.950  24.590  1.00  0.00    -0.206 F 
ATOM     78  C   UNL A   1      42.751  21.905  25.561  1.00  0.00     0.040 A 
ATOM     79  C   UNL A   1      42.938  21.593  27.942  1.00  0.00     0.040 A 
ATOM     80  F   UNL A   1      43.703  23.345  29.299  1.00  0.00    -0.206 F 
ATOM     81  C   UNL A   1      42.607  21.091  26.684  1.00  0.00     0.006 A 
ENDBRANCH  60  74
BRANCH  61  82
ATOM     82  C   UNL A   1      47.168  32.922  28.358  1.00  0.00     0.057 A 
ATOM     83  C   UNL A   1      47.258  33.866  27.327  1.00  0.00     0.134 A 
ATOM     84  C   UNL A   1      47.701  33.279  29.603  1.00  0.00     0.134 A 
ATOM     85  F   UNL A   1      46.794  33.573  26.103  1.00  0.00    -0.206 F 
ATOM     86  C   UNL A   1      47.882  35.100  27.515  1.00  0.00     0.040 A 
ATOM     87  C   UNL A   1      48.299  34.523  29.814  1.00  0.00     0.040 A 
ATOM     88  F   UNL A   1      47.654  32.422  30.633  1.00  0.00    -0.206 F 
ATOM     89  C   UNL A   1      48.401  35.433  28.764  1.00  0.00     0.006 A 
ENDBRANCH  61  82
BRANCH  73  90
ATOM     90  C   UNL A   1      49.956  26.955  26.105  1.00  0.00     0.057 A 
ATOM     91  C   UNL A   1      50.366  27.076  24.771  1.00  0.00     0.134 A 
ATOM     92  C   UNL A   1      50.909  26.513  27.033  1.00  0.00     0.134 A 
ATOM     93  F   UNL A   1      49.503  27.482  23.828  1.00  0.00    -0.206 F 
ATOM     94  C   UNL A   1      51.663  26.745  24.373  1.00  0.00     0.040 A 
ATOM     95  C   UNL A   1      52.218  26.210  26.652  1.00  0.00     0.040 A 
ATOM     96  F   UNL A   1      50.590  26.385  28.330  1.00  0.00    -0.206 F 
ATOM     97  C   UNL A   1      52.595  26.317  25.317  1.00  0.00     0.006 A 
ENDBRANCH  73  90
ENDBRANCH  47  48
ENDBRANCH  40  42
ENDBRANCH  39  40
ENDBRANCH  38  39
ENDBRANCH  37  38
ENDBRANCH  36  37
ENDBRANCH  35  36
ENDBRANCH   1  35
TORSDOF 22
ENDMDL
MODEL 3
REMARK VINA RESULT:      -7.7      3.109      4.845
REMARK SMILES COc1cc(NC(=O)C2CCN(S(=O)(=O)c3cccs3)CC2)c(Cl)cc1C(=O)OCCOCCOCCOC(=O)c1ccc(-c2c3nc(c(-c4c(F)cccc4F)c4ccc([nH]4)c(-c4c(F)cccc4F)c4nc(c(-c5c(F)cccc5F)c5ccc2[nH]5)C=C4)C=C3)cc1
REMARK SMILES IDX 33 1 32 2 31 3 30 4 29 5 27 6 28 7 26 8 3 9 4 10 5 11 25 12
REMARK SMILES IDX 23 13 24 14 2 15 1 16 6 17 7 18 8 20 9 21 10 22 22 23 11 24
REMARK SMILES IDX 21 25 12 26 13 27 14 28 15 29 16 30 17 31 20 32 18 33 19 34
REMARK SMILES IDX 34 35 35 36 36 37 37 38 38 39 39 40 40 41 41 42 42 43 94 44
REMARK SMILES IDX 43 45 93 46 44 47 45 48 46 49 87 50 47 51 92 52 86 53 88 54
REMARK SMILES IDX 48 55 91 56 85 57 84 58 49 60 75 61 58 62 74 63 59 64 62 65
REMARK SMILES IDX 73 66 89 67 60 68 61 69 72 71 90 72 63 73 50 74 51 75 56 76
REMARK SMILES IDX 52 77 53 78 55 79 57 80 54 81 76 82 77 83 82 84 78 85 79 86
REMARK SMILES IDX 81 87 83 88 80 89 64 90 65 91 70 92 66 93 67 94 69 95 71 96
REMARK SMILES IDX 68 97
REMARK H PARENT 6 19 88 59 62 70
REMARK Flexibility Score: inf
ROOT
ATOM      1  C   UNL A   1      34.017  35.788  32.052  1.00  0.00     0.188 C 
ENDROOT
BRANCH   1   2
ATOM      2  O   UNL A   1      35.058  35.737  33.011  1.00  0.00    -0.376 OA
BRANCH   2   3
ATOM      3  C   UNL A   1      34.853  34.889  34.131  1.00  0.00     0.202 C 
BRANCH   3   4
ATOM      4  C   UNL A   1      35.183  33.386  34.045  1.00  0.00     0.261 C 
BRANCH   4   5
ATOM      5  O   UNL A   1      36.470  32.955  34.513  1.00  0.00    -0.460 OA
BRANCH   5   6
ATOM      6  C   UNL A   1      37.456  32.772  33.607  1.00  0.00     0.342 C 
ATOM      7  O   UNL A   1      37.527  33.264  32.496  1.00  0.00    -0.246 OA
BRANCH   6   8
ATOM      8  C   UNL A   1      38.564  32.029  34.254  1.00  0.00     0.103 A 
ATOM      9  C   UNL A   1      38.561  30.637  34.365  1.00  0.00     0.135 A 
ATOM     10  C   UNL A   1      39.654  29.970  34.930  1.00  0.00     0.075 A 
ATOM     11  C   UNL A   1      40.645  30.682  35.606  1.00  0.00     0.063 A 
ATOM     12  C   UNL A   1      39.625  32.757  34.808  1.00  0.00     0.042 A 
ATOM     13  C   UNL A   1      40.642  32.087  35.501  1.00  0.00     0.065 A 
ATOM     14  Cl  UNL A   1      41.822  33.044  36.330  1.00  0.00    -0.082 Cl
BRANCH   9  15
ATOM     15  O   UNL A   1      37.481  29.897  33.959  1.00  0.00    -0.496 OA
ATOM     16  C   UNL A   1      37.847  29.049  32.857  1.00  0.00     0.278 C 
ENDBRANCH   9  15
BRANCH  11  17
ATOM     17  N   UNL A   1      41.597  30.054  36.441  1.00  0.00    -0.324 N 
ATOM     18  C   UNL A   1      42.702  29.285  36.182  1.00  0.00     0.227 C 
ATOM     19  H   UNL A   1      41.435  30.200  37.401  1.00  0.00     0.169 HD
ATOM     20  O   UNL A   1      43.391  28.947  37.149  1.00  0.00    -0.274 OA
BRANCH  18  21
ATOM     21  C   UNL A   1      43.060  28.806  34.765  1.00  0.00     0.081 C 
ATOM     22  C   UNL A   1      42.047  27.823  34.174  1.00  0.00     0.030 C 
ATOM     23  C   UNL A   1      44.447  28.126  34.711  1.00  0.00     0.030 C 
ATOM     24  C   UNL A   1      42.046  26.519  34.937  1.00  0.00     0.103 C 
ATOM     25  C   UNL A   1      44.465  26.694  35.271  1.00  0.00     0.103 C 
ATOM     26  N   UNL A   1      43.351  25.880  34.699  1.00  0.00    -0.197 NA
BRANCH  26  27
ATOM     27  S   UNL A   1      43.323  24.223  35.135  1.00  0.00     0.252 S 
ATOM     28  O   UNL A   1      42.707  24.122  36.435  1.00  0.00    -0.206 OA
ATOM     29  O   UNL A   1      42.807  23.481  33.998  1.00  0.00    -0.206 OA
BRANCH  27  30
ATOM     30  C   UNL A   1      45.007  23.707  35.365  1.00  0.00     0.135 A 
ATOM     31  C   UNL A   1      46.071  23.649  34.485  1.00  0.00     0.033 A 
ATOM     32  S   UNL A   1      45.462  23.175  36.927  1.00  0.00    -0.131 S 
ATOM     33  C   UNL A   1      47.256  23.150  35.093  1.00  0.00     0.013 A 
ATOM     34  C   UNL A   1      47.068  22.870  36.428  1.00  0.00     0.066 A 
ENDBRANCH  27  30
ENDBRANCH  26  27
ENDBRANCH  18  21
ENDBRANCH  11  17
ENDBRANCH   6   8
ENDBRANCH   5   6
ENDBRANCH   4   5
ENDBRANCH   3   4
ENDBRANCH   2   3
ENDBRANCH   1   2
BRANCH   1  35
ATOM     35  C   UNL A   1      34.328  34.899  30.835  1.00  0.00     0.188 C 
BRANCH  35  36
ATOM     36  O   UNL A   1      33.245  34.581  29.984  1.00  0.00    -0.376 OA
BRANCH  36  37
ATOM     37  C   UNL A   1      33.479  34.291  28.611  1.00  0.00     0.202 C 
BRANCH  37  38
ATOM     38  C   UNL A   1      34.349  33.136  28.046  1.00  0.00     0.261 C 
BRANCH  38  39
ATOM     39  O   UNL A   1      34.417  31.896  28.756  1.00  0.00    -0.460 OA
BRANCH  39  40
ATOM     40  C   UNL A   1      34.546  30.769  28.021  1.00  0.00     0.338 C 
ATOM     41  O   UNL A   1      33.769  30.332  27.190  1.00  0.00    -0.246 OA
BRANCH  40  42
ATOM     42  C   UNL A   1      35.901  30.225  28.262  1.00  0.00     0.060 A 
ATOM     43  C   UNL A   1      36.208  29.686  29.519  1.00  0.00     0.016 A 
ATOM     44  C   UNL A   1      36.855  30.226  27.244  1.00  0.00     0.016 A 
ATOM     45  C   UNL A   1      37.470  29.136  29.759  1.00  0.00     0.010 A 
ATOM     46  C   UNL A   1      38.128  29.703  27.497  1.00  0.00     0.010 A 
ATOM     47  C   UNL A   1      38.447  29.165  28.757  1.00  0.00    -0.014 A 
BRANCH  47  48
ATOM     48  C   UNL A   1      39.843  28.749  29.049  1.00  0.00     0.031 A 
ATOM     49  C   UNL A   1      40.770  29.732  29.710  1.00  0.00     0.074 A 
ATOM     50  C   UNL A   1      40.292  27.526  28.712  1.00  0.00     0.049 A 
ATOM     51  N   UNL A   1      42.053  29.634  29.949  1.00  0.00    -0.248 NA
ATOM     52  C   UNL A   1      40.168  30.997  30.159  1.00  0.00     0.031 C 
ATOM     53  C   UNL A   1      39.488  26.463  28.113  1.00  0.00     0.029 A 
ATOM     54  N   UNL A   1      41.550  26.982  28.810  1.00  0.00    -0.354 N 
ATOM     55  C   UNL A   1      42.416  30.828  30.560  1.00  0.00     0.074 A 
ATOM     56  C   UNL A   1      41.221  31.641  30.641  1.00  0.00     0.031 C 
ATOM     57  C   UNL A   1      40.277  25.401  27.878  1.00  0.00     0.029 A 
ATOM     58  C   UNL A   1      41.649  25.724  28.267  1.00  0.00     0.049 A 
ATOM     59  H   UNL A   1      42.309  27.449  29.230  1.00  0.00     0.167 HD
ATOM     60  C   UNL A   1      43.634  31.212  31.008  1.00  0.00     0.037 A 
ATOM     61  C   UNL A   1      42.730  24.940  28.073  1.00  0.00     0.037 A 
ATOM     62  C   UNL A   1      44.822  30.401  30.929  1.00  0.00     0.049 A 
ATOM     63  C   UNL A   1      44.092  25.433  28.497  1.00  0.00     0.074 A 
ATOM     64  C   UNL A   1      46.094  30.693  31.391  1.00  0.00     0.029 A 
ATOM     65  N   UNL A   1      44.889  29.148  30.341  1.00  0.00    -0.354 N 
ATOM     66  N   UNL A   1      44.420  26.548  29.103  1.00  0.00    -0.248 NA
ATOM     67  C   UNL A   1      45.236  24.556  28.203  1.00  0.00     0.031 C 
ATOM     68  C   UNL A   1      46.944  29.647  31.021  1.00  0.00     0.029 A 
ATOM     69  C   UNL A   1      46.189  28.673  30.390  1.00  0.00     0.049 A 
ATOM     70  H   UNL A   1      44.125  28.668  29.946  1.00  0.00     0.167 HD
ATOM     71  C   UNL A   1      45.797  26.490  29.292  1.00  0.00     0.074 A 
ATOM     72  C   UNL A   1      46.241  25.224  28.751  1.00  0.00     0.031 C 
ATOM     73  C   UNL A   1      46.620  27.405  29.860  1.00  0.00     0.037 A 
BRANCH  60  74
ATOM     74  C   UNL A   1      43.762  32.585  31.598  1.00  0.00     0.057 A 
ATOM     75  C   UNL A   1      44.006  33.715  30.808  1.00  0.00     0.134 A 
ATOM     76  C   UNL A   1      43.575  32.785  32.973  1.00  0.00     0.134 A 
ATOM     77  F   UNL A   1      44.206  33.592  29.487  1.00  0.00    -0.206 F 
ATOM     78  C   UNL A   1      44.072  34.994  31.365  1.00  0.00     0.040 A 
ATOM     79  C   UNL A   1      43.610  34.060  33.537  1.00  0.00     0.040 A 
ATOM     80  F   UNL A   1      43.332  31.745  33.786  1.00  0.00    -0.206 F 
ATOM     81  C   UNL A   1      43.863  35.170  32.733  1.00  0.00     0.006 A 
ENDBRANCH  60  74
BRANCH  61  82
ATOM     82  C   UNL A   1      42.594  23.614  27.413  1.00  0.00     0.057 A 
ATOM     83  C   UNL A   1      42.649  23.488  26.020  1.00  0.00     0.134 A 
ATOM     84  C   UNL A   1      42.338  22.452  28.154  1.00  0.00     0.134 A 
ATOM     85  F   UNL A   1      42.860  24.568  25.253  1.00  0.00    -0.206 F 
ATOM     86  C   UNL A   1      42.428  22.264  25.385  1.00  0.00     0.040 A 
ATOM     87  C   UNL A   1      42.147  21.216  27.533  1.00  0.00     0.040 A 
ATOM     88  F   UNL A   1      42.265  22.502  29.491  1.00  0.00    -0.206 F 
ATOM     89  C   UNL A   1      42.180  21.123  26.143  1.00  0.00     0.006 A 
ENDBRANCH  61  82
BRANCH  73  90
ATOM     90  C   UNL A   1      48.078  27.055  29.969  1.00  0.00     0.057 A 
ATOM     91  C   UNL A   1      48.571  26.223  30.982  1.00  0.00     0.134 A 
ATOM     92  C   UNL A   1      48.996  27.526  29.021  1.00  0.00     0.134 A 
ATOM     93  F   UNL A   1      47.750  25.747  31.930  1.00  0.00    -0.206 F 
ATOM     94  C   UNL A   1      49.926  25.893  31.063  1.00  0.00     0.040 A 
ATOM     95  C   UNL A   1      50.348  27.177  29.072  1.00  0.00     0.040 A 
ATOM     96  F   UNL A   1      48.594  28.318  28.015  1.00  0.00    -0.206 F 
ATOM     97  C   UNL A   1      50.817  26.365  30.101  1.00  0.00     0.006 A 
ENDBRANCH  73  90
ENDBRANCH  47  48
ENDBRANCH  40  42
ENDBRANCH  39  40
ENDBRANCH  38  39
ENDBRANCH  37  38
ENDBRANCH  36  37
ENDBRANCH  35  36
ENDBRANCH   1  35
TORSDOF 22
ENDMDL
