MODEL 1
REMARK VINA RESULT:     -10.9      0.000      0.000
REMARK SMILES CC(C)CSc1cc2c(cc1Cl)C=C(C(=O)OCCOCCOCCOC(=O)c1ccc(-c3c4nc(c(-c5c(F)cccc5F)c5ccc([nH]5)c(-c5c(F)cccc5F)c5nc(c(-c6c(F)cccc6F)c6ccc3[nH]6)C=C5)C=C4)cc1)[C@@H](C(F)(F)F)O2
REMARK SMILES IDX 21 1 20 2 19 3 18 4 17 5 15 6 16 7 14 8 6 9 7 10 11 11 8 12
REMARK SMILES IDX 10 13 12 14 9 15 88 16 13 17 83 18 5 19 4 20 2 21 1 22 3 23
REMARK SMILES IDX 84 24 85 25 86 26 87 27 22 28 23 29 24 30 25 31 26 32 27 33
REMARK SMILES IDX 28 34 29 35 30 36 82 37 31 38 81 39 32 40 33 41 34 42 75 43
REMARK SMILES IDX 35 44 80 45 74 46 76 47 36 48 79 49 73 50 72 51 37 53 63 54
REMARK SMILES IDX 46 55 62 56 47 57 50 58 61 59 77 60 48 61 49 62 60 64 78 65
REMARK SMILES IDX 51 66 38 67 39 68 44 69 40 70 41 71 43 72 45 73 42 74 64 75
REMARK SMILES IDX 65 76 70 77 66 78 67 79 69 80 71 81 68 82 52 83 53 84 58 85
REMARK SMILES IDX 54 86 55 87 57 88 59 89 56 90
REMARK H PARENT 76 52 50 63
REMARK Flexibility Score: inf
ROOT
ATOM      1  C   UNL A   1      40.764  21.539  26.217  1.00  0.00     0.188 C 
ENDROOT
BRANCH   1   2
ATOM      2  O   UNL A   1      39.361  21.378  26.117  1.00  0.00    -0.376 OA
BRANCH   2   3
ATOM      3  C   UNL A   1      38.515  22.516  26.120  1.00  0.00     0.202 C 
BRANCH   3   4
ATOM      4  C   UNL A   1      37.291  22.566  25.197  1.00  0.00     0.261 C 
BRANCH   4   5
ATOM      5  O   UNL A   1      36.504  23.757  25.341  1.00  0.00    -0.460 OA
BRANCH   5   6
ATOM      6  C   UNL A   1      35.181  23.559  25.545  1.00  0.00     0.338 C 
ATOM      7  O   UNL A   1      34.657  22.649  26.165  1.00  0.00    -0.246 OA
BRANCH   6   8
ATOM      8  C   UNL A   1      34.434  24.727  25.044  1.00  0.00     0.087 C 
ATOM      9  C   UNL A   1      31.577  28.866  24.716  1.00  0.00     0.030 A 
ATOM     10  C   UNL A   1      31.961  27.841  23.823  1.00  0.00     0.063 A 
ATOM     11  C   UNL A   1      32.198  28.893  25.974  1.00  0.00     0.055 A 
ATOM     12  C   UNL A   1      32.835  26.823  24.209  1.00  0.00     0.129 A 
ATOM     13  C   UNL A   1      33.009  27.825  26.387  1.00  0.00     0.033 A 
ATOM     14  Cl  UNL A   1      32.096  30.213  27.081  1.00  0.00    -0.083 Cl
ATOM     15  C   UNL A   1      33.297  26.772  25.519  1.00  0.00     0.019 A 
ATOM     16  O   UNL A   1      33.146  25.884  23.266  1.00  0.00    -0.475 OA
ATOM     17  C   UNL A   1      34.026  25.603  25.973  1.00  0.00     0.027 C 
ATOM     18  C   UNL A   1      34.201  24.919  23.570  1.00  0.00     0.316 C 
BRANCH   9  19
ATOM     19  S   UNL A   1      30.356  29.991  24.041  1.00  0.00    -0.124 SA
BRANCH  19  20
ATOM     20  C   UNL A   1      29.213  29.000  22.998  1.00  0.00     0.078 C 
BRANCH  20  21
ATOM     21  C   UNL A   1      27.895  29.621  22.489  1.00  0.00    -0.007 C 
ATOM     22  C   UNL A   1      27.202  30.588  23.445  1.00  0.00     0.008 C 
ATOM     23  C   UNL A   1      28.193  30.363  21.175  1.00  0.00     0.008 C 
ENDBRANCH  20  21
ENDBRANCH  19  20
ENDBRANCH   9  19
BRANCH  18  24
ATOM     24  C   UNL A   1      33.851  23.618  22.830  1.00  0.00     0.430 C 
ATOM     25  F   UNL A   1      33.307  23.878  21.616  1.00  0.00    -0.167 F 
ATOM     26  F   UNL A   1      34.941  22.848  22.604  1.00  0.00    -0.167 F 
ATOM     27  F   UNL A   1      32.963  22.869  23.522  1.00  0.00    -0.167 F 
ENDBRANCH  18  24
ENDBRANCH   6   8
ENDBRANCH   5   6
ENDBRANCH   4   5
ENDBRANCH   3   4
ENDBRANCH   2   3
ENDBRANCH   1   2
BRANCH   1  28
ATOM     28  C   UNL A   1      41.703  20.318  26.313  1.00  0.00     0.188 C 
BRANCH  28  29
ATOM     29  O   UNL A   1      42.774  20.203  25.410  1.00  0.00    -0.376 OA
BRANCH  29  30
ATOM     30  C   UNL A   1      43.899  21.063  25.472  1.00  0.00     0.202 C 
BRANCH  30  31
ATOM     31  C   UNL A   1      44.208  22.227  24.513  1.00  0.00     0.261 C 
BRANCH  31  32
ATOM     32  O   UNL A   1      43.557  23.474  24.750  1.00  0.00    -0.460 OA
BRANCH  32  33
ATOM     33  C   UNL A   1      44.374  24.504  25.081  1.00  0.00     0.338 C 
ATOM     34  O   UNL A   1      45.405  24.841  24.524  1.00  0.00    -0.246 OA
BRANCH  33  35
ATOM     35  C   UNL A   1      43.704  25.308  26.119  1.00  0.00     0.060 A 
ATOM     36  C   UNL A   1      42.556  24.833  26.758  1.00  0.00     0.016 A 
ATOM     37  C   UNL A   1      44.233  26.564  26.442  1.00  0.00     0.016 A 
ATOM     38  C   UNL A   1      41.956  25.609  27.749  1.00  0.00     0.010 A 
ATOM     39  C   UNL A   1      43.624  27.345  27.423  1.00  0.00     0.010 A 
ATOM     40  C   UNL A   1      42.496  26.860  28.102  1.00  0.00    -0.014 A 
BRANCH  40  41
ATOM     41  C   UNL A   1      42.004  27.551  29.317  1.00  0.00     0.031 A 
ATOM     42  C   UNL A   1      42.669  27.403  30.649  1.00  0.00     0.074 A 
ATOM     43  C   UNL A   1      40.913  28.327  29.188  1.00  0.00     0.049 A 
ATOM     44  N   UNL A   1      42.411  28.034  31.768  1.00  0.00    -0.248 NA
ATOM     45  C   UNL A   1      43.750  26.414  30.747  1.00  0.00     0.031 C 
ATOM     46  C   UNL A   1      40.152  28.506  27.950  1.00  0.00     0.029 A 
ATOM     47  N   UNL A   1      40.259  29.113  30.100  1.00  0.00    -0.354 N 
ATOM     48  C   UNL A   1      43.315  27.543  32.700  1.00  0.00     0.074 A 
ATOM     49  C   UNL A   1      44.093  26.521  32.026  1.00  0.00     0.031 C 
ATOM     50  C   UNL A   1      39.146  29.365  28.174  1.00  0.00     0.029 A 
ATOM     51  C   UNL A   1      39.188  29.786  29.571  1.00  0.00     0.049 A 
ATOM     52  H   UNL A   1      40.531  29.186  31.044  1.00  0.00     0.167 HD
ATOM     53  C   UNL A   1      43.486  27.927  33.989  1.00  0.00     0.037 A 
ATOM     54  C   UNL A   1      38.338  30.657  30.143  1.00  0.00     0.037 A 
ATOM     55  C   UNL A   1      42.688  28.926  34.660  1.00  0.00     0.049 A 
ATOM     56  C   UNL A   1      38.535  31.038  31.580  1.00  0.00     0.074 A 
ATOM     57  C   UNL A   1      42.823  29.420  35.947  1.00  0.00     0.029 A 
ATOM     58  N   UNL A   1      41.591  29.569  34.105  1.00  0.00    -0.354 N 
ATOM     59  N   UNL A   1      39.460  30.648  32.422  1.00  0.00    -0.248 NA
ATOM     60  C   UNL A   1      37.572  31.995  32.142  1.00  0.00     0.031 C 
ATOM     61  C   UNL A   1      41.778  30.322  36.187  1.00  0.00     0.029 A 
ATOM     62  C   UNL A   1      41.021  30.428  35.033  1.00  0.00     0.049 A 
ATOM     63  H   UNL A   1      41.265  29.435  33.186  1.00  0.00     0.167 HD
ATOM     64  C   UNL A   1      39.205  31.326  33.606  1.00  0.00     0.074 A 
ATOM     65  C   UNL A   1      38.056  32.173  33.362  1.00  0.00     0.031 C 
ATOM     66  C   UNL A   1      39.862  31.252  34.789  1.00  0.00     0.037 A 
BRANCH  53  67
ATOM     67  C   UNL A   1      44.589  27.267  34.767  1.00  0.00     0.057 A 
ATOM     68  C   UNL A   1      45.874  27.823  34.812  1.00  0.00     0.134 A 
ATOM     69  C   UNL A   1      44.394  26.043  35.421  1.00  0.00     0.134 A 
ATOM     70  F   UNL A   1      46.134  28.988  34.198  1.00  0.00    -0.206 F 
ATOM     71  C   UNL A   1      46.923  27.188  35.479  1.00  0.00     0.040 A 
ATOM     72  C   UNL A   1      45.429  25.409  36.112  1.00  0.00     0.040 A 
ATOM     73  F   UNL A   1      43.188  25.455  35.419  1.00  0.00    -0.206 F 
ATOM     74  C   UNL A   1      46.701  25.979  36.136  1.00  0.00     0.006 A 
ENDBRANCH  53  67
BRANCH  54  75
ATOM     75  C   UNL A   1      37.243  31.256  29.344  1.00  0.00     0.057 A 
ATOM     76  C   UNL A   1      37.336  32.561  28.844  1.00  0.00     0.134 A 
ATOM     77  C   UNL A   1      36.085  30.530  29.048  1.00  0.00     0.134 A 
ATOM     78  F   UNL A   1      38.419  33.310  29.103  1.00  0.00    -0.206 F 
ATOM     79  C   UNL A   1      36.316  33.120  28.076  1.00  0.00     0.040 A 
ATOM     80  C   UNL A   1      35.068  31.068  28.260  1.00  0.00     0.040 A 
ATOM     81  F   UNL A   1      35.948  29.270  29.488  1.00  0.00    -0.206 F 
ATOM     82  C   UNL A   1      35.181  32.369  27.774  1.00  0.00     0.006 A 
ENDBRANCH  54  75
BRANCH  66  83
ATOM     83  C   UNL A   1      39.346  32.123  35.899  1.00  0.00     0.057 A 
ATOM     84  C   UNL A   1      39.818  33.431  36.065  1.00  0.00     0.134 A 
ATOM     85  C   UNL A   1      38.356  31.677  36.787  1.00  0.00     0.134 A 
ATOM     86  F   UNL A   1      40.768  33.920  35.255  1.00  0.00    -0.206 F 
ATOM     87  C   UNL A   1      39.317  34.266  37.064  1.00  0.00     0.040 A 
ATOM     88  C   UNL A   1      37.826  32.514  37.771  1.00  0.00     0.040 A 
ATOM     89  F   UNL A   1      37.847  30.441  36.671  1.00  0.00    -0.206 F 
ATOM     90  C   UNL A   1      38.309  33.813  37.912  1.00  0.00     0.006 A 
ENDBRANCH  66  83
ENDBRANCH  40  41
ENDBRANCH  33  35
ENDBRANCH  32  33
ENDBRANCH  31  32
ENDBRANCH  30  31
ENDBRANCH  29  30
ENDBRANCH  28  29
ENDBRANCH   1  28
TORSDOF 21
ENDMDL
MODEL 2
REMARK VINA RESULT:     -10.3      1.069      6.150
REMARK SMILES CC(C)CSc1cc2c(cc1Cl)C=C(C(=O)OCCOCCOCCOC(=O)c1ccc(-c3c4nc(c(-c5c(F)cccc5F)c5ccc([nH]5)c(-c5c(F)cccc5F)c5nc(c(-c6c(F)cccc6F)c6ccc3[nH]6)C=C5)C=C4)cc1)[C@@H](C(F)(F)F)O2
REMARK SMILES IDX 21 1 20 2 19 3 18 4 17 5 15 6 16 7 14 8 6 9 7 10 11 11 8 12
REMARK SMILES IDX 10 13 12 14 9 15 88 16 13 17 83 18 5 19 4 20 2 21 1 22 3 23
REMARK SMILES IDX 84 24 85 25 86 26 87 27 22 28 23 29 24 30 25 31 26 32 27 33
REMARK SMILES IDX 28 34 29 35 30 36 82 37 31 38 81 39 32 40 33 41 34 42 75 43
REMARK SMILES IDX 35 44 80 45 74 46 76 47 36 48 79 49 73 50 72 51 37 53 63 54
REMARK SMILES IDX 46 55 62 56 47 57 50 58 61 59 77 60 48 61 49 62 60 64 78 65
REMARK SMILES IDX 51 66 38 67 39 68 44 69 40 70 41 71 43 72 45 73 42 74 64 75
REMARK SMILES IDX 65 76 70 77 66 78 67 79 69 80 71 81 68 82 52 83 53 84 58 85
REMARK SMILES IDX 54 86 55 87 57 88 59 89 56 90
REMARK H PARENT 76 52 50 63
REMARK Flexibility Score: inf
ROOT
ATOM      1  C   UNL A   1      40.573  21.431  26.219  1.00  0.00     0.188 C 
ENDROOT
BRANCH   1   2
ATOM      2  O   UNL A   1      39.183  21.274  26.001  1.00  0.00    -0.376 OA
BRANCH   2   3
ATOM      3  C   UNL A   1      38.318  22.393  26.101  1.00  0.00     0.202 C 
BRANCH   3   4
ATOM      4  C   UNL A   1      36.871  22.293  25.605  1.00  0.00     0.261 C 
BRANCH   4   5
ATOM      5  O   UNL A   1      36.080  23.458  25.881  1.00  0.00    -0.460 OA
BRANCH   5   6
ATOM      6  C   UNL A   1      34.799  23.220  26.245  1.00  0.00     0.338 C 
ATOM      7  O   UNL A   1      34.412  22.539  27.180  1.00  0.00    -0.246 OA
BRANCH   6   8
ATOM      8  C   UNL A   1      33.901  24.061  25.434  1.00  0.00     0.087 C 
ATOM      9  C   UNL A   1      30.713  27.646  23.891  1.00  0.00     0.030 A 
ATOM     10  C   UNL A   1      31.046  26.346  23.451  1.00  0.00     0.063 A 
ATOM     11  C   UNL A   1      31.500  28.206  24.909  1.00  0.00     0.055 A 
ATOM     12  C   UNL A   1      32.042  25.594  24.078  1.00  0.00     0.129 A 
ATOM     13  C   UNL A   1      32.442  27.419  25.590  1.00  0.00     0.033 A 
ATOM     14  Cl  UNL A   1      31.453  29.867  25.374  1.00  0.00    -0.083 Cl
ATOM     15  C   UNL A   1      32.686  26.103  25.199  1.00  0.00     0.019 A 
ATOM     16  O   UNL A   1      32.290  24.350  23.569  1.00  0.00    -0.475 OA
ATOM     17  C   UNL A   1      33.561  25.240  25.972  1.00  0.00     0.027 C 
ATOM     18  C   UNL A   1      33.449  23.614  24.070  1.00  0.00     0.316 C 
BRANCH   9  19
ATOM     19  S   UNL A   1      29.325  28.370  23.018  1.00  0.00    -0.124 SA
BRANCH  19  20
ATOM     20  C   UNL A   1      29.951  29.840  22.112  1.00  0.00     0.078 C 
BRANCH  20  21
ATOM     21  C   UNL A   1      29.087  31.114  22.011  1.00  0.00    -0.007 C 
ATOM     22  C   UNL A   1      27.949  31.067  20.996  1.00  0.00     0.008 C 
ATOM     23  C   UNL A   1      28.491  31.397  23.400  1.00  0.00     0.008 C 
ENDBRANCH  20  21
ENDBRANCH  19  20
ENDBRANCH   9  19
BRANCH  18  24
ATOM     24  C   UNL A   1      33.100  22.119  23.999  1.00  0.00     0.430 C 
ATOM     25  F   UNL A   1      32.252  21.767  24.996  1.00  0.00    -0.167 F 
ATOM     26  F   UNL A   1      32.484  21.791  22.839  1.00  0.00    -0.167 F 
ATOM     27  F   UNL A   1      34.201  21.341  24.107  1.00  0.00    -0.167 F 
ENDBRANCH  18  24
ENDBRANCH   6   8
ENDBRANCH   5   6
ENDBRANCH   4   5
ENDBRANCH   3   4
ENDBRANCH   2   3
ENDBRANCH   1   2
BRANCH   1  28
ATOM     28  C   UNL A   1      41.525  20.216  26.211  1.00  0.00     0.188 C 
BRANCH  28  29
ATOM     29  O   UNL A   1      42.704  20.273  25.447  1.00  0.00    -0.376 OA
BRANCH  29  30
ATOM     30  C   UNL A   1      43.663  21.300  25.628  1.00  0.00     0.202 C 
BRANCH  30  31
ATOM     31  C   UNL A   1      43.726  22.633  24.859  1.00  0.00     0.261 C 
BRANCH  31  32
ATOM     32  O   UNL A   1      43.123  23.777  25.461  1.00  0.00    -0.460 OA
BRANCH  32  33
ATOM     33  C   UNL A   1      43.880  24.902  25.464  1.00  0.00     0.338 C 
ATOM     34  O   UNL A   1      44.595  25.316  24.568  1.00  0.00    -0.246 OA
BRANCH  33  35
ATOM     35  C   UNL A   1      43.540  25.682  26.668  1.00  0.00     0.060 A 
ATOM     36  C   UNL A   1      44.147  26.915  26.912  1.00  0.00     0.016 A 
ATOM     37  C   UNL A   1      42.609  25.152  27.570  1.00  0.00     0.016 A 
ATOM     38  C   UNL A   1      43.791  27.637  28.052  1.00  0.00     0.010 A 
ATOM     39  C   UNL A   1      42.264  25.868  28.716  1.00  0.00     0.010 A 
ATOM     40  C   UNL A   1      42.834  27.128  28.950  1.00  0.00    -0.014 A 
BRANCH  40  41
ATOM     41  C   UNL A   1      42.285  28.009  30.007  1.00  0.00     0.031 A 
ATOM     42  C   UNL A   1      41.043  28.820  29.812  1.00  0.00     0.074 A 
ATOM     43  C   UNL A   1      42.954  28.067  31.173  1.00  0.00     0.049 A 
ATOM     44  N   UNL A   1      40.392  29.545  30.688  1.00  0.00    -0.248 NA
ATOM     45  C   UNL A   1      40.462  28.833  28.463  1.00  0.00     0.031 C 
ATOM     46  C   UNL A   1      44.204  27.359  31.459  1.00  0.00     0.029 A 
ATOM     47  N   UNL A   1      42.678  28.742  32.332  1.00  0.00    -0.354 N 
ATOM     48  C   UNL A   1      39.306  30.081  30.008  1.00  0.00     0.074 A 
ATOM     49  C   UNL A   1      39.418  29.638  28.631  1.00  0.00     0.031 C 
ATOM     50  C   UNL A   1      44.576  27.621  32.721  1.00  0.00     0.029 A 
ATOM     51  C   UNL A   1      43.598  28.520  33.325  1.00  0.00     0.049 A 
ATOM     52  H   UNL A   1      41.895  29.329  32.442  1.00  0.00     0.167 HD
ATOM     53  C   UNL A   1      38.305  30.853  30.497  1.00  0.00     0.037 A 
ATOM     54  C   UNL A   1      43.645  28.980  34.587  1.00  0.00     0.037 A 
ATOM     55  C   UNL A   1      38.216  31.312  31.864  1.00  0.00     0.049 A 
ATOM     56  C   UNL A   1      42.538  29.858  35.090  1.00  0.00     0.074 A 
ATOM     57  C   UNL A   1      37.211  32.051  32.465  1.00  0.00     0.029 A 
ATOM     58  N   UNL A   1      39.181  31.094  32.837  1.00  0.00    -0.354 N 
ATOM     59  N   UNL A   1      41.459  30.269  34.469  1.00  0.00    -0.248 NA
ATOM     60  C   UNL A   1      42.650  30.323  36.479  1.00  0.00     0.031 C 
ATOM     61  C   UNL A   1      37.591  32.324  33.785  1.00  0.00     0.029 A 
ATOM     62  C   UNL A   1      38.810  31.712  34.023  1.00  0.00     0.049 A 
ATOM     63  H   UNL A   1      40.007  30.576  32.707  1.00  0.00     0.167 HD
ATOM     64  C   UNL A   1      40.754  31.024  35.396  1.00  0.00     0.074 A 
ATOM     65  C   UNL A   1      41.514  30.988  36.629  1.00  0.00     0.031 C 
ATOM     66  C   UNL A   1      39.584  31.690  35.240  1.00  0.00     0.037 A 
BRANCH  53  67
ATOM     67  C   UNL A   1      37.210  31.250  29.548  1.00  0.00     0.057 A 
ATOM     68  C   UNL A   1      36.177  30.360  29.224  1.00  0.00     0.134 A 
ATOM     69  C   UNL A   1      37.213  32.494  28.904  1.00  0.00     0.134 A 
ATOM     70  F   UNL A   1      36.119  29.147  29.795  1.00  0.00    -0.206 F 
ATOM     71  C   UNL A   1      35.189  30.694  28.296  1.00  0.00     0.040 A 
ATOM     72  C   UNL A   1      36.217  32.849  27.992  1.00  0.00     0.040 A 
ATOM     73  F   UNL A   1      38.172  33.394  29.170  1.00  0.00    -0.206 F 
ATOM     74  C   UNL A   1      35.204  31.944  27.681  1.00  0.00     0.006 A 
ENDBRANCH  53  67
BRANCH  54  75
ATOM     75  C   UNL A   1      44.764  28.588  35.477  1.00  0.00     0.057 A 
ATOM     76  C   UNL A   1      44.646  27.512  36.365  1.00  0.00     0.134 A 
ATOM     77  C   UNL A   1      45.983  29.273  35.446  1.00  0.00     0.134 A 
ATOM     78  F   UNL A   1      43.497  26.824  36.446  1.00  0.00    -0.206 F 
ATOM     79  C   UNL A   1      45.704  27.130  37.189  1.00  0.00     0.040 A 
ATOM     80  C   UNL A   1      47.058  28.885  36.246  1.00  0.00     0.040 A 
ATOM     81  F   UNL A   1      46.158  30.302  34.604  1.00  0.00    -0.206 F 
ATOM     82  C   UNL A   1      46.918  27.812  37.124  1.00  0.00     0.006 A 
ENDBRANCH  54  75
BRANCH  66  83
ATOM     83  C   UNL A   1      39.062  32.423  36.444  1.00  0.00     0.057 A 
ATOM     84  C   UNL A   1      38.130  31.824  37.300  1.00  0.00     0.134 A 
ATOM     85  C   UNL A   1      39.508  33.710  36.773  1.00  0.00     0.134 A 
ATOM     86  F   UNL A   1      37.657  30.596  37.042  1.00  0.00    -0.206 F 
ATOM     87  C   UNL A   1      37.669  32.475  38.445  1.00  0.00     0.040 A 
ATOM     88  C   UNL A   1      39.076  34.358  37.933  1.00  0.00     0.040 A 
ATOM     89  F   UNL A   1      40.415  34.333  36.006  1.00  0.00    -0.206 F 
ATOM     90  C   UNL A   1      38.152  33.740  38.772  1.00  0.00     0.006 A 
ENDBRANCH  66  83
ENDBRANCH  40  41
ENDBRANCH  33  35
ENDBRANCH  32  33
ENDBRANCH  31  32
ENDBRANCH  30  31
ENDBRANCH  29  30
ENDBRANCH  28  29
ENDBRANCH   1  28
TORSDOF 21
ENDMDL
MODEL 3
REMARK VINA RESULT:     -10.2      3.415      8.952
REMARK SMILES CC(C)CSc1cc2c(cc1Cl)C=C(C(=O)OCCOCCOCCOC(=O)c1ccc(-c3c4nc(c(-c5c(F)cccc5F)c5ccc([nH]5)c(-c5c(F)cccc5F)c5nc(c(-c6c(F)cccc6F)c6ccc3[nH]6)C=C5)C=C4)cc1)[C@@H](C(F)(F)F)O2
REMARK SMILES IDX 21 1 20 2 19 3 18 4 17 5 15 6 16 7 14 8 6 9 7 10 11 11 8 12
REMARK SMILES IDX 10 13 12 14 9 15 88 16 13 17 83 18 5 19 4 20 2 21 1 22 3 23
REMARK SMILES IDX 84 24 85 25 86 26 87 27 22 28 23 29 24 30 25 31 26 32 27 33
REMARK SMILES IDX 28 34 29 35 30 36 82 37 31 38 81 39 32 40 33 41 34 42 75 43
REMARK SMILES IDX 35 44 80 45 74 46 76 47 36 48 79 49 73 50 72 51 37 53 63 54
REMARK SMILES IDX 46 55 62 56 47 57 50 58 61 59 77 60 48 61 49 62 60 64 78 65
REMARK SMILES IDX 51 66 38 67 39 68 44 69 40 70 41 71 43 72 45 73 42 74 64 75
REMARK SMILES IDX 65 76 70 77 66 78 67 79 69 80 71 81 68 82 52 83 53 84 58 85
REMARK SMILES IDX 54 86 55 87 57 88 59 89 56 90
REMARK H PARENT 76 52 50 63
REMARK Flexibility Score: inf
ROOT
ATOM      1  C   UNL A   1      31.113  29.192  24.682  1.00  0.00     0.188 C 
ENDROOT
BRANCH   1   2
ATOM      2  O   UNL A   1      30.702  29.396  23.342  1.00  0.00    -0.376 OA
BRANCH   2   3
ATOM      3  C   UNL A   1      30.646  28.301  22.443  1.00  0.00     0.202 C 
BRANCH   3   4
ATOM      4  C   UNL A   1      31.000  26.890  22.927  1.00  0.00     0.261 C 
BRANCH   4   5
ATOM      5  O   UNL A   1      31.528  26.039  21.899  1.00  0.00    -0.460 OA
BRANCH   5   6
ATOM      6  C   UNL A   1      32.853  25.778  21.984  1.00  0.00     0.338 C 
ATOM      7  O   UNL A   1      33.771  26.494  21.624  1.00  0.00    -0.246 OA
BRANCH   6   8
ATOM      8  C   UNL A   1      33.053  24.537  22.754  1.00  0.00     0.087 C 
ATOM      9  C   UNL A   1      32.726  19.820  24.499  1.00  0.00     0.030 A 
ATOM     10  C   UNL A   1      33.174  21.052  25.023  1.00  0.00     0.063 A 
ATOM     11  C   UNL A   1      32.405  19.777  23.134  1.00  0.00     0.055 A 
ATOM     12  C   UNL A   1      33.188  22.215  24.250  1.00  0.00     0.129 A 
ATOM     13  C   UNL A   1      32.340  20.961  22.383  1.00  0.00     0.033 A 
ATOM     14  Cl  UNL A   1      32.131  18.324  22.243  1.00  0.00    -0.083 Cl
ATOM     15  C   UNL A   1      32.696  22.184  22.951  1.00  0.00     0.019 A 
ATOM     16  O   UNL A   1      33.647  23.353  24.853  1.00  0.00    -0.475 OA
ATOM     17  C   UNL A   1      32.512  23.429  22.228  1.00  0.00     0.027 C 
ATOM     18  C   UNL A   1      33.858  24.539  24.025  1.00  0.00     0.316 C 
BRANCH   9  19
ATOM     19  S   UNL A   1      32.682  18.496  25.706  1.00  0.00    -0.124 SA
BRANCH  19  20
ATOM     20  C   UNL A   1      33.311  16.979  24.882  1.00  0.00     0.078 C 
BRANCH  20  21
ATOM     21  C   UNL A   1      34.799  16.871  24.492  1.00  0.00    -0.007 C 
ATOM     22  C   UNL A   1      35.616  18.154  24.617  1.00  0.00     0.008 C 
ATOM     23  C   UNL A   1      35.447  15.792  25.376  1.00  0.00     0.008 C 
ENDBRANCH  20  21
ENDBRANCH  19  20
ENDBRANCH   9  19
BRANCH  18  24
ATOM     24  C   UNL A   1      33.596  25.764  24.916  1.00  0.00     0.430 C 
ATOM     25  F   UNL A   1      32.268  25.936  25.131  1.00  0.00    -0.167 F 
ATOM     26  F   UNL A   1      34.168  25.643  26.136  1.00  0.00    -0.167 F 
ATOM     27  F   UNL A   1      34.068  26.901  24.357  1.00  0.00    -0.167 F 
ENDBRANCH  18  24
ENDBRANCH   6   8
ENDBRANCH   5   6
ENDBRANCH   4   5
ENDBRANCH   3   4
ENDBRANCH   2   3
ENDBRANCH   1   2
BRANCH   1  28
ATOM     28  C   UNL A   1      32.459  29.745  25.196  1.00  0.00     0.188 C 
BRANCH  28  29
ATOM     29  O   UNL A   1      32.471  30.579  26.328  1.00  0.00    -0.376 OA
BRANCH  29  30
ATOM     30  C   UNL A   1      31.456  31.540  26.558  1.00  0.00     0.202 C 
BRANCH  30  31
ATOM     31  C   UNL A   1      31.670  33.037  26.849  1.00  0.00     0.261 C 
BRANCH  31  32
ATOM     32  O   UNL A   1      33.010  33.524  26.876  1.00  0.00    -0.460 OA
BRANCH  32  33
ATOM     33  C   UNL A   1      33.413  34.060  28.054  1.00  0.00     0.338 C 
ATOM     34  O   UNL A   1      32.840  34.907  28.718  1.00  0.00    -0.246 OA
BRANCH  33  35
ATOM     35  C   UNL A   1      34.579  33.296  28.533  1.00  0.00     0.060 A 
ATOM     36  C   UNL A   1      35.838  33.894  28.616  1.00  0.00     0.016 A 
ATOM     37  C   UNL A   1      34.401  31.952  28.887  1.00  0.00     0.016 A 
ATOM     38  C   UNL A   1      36.918  33.149  29.089  1.00  0.00     0.010 A 
ATOM     39  C   UNL A   1      35.485  31.204  29.347  1.00  0.00     0.010 A 
ATOM     40  C   UNL A   1      36.745  31.807  29.476  1.00  0.00    -0.014 A 
BRANCH  40  41
ATOM     41  C   UNL A   1      37.831  31.113  30.208  1.00  0.00     0.031 A 
ATOM     42  C   UNL A   1      38.712  30.092  29.560  1.00  0.00     0.074 A 
ATOM     43  C   UNL A   1      38.001  31.428  31.505  1.00  0.00     0.049 A 
ATOM     44  N   UNL A   1      39.767  29.490  30.051  1.00  0.00    -0.248 NA
ATOM     45  C   UNL A   1      38.361  29.682  28.194  1.00  0.00     0.031 C 
ATOM     46  C   UNL A   1      37.170  32.371  32.256  1.00  0.00     0.029 A 
ATOM     47  N   UNL A   1      38.928  30.998  32.418  1.00  0.00    -0.354 N 
ATOM     48  C   UNL A   1      40.228  28.649  29.048  1.00  0.00     0.074 A 
ATOM     49  C   UNL A   1      39.303  28.780  27.938  1.00  0.00     0.031 C 
ATOM     50  C   UNL A   1      37.637  32.465  33.510  1.00  0.00     0.029 A 
ATOM     51  C   UNL A   1      38.791  31.583  33.651  1.00  0.00     0.049 A 
ATOM     52  H   UNL A   1      39.625  30.334  32.208  1.00  0.00     0.167 HD
ATOM     53  C   UNL A   1      41.330  27.859  29.052  1.00  0.00     0.037 A 
ATOM     54  C   UNL A   1      39.520  31.434  34.771  1.00  0.00     0.037 A 
ATOM     55  C   UNL A   1      42.230  27.713  30.173  1.00  0.00     0.049 A 
ATOM     56  C   UNL A   1      40.716  30.528  34.753  1.00  0.00     0.074 A 
ATOM     57  C   UNL A   1      43.401  26.979  30.251  1.00  0.00     0.029 A 
ATOM     58  N   UNL A   1      42.046  28.296  31.418  1.00  0.00    -0.354 N 
ATOM     59  N   UNL A   1      41.205  29.821  33.764  1.00  0.00    -0.248 NA
ATOM     60  C   UNL A   1      41.469  30.414  36.008  1.00  0.00     0.031 C 
ATOM     61  C   UNL A   1      43.898  27.076  31.557  1.00  0.00     0.029 A 
ATOM     62  C   UNL A   1      43.064  27.912  32.280  1.00  0.00     0.049 A 
ATOM     63  H   UNL A   1      41.302  28.896  31.656  1.00  0.00     0.167 HD
ATOM     64  C   UNL A   1      42.335  29.193  34.271  1.00  0.00     0.074 A 
ATOM     65  C   UNL A   1      42.473  29.628  35.646  1.00  0.00     0.031 C 
ATOM     66  C   UNL A   1      43.181  28.332  33.654  1.00  0.00     0.037 A 
BRANCH  53  67
ATOM     67  C   UNL A   1      41.634  27.088  27.799  1.00  0.00     0.057 A 
ATOM     68  C   UNL A   1      42.379  27.662  26.761  1.00  0.00     0.134 A 
ATOM     69  C   UNL A   1      41.133  25.796  27.593  1.00  0.00     0.134 A 
ATOM     70  F   UNL A   1      42.879  28.902  26.886  1.00  0.00    -0.206 F 
ATOM     71  C   UNL A   1      42.616  26.980  25.567  1.00  0.00     0.040 A 
ATOM     72  C   UNL A   1      41.382  25.094  26.412  1.00  0.00     0.040 A 
ATOM     73  F   UNL A   1      40.413  25.186  28.547  1.00  0.00    -0.206 F 
ATOM     74  C   UNL A   1      42.121  25.689  25.391  1.00  0.00     0.006 A 
ENDBRANCH  53  67
BRANCH  54  75
ATOM     75  C   UNL A   1      39.161  32.190  35.993  1.00  0.00     0.057 A 
ATOM     76  C   UNL A   1      38.294  31.654  36.953  1.00  0.00     0.134 A 
ATOM     77  C   UNL A   1      39.691  33.462  36.237  1.00  0.00     0.134 A 
ATOM     78  F   UNL A   1      37.747  30.443  36.770  1.00  0.00    -0.206 F 
ATOM     79  C   UNL A   1      37.970  32.355  38.114  1.00  0.00     0.040 A 
ATOM     80  C   UNL A   1      39.396  34.163  37.405  1.00  0.00     0.040 A 
ATOM     81  F   UNL A   1      40.539  34.019  35.359  1.00  0.00    -0.206 F 
ATOM     82  C   UNL A   1      38.529  33.610  38.347  1.00  0.00     0.006 A 
ENDBRANCH  54  75
BRANCH  66  83
ATOM     83  C   UNL A   1      44.331  27.818  34.474  1.00  0.00     0.057 A 
ATOM     84  C   UNL A   1      45.533  28.532  34.551  1.00  0.00     0.134 A 
ATOM     85  C   UNL A   1      44.237  26.630  35.212  1.00  0.00     0.134 A 
ATOM     86  F   UNL A   1      45.693  29.674  33.866  1.00  0.00    -0.206 F 
ATOM     87  C   UNL A   1      46.594  28.090  35.342  1.00  0.00     0.040 A 
ATOM     88  C   UNL A   1      45.281  26.194  36.030  1.00  0.00     0.040 A 
ATOM     89  F   UNL A   1      43.106  25.908  35.197  1.00  0.00    -0.206 F 
ATOM     90  C   UNL A   1      46.466  26.925  36.094  1.00  0.00     0.006 A 
ENDBRANCH  66  83
ENDBRANCH  40  41
ENDBRANCH  33  35
ENDBRANCH  32  33
ENDBRANCH  31  32
ENDBRANCH  30  31
ENDBRANCH  29  30
ENDBRANCH  28  29
ENDBRANCH   1  28
TORSDOF 21
ENDMDL
