MODEL 1
REMARK VINA RESULT:      -8.8      0.000      0.000
REMARK SMILES CCCCCNC(=O)Oc1cccc(-c2ccc([C@@H](C)C(=O)OCCOCCOCCOC(=O)c3ccc(-c4c5nc(c(-c6c(F)cccc6F)c6ccc([nH]6)c(-c6c(F)cccc6F)c6nc(c(-c7c(F)cccc7F)c7ccc4[nH]7)C=C6)C=C5)cc3)cc2F)c1
REMARK SMILES IDX 24 1 23 2 21 3 22 4 19 5 20 6 18 7 15 8 16 9 90 10 17 11
REMARK SMILES IDX 89 12 91 13 14 14 10 15 11 16 92 17 12 18 13 19 9 20 7 21
REMARK SMILES IDX 6 22 8 24 5 25 4 26 3 27 2 28 1 29 25 30 26 31 27 32 28 33
REMARK SMILES IDX 29 34 30 35 31 36 32 37 33 38 34 39 35 40 36 41 88 42 37 43
REMARK SMILES IDX 87 44 38 45 39 46 40 47 81 48 41 49 86 50 80 51 82 52 42 53
REMARK SMILES IDX 85 54 79 55 78 56 43 58 69 59 52 60 68 61 53 62 56 63 67 64
REMARK SMILES IDX 83 65 54 66 55 67 66 69 84 70 57 71 44 72 45 73 50 74 46 75
REMARK SMILES IDX 47 76 49 77 51 78 48 79 70 80 71 81 76 82 72 83 73 84 75 85
REMARK SMILES IDX 77 86 74 87 58 88 59 89 64 90 60 91 61 92 63 93 65 94 62 95
REMARK H PARENT 6 23 82 57 56 68
REMARK Flexibility Score: inf
ROOT
ATOM      1  C   UNL A   1      34.177  34.587  29.883  1.00  0.00     0.261 C 
ENDROOT
BRANCH   1   2
ATOM      2  O   UNL A   1      34.194  33.288  30.520  1.00  0.00    -0.463 OA
BRANCH   2   3
ATOM      3  C   UNL A   1      34.913  32.317  29.903  1.00  0.00     0.313 C 
ATOM      4  O   UNL A   1      34.566  31.791  28.846  1.00  0.00    -0.252 OA
BRANCH   3   5
ATOM      5  C   UNL A   1      36.226  31.905  30.580  1.00  0.00     0.126 C 
ATOM      6  C   UNL A   1      37.000  33.165  30.960  1.00  0.00     0.025 C 
BRANCH   5   7
ATOM      7  C   UNL A   1      37.159  30.873  29.949  1.00  0.00    -0.031 A 
ATOM      8  C   UNL A   1      38.830  28.830  28.818  1.00  0.00     0.018 A 
ATOM      9  C   UNL A   1      38.728  30.108  28.238  1.00  0.00     0.012 A 
ATOM     10  C   UNL A   1      38.097  28.610  29.989  1.00  0.00     0.131 A 
ATOM     11  C   UNL A   1      37.915  31.116  28.795  1.00  0.00     0.005 A 
ATOM     12  C   UNL A   1      37.289  29.605  30.550  1.00  0.00     0.044 A 
ATOM     13  F   UNL A   1      38.153  27.421  30.610  1.00  0.00    -0.206 F 
BRANCH   8  14
ATOM     14  C   UNL A   1      39.689  27.787  28.223  1.00  0.00    -0.012 A 
ATOM     15  C   UNL A   1      41.784  27.051  27.227  1.00  0.00     0.133 A 
ATOM     16  C   UNL A   1      41.297  25.754  27.085  1.00  0.00     0.047 A 
ATOM     17  C   UNL A   1      40.993  28.068  27.775  1.00  0.00     0.056 A 
ATOM     18  C   UNL A   1      40.007  25.462  27.518  1.00  0.00     0.004 A 
ATOM     19  C   UNL A   1      39.214  26.469  28.081  1.00  0.00     0.009 A 
BRANCH  15  20
ATOM     20  O   UNL A   1      43.054  27.316  26.685  1.00  0.00    -0.410 OA
BRANCH  20  21
ATOM     21  C   UNL A   1      43.142  27.494  25.312  1.00  0.00     0.412 C 
ATOM     22  N   UNL A   1      44.184  26.812  24.742  1.00  0.00    -0.321 N 
ATOM     23  H   UNL A   1      44.225  26.813  23.759  1.00  0.00     0.167 HD
ATOM     24  O   UNL A   1      42.410  28.204  24.629  1.00  0.00    -0.224 OA
BRANCH  22  25
ATOM     25  C   UNL A   1      45.235  26.086  25.430  1.00  0.00     0.119 C 
BRANCH  25  26
ATOM     26  C   UNL A   1      45.206  24.584  25.150  1.00  0.00     0.021 C 
BRANCH  26  27
ATOM     27  C   UNL A   1      43.808  23.968  25.006  1.00  0.00     0.002 C 
BRANCH  27  28
ATOM     28  C   UNL A   1      43.764  22.490  24.611  1.00  0.00    -0.003 C 
ATOM     29  C   UNL A   1      44.625  21.595  25.491  1.00  0.00     0.004 C 
ENDBRANCH  27  28
ENDBRANCH  26  27
ENDBRANCH  25  26
ENDBRANCH  22  25
ENDBRANCH  20  21
ENDBRANCH  15  20
ENDBRANCH   8  14
ENDBRANCH   5   7
ENDBRANCH   3   5
ENDBRANCH   2   3
ENDBRANCH   1   2
BRANCH   1  30
ATOM     30  C   UNL A   1      32.857  35.370  29.990  1.00  0.00     0.202 C 
BRANCH  30  31
ATOM     31  O   UNL A   1      32.862  36.606  30.693  1.00  0.00    -0.376 OA
BRANCH  31  32
ATOM     32  C   UNL A   1      32.809  36.600  32.115  1.00  0.00     0.188 C 
BRANCH  32  33
ATOM     33  C   UNL A   1      34.028  37.073  32.922  1.00  0.00     0.188 C 
BRANCH  33  34
ATOM     34  O   UNL A   1      34.405  36.206  33.969  1.00  0.00    -0.376 OA
BRANCH  34  35
ATOM     35  C   UNL A   1      34.748  34.883  33.610  1.00  0.00     0.202 C 
BRANCH  35  36
ATOM     36  C   UNL A   1      36.136  34.425  34.079  1.00  0.00     0.261 C 
BRANCH  36  37
ATOM     37  O   UNL A   1      36.270  33.022  34.372  1.00  0.00    -0.460 OA
BRANCH  37  38
ATOM     38  C   UNL A   1      37.223  32.663  35.258  1.00  0.00     0.338 C 
ATOM     39  O   UNL A   1      37.105  32.551  36.470  1.00  0.00    -0.246 OA
BRANCH  38  40
ATOM     40  C   UNL A   1      38.408  32.207  34.503  1.00  0.00     0.060 A 
ATOM     41  C   UNL A   1      38.307  31.062  33.698  1.00  0.00     0.016 A 
ATOM     42  C   UNL A   1      39.615  32.902  34.595  1.00  0.00     0.016 A 
ATOM     43  C   UNL A   1      39.424  30.593  33.004  1.00  0.00     0.010 A 
ATOM     44  C   UNL A   1      40.737  32.419  33.917  1.00  0.00     0.010 A 
ATOM     45  C   UNL A   1      40.657  31.245  33.144  1.00  0.00    -0.014 A 
BRANCH  45  46
ATOM     46  C   UNL A   1      41.901  30.611  32.646  1.00  0.00     0.031 A 
ATOM     47  C   UNL A   1      42.523  31.146  31.385  1.00  0.00     0.074 A 
ATOM     48  C   UNL A   1      42.467  29.573  33.284  1.00  0.00     0.049 A 
ATOM     49  N   UNL A   1      43.544  30.697  30.703  1.00  0.00    -0.248 NA
ATOM     50  C   UNL A   1      41.894  32.347  30.814  1.00  0.00     0.031 C 
ATOM     51  C   UNL A   1      41.988  28.983  34.530  1.00  0.00     0.029 A 
ATOM     52  N   UNL A   1      43.564  28.817  32.948  1.00  0.00    -0.354 N 
ATOM     53  C   UNL A   1      43.674  31.553  29.616  1.00  0.00     0.074 A 
ATOM     54  C   UNL A   1      42.605  32.524  29.711  1.00  0.00     0.031 C 
ATOM     55  C   UNL A   1      42.773  27.937  34.845  1.00  0.00     0.029 A 
ATOM     56  C   UNL A   1      43.785  27.765  33.803  1.00  0.00     0.049 A 
ATOM     57  H   UNL A   1      44.136  29.010  32.171  1.00  0.00     0.167 HD
ATOM     58  C   UNL A   1      44.604  31.538  28.631  1.00  0.00     0.037 A 
ATOM     59  C   UNL A   1      44.681  26.760  33.733  1.00  0.00     0.037 A 
ATOM     60  C   UNL A   1      45.659  30.563  28.531  1.00  0.00     0.049 A 
ATOM     61  C   UNL A   1      45.658  26.712  32.588  1.00  0.00     0.074 A 
ATOM     62  C   UNL A   1      46.660  30.470  27.580  1.00  0.00     0.029 A 
ATOM     63  N   UNL A   1      45.839  29.501  29.406  1.00  0.00    -0.354 N 
ATOM     64  N   UNL A   1      45.792  27.536  31.577  1.00  0.00    -0.248 NA
ATOM     65  C   UNL A   1      46.613  25.593  32.577  1.00  0.00     0.031 C 
ATOM     66  C   UNL A   1      47.408  29.318  27.844  1.00  0.00     0.029 A 
ATOM     67  C   UNL A   1      46.916  28.729  28.998  1.00  0.00     0.049 A 
ATOM     68  H   UNL A   1      45.283  29.322  30.198  1.00  0.00     0.167 HD
ATOM     69  C   UNL A   1      46.859  27.054  30.825  1.00  0.00     0.074 A 
ATOM     70  C   UNL A   1      47.344  25.870  31.505  1.00  0.00     0.031 C 
ATOM     71  C   UNL A   1      47.391  27.550  29.681  1.00  0.00     0.037 A 
BRANCH  58  72
ATOM     72  C   UNL A   1      44.488  32.589  27.565  1.00  0.00     0.057 A 
ATOM     73  C   UNL A   1      43.890  32.330  26.323  1.00  0.00     0.134 A 
ATOM     74  C   UNL A   1      44.989  33.880  27.780  1.00  0.00     0.134 A 
ATOM     75  F   UNL A   1      43.404  31.111  26.044  1.00  0.00    -0.206 F 
ATOM     76  C   UNL A   1      43.833  33.301  25.322  1.00  0.00     0.040 A 
ATOM     77  C   UNL A   1      44.907  34.870  26.799  1.00  0.00     0.040 A 
ATOM     78  F   UNL A   1      45.568  34.201  28.947  1.00  0.00    -0.206 F 
ATOM     79  C   UNL A   1      44.339  34.578  25.560  1.00  0.00     0.006 A 
ENDBRANCH  58  72
BRANCH  59  80
ATOM     80  C   UNL A   1      44.680  25.703  34.776  1.00  0.00     0.057 A 
ATOM     81  C   UNL A   1      45.317  25.894  36.006  1.00  0.00     0.134 A 
ATOM     82  C   UNL A   1      44.035  24.476  34.567  1.00  0.00     0.134 A 
ATOM     83  F   UNL A   1      45.975  27.036  36.255  1.00  0.00    -0.206 F 
ATOM     84  C   UNL A   1      45.320  24.903  36.990  1.00  0.00     0.040 A 
ATOM     85  C   UNL A   1      44.006  23.488  35.553  1.00  0.00     0.040 A 
ATOM     86  F   UNL A   1      43.407  24.230  33.409  1.00  0.00    -0.206 F 
ATOM     87  C   UNL A   1      44.655  23.699  36.767  1.00  0.00     0.006 A 
ENDBRANCH  59  80
BRANCH  71  88
ATOM     88  C   UNL A   1      48.584  26.840  29.104  1.00  0.00     0.057 A 
ATOM     89  C   UNL A   1      48.455  25.757  28.225  1.00  0.00     0.134 A 
ATOM     90  C   UNL A   1      49.884  27.278  29.399  1.00  0.00     0.134 A 
ATOM     91  F   UNL A   1      47.243  25.280  27.908  1.00  0.00    -0.206 F 
ATOM     92  C   UNL A   1      49.573  25.121  27.680  1.00  0.00     0.040 A 
ATOM     93  C   UNL A   1      51.007  26.670  28.837  1.00  0.00     0.040 A 
ATOM     94  F   UNL A   1      50.082  28.317  30.225  1.00  0.00    -0.206 F 
ATOM     95  C   UNL A   1      50.853  25.583  27.980  1.00  0.00     0.006 A 
ENDBRANCH  71  88
ENDBRANCH  45  46
ENDBRANCH  38  40
ENDBRANCH  37  38
ENDBRANCH  36  37
ENDBRANCH  35  36
ENDBRANCH  34  35
ENDBRANCH  33  34
ENDBRANCH  32  33
ENDBRANCH  31  32
ENDBRANCH  30  31
ENDBRANCH   1  30
TORSDOF 25
ENDMDL
MODEL 2
REMARK VINA RESULT:      -8.2      2.062      3.109
REMARK SMILES CCCCCNC(=O)Oc1cccc(-c2ccc([C@@H](C)C(=O)OCCOCCOCCOC(=O)c3ccc(-c4c5nc(c(-c6c(F)cccc6F)c6ccc([nH]6)c(-c6c(F)cccc6F)c6nc(c(-c7c(F)cccc7F)c7ccc4[nH]7)C=C6)C=C5)cc3)cc2F)c1
REMARK SMILES IDX 24 1 23 2 21 3 22 4 19 5 20 6 18 7 15 8 16 9 90 10 17 11
REMARK SMILES IDX 89 12 91 13 14 14 10 15 11 16 92 17 12 18 13 19 9 20 7 21
REMARK SMILES IDX 6 22 8 24 5 25 4 26 3 27 2 28 1 29 25 30 26 31 27 32 28 33
REMARK SMILES IDX 29 34 30 35 31 36 32 37 33 38 34 39 35 40 36 41 88 42 37 43
REMARK SMILES IDX 87 44 38 45 39 46 40 47 81 48 41 49 86 50 80 51 82 52 42 53
REMARK SMILES IDX 85 54 79 55 78 56 43 58 69 59 52 60 68 61 53 62 56 63 67 64
REMARK SMILES IDX 83 65 54 66 55 67 66 69 84 70 57 71 44 72 45 73 50 74 46 75
REMARK SMILES IDX 47 76 49 77 51 78 48 79 70 80 71 81 76 82 72 83 73 84 75 85
REMARK SMILES IDX 77 86 74 87 58 88 59 89 64 90 60 91 61 92 63 93 65 94 62 95
REMARK H PARENT 6 23 82 57 56 68
REMARK Flexibility Score: inf
ROOT
ATOM      1  C   UNL A   1      37.070  32.835  29.607  1.00  0.00     0.261 C 
ENDROOT
BRANCH   1   2
ATOM      2  O   UNL A   1      38.313  32.148  29.326  1.00  0.00    -0.463 OA
BRANCH   2   3
ATOM      3  C   UNL A   1      38.214  30.856  28.924  1.00  0.00     0.313 C 
ATOM      4  O   UNL A   1      37.365  30.462  28.126  1.00  0.00    -0.252 OA
BRANCH   3   5
ATOM      5  C   UNL A   1      39.246  29.880  29.503  1.00  0.00     0.126 C 
ATOM      6  C   UNL A   1      40.620  30.549  29.482  1.00  0.00     0.025 C 
BRANCH   5   7
ATOM      7  C   UNL A   1      39.346  28.438  29.008  1.00  0.00    -0.031 A 
ATOM      8  C   UNL A   1      39.648  25.766  28.000  1.00  0.00     0.018 A 
ATOM      9  C   UNL A   1      39.056  26.023  29.250  1.00  0.00     0.012 A 
ATOM     10  C   UNL A   1      40.060  26.879  27.259  1.00  0.00     0.131 A 
ATOM     11  C   UNL A   1      38.899  27.334  29.745  1.00  0.00     0.005 A 
ATOM     12  C   UNL A   1      39.906  28.184  27.740  1.00  0.00     0.044 A 
ATOM     13  F   UNL A   1      40.622  26.717  26.049  1.00  0.00    -0.206 F 
BRANCH   8  14
ATOM     14  C   UNL A   1      39.802  24.388  27.496  1.00  0.00    -0.012 A 
ATOM     15  C   UNL A   1      41.064  22.317  27.277  1.00  0.00     0.133 A 
ATOM     16  C   UNL A   1      40.055  21.748  26.505  1.00  0.00     0.047 A 
ATOM     17  C   UNL A   1      40.957  23.627  27.760  1.00  0.00     0.056 A 
ATOM     18  C   UNL A   1      38.909  22.489  26.230  1.00  0.00     0.004 A 
ATOM     19  C   UNL A   1      38.787  23.795  26.722  1.00  0.00     0.009 A 
BRANCH  15  20
ATOM     20  O   UNL A   1      42.239  21.565  27.443  1.00  0.00    -0.410 OA
BRANCH  20  21
ATOM     21  C   UNL A   1      43.171  21.595  26.416  1.00  0.00     0.412 C 
ATOM     22  N   UNL A   1      44.305  22.297  26.732  1.00  0.00    -0.321 N 
ATOM     23  H   UNL A   1      45.042  22.256  26.082  1.00  0.00     0.167 HD
ATOM     24  O   UNL A   1      43.036  21.091  25.304  1.00  0.00    -0.224 OA
BRANCH  22  25
ATOM     25  C   UNL A   1      44.536  23.096  27.921  1.00  0.00     0.119 C 
BRANCH  25  26
ATOM     26  C   UNL A   1      44.941  24.535  27.604  1.00  0.00     0.021 C 
BRANCH  26  27
ATOM     27  C   UNL A   1      43.780  25.502  27.340  1.00  0.00     0.002 C 
BRANCH  27  28
ATOM     28  C   UNL A   1      43.366  26.390  28.518  1.00  0.00    -0.003 C 
ATOM     29  C   UNL A   1      43.511  27.879  28.242  1.00  0.00     0.004 C 
ENDBRANCH  27  28
ENDBRANCH  26  27
ENDBRANCH  25  26
ENDBRANCH  22  25
ENDBRANCH  20  21
ENDBRANCH  15  20
ENDBRANCH   8  14
ENDBRANCH   5   7
ENDBRANCH   3   5
ENDBRANCH   2   3
ENDBRANCH   1   2
BRANCH   1  30
ATOM     30  C   UNL A   1      36.270  32.309  30.811  1.00  0.00     0.202 C 
BRANCH  30  31
ATOM     31  O   UNL A   1      34.890  32.640  30.898  1.00  0.00    -0.376 OA
BRANCH  31  32
ATOM     32  C   UNL A   1      34.346  33.042  32.150  1.00  0.00     0.188 C 
BRANCH  32  33
ATOM     33  C   UNL A   1      34.105  34.533  32.430  1.00  0.00     0.188 C 
BRANCH  33  34
ATOM     34  O   UNL A   1      34.738  35.017  33.594  1.00  0.00    -0.376 OA
BRANCH  34  35
ATOM     35  C   UNL A   1      35.468  34.080  34.359  1.00  0.00     0.202 C 
BRANCH  35  36
ATOM     36  C   UNL A   1      36.994  34.197  34.241  1.00  0.00     0.261 C 
BRANCH  36  37
ATOM     37  O   UNL A   1      37.756  33.148  34.868  1.00  0.00    -0.460 OA
BRANCH  37  38
ATOM     38  C   UNL A   1      38.958  33.480  35.383  1.00  0.00     0.338 C 
ATOM     39  O   UNL A   1      39.181  34.215  36.336  1.00  0.00    -0.246 OA
BRANCH  38  40
ATOM     40  C   UNL A   1      39.986  32.635  34.741  1.00  0.00     0.060 A 
ATOM     41  C   UNL A   1      41.312  32.712  35.190  1.00  0.00     0.016 A 
ATOM     42  C   UNL A   1      39.643  31.776  33.695  1.00  0.00     0.016 A 
ATOM     43  C   UNL A   1      42.306  31.948  34.574  1.00  0.00     0.010 A 
ATOM     44  C   UNL A   1      40.641  31.029  33.067  1.00  0.00     0.010 A 
ATOM     45  C   UNL A   1      41.982  31.134  33.481  1.00  0.00    -0.014 A 
BRANCH  45  46
ATOM     46  C   UNL A   1      43.054  30.538  32.647  1.00  0.00     0.031 A 
ATOM     47  C   UNL A   1      43.587  31.335  31.487  1.00  0.00     0.074 A 
ATOM     48  C   UNL A   1      43.542  29.311  32.897  1.00  0.00     0.049 A 
ATOM     49  N   UNL A   1      44.443  30.990  30.562  1.00  0.00    -0.248 NA
ATOM     50  C   UNL A   1      43.068  32.705  31.353  1.00  0.00     0.031 C 
ATOM     51  C   UNL A   1      43.141  28.452  34.007  1.00  0.00     0.029 A 
ATOM     52  N   UNL A   1      44.472  28.570  32.210  1.00  0.00    -0.354 N 
ATOM     53  C   UNL A   1      44.559  32.095  29.727  1.00  0.00     0.074 A 
ATOM     54  C   UNL A   1      43.656  33.107  30.237  1.00  0.00     0.031 C 
ATOM     55  C   UNL A   1      43.803  27.285  33.912  1.00  0.00     0.029 A 
ATOM     56  C   UNL A   1      44.645  27.305  32.716  1.00  0.00     0.049 A 
ATOM     57  H   UNL A   1      44.966  28.911  31.430  1.00  0.00     0.167 HD
ATOM     58  C   UNL A   1      45.349  32.258  28.639  1.00  0.00     0.037 A 
ATOM     59  C   UNL A   1      45.375  26.273  32.249  1.00  0.00     0.037 A 
ATOM     60  C   UNL A   1      46.235  31.246  28.126  1.00  0.00     0.049 A 
ATOM     61  C   UNL A   1      46.188  26.443  30.992  1.00  0.00     0.074 A 
ATOM     62  C   UNL A   1      47.089  31.318  27.039  1.00  0.00     0.029 A 
ATOM     63  N   UNL A   1      46.370  29.971  28.656  1.00  0.00    -0.354 N 
ATOM     64  N   UNL A   1      46.312  27.497  30.223  1.00  0.00    -0.248 NA
ATOM     65  C   UNL A   1      46.966  25.280  30.543  1.00  0.00     0.031 C 
ATOM     66  C   UNL A   1      47.694  30.068  26.876  1.00  0.00     0.029 A 
ATOM     67  C   UNL A   1      47.269  29.236  27.899  1.00  0.00     0.049 A 
ATOM     68  H   UNL A   1      45.895  29.637  29.452  1.00  0.00     0.167 HD
ATOM     69  C   UNL A   1      47.200  27.135  29.214  1.00  0.00     0.074 A 
ATOM     70  C   UNL A   1      47.592  25.766  29.479  1.00  0.00     0.031 C 
ATOM     71  C   UNL A   1      47.653  27.872  28.169  1.00  0.00     0.037 A 
BRANCH  58  72
ATOM     72  C   UNL A   1      45.253  33.570  27.915  1.00  0.00     0.057 A 
ATOM     73  C   UNL A   1      44.427  33.745  26.795  1.00  0.00     0.134 A 
ATOM     74  C   UNL A   1      46.004  34.674  28.338  1.00  0.00     0.134 A 
ATOM     75  F   UNL A   1      43.692  32.725  26.326  1.00  0.00    -0.206 F 
ATOM     76  C   UNL A   1      44.384  34.956  26.100  1.00  0.00     0.040 A 
ATOM     77  C   UNL A   1      45.944  35.900  27.671  1.00  0.00     0.040 A 
ATOM     78  F   UNL A   1      46.812  34.581  29.405  1.00  0.00    -0.206 F 
ATOM     79  C   UNL A   1      45.141  36.039  26.541  1.00  0.00     0.006 A 
ENDBRANCH  58  72
BRANCH  59  80
ATOM     80  C   UNL A   1      45.352  24.974  32.969  1.00  0.00     0.057 A 
ATOM     81  C   UNL A   1      44.563  23.909  32.523  1.00  0.00     0.134 A 
ATOM     82  C   UNL A   1      46.127  24.766  34.118  1.00  0.00     0.134 A 
ATOM     83  F   UNL A   1      43.778  24.055  31.445  1.00  0.00    -0.206 F 
ATOM     84  C   UNL A   1      44.537  22.686  33.196  1.00  0.00     0.040 A 
ATOM     85  C   UNL A   1      46.132  23.539  34.784  1.00  0.00     0.040 A 
ATOM     86  F   UNL A   1      46.904  25.747  34.597  1.00  0.00    -0.206 F 
ATOM     87  C   UNL A   1      45.331  22.496  34.325  1.00  0.00     0.006 A 
ENDBRANCH  59  80
BRANCH  71  88
ATOM     88  C   UNL A   1      48.654  27.230  27.249  1.00  0.00     0.057 A 
ATOM     89  C   UNL A   1      48.269  26.539  26.093  1.00  0.00     0.134 A 
ATOM     90  C   UNL A   1      50.029  27.347  27.502  1.00  0.00     0.134 A 
ATOM     91  F   UNL A   1      46.972  26.381  25.796  1.00  0.00    -0.206 F 
ATOM     92  C   UNL A   1      49.212  25.967  25.236  1.00  0.00     0.040 A 
ATOM     93  C   UNL A   1      50.980  26.806  26.637  1.00  0.00     0.040 A 
ATOM     94  F   UNL A   1      50.469  28.005  28.585  1.00  0.00    -0.206 F 
ATOM     95  C   UNL A   1      50.573  26.107  25.503  1.00  0.00     0.006 A 
ENDBRANCH  71  88
ENDBRANCH  45  46
ENDBRANCH  38  40
ENDBRANCH  37  38
ENDBRANCH  36  37
ENDBRANCH  35  36
ENDBRANCH  34  35
ENDBRANCH  33  34
ENDBRANCH  32  33
ENDBRANCH  31  32
ENDBRANCH  30  31
ENDBRANCH   1  30
TORSDOF 25
ENDMDL
MODEL 3
REMARK VINA RESULT:      -7.7      5.514      9.905
REMARK SMILES CCCCCNC(=O)Oc1cccc(-c2ccc([C@@H](C)C(=O)OCCOCCOCCOC(=O)c3ccc(-c4c5nc(c(-c6c(F)cccc6F)c6ccc([nH]6)c(-c6c(F)cccc6F)c6nc(c(-c7c(F)cccc7F)c7ccc4[nH]7)C=C6)C=C5)cc3)cc2F)c1
REMARK SMILES IDX 24 1 23 2 21 3 22 4 19 5 20 6 18 7 15 8 16 9 90 10 17 11
REMARK SMILES IDX 89 12 91 13 14 14 10 15 11 16 92 17 12 18 13 19 9 20 7 21
REMARK SMILES IDX 6 22 8 24 5 25 4 26 3 27 2 28 1 29 25 30 26 31 27 32 28 33
REMARK SMILES IDX 29 34 30 35 31 36 32 37 33 38 34 39 35 40 36 41 88 42 37 43
REMARK SMILES IDX 87 44 38 45 39 46 40 47 81 48 41 49 86 50 80 51 82 52 42 53
REMARK SMILES IDX 85 54 79 55 78 56 43 58 69 59 52 60 68 61 53 62 56 63 67 64
REMARK SMILES IDX 83 65 54 66 55 67 66 69 84 70 57 71 44 72 45 73 50 74 46 75
REMARK SMILES IDX 47 76 49 77 51 78 48 79 70 80 71 81 76 82 72 83 73 84 75 85
REMARK SMILES IDX 77 86 74 87 58 88 59 89 64 90 60 91 61 92 63 93 65 94 62 95
REMARK H PARENT 6 23 82 57 56 68
REMARK Flexibility Score: inf
ROOT
ATOM      1  C   UNL A   1      37.310  29.520  29.710  1.00  0.00     0.261 C 
ENDROOT
BRANCH   1   2
ATOM      2  O   UNL A   1      35.933  29.906  29.938  1.00  0.00    -0.463 OA
BRANCH   2   3
ATOM      3  C   UNL A   1      35.595  31.177  29.604  1.00  0.00     0.313 C 
ATOM      4  O   UNL A   1      35.620  32.112  30.403  1.00  0.00    -0.252 OA
BRANCH   3   5
ATOM      5  C   UNL A   1      35.192  31.415  28.144  1.00  0.00     0.126 C 
ATOM      6  C   UNL A   1      34.745  32.867  27.988  1.00  0.00     0.025 C 
BRANCH   5   7
ATOM      7  C   UNL A   1      34.227  30.478  27.420  1.00  0.00    -0.031 A 
ATOM      8  C   UNL A   1      32.494  28.604  26.104  1.00  0.00     0.018 A 
ATOM      9  C   UNL A   1      32.028  29.854  26.554  1.00  0.00     0.012 A 
ATOM     10  C   UNL A   1      33.850  28.329  26.306  1.00  0.00     0.131 A 
ATOM     11  C   UNL A   1      32.878  30.780  27.194  1.00  0.00     0.005 A 
ATOM     12  C   UNL A   1      34.702  29.242  26.937  1.00  0.00     0.044 A 
ATOM     13  F   UNL A   1      34.373  27.163  25.892  1.00  0.00    -0.206 F 
BRANCH   8  14
ATOM     14  C   UNL A   1      31.590  27.649  25.434  1.00  0.00    -0.012 A 
ATOM     15  C   UNL A   1      30.737  25.396  25.082  1.00  0.00     0.133 A 
ATOM     16  C   UNL A   1      29.840  25.852  24.120  1.00  0.00     0.047 A 
ATOM     17  C   UNL A   1      31.618  26.273  25.728  1.00  0.00     0.056 A 
ATOM     18  C   UNL A   1      29.805  27.209  23.814  1.00  0.00     0.004 A 
ATOM     19  C   UNL A   1      30.671  28.096  24.465  1.00  0.00     0.009 A 
BRANCH  15  20
ATOM     20  O   UNL A   1      30.802  24.006  25.284  1.00  0.00    -0.410 OA
BRANCH  20  21
ATOM     21  C   UNL A   1      30.811  23.547  26.593  1.00  0.00     0.412 C 
ATOM     22  N   UNL A   1      31.992  22.954  26.953  1.00  0.00    -0.321 N 
ATOM     23  H   UNL A   1      32.091  22.712  27.901  1.00  0.00     0.167 HD
ATOM     24  O   UNL A   1      29.874  23.608  27.384  1.00  0.00    -0.224 OA
BRANCH  22  25
ATOM     25  C   UNL A   1      33.114  22.644  26.087  1.00  0.00     0.119 C 
BRANCH  25  26
ATOM     26  C   UNL A   1      33.787  21.316  26.434  1.00  0.00     0.021 C 
BRANCH  26  27
ATOM     27  C   UNL A   1      33.850  20.293  25.292  1.00  0.00     0.002 C 
BRANCH  27  28
ATOM     28  C   UNL A   1      32.503  19.827  24.733  1.00  0.00    -0.003 C 
ATOM     29  C   UNL A   1      32.568  18.487  24.016  1.00  0.00     0.004 C 
ENDBRANCH  27  28
ENDBRANCH  26  27
ENDBRANCH  25  26
ENDBRANCH  22  25
ENDBRANCH  20  21
ENDBRANCH  15  20
ENDBRANCH   8  14
ENDBRANCH   5   7
ENDBRANCH   3   5
ENDBRANCH   2   3
ENDBRANCH   1   2
BRANCH   1  30
ATOM     30  C   UNL A   1      38.044  28.911  30.917  1.00  0.00     0.202 C 
BRANCH  30  31
ATOM     31  O   UNL A   1      39.164  28.072  30.670  1.00  0.00    -0.376 OA
BRANCH  31  32
ATOM     32  C   UNL A   1      39.006  26.917  29.853  1.00  0.00     0.188 C 
BRANCH  32  33
ATOM     33  C   UNL A   1      39.966  26.681  28.677  1.00  0.00     0.188 C 
BRANCH  33  34
ATOM     34  O   UNL A   1      39.385  26.023  27.573  1.00  0.00    -0.376 OA
BRANCH  34  35
ATOM     35  C   UNL A   1      40.173  25.041  26.930  1.00  0.00     0.202 C 
BRANCH  35  36
ATOM     36  C   UNL A   1      41.229  25.593  25.961  1.00  0.00     0.261 C 
BRANCH  36  37
ATOM     37  O   UNL A   1      42.326  24.711  25.659  1.00  0.00    -0.460 OA
BRANCH  37  38
ATOM     38  C   UNL A   1      43.196  24.442  26.655  1.00  0.00     0.338 C 
ATOM     39  O   UNL A   1      43.192  23.473  27.402  1.00  0.00    -0.246 OA
BRANCH  38  40
ATOM     40  C   UNL A   1      44.309  25.409  26.572  1.00  0.00     0.060 A 
ATOM     41  C   UNL A   1      44.919  25.853  27.754  1.00  0.00     0.016 A 
ATOM     42  C   UNL A   1      44.744  25.882  25.332  1.00  0.00     0.016 A 
ATOM     43  C   UNL A   1      45.950  26.793  27.701  1.00  0.00     0.010 A 
ATOM     44  C   UNL A   1      45.760  26.839  25.283  1.00  0.00     0.010 A 
ATOM     45  C   UNL A   1      46.347  27.323  26.467  1.00  0.00    -0.014 A 
BRANCH  45  46
ATOM     46  C   UNL A   1      47.233  28.511  26.411  1.00  0.00     0.031 A 
ATOM     47  C   UNL A   1      46.607  29.877  26.492  1.00  0.00     0.074 A 
ATOM     48  C   UNL A   1      48.565  28.391  26.278  1.00  0.00     0.049 A 
ATOM     49  N   UNL A   1      47.158  31.056  26.364  1.00  0.00    -0.248 NA
ATOM     50  C   UNL A   1      45.158  29.909  26.741  1.00  0.00     0.031 C 
ATOM     51  C   UNL A   1      49.299  27.131  26.225  1.00  0.00     0.029 A 
ATOM     52  N   UNL A   1      49.533  29.356  26.141  1.00  0.00    -0.354 N 
ATOM     53  C   UNL A   1      46.121  31.971  26.505  1.00  0.00     0.074 A 
ATOM     54  C   UNL A   1      44.905  31.208  26.691  1.00  0.00     0.031 C 
ATOM     55  C   UNL A   1      50.605  27.398  26.040  1.00  0.00     0.029 A 
ATOM     56  C   UNL A   1      50.789  28.844  25.927  1.00  0.00     0.049 A 
ATOM     57  H   UNL A   1      49.345  30.321  26.191  1.00  0.00     0.167 HD
ATOM     58  C   UNL A   1      46.177  33.324  26.489  1.00  0.00     0.037 A 
ATOM     59  C   UNL A   1      51.947  29.471  25.641  1.00  0.00     0.037 A 
ATOM     60  C   UNL A   1      47.385  34.081  26.290  1.00  0.00     0.049 A 
ATOM     61  C   UNL A   1      51.978  30.975  25.547  1.00  0.00     0.074 A 
ATOM     62  C   UNL A   1      47.549  35.454  26.271  1.00  0.00     0.029 A 
ATOM     63  N   UNL A   1      48.636  33.526  26.058  1.00  0.00    -0.354 N 
ATOM     64  N   UNL A   1      51.000  31.835  25.705  1.00  0.00    -0.248 NA
ATOM     65  C   UNL A   1      53.275  31.594  25.239  1.00  0.00     0.031 C 
ATOM     66  C   UNL A   1      48.887  35.731  25.969  1.00  0.00     0.029 A 
ATOM     67  C   UNL A   1      49.571  34.530  25.864  1.00  0.00     0.049 A 
ATOM     68  H   UNL A   1      48.830  32.561  26.034  1.00  0.00     0.167 HD
ATOM     69  C   UNL A   1      51.567  33.095  25.543  1.00  0.00     0.074 A 
ATOM     70  C   UNL A   1      52.977  32.886  25.286  1.00  0.00     0.031 C 
ATOM     71  C   UNL A   1      50.974  34.313  25.607  1.00  0.00     0.037 A 
BRANCH  58  72
ATOM     72  C   UNL A   1      44.879  34.063  26.652  1.00  0.00     0.057 A 
ATOM     73  C   UNL A   1      44.058  34.380  25.560  1.00  0.00     0.134 A 
ATOM     74  C   UNL A   1      44.448  34.472  27.921  1.00  0.00     0.134 A 
ATOM     75  F   UNL A   1      44.419  34.033  24.315  1.00  0.00    -0.206 F 
ATOM     76  C   UNL A   1      42.880  35.111  25.720  1.00  0.00     0.040 A 
ATOM     77  C   UNL A   1      43.254  35.174  28.097  1.00  0.00     0.040 A 
ATOM     78  F   UNL A   1      45.180  34.198  29.011  1.00  0.00    -0.206 F 
ATOM     79  C   UNL A   1      42.472  35.507  26.992  1.00  0.00     0.006 A 
ENDBRANCH  58  72
BRANCH  59  80
ATOM     80  C   UNL A   1      53.175  28.671  25.402  1.00  0.00     0.057 A 
ATOM     81  C   UNL A   1      54.053  28.357  26.445  1.00  0.00     0.134 A 
ATOM     82  C   UNL A   1      53.495  28.195  24.123  1.00  0.00     0.134 A 
ATOM     83  F   UNL A   1      53.815  28.806  27.686  1.00  0.00    -0.206 F 
ATOM     84  C   UNL A   1      55.209  27.605  26.226  1.00  0.00     0.040 A 
ATOM     85  C   UNL A   1      54.633  27.419  23.896  1.00  0.00     0.040 A 
ATOM     86  F   UNL A   1      52.695  28.463  23.081  1.00  0.00    -0.206 F 
ATOM     87  C   UNL A   1      55.496  27.126  24.949  1.00  0.00     0.006 A 
ENDBRANCH  59  80
BRANCH  71  88
ATOM     88  C   UNL A   1      51.850  35.522  25.434  1.00  0.00     0.057 A 
ATOM     89  C   UNL A   1      52.399  36.210  26.524  1.00  0.00     0.134 A 
ATOM     90  C   UNL A   1      52.188  35.977  24.150  1.00  0.00     0.134 A 
ATOM     91  F   UNL A   1      52.109  35.836  27.778  1.00  0.00    -0.206 F 
ATOM     92  C   UNL A   1      53.229  37.319  26.346  1.00  0.00     0.040 A 
ATOM     93  C   UNL A   1      53.040  37.065  23.960  1.00  0.00     0.040 A 
ATOM     94  F   UNL A   1      51.708  35.359  23.060  1.00  0.00    -0.206 F 
ATOM     95  C   UNL A   1      53.559  37.744  25.060  1.00  0.00     0.006 A 
ENDBRANCH  71  88
ENDBRANCH  45  46
ENDBRANCH  38  40
ENDBRANCH  37  38
ENDBRANCH  36  37
ENDBRANCH  35  36
ENDBRANCH  34  35
ENDBRANCH  33  34
ENDBRANCH  32  33
ENDBRANCH  31  32
ENDBRANCH  30  31
ENDBRANCH   1  30
TORSDOF 25
ENDMDL
