MODEL 1
REMARK VINA RESULT:     -10.4      0.000      0.000
REMARK SMILES CC1(C)C(NC(=O)N2CC[NH+](CC(=O)OCCOCCOCCOC(=O)c3ccc(-c4c5nc(c(-c6c(F)cccc6F)c6ccc([nH]6)c(-c6c(F)cccc6F)c6nc(c(-c7c(F)cccc7F)c7ccc4[nH]7)C=C6)C=C5)cc3)CC2)C1(C)C
REMARK SMILES IDX 19 1 18 2 17 3 16 4 15 5 13 6 14 7 12 8 11 9 5 10 6 11 7 13
REMARK SMILES IDX 8 14 9 15 82 16 10 17 81 18 4 20 1 21 2 22 3 23 83 24 84 25
REMARK SMILES IDX 85 26 20 27 21 28 22 29 23 30 24 31 25 32 26 33 27 34 28 35
REMARK SMILES IDX 80 36 29 37 79 38 30 39 31 40 32 41 73 42 33 43 78 44 72 45
REMARK SMILES IDX 74 46 34 47 77 48 71 49 70 50 35 52 61 53 44 54 60 55 45 56
REMARK SMILES IDX 48 57 59 58 75 59 46 60 47 61 58 63 76 64 49 65 36 66 37 67
REMARK SMILES IDX 42 68 38 69 39 70 41 71 43 72 40 73 62 74 63 75 68 76 64 77
REMARK SMILES IDX 65 78 67 79 69 80 66 81 50 82 51 83 56 84 52 85 53 86 55 87
REMARK SMILES IDX 57 88 54 89
REMARK H PARENT 5 12 11 19 74 51 48 62
REMARK Flexibility Score: inf
ROOT
ATOM      1  C   UNL A   1      35.575  23.047  25.122  1.00  0.00     0.188 C 
ENDROOT
BRANCH   1   2
ATOM      2  O   UNL A   1      35.248  23.109  26.508  1.00  0.00    -0.376 OA
BRANCH   2   3
ATOM      3  C   UNL A   1      34.094  22.381  26.925  1.00  0.00     0.202 C 
BRANCH   3   4
ATOM      4  C   UNL A   1      33.867  21.042  26.213  1.00  0.00     0.261 C 
BRANCH   4   5
ATOM      5  O   UNL A   1      32.567  20.966  25.594  1.00  0.00    -0.459 OA
BRANCH   5   6
ATOM      6  C   UNL A   1      32.528  20.705  24.263  1.00  0.00     0.361 C 
ATOM      7  O   UNL A   1      32.846  19.628  23.767  1.00  0.00    -0.245 OA
BRANCH   6   8
ATOM      8  C   UNL A   1      31.944  21.842  23.422  1.00  0.00     0.386 C 
BRANCH   8   9
ATOM      9  N   UNL A   1      32.338  23.221  23.712  1.00  0.00    -0.323 N 
ATOM     10  N   UNL A   1      30.657  27.950  24.059  1.00  0.00    -0.334 N 
ATOM     11  C   UNL A   1      30.860  27.166  22.960  1.00  0.00     0.318 C 
ATOM     12  H   UNL A   1      29.941  28.626  24.030  1.00  0.00     0.165 HD
ATOM     13  O   UNL A   1      30.688  27.669  21.856  1.00  0.00    -0.249 OA
ATOM     14  N   UNL A   1      31.300  25.880  23.178  1.00  0.00    -0.314 N 
ATOM     15  C   UNL A   1      31.986  25.167  22.109  1.00  0.00     0.183 C 
ATOM     16  C   UNL A   1      30.677  25.020  24.186  1.00  0.00     0.183 C 
ATOM     17  C   UNL A   1      32.895  24.031  22.627  1.00  0.00     0.284 C 
ATOM     18  C   UNL A   1      31.670  23.990  24.750  1.00  0.00     0.284 C 
ATOM     19  H   UNL A   1      33.152  22.898  24.236  1.00  0.00     0.348 HD
BRANCH  10  20
ATOM     20  C   UNL A   1      31.435  27.833  25.244  1.00  0.00     0.096 C 
ATOM     21  C   UNL A   1      33.735  27.004  25.846  1.00  0.00     0.014 C 
ATOM     22  C   UNL A   1      32.910  28.128  25.248  1.00  0.00    -0.007 C 
ATOM     23  C   UNL A   1      33.563  28.699  24.008  1.00  0.00     0.014 C 
ATOM     24  C   UNL A   1      31.907  28.976  26.088  1.00  0.00    -0.007 C 
ATOM     25  C   UNL A   1      31.759  28.753  27.578  1.00  0.00     0.014 C 
ATOM     26  C   UNL A   1      31.492  30.374  25.685  1.00  0.00     0.014 C 
ENDBRANCH  10  20
ENDBRANCH   8   9
ENDBRANCH   6   8
ENDBRANCH   5   6
ENDBRANCH   4   5
ENDBRANCH   3   4
ENDBRANCH   2   3
ENDBRANCH   1   2
BRANCH   1  27
ATOM     27  C   UNL A   1      37.062  22.881  24.808  1.00  0.00     0.188 C 
BRANCH  27  28
ATOM     28  O   UNL A   1      37.480  21.520  24.694  1.00  0.00    -0.376 OA
BRANCH  28  29
ATOM     29  C   UNL A   1      38.545  21.152  25.579  1.00  0.00     0.202 C 
BRANCH  29  30
ATOM     30  C   UNL A   1      39.296  19.842  25.278  1.00  0.00     0.261 C 
BRANCH  30  31
ATOM     31  O   UNL A   1      40.269  19.520  26.275  1.00  0.00    -0.460 OA
BRANCH  31  32
ATOM     32  C   UNL A   1      41.557  19.789  25.958  1.00  0.00     0.338 C 
ATOM     33  O   UNL A   1      42.310  19.199  25.208  1.00  0.00    -0.246 OA
BRANCH  32  34
ATOM     34  C   UNL A   1      41.895  21.081  26.566  1.00  0.00     0.060 A 
ATOM     35  C   UNL A   1      42.273  22.137  25.726  1.00  0.00     0.016 A 
ATOM     36  C   UNL A   1      41.774  21.261  27.943  1.00  0.00     0.016 A 
ATOM     37  C   UNL A   1      42.516  23.394  26.264  1.00  0.00     0.010 A 
ATOM     38  C   UNL A   1      42.031  22.514  28.482  1.00  0.00     0.010 A 
ATOM     39  C   UNL A   1      42.410  23.580  27.647  1.00  0.00    -0.014 A 
BRANCH  39  40
ATOM     40  C   UNL A   1      42.802  24.856  28.274  1.00  0.00     0.031 A 
ATOM     41  C   UNL A   1      41.742  25.888  28.504  1.00  0.00     0.074 A 
ATOM     42  C   UNL A   1      44.090  25.108  28.555  1.00  0.00     0.049 A 
ATOM     43  N   UNL A   1      41.866  27.138  28.861  1.00  0.00    -0.248 NA
ATOM     44  C   UNL A   1      40.353  25.453  28.284  1.00  0.00     0.031 C 
ATOM     45  C   UNL A   1      45.191  24.157  28.409  1.00  0.00     0.029 A 
ATOM     46  N   UNL A   1      44.689  26.258  28.997  1.00  0.00    -0.354 N 
ATOM     47  C   UNL A   1      40.577  27.648  28.884  1.00  0.00     0.074 A 
ATOM     48  C   UNL A   1      39.686  26.578  28.491  1.00  0.00     0.031 C 
ATOM     49  C   UNL A   1      46.340  24.772  28.740  1.00  0.00     0.029 A 
ATOM     50  C   UNL A   1      46.057  26.166  29.068  1.00  0.00     0.049 A 
ATOM     51  H   UNL A   1      44.188  27.069  29.240  1.00  0.00     0.167 HD
ATOM     52  C   UNL A   1      40.178  28.900  29.203  1.00  0.00     0.037 A 
ATOM     53  C   UNL A   1      46.972  27.118  29.330  1.00  0.00     0.037 A 
ATOM     54  C   UNL A   1      41.079  29.953  29.591  1.00  0.00     0.049 A 
ATOM     55  C   UNL A   1      46.509  28.527  29.591  1.00  0.00     0.074 A 
ATOM     56  C   UNL A   1      40.777  31.244  29.981  1.00  0.00     0.029 A 
ATOM     57  N   UNL A   1      42.462  29.835  29.620  1.00  0.00    -0.354 N 
ATOM     58  N   UNL A   1      45.287  29.001  29.648  1.00  0.00    -0.248 NA
ATOM     59  C   UNL A   1      47.555  29.536  29.810  1.00  0.00     0.031 C 
ATOM     60  C   UNL A   1      41.982  31.928  30.184  1.00  0.00     0.029 A 
ATOM     61  C   UNL A   1      43.030  31.045  29.977  1.00  0.00     0.049 A 
ATOM     62  H   UNL A   1      42.963  29.012  29.416  1.00  0.00     0.167 HD
ATOM     63  C   UNL A   1      45.415  30.355  29.933  1.00  0.00     0.074 A 
ATOM     64  C   UNL A   1      46.834  30.623  30.048  1.00  0.00     0.031 C 
ATOM     65  C   UNL A   1      44.446  31.292  30.084  1.00  0.00     0.037 A 
BRANCH  52  66
ATOM     66  C   UNL A   1      38.713  29.205  29.097  1.00  0.00     0.057 A 
ATOM     67  C   UNL A   1      37.857  29.153  30.204  1.00  0.00     0.134 A 
ATOM     68  C   UNL A   1      38.155  29.567  27.864  1.00  0.00     0.134 A 
ATOM     69  F   UNL A   1      38.324  28.795  31.409  1.00  0.00    -0.206 F 
ATOM     70  C   UNL A   1      36.492  29.422  30.083  1.00  0.00     0.040 A 
ATOM     71  C   UNL A   1      36.798  29.866  27.737  1.00  0.00     0.040 A 
ATOM     72  F   UNL A   1      38.919  29.636  26.764  1.00  0.00    -0.206 F 
ATOM     73  C   UNL A   1      35.962  29.786  28.848  1.00  0.00     0.006 A 
ENDBRANCH  52  66
BRANCH  53  74
ATOM     74  C   UNL A   1      48.416  26.778  29.343  1.00  0.00     0.057 A 
ATOM     75  C   UNL A   1      49.203  26.958  28.200  1.00  0.00     0.134 A 
ATOM     76  C   UNL A   1      49.043  26.263  30.484  1.00  0.00     0.134 A 
ATOM     77  F   UNL A   1      48.653  27.425  27.069  1.00  0.00    -0.206 F 
ATOM     78  C   UNL A   1      50.559  26.627  28.187  1.00  0.00     0.040 A 
ATOM     79  C   UNL A   1      50.404  25.952  30.493  1.00  0.00     0.040 A 
ATOM     80  F   UNL A   1      48.343  26.068  31.612  1.00  0.00    -0.206 F 
ATOM     81  C   UNL A   1      51.164  26.129  29.338  1.00  0.00     0.006 A 
ENDBRANCH  53  74
BRANCH  65  82
ATOM     82  C   UNL A   1      44.886  32.689  30.416  1.00  0.00     0.057 A 
ATOM     83  C   UNL A   1      45.105  33.100  31.737  1.00  0.00     0.134 A 
ATOM     84  C   UNL A   1      45.144  33.617  29.398  1.00  0.00     0.134 A 
ATOM     85  F   UNL A   1      44.865  32.264  32.758  1.00  0.00    -0.206 F 
ATOM     86  C   UNL A   1      45.550  34.390  32.035  1.00  0.00     0.040 A 
ATOM     87  C   UNL A   1      45.615  34.899  29.682  1.00  0.00     0.040 A 
ATOM     88  F   UNL A   1      44.962  33.285  28.111  1.00  0.00    -0.206 F 
ATOM     89  C   UNL A   1      45.815  35.290  31.004  1.00  0.00     0.006 A 
ENDBRANCH  65  82
ENDBRANCH  39  40
ENDBRANCH  32  34
ENDBRANCH  31  32
ENDBRANCH  30  31
ENDBRANCH  29  30
ENDBRANCH  28  29
ENDBRANCH  27  28
ENDBRANCH   1  27
TORSDOF 19
ENDMDL
MODEL 2
REMARK VINA RESULT:     -10.4      3.775      9.075
REMARK SMILES CC1(C)C(NC(=O)N2CC[NH+](CC(=O)OCCOCCOCCOC(=O)c3ccc(-c4c5nc(c(-c6c(F)cccc6F)c6ccc([nH]6)c(-c6c(F)cccc6F)c6nc(c(-c7c(F)cccc7F)c7ccc4[nH]7)C=C6)C=C5)cc3)CC2)C1(C)C
REMARK SMILES IDX 19 1 18 2 17 3 16 4 15 5 13 6 14 7 12 8 11 9 5 10 6 11 7 13
REMARK SMILES IDX 8 14 9 15 82 16 10 17 81 18 4 20 1 21 2 22 3 23 83 24 84 25
REMARK SMILES IDX 85 26 20 27 21 28 22 29 23 30 24 31 25 32 26 33 27 34 28 35
REMARK SMILES IDX 80 36 29 37 79 38 30 39 31 40 32 41 73 42 33 43 78 44 72 45
REMARK SMILES IDX 74 46 34 47 77 48 71 49 70 50 35 52 61 53 44 54 60 55 45 56
REMARK SMILES IDX 48 57 59 58 75 59 46 60 47 61 58 63 76 64 49 65 36 66 37 67
REMARK SMILES IDX 42 68 38 69 39 70 41 71 43 72 40 73 62 74 63 75 68 76 64 77
REMARK SMILES IDX 65 78 67 79 69 80 66 81 50 82 51 83 56 84 52 85 53 86 55 87
REMARK SMILES IDX 57 88 54 89
REMARK H PARENT 5 12 11 19 74 51 48 62
REMARK Flexibility Score: inf
ROOT
ATOM      1  C   UNL A   1      33.233  36.082  29.023  1.00  0.00     0.188 C 
ENDROOT
BRANCH   1   2
ATOM      2  O   UNL A   1      32.897  34.742  28.676  1.00  0.00    -0.376 OA
BRANCH   2   3
ATOM      3  C   UNL A   1      33.941  33.948  28.113  1.00  0.00     0.202 C 
BRANCH   3   4
ATOM      4  C   UNL A   1      33.552  32.512  27.744  1.00  0.00     0.261 C 
BRANCH   4   5
ATOM      5  O   UNL A   1      34.700  31.696  27.435  1.00  0.00    -0.459 OA
BRANCH   5   6
ATOM      6  C   UNL A   1      34.536  30.350  27.486  1.00  0.00     0.361 C 
ATOM      7  O   UNL A   1      35.272  29.594  28.112  1.00  0.00    -0.245 OA
BRANCH   6   8
ATOM      8  C   UNL A   1      33.277  29.849  26.776  1.00  0.00     0.386 C 
BRANCH   8   9
ATOM      9  N   UNL A   1      33.025  28.410  26.697  1.00  0.00    -0.323 N 
ATOM     10  N   UNL A   1      32.863  24.467  23.575  1.00  0.00    -0.334 N 
ATOM     11  C   UNL A   1      32.010  25.526  23.702  1.00  0.00     0.318 C 
ATOM     12  H   UNL A   1      32.969  24.051  22.689  1.00  0.00     0.165 HD
ATOM     13  O   UNL A   1      30.992  25.529  23.020  1.00  0.00    -0.249 OA
ATOM     14  N   UNL A   1      32.335  26.487  24.633  1.00  0.00    -0.314 N 
ATOM     15  C   UNL A   1      31.290  27.351  25.165  1.00  0.00     0.183 C 
ATOM     16  C   UNL A   1      33.689  27.036  24.723  1.00  0.00     0.183 C 
ATOM     17  C   UNL A   1      31.644  27.949  26.544  1.00  0.00     0.284 C 
ATOM     18  C   UNL A   1      34.022  27.503  26.150  1.00  0.00     0.284 C 
ATOM     19  H   UNL A   1      33.224  28.302  27.692  1.00  0.00     0.348 HD
BRANCH  10  20
ATOM     20  C   UNL A   1      33.604  23.939  24.669  1.00  0.00     0.096 C 
ATOM     21  C   UNL A   1      33.308  22.094  26.356  1.00  0.00     0.014 C 
ATOM     22  C   UNL A   1      33.673  22.459  24.929  1.00  0.00    -0.007 C 
ATOM     23  C   UNL A   1      33.066  21.494  23.934  1.00  0.00     0.014 C 
ATOM     24  C   UNL A   1      34.946  23.283  24.570  1.00  0.00    -0.007 C 
ATOM     25  C   UNL A   1      35.926  23.706  25.643  1.00  0.00     0.014 C 
ATOM     26  C   UNL A   1      35.601  23.210  23.209  1.00  0.00     0.014 C 
ENDBRANCH  10  20
ENDBRANCH   8   9
ENDBRANCH   6   8
ENDBRANCH   5   6
ENDBRANCH   4   5
ENDBRANCH   3   4
ENDBRANCH   2   3
ENDBRANCH   1   2
BRANCH   1  27
ATOM     27  C   UNL A   1      33.158  36.409  30.515  1.00  0.00     0.188 C 
BRANCH  27  28
ATOM     28  O   UNL A   1      32.751  35.308  31.328  1.00  0.00    -0.376 OA
BRANCH  28  29
ATOM     29  C   UNL A   1      33.767  34.818  32.211  1.00  0.00     0.202 C 
BRANCH  29  30
ATOM     30  C   UNL A   1      35.182  34.634  31.633  1.00  0.00     0.261 C 
BRANCH  30  31
ATOM     31  O   UNL A   1      35.384  33.337  31.065  1.00  0.00    -0.460 OA
BRANCH  31  32
ATOM     32  C   UNL A   1      35.751  32.361  31.928  1.00  0.00     0.338 C 
ATOM     33  O   UNL A   1      35.167  31.929  32.903  1.00  0.00    -0.246 OA
BRANCH  32  34
ATOM     34  C   UNL A   1      36.967  31.740  31.393  1.00  0.00     0.060 A 
ATOM     35  C   UNL A   1      37.825  31.077  32.280  1.00  0.00     0.016 A 
ATOM     36  C   UNL A   1      37.216  31.755  30.021  1.00  0.00     0.016 A 
ATOM     37  C   UNL A   1      38.939  30.405  31.791  1.00  0.00     0.010 A 
ATOM     38  C   UNL A   1      38.338  31.096  29.535  1.00  0.00     0.010 A 
ATOM     39  C   UNL A   1      39.205  30.428  30.418  1.00  0.00    -0.014 A 
BRANCH  39  40
ATOM     40  C   UNL A   1      40.451  29.856  29.876  1.00  0.00     0.031 A 
ATOM     41  C   UNL A   1      41.626  30.765  29.689  1.00  0.00     0.074 A 
ATOM     42  C   UNL A   1      40.498  28.571  29.491  1.00  0.00     0.049 A 
ATOM     43  N   UNL A   1      42.753  30.544  29.067  1.00  0.00    -0.248 NA
ATOM     44  C   UNL A   1      41.505  32.112  30.270  1.00  0.00     0.031 C 
ATOM     45  C   UNL A   1      39.424  27.594  29.668  1.00  0.00     0.029 A 
ATOM     46  N   UNL A   1      41.485  27.878  28.841  1.00  0.00    -0.354 N 
ATOM     47  C   UNL A   1      43.466  31.730  29.157  1.00  0.00     0.074 A 
ATOM     48  C   UNL A   1      42.639  32.672  29.880  1.00  0.00     0.031 C 
ATOM     49  C   UNL A   1      39.808  26.427  29.121  1.00  0.00     0.029 A 
ATOM     50  C   UNL A   1      41.126  26.595  28.514  1.00  0.00     0.049 A 
ATOM     51  H   UNL A   1      42.366  28.264  28.631  1.00  0.00     0.167 HD
ATOM     52  C   UNL A   1      44.699  32.004  28.674  1.00  0.00     0.037 A 
ATOM     53  C   UNL A   1      41.777  25.680  27.772  1.00  0.00     0.037 A 
ATOM     54  C   UNL A   1      45.506  31.055  27.956  1.00  0.00     0.049 A 
ATOM     55  C   UNL A   1      43.107  26.041  27.167  1.00  0.00     0.074 A 
ATOM     56  C   UNL A   1      46.789  31.212  27.465  1.00  0.00     0.029 A 
ATOM     57  N   UNL A   1      45.097  29.773  27.613  1.00  0.00    -0.354 N 
ATOM     58  N   UNL A   1      43.797  27.150  27.281  1.00  0.00    -0.248 NA
ATOM     59  C   UNL A   1      43.743  25.025  26.316  1.00  0.00     0.031 C 
ATOM     60  C   UNL A   1      47.132  30.048  26.768  1.00  0.00     0.029 A 
ATOM     61  C   UNL A   1      46.086  29.145  26.876  1.00  0.00     0.049 A 
ATOM     62  H   UNL A   1      44.233  29.371  27.858  1.00  0.00     0.167 HD
ATOM     63  C   UNL A   1      44.957  26.959  26.541  1.00  0.00     0.074 A 
ATOM     64  C   UNL A   1      44.882  25.620  25.990  1.00  0.00     0.031 C 
ATOM     65  C   UNL A   1      45.991  27.812  26.334  1.00  0.00     0.037 A 
BRANCH  52  66
ATOM     66  C   UNL A   1      45.221  33.397  28.868  1.00  0.00     0.057 A 
ATOM     67  C   UNL A   1      44.822  34.464  28.054  1.00  0.00     0.134 A 
ATOM     68  C   UNL A   1      46.131  33.674  29.896  1.00  0.00     0.134 A 
ATOM     69  F   UNL A   1      43.967  34.263  27.040  1.00  0.00    -0.206 F 
ATOM     70  C   UNL A   1      45.331  35.751  28.237  1.00  0.00     0.040 A 
ATOM     71  C   UNL A   1      46.625  34.961  30.107  1.00  0.00     0.040 A 
ATOM     72  F   UNL A   1      46.555  32.697  30.713  1.00  0.00    -0.206 F 
ATOM     73  C   UNL A   1      46.230  36.003  29.271  1.00  0.00     0.006 A 
ENDBRANCH  52  66
BRANCH  53  74
ATOM     74  C   UNL A   1      41.176  24.343  27.545  1.00  0.00     0.057 A 
ATOM     75  C   UNL A   1      41.631  23.224  28.250  1.00  0.00     0.134 A 
ATOM     76  C   UNL A   1      40.143  24.146  26.620  1.00  0.00     0.134 A 
ATOM     77  F   UNL A   1      42.635  23.345  29.132  1.00  0.00    -0.206 F 
ATOM     78  C   UNL A   1      41.091  21.955  28.037  1.00  0.00     0.040 A 
ATOM     79  C   UNL A   1      39.575  22.887  26.415  1.00  0.00     0.040 A 
ATOM     80  F   UNL A   1      39.661  25.179  25.912  1.00  0.00    -0.206 F 
ATOM     81  C   UNL A   1      40.054  21.786  27.122  1.00  0.00     0.006 A 
ENDBRANCH  53  74
BRANCH  65  82
ATOM     82  C   UNL A   1      47.135  27.317  25.497  1.00  0.00     0.057 A 
ATOM     83  C   UNL A   1      47.267  27.664  24.147  1.00  0.00     0.134 A 
ATOM     84  C   UNL A   1      48.145  26.528  26.064  1.00  0.00     0.134 A 
ATOM     85  F   UNL A   1      46.328  28.407  23.541  1.00  0.00    -0.206 F 
ATOM     86  C   UNL A   1      48.353  27.230  23.386  1.00  0.00     0.040 A 
ATOM     87  C   UNL A   1      49.250  26.112  25.321  1.00  0.00     0.040 A 
ATOM     88  F   UNL A   1      48.084  26.167  27.355  1.00  0.00    -0.206 F 
ATOM     89  C   UNL A   1      49.353  26.460  23.976  1.00  0.00     0.006 A 
ENDBRANCH  65  82
ENDBRANCH  39  40
ENDBRANCH  32  34
ENDBRANCH  31  32
ENDBRANCH  30  31
ENDBRANCH  29  30
ENDBRANCH  28  29
ENDBRANCH  27  28
ENDBRANCH   1  27
TORSDOF 19
ENDMDL
MODEL 3
REMARK VINA RESULT:     -10.3      3.815      7.492
REMARK SMILES CC1(C)C(NC(=O)N2CC[NH+](CC(=O)OCCOCCOCCOC(=O)c3ccc(-c4c5nc(c(-c6c(F)cccc6F)c6ccc([nH]6)c(-c6c(F)cccc6F)c6nc(c(-c7c(F)cccc7F)c7ccc4[nH]7)C=C6)C=C5)cc3)CC2)C1(C)C
REMARK SMILES IDX 19 1 18 2 17 3 16 4 15 5 13 6 14 7 12 8 11 9 5 10 6 11 7 13
REMARK SMILES IDX 8 14 9 15 82 16 10 17 81 18 4 20 1 21 2 22 3 23 83 24 84 25
REMARK SMILES IDX 85 26 20 27 21 28 22 29 23 30 24 31 25 32 26 33 27 34 28 35
REMARK SMILES IDX 80 36 29 37 79 38 30 39 31 40 32 41 73 42 33 43 78 44 72 45
REMARK SMILES IDX 74 46 34 47 77 48 71 49 70 50 35 52 61 53 44 54 60 55 45 56
REMARK SMILES IDX 48 57 59 58 75 59 46 60 47 61 58 63 76 64 49 65 36 66 37 67
REMARK SMILES IDX 42 68 38 69 39 70 41 71 43 72 40 73 62 74 63 75 68 76 64 77
REMARK SMILES IDX 65 78 67 79 69 80 66 81 50 82 51 83 56 84 52 85 53 86 55 87
REMARK SMILES IDX 57 88 54 89
REMARK H PARENT 5 12 11 19 74 51 48 62
REMARK Flexibility Score: inf
ROOT
ATOM      1  C   UNL A   1      39.072  20.855  25.732  1.00  0.00     0.188 C 
ENDROOT
BRANCH   1   2
ATOM      2  O   UNL A   1      38.665  19.585  25.232  1.00  0.00    -0.376 OA
BRANCH   2   3
ATOM      3  C   UNL A   1      37.373  19.520  24.630  1.00  0.00     0.202 C 
BRANCH   3   4
ATOM      4  C   UNL A   1      36.327  20.479  25.210  1.00  0.00     0.261 C 
BRANCH   4   5
ATOM      5  O   UNL A   1      34.986  20.134  24.808  1.00  0.00    -0.459 OA
BRANCH   5   6
ATOM      6  C   UNL A   1      33.974  20.877  25.322  1.00  0.00     0.361 C 
ATOM      7  O   UNL A   1      32.789  20.697  25.057  1.00  0.00    -0.245 OA
BRANCH   6   8
ATOM      8  C   UNL A   1      34.422  21.908  26.359  1.00  0.00     0.386 C 
BRANCH   8   9
ATOM      9  N   UNL A   1      34.353  23.332  26.028  1.00  0.00    -0.323 N 
ATOM     10  N   UNL A   1      32.202  26.706  22.977  1.00  0.00    -0.334 N 
ATOM     11  C   UNL A   1      33.157  25.765  22.717  1.00  0.00     0.318 C 
ATOM     12  H   UNL A   1      31.581  26.959  22.256  1.00  0.00     0.165 HD
ATOM     13  O   UNL A   1      33.653  25.744  21.596  1.00  0.00    -0.249 OA
ATOM     14  N   UNL A   1      33.532  24.945  23.757  1.00  0.00    -0.314 N 
ATOM     15  C   UNL A   1      34.827  24.281  23.714  1.00  0.00     0.183 C 
ATOM     16  C   UNL A   1      32.538  24.295  24.613  1.00  0.00     0.183 C 
ATOM     17  C   UNL A   1      35.351  23.887  25.112  1.00  0.00     0.284 C 
ATOM     18  C   UNL A   1      33.082  24.041  26.029  1.00  0.00     0.284 C 
ATOM     19  H   UNL A   1      34.688  23.583  26.958  1.00  0.00     0.348 HD
BRANCH  10  20
ATOM     20  C   UNL A   1      32.066  27.335  24.245  1.00  0.00     0.096 C 
ATOM     21  C   UNL A   1      32.125  29.691  25.131  1.00  0.00     0.014 C 
ATOM     22  C   UNL A   1      31.319  28.632  24.401  1.00  0.00    -0.007 C 
ATOM     23  C   UNL A   1      30.573  29.215  23.221  1.00  0.00     0.014 C 
ATOM     24  C   UNL A   1      30.831  27.323  25.091  1.00  0.00    -0.007 C 
ATOM     25  C   UNL A   1      31.086  27.077  26.562  1.00  0.00     0.014 C 
ATOM     26  C   UNL A   1      29.636  26.541  24.590  1.00  0.00     0.014 C 
ENDBRANCH  10  20
ENDBRANCH   8   9
ENDBRANCH   6   8
ENDBRANCH   5   6
ENDBRANCH   4   5
ENDBRANCH   3   4
ENDBRANCH   2   3
ENDBRANCH   1   2
BRANCH   1  27
ATOM     27  C   UNL A   1      40.397  20.864  26.495  1.00  0.00     0.188 C 
BRANCH  27  28
ATOM     28  O   UNL A   1      41.274  19.794  26.143  1.00  0.00    -0.376 OA
BRANCH  28  29
ATOM     29  C   UNL A   1      42.654  20.036  26.443  1.00  0.00     0.202 C 
BRANCH  29  30
ATOM     30  C   UNL A   1      43.372  21.137  25.641  1.00  0.00     0.261 C 
BRANCH  30  31
ATOM     31  O   UNL A   1      43.507  22.357  26.373  1.00  0.00    -0.460 OA
BRANCH  31  32
ATOM     32  C   UNL A   1      43.195  23.490  25.704  1.00  0.00     0.338 C 
ATOM     33  O   UNL A   1      43.060  23.673  24.509  1.00  0.00    -0.246 OA
BRANCH  32  34
ATOM     34  C   UNL A   1      42.857  24.510  26.703  1.00  0.00     0.060 A 
ATOM     35  C   UNL A   1      41.880  24.209  27.662  1.00  0.00     0.016 A 
ATOM     36  C   UNL A   1      43.549  25.720  26.731  1.00  0.00     0.016 A 
ATOM     37  C   UNL A   1      41.601  25.120  28.672  1.00  0.00     0.010 A 
ATOM     38  C   UNL A   1      43.259  26.636  27.733  1.00  0.00     0.010 A 
ATOM     39  C   UNL A   1      42.280  26.343  28.699  1.00  0.00    -0.014 A 
BRANCH  39  40
ATOM     40  C   UNL A   1      41.910  27.395  29.663  1.00  0.00     0.031 A 
ATOM     41  C   UNL A   1      42.640  27.449  30.970  1.00  0.00     0.074 A 
ATOM     42  C   UNL A   1      40.893  28.230  29.402  1.00  0.00     0.049 A 
ATOM     43  N   UNL A   1      42.375  28.151  32.039  1.00  0.00    -0.248 NA
ATOM     44  C   UNL A   1      43.821  26.577  31.091  1.00  0.00     0.031 C 
ATOM     45  C   UNL A   1      40.146  28.289  28.145  1.00  0.00     0.029 A 
ATOM     46  N   UNL A   1      40.294  29.171  30.197  1.00  0.00    -0.354 N 
ATOM     47  C   UNL A   1      43.338  27.789  32.969  1.00  0.00     0.074 A 
ATOM     48  C   UNL A   1      44.183  26.794  32.346  1.00  0.00     0.031 C 
ATOM     49  C   UNL A   1      39.173  29.209  28.263  1.00  0.00     0.029 A 
ATOM     50  C   UNL A   1      39.200  29.761  29.615  1.00  0.00     0.049 A 
ATOM     51  H   UNL A   1      40.618  29.401  31.098  1.00  0.00     0.167 HD
ATOM     52  C   UNL A   1      43.495  28.247  34.232  1.00  0.00     0.037 A 
ATOM     53  C   UNL A   1      38.303  30.618  30.137  1.00  0.00     0.037 A 
ATOM     54  C   UNL A   1      42.643  29.235  34.837  1.00  0.00     0.049 A 
ATOM     55  C   UNL A   1      38.445  31.041  31.575  1.00  0.00     0.074 A 
ATOM     56  C   UNL A   1      42.741  29.805  36.093  1.00  0.00     0.029 A 
ATOM     57  N   UNL A   1      41.523  29.787  34.229  1.00  0.00    -0.354 N 
ATOM     58  N   UNL A   1      39.376  30.726  32.444  1.00  0.00    -0.248 NA
ATOM     59  C   UNL A   1      37.403  31.929  32.108  1.00  0.00     0.031 C 
ATOM     60  C   UNL A   1      41.643  30.655  36.270  1.00  0.00     0.029 A 
ATOM     61  C   UNL A   1      40.894  30.658  35.103  1.00  0.00     0.049 A 
ATOM     62  H   UNL A   1      41.221  29.589  33.314  1.00  0.00     0.167 HD
ATOM     63  C   UNL A   1      39.047  31.395  33.617  1.00  0.00     0.074 A 
ATOM     64  C   UNL A   1      37.836  32.142  33.343  1.00  0.00     0.031 C 
ATOM     65  C   UNL A   1      39.688  31.391  34.812  1.00  0.00     0.037 A 
BRANCH  52  66
ATOM     66  C   UNL A   1      44.598  27.645  35.051  1.00  0.00     0.057 A 
ATOM     67  C   UNL A   1      45.887  28.191  35.085  1.00  0.00     0.134 A 
ATOM     68  C   UNL A   1      44.359  26.503  35.826  1.00  0.00     0.134 A 
ATOM     69  F   UNL A   1      46.186  29.274  34.351  1.00  0.00    -0.206 F 
ATOM     70  C   UNL A   1      46.907  27.607  35.839  1.00  0.00     0.040 A 
ATOM     71  C   UNL A   1      45.363  25.927  36.606  1.00  0.00     0.040 A 
ATOM     72  F   UNL A   1      43.147  25.928  35.839  1.00  0.00    -0.206 F 
ATOM     73  C   UNL A   1      46.643  26.476  36.608  1.00  0.00     0.006 A 
ENDBRANCH  52  66
BRANCH  53  74
ATOM     74  C   UNL A   1      37.182  31.120  29.304  1.00  0.00     0.057 A 
ATOM     75  C   UNL A   1      36.086  30.301  29.012  1.00  0.00     0.134 A 
ATOM     76  C   UNL A   1      37.178  32.417  28.778  1.00  0.00     0.134 A 
ATOM     77  F   UNL A   1      36.045  29.040  29.468  1.00  0.00    -0.206 F 
ATOM     78  C   UNL A   1      35.031  30.749  28.215  1.00  0.00     0.040 A 
ATOM     79  C   UNL A   1      36.117  32.887  28.001  1.00  0.00     0.040 A 
ATOM     80  F   UNL A   1      38.199  33.251  29.022  1.00  0.00    -0.206 F 
ATOM     81  C   UNL A   1      35.042  32.048  27.714  1.00  0.00     0.006 A 
ENDBRANCH  53  74
BRANCH  65  82
ATOM     82  C   UNL A   1      39.107  32.238  35.907  1.00  0.00     0.057 A 
ATOM     83  C   UNL A   1      38.202  31.719  36.842  1.00  0.00     0.134 A 
ATOM     84  C   UNL A   1      39.498  33.575  36.059  1.00  0.00     0.134 A 
ATOM     85  F   UNL A   1      37.778  30.450  36.744  1.00  0.00    -0.206 F 
ATOM     86  C   UNL A   1      37.695  32.503  37.879  1.00  0.00     0.040 A 
ATOM     87  C   UNL A   1      39.020  34.361  37.108  1.00  0.00     0.040 A 
ATOM     88  F   UNL A   1      40.369  34.132  35.203  1.00  0.00    -0.206 F 
ATOM     89  C   UNL A   1      38.112  33.825  38.020  1.00  0.00     0.006 A 
ENDBRANCH  65  82
ENDBRANCH  39  40
ENDBRANCH  32  34
ENDBRANCH  31  32
ENDBRANCH  30  31
ENDBRANCH  29  30
ENDBRANCH  28  29
ENDBRANCH  27  28
ENDBRANCH   1  27
TORSDOF 19
ENDMDL
