MODEL 1
REMARK VINA RESULT:      -9.5      0.000      0.000
REMARK SMILES COc1cc2cc(C(=O)OCCOCCOCCOC(=O)c3ccc(-c4c5nc(c(-c6c(F)cccc6F)c6ccc([nH]6)c(-c6c(F)cccc6F)c6nc(c(-c7c(F)cccc7F)c7ccc4[nH]7)C=C6)C=C5)cc3)n(Cc3ccccc3)c2c(OC)c1OC
REMARK SMILES IDX 14 1 13 2 12 3 11 4 10 5 8 6 9 7 7 8 3 9 4 10 88 11 5 12
REMARK SMILES IDX 85 13 6 14 84 15 76 16 2 17 1 18 89 19 90 20 86 21 87 22
REMARK SMILES IDX 77 23 78 24 79 25 83 26 80 27 82 28 81 29 15 30 16 31 17 32
REMARK SMILES IDX 18 33 19 34 20 35 21 36 22 37 23 38 75 39 24 40 74 41 25 42
REMARK SMILES IDX 26 43 27 44 68 45 28 46 73 47 67 48 69 49 29 50 72 51 66 52
REMARK SMILES IDX 65 53 30 55 56 56 39 57 55 58 40 59 43 60 54 61 70 62 41 63
REMARK SMILES IDX 42 64 53 66 71 67 44 68 31 69 32 70 37 71 33 72 34 73 36 74
REMARK SMILES IDX 38 75 35 76 57 77 58 78 63 79 59 80 60 81 62 82 64 83 61 84
REMARK SMILES IDX 45 85 46 86 51 87 47 88 48 89 50 90 52 91 49 92
REMARK H PARENT 69 54 43 65
REMARK Flexibility Score: inf
ROOT
ATOM      1  C   UNL A   1      33.699  31.705  28.047  1.00  0.00     0.188 C 
ENDROOT
BRANCH   1   2
ATOM      2  O   UNL A   1      33.305  30.557  27.308  1.00  0.00    -0.376 OA
BRANCH   2   3
ATOM      3  C   UNL A   1      32.148  30.632  26.485  1.00  0.00     0.202 C 
BRANCH   3   4
ATOM      4  C   UNL A   1      32.202  29.819  25.188  1.00  0.00     0.261 C 
BRANCH   4   5
ATOM      5  O   UNL A   1      33.536  29.330  24.924  1.00  0.00    -0.459 OA
BRANCH   5   6
ATOM      6  C   UNL A   1      33.668  28.443  23.910  1.00  0.00     0.355 C 
ATOM      7  O   UNL A   1      34.215  28.698  22.836  1.00  0.00    -0.244 OA
BRANCH   6   8
ATOM      8  C   UNL A   1      33.254  27.109  24.297  1.00  0.00     0.129 A 
ATOM      9  C   UNL A   1      34.189  22.810  25.737  1.00  0.00     0.165 A 
ATOM     10  C   UNL A   1      34.110  24.121  26.183  1.00  0.00     0.061 A 
ATOM     11  C   UNL A   1      33.669  22.482  24.482  1.00  0.00     0.205 A 
ATOM     12  C   UNL A   1      33.557  25.148  25.388  1.00  0.00     0.008 A 
ATOM     13  C   UNL A   1      33.099  23.503  23.639  1.00  0.00     0.189 A 
ATOM     14  C   UNL A   1      33.427  26.554  25.546  1.00  0.00     0.044 A 
ATOM     15  C   UNL A   1      33.097  24.845  24.111  1.00  0.00     0.096 A 
ATOM     16  N   UNL A   1      32.708  26.074  23.556  1.00  0.00    -0.327 N 
BRANCH   9  17
ATOM     17  O   UNL A   1      34.651  21.854  26.613  1.00  0.00    -0.493 OA
ATOM     18  C   UNL A   1      33.793  21.609  27.731  1.00  0.00     0.278 C 
ENDBRANCH   9  17
BRANCH  11  19
ATOM     19  O   UNL A   1      33.623  21.179  24.036  1.00  0.00    -0.490 OA
ATOM     20  C   UNL A   1      32.456  20.416  24.334  1.00  0.00     0.278 C 
ENDBRANCH  11  19
BRANCH  13  21
ATOM     21  O   UNL A   1      32.568  23.326  22.393  1.00  0.00    -0.491 OA
ATOM     22  C   UNL A   1      33.434  23.349  21.273  1.00  0.00     0.278 C 
ENDBRANCH  13  21
BRANCH  16  23
ATOM     23  C   UNL A   1      31.829  26.291  22.416  1.00  0.00     0.158 C 
BRANCH  23  24
ATOM     24  C   UNL A   1      30.512  26.877  22.882  1.00  0.00    -0.028 A 
ATOM     25  C   UNL A   1      29.608  26.117  23.640  1.00  0.00     0.005 A 
ATOM     26  C   UNL A   1      30.136  28.173  22.518  1.00  0.00     0.005 A 
ATOM     27  C   UNL A   1      28.344  26.603  23.973  1.00  0.00     0.000 A 
ATOM     28  C   UNL A   1      28.887  28.681  22.891  1.00  0.00     0.000 A 
ATOM     29  C   UNL A   1      27.985  27.891  23.602  1.00  0.00     0.000 A 
ENDBRANCH  23  24
ENDBRANCH  16  23
ENDBRANCH   6   8
ENDBRANCH   5   6
ENDBRANCH   4   5
ENDBRANCH   3   4
ENDBRANCH   2   3
ENDBRANCH   1   2
BRANCH   1  30
ATOM     30  C   UNL A   1      35.174  32.130  28.032  1.00  0.00     0.188 C 
BRANCH  30  31
ATOM     31  O   UNL A   1      35.456  33.509  28.234  1.00  0.00    -0.376 OA
BRANCH  31  32
ATOM     32  C   UNL A   1      34.397  34.422  27.955  1.00  0.00     0.202 C 
BRANCH  32  33
ATOM     33  C   UNL A   1      33.982  35.279  29.156  1.00  0.00     0.261 C 
BRANCH  33  34
ATOM     34  O   UNL A   1      33.276  34.448  30.100  1.00  0.00    -0.460 OA
BRANCH  34  35
ATOM     35  C   UNL A   1      33.384  34.818  31.399  1.00  0.00     0.338 C 
ATOM     36  O   UNL A   1      32.497  35.297  32.093  1.00  0.00    -0.246 OA
BRANCH  35  37
ATOM     37  C   UNL A   1      34.653  34.255  31.933  1.00  0.00     0.060 A 
ATOM     38  C   UNL A   1      34.904  32.882  32.022  1.00  0.00     0.016 A 
ATOM     39  C   UNL A   1      35.559  35.145  32.507  1.00  0.00     0.016 A 
ATOM     40  C   UNL A   1      35.989  32.405  32.782  1.00  0.00     0.010 A 
ATOM     41  C   UNL A   1      36.675  34.660  33.195  1.00  0.00     0.010 A 
ATOM     42  C   UNL A   1      36.872  33.287  33.429  1.00  0.00    -0.014 A 
BRANCH  42  43
ATOM     43  C   UNL A   1      38.147  32.759  34.006  1.00  0.00     0.031 A 
ATOM     44  C   UNL A   1      38.371  33.412  35.304  1.00  0.00     0.074 A 
ATOM     45  C   UNL A   1      39.135  31.882  33.651  1.00  0.00     0.049 A 
ATOM     46  N   UNL A   1      39.271  34.317  35.484  1.00  0.00    -0.248 NA
ATOM     47  C   UNL A   1      37.446  33.218  36.420  1.00  0.00     0.031 C 
ATOM     48  C   UNL A   1      39.351  31.125  32.426  1.00  0.00     0.029 A 
ATOM     49  N   UNL A   1      40.180  31.394  34.421  1.00  0.00    -0.354 N 
ATOM     50  C   UNL A   1      39.188  34.649  36.815  1.00  0.00     0.074 A 
ATOM     51  C   UNL A   1      37.953  34.080  37.304  1.00  0.00     0.031 C 
ATOM     52  C   UNL A   1      40.165  30.064  32.627  1.00  0.00     0.029 A 
ATOM     53  C   UNL A   1      40.772  30.220  33.931  1.00  0.00     0.049 A 
ATOM     54  H   UNL A   1      40.483  31.836  35.247  1.00  0.00     0.167 HD
ATOM     55  C   UNL A   1      40.288  35.122  37.450  1.00  0.00     0.037 A 
ATOM     56  C   UNL A   1      41.817  29.497  34.420  1.00  0.00     0.037 A 
ATOM     57  C   UNL A   1      41.284  35.633  36.532  1.00  0.00     0.049 A 
ATOM     58  C   UNL A   1      42.706  30.489  35.051  1.00  0.00     0.074 A 
ATOM     59  C   UNL A   1      41.258  36.502  35.452  1.00  0.00     0.029 A 
ATOM     60  N   UNL A   1      42.491  34.986  36.433  1.00  0.00    -0.354 N 
ATOM     61  N   UNL A   1      43.455  31.316  34.379  1.00  0.00    -0.248 NA
ATOM     62  C   UNL A   1      42.531  30.797  36.459  1.00  0.00     0.031 C 
ATOM     63  C   UNL A   1      42.203  35.983  34.517  1.00  0.00     0.029 A 
ATOM     64  C   UNL A   1      42.783  34.858  35.098  1.00  0.00     0.049 A 
ATOM     65  H   UNL A   1      43.046  34.672  37.183  1.00  0.00     0.167 HD
ATOM     66  C   UNL A   1      43.413  32.476  35.127  1.00  0.00     0.074 A 
ATOM     67  C   UNL A   1      42.982  32.051  36.455  1.00  0.00     0.031 C 
ATOM     68  C   UNL A   1      43.431  33.700  34.525  1.00  0.00     0.037 A 
BRANCH  55  69
ATOM     69  C   UNL A   1      40.584  34.728  38.862  1.00  0.00     0.057 A 
ATOM     70  C   UNL A   1      40.734  33.388  39.283  1.00  0.00     0.134 A 
ATOM     71  C   UNL A   1      40.993  35.704  39.778  1.00  0.00     0.134 A 
ATOM     72  F   UNL A   1      40.516  32.350  38.463  1.00  0.00    -0.206 F 
ATOM     73  C   UNL A   1      41.224  33.044  40.541  1.00  0.00     0.040 A 
ATOM     74  C   UNL A   1      41.545  35.369  41.017  1.00  0.00     0.040 A 
ATOM     75  F   UNL A   1      40.949  37.005  39.457  1.00  0.00    -0.206 F 
ATOM     76  C   UNL A   1      41.657  34.036  41.404  1.00  0.00     0.006 A 
ENDBRANCH  55  69
BRANCH  56  77
ATOM     77  C   UNL A   1      42.194  28.057  34.341  1.00  0.00     0.057 A 
ATOM     78  C   UNL A   1      42.074  27.185  35.434  1.00  0.00     0.134 A 
ATOM     79  C   UNL A   1      42.980  27.575  33.277  1.00  0.00     0.134 A 
ATOM     80  F   UNL A   1      41.325  27.505  36.496  1.00  0.00    -0.206 F 
ATOM     81  C   UNL A   1      42.776  25.971  35.514  1.00  0.00     0.040 A 
ATOM     82  C   UNL A   1      43.676  26.358  33.337  1.00  0.00     0.040 A 
ATOM     83  F   UNL A   1      43.163  28.307  32.168  1.00  0.00    -0.206 F 
ATOM     84  C   UNL A   1      43.602  25.567  34.474  1.00  0.00     0.006 A 
ENDBRANCH  56  77
BRANCH  68  85
ATOM     85  C   UNL A   1      43.888  33.789  33.090  1.00  0.00     0.057 A 
ATOM     86  C   UNL A   1      45.214  34.161  32.834  1.00  0.00     0.134 A 
ATOM     87  C   UNL A   1      43.057  33.631  31.970  1.00  0.00     0.134 A 
ATOM     88  F   UNL A   1      46.063  34.376  33.851  1.00  0.00    -0.206 F 
ATOM     89  C   UNL A   1      45.696  34.351  31.535  1.00  0.00     0.040 A 
ATOM     90  C   UNL A   1      43.534  33.787  30.663  1.00  0.00     0.040 A 
ATOM     91  F   UNL A   1      41.752  33.368  32.104  1.00  0.00    -0.206 F 
ATOM     92  C   UNL A   1      44.857  34.153  30.442  1.00  0.00     0.006 A 
ENDBRANCH  68  85
ENDBRANCH  42  43
ENDBRANCH  35  37
ENDBRANCH  34  35
ENDBRANCH  33  34
ENDBRANCH  32  33
ENDBRANCH  31  32
ENDBRANCH  30  31
ENDBRANCH   1  30
TORSDOF 22
ENDMDL
MODEL 2
REMARK VINA RESULT:      -9.3      3.929      9.437
REMARK SMILES COc1cc2cc(C(=O)OCCOCCOCCOC(=O)c3ccc(-c4c5nc(c(-c6c(F)cccc6F)c6ccc([nH]6)c(-c6c(F)cccc6F)c6nc(c(-c7c(F)cccc7F)c7ccc4[nH]7)C=C6)C=C5)cc3)n(Cc3ccccc3)c2c(OC)c1OC
REMARK SMILES IDX 14 1 13 2 12 3 11 4 10 5 8 6 9 7 7 8 3 9 4 10 88 11 5 12
REMARK SMILES IDX 85 13 6 14 84 15 76 16 2 17 1 18 89 19 90 20 86 21 87 22
REMARK SMILES IDX 77 23 78 24 79 25 83 26 80 27 82 28 81 29 15 30 16 31 17 32
REMARK SMILES IDX 18 33 19 34 20 35 21 36 22 37 23 38 75 39 24 40 74 41 25 42
REMARK SMILES IDX 26 43 27 44 68 45 28 46 73 47 67 48 69 49 29 50 72 51 66 52
REMARK SMILES IDX 65 53 30 55 56 56 39 57 55 58 40 59 43 60 54 61 70 62 41 63
REMARK SMILES IDX 42 64 53 66 71 67 44 68 31 69 32 70 37 71 33 72 34 73 36 74
REMARK SMILES IDX 38 75 35 76 57 77 58 78 63 79 59 80 60 81 62 82 64 83 61 84
REMARK SMILES IDX 45 85 46 86 51 87 47 88 48 89 50 90 52 91 49 92
REMARK H PARENT 69 54 43 65
REMARK Flexibility Score: inf
ROOT
ATOM      1  C   UNL A   1      34.730  19.589  25.012  1.00  0.00     0.188 C 
ENDROOT
BRANCH   1   2
ATOM      2  O   UNL A   1      33.932  20.630  25.560  1.00  0.00    -0.376 OA
BRANCH   2   3
ATOM      3  C   UNL A   1      32.533  20.629  25.311  1.00  0.00     0.202 C 
BRANCH   3   4
ATOM      4  C   UNL A   1      31.959  21.928  24.738  1.00  0.00     0.261 C 
BRANCH   4   5
ATOM      5  O   UNL A   1      30.968  22.504  25.618  1.00  0.00    -0.459 OA
BRANCH   5   6
ATOM      6  C   UNL A   1      31.404  23.441  26.493  1.00  0.00     0.355 C 
ATOM      7  O   UNL A   1      32.131  23.198  27.458  1.00  0.00    -0.244 OA
BRANCH   6   8
ATOM      8  C   UNL A   1      31.068  24.784  26.064  1.00  0.00     0.129 A 
ATOM      9  C   UNL A   1      29.012  27.735  23.149  1.00  0.00     0.165 A 
ATOM     10  C   UNL A   1      28.743  26.848  24.181  1.00  0.00     0.061 A 
ATOM     11  C   UNL A   1      30.335  28.111  22.901  1.00  0.00     0.205 A 
ATOM     12  C   UNL A   1      29.769  26.275  24.962  1.00  0.00     0.008 A 
ATOM     13  C   UNL A   1      31.412  27.546  23.673  1.00  0.00     0.189 A 
ATOM     14  C   UNL A   1      29.793  25.301  25.995  1.00  0.00     0.044 A 
ATOM     15  C   UNL A   1      31.094  26.591  24.678  1.00  0.00     0.096 A 
ATOM     16  N   UNL A   1      31.857  25.800  25.551  1.00  0.00    -0.327 N 
BRANCH   9  17
ATOM     17  O   UNL A   1      27.948  28.322  22.503  1.00  0.00    -0.493 OA
ATOM     18  C   UNL A   1      26.782  28.492  23.315  1.00  0.00     0.278 C 
ENDBRANCH   9  17
BRANCH  11  19
ATOM     19  O   UNL A   1      30.650  29.070  21.962  1.00  0.00    -0.490 OA
ATOM     20  C   UNL A   1      29.775  30.188  21.836  1.00  0.00     0.278 C 
ENDBRANCH  11  19
BRANCH  13  21
ATOM     21  O   UNL A   1      32.745  27.813  23.530  1.00  0.00    -0.491 OA
ATOM     22  C   UNL A   1      33.362  27.554  22.283  1.00  0.00     0.278 C 
ENDBRANCH  13  21
BRANCH  16  23
ATOM     23  C   UNL A   1      33.248  25.998  25.936  1.00  0.00     0.158 C 
BRANCH  23  24
ATOM     24  C   UNL A   1      34.133  25.014  25.199  1.00  0.00    -0.028 A 
ATOM     25  C   UNL A   1      35.281  24.478  25.803  1.00  0.00     0.005 A 
ATOM     26  C   UNL A   1      33.862  24.660  23.874  1.00  0.00     0.005 A 
ATOM     27  C   UNL A   1      36.168  23.666  25.095  1.00  0.00     0.000 A 
ATOM     28  C   UNL A   1      34.725  23.808  23.176  1.00  0.00     0.000 A 
ATOM     29  C   UNL A   1      35.885  23.326  23.780  1.00  0.00     0.000 A 
ENDBRANCH  23  24
ENDBRANCH  16  23
ENDBRANCH   6   8
ENDBRANCH   5   6
ENDBRANCH   4   5
ENDBRANCH   3   4
ENDBRANCH   2   3
ENDBRANCH   1   2
BRANCH   1  30
ATOM     30  C   UNL A   1      36.175  19.898  24.597  1.00  0.00     0.188 C 
BRANCH  30  31
ATOM     31  O   UNL A   1      37.045  20.408  25.599  1.00  0.00    -0.376 OA
BRANCH  31  32
ATOM     32  C   UNL A   1      38.354  20.784  25.174  1.00  0.00     0.202 C 
BRANCH  32  33
ATOM     33  C   UNL A   1      39.481  20.032  25.891  1.00  0.00     0.261 C 
BRANCH  33  34
ATOM     34  O   UNL A   1      40.003  20.868  26.944  1.00  0.00    -0.460 OA
BRANCH  34  35
ATOM     35  C   UNL A   1      41.128  21.559  26.637  1.00  0.00     0.338 C 
ATOM     36  O   UNL A   1      41.965  21.248  25.802  1.00  0.00    -0.246 OA
BRANCH  35  37
ATOM     37  C   UNL A   1      41.018  22.911  27.248  1.00  0.00     0.060 A 
ATOM     38  C   UNL A   1      39.957  23.784  26.989  1.00  0.00     0.016 A 
ATOM     39  C   UNL A   1      42.104  23.370  27.990  1.00  0.00     0.016 A 
ATOM     40  C   UNL A   1      40.041  25.138  27.367  1.00  0.00     0.010 A 
ATOM     41  C   UNL A   1      42.141  24.699  28.426  1.00  0.00     0.010 A 
ATOM     42  C   UNL A   1      41.163  25.637  28.052  1.00  0.00    -0.014 A 
BRANCH  42  43
ATOM     43  C   UNL A   1      41.106  27.004  28.659  1.00  0.00     0.031 A 
ATOM     44  C   UNL A   1      42.256  27.775  28.164  1.00  0.00     0.074 A 
ATOM     45  C   UNL A   1      40.313  27.692  29.535  1.00  0.00     0.049 A 
ATOM     46  N   UNL A   1      43.275  28.057  28.900  1.00  0.00    -0.248 NA
ATOM     47  C   UNL A   1      42.400  28.094  26.744  1.00  0.00     0.031 C 
ATOM     48  C   UNL A   1      39.163  27.272  30.323  1.00  0.00     0.029 A 
ATOM     49  N   UNL A   1      40.338  29.043  29.850  1.00  0.00    -0.354 N 
ATOM     50  C   UNL A   1      44.104  28.803  28.098  1.00  0.00     0.074 A 
ATOM     51  C   UNL A   1      43.611  28.656  26.748  1.00  0.00     0.031 C 
ATOM     52  C   UNL A   1      38.406  28.323  30.710  1.00  0.00     0.029 A 
ATOM     53  C   UNL A   1      39.165  29.527  30.450  1.00  0.00     0.049 A 
ATOM     54  H   UNL A   1      41.117  29.617  29.668  1.00  0.00     0.167 HD
ATOM     55  C   UNL A   1      44.948  29.698  28.667  1.00  0.00     0.037 A 
ATOM     56  C   UNL A   1      38.864  30.776  30.897  1.00  0.00     0.037 A 
ATOM     57  C   UNL A   1      45.180  29.429  30.071  1.00  0.00     0.049 A 
ATOM     58  C   UNL A   1      40.144  31.332  31.372  1.00  0.00     0.074 A 
ATOM     59  C   UNL A   1      45.521  28.302  30.803  1.00  0.00     0.029 A 
ATOM     60  N   UNL A   1      44.731  30.331  31.004  1.00  0.00    -0.354 N 
ATOM     61  N   UNL A   1      40.725  30.961  32.478  1.00  0.00    -0.248 NA
ATOM     62  C   UNL A   1      40.969  32.089  30.448  1.00  0.00     0.031 C 
ATOM     63  C   UNL A   1      44.809  28.413  32.035  1.00  0.00     0.029 A 
ATOM     64  C   UNL A   1      44.114  29.620  32.003  1.00  0.00     0.049 A 
ATOM     65  H   UNL A   1      44.833  31.309  30.964  1.00  0.00     0.167 HD
ATOM     66  C   UNL A   1      42.069  30.985  32.163  1.00  0.00     0.074 A 
ATOM     67  C   UNL A   1      42.164  31.837  30.982  1.00  0.00     0.031 C 
ATOM     68  C   UNL A   1      42.931  30.073  32.698  1.00  0.00     0.037 A 
BRANCH  55  69
ATOM     69  C   UNL A   1      45.210  31.021  28.020  1.00  0.00     0.057 A 
ATOM     70  C   UNL A   1      44.198  31.962  27.731  1.00  0.00     0.134 A 
ATOM     71  C   UNL A   1      46.525  31.490  27.921  1.00  0.00     0.134 A 
ATOM     72  F   UNL A   1      42.898  31.697  27.920  1.00  0.00    -0.206 F 
ATOM     73  C   UNL A   1      44.475  33.269  27.337  1.00  0.00     0.040 A 
ATOM     74  C   UNL A   1      46.813  32.816  27.588  1.00  0.00     0.040 A 
ATOM     75  F   UNL A   1      47.560  30.696  28.230  1.00  0.00    -0.206 F 
ATOM     76  C   UNL A   1      45.786  33.708  27.290  1.00  0.00     0.006 A 
ENDBRANCH  55  69
BRANCH  56  77
ATOM     77  C   UNL A   1      37.587  31.532  31.047  1.00  0.00     0.057 A 
ATOM     78  C   UNL A   1      37.255  32.622  30.228  1.00  0.00     0.134 A 
ATOM     79  C   UNL A   1      36.804  31.398  32.210  1.00  0.00     0.134 A 
ATOM     80  F   UNL A   1      37.897  32.842  29.075  1.00  0.00    -0.206 F 
ATOM     81  C   UNL A   1      36.290  33.575  30.591  1.00  0.00     0.040 A 
ATOM     82  C   UNL A   1      35.827  32.336  32.579  1.00  0.00     0.040 A 
ATOM     83  F   UNL A   1      37.012  30.391  33.070  1.00  0.00    -0.206 F 
ATOM     84  C   UNL A   1      35.591  33.449  31.785  1.00  0.00     0.006 A 
ENDBRANCH  56  77
BRANCH  68  85
ATOM     85  C   UNL A   1      42.494  29.299  33.917  1.00  0.00     0.057 A 
ATOM     86  C   UNL A   1      42.910  29.749  35.177  1.00  0.00     0.134 A 
ATOM     87  C   UNL A   1      41.782  28.090  33.890  1.00  0.00     0.134 A 
ATOM     88  F   UNL A   1      43.634  30.873  35.288  1.00  0.00    -0.206 F 
ATOM     89  C   UNL A   1      42.623  29.044  36.351  1.00  0.00     0.040 A 
ATOM     90  C   UNL A   1      41.459  27.391  35.060  1.00  0.00     0.040 A 
ATOM     91  F   UNL A   1      41.417  27.524  32.734  1.00  0.00    -0.206 F 
ATOM     92  C   UNL A   1      41.885  27.866  36.296  1.00  0.00     0.006 A 
ENDBRANCH  68  85
ENDBRANCH  42  43
ENDBRANCH  35  37
ENDBRANCH  34  35
ENDBRANCH  33  34
ENDBRANCH  32  33
ENDBRANCH  31  32
ENDBRANCH  30  31
ENDBRANCH   1  30
TORSDOF 22
ENDMDL
MODEL 3
REMARK VINA RESULT:      -9.3      6.152     10.882
REMARK SMILES COc1cc2cc(C(=O)OCCOCCOCCOC(=O)c3ccc(-c4c5nc(c(-c6c(F)cccc6F)c6ccc([nH]6)c(-c6c(F)cccc6F)c6nc(c(-c7c(F)cccc7F)c7ccc4[nH]7)C=C6)C=C5)cc3)n(Cc3ccccc3)c2c(OC)c1OC
REMARK SMILES IDX 14 1 13 2 12 3 11 4 10 5 8 6 9 7 7 8 3 9 4 10 88 11 5 12
REMARK SMILES IDX 85 13 6 14 84 15 76 16 2 17 1 18 89 19 90 20 86 21 87 22
REMARK SMILES IDX 77 23 78 24 79 25 83 26 80 27 82 28 81 29 15 30 16 31 17 32
REMARK SMILES IDX 18 33 19 34 20 35 21 36 22 37 23 38 75 39 24 40 74 41 25 42
REMARK SMILES IDX 26 43 27 44 68 45 28 46 73 47 67 48 69 49 29 50 72 51 66 52
REMARK SMILES IDX 65 53 30 55 56 56 39 57 55 58 40 59 43 60 54 61 70 62 41 63
REMARK SMILES IDX 42 64 53 66 71 67 44 68 31 69 32 70 37 71 33 72 34 73 36 74
REMARK SMILES IDX 38 75 35 76 57 77 58 78 63 79 59 80 60 81 62 82 64 83 61 84
REMARK SMILES IDX 45 85 46 86 51 87 47 88 48 89 50 90 52 91 49 92
REMARK H PARENT 69 54 43 65
REMARK Flexibility Score: inf
ROOT
ATOM      1  C   UNL A   1      39.628  26.262  27.740  1.00  0.00     0.188 C 
ENDROOT
BRANCH   1   2
ATOM      2  O   UNL A   1      39.179  24.926  27.917  1.00  0.00    -0.376 OA
BRANCH   2   3
ATOM      3  C   UNL A   1      39.190  24.043  26.804  1.00  0.00     0.202 C 
BRANCH   3   4
ATOM      4  C   UNL A   1      37.838  23.824  26.117  1.00  0.00     0.261 C 
BRANCH   4   5
ATOM      5  O   UNL A   1      37.443  22.434  26.154  1.00  0.00    -0.459 OA
BRANCH   5   6
ATOM      6  C   UNL A   1      37.102  21.868  24.973  1.00  0.00     0.355 C 
ATOM      7  O   UNL A   1      37.727  20.948  24.444  1.00  0.00    -0.244 OA
BRANCH   6   8
ATOM      8  C   UNL A   1      35.821  22.344  24.491  1.00  0.00     0.129 A 
ATOM      9  C   UNL A   1      32.828  25.751  23.560  1.00  0.00     0.165 A 
ATOM     10  C   UNL A   1      33.987  25.152  23.089  1.00  0.00     0.061 A 
ATOM     11  C   UNL A   1      32.086  25.111  24.557  1.00  0.00     0.205 A 
ATOM     12  C   UNL A   1      34.467  23.935  23.617  1.00  0.00     0.008 A 
ATOM     13  C   UNL A   1      32.544  23.869  25.124  1.00  0.00     0.189 A 
ATOM     14  C   UNL A   1      35.636  23.158  23.396  1.00  0.00     0.044 A 
ATOM     15  C   UNL A   1      33.772  23.325  24.656  1.00  0.00     0.096 A 
ATOM     16  N   UNL A   1      34.545  22.208  25.013  1.00  0.00    -0.327 N 
BRANCH   9  17
ATOM     17  O   UNL A   1      32.379  26.885  22.923  1.00  0.00    -0.493 OA
ATOM     18  C   UNL A   1      32.570  28.096  23.661  1.00  0.00     0.278 C 
ENDBRANCH   9  17
BRANCH  11  19
ATOM     19  O   UNL A   1      30.872  25.606  24.984  1.00  0.00    -0.490 OA
ATOM     20  C   UNL A   1      29.794  25.614  24.051  1.00  0.00     0.278 C 
ENDBRANCH  11  19
BRANCH  13  21
ATOM     21  O   UNL A   1      31.928  23.146  26.107  1.00  0.00    -0.491 OA
ATOM     22  C   UNL A   1      30.746  22.435  25.791  1.00  0.00     0.278 C 
ENDBRANCH  13  21
BRANCH  16  23
ATOM     23  C   UNL A   1      34.114  21.039  25.765  1.00  0.00     0.158 C 
BRANCH  23  24
ATOM     24  C   UNL A   1      33.848  19.885  24.820  1.00  0.00    -0.028 A 
ATOM     25  C   UNL A   1      32.716  19.873  23.991  1.00  0.00     0.005 A 
ATOM     26  C   UNL A   1      34.694  18.772  24.793  1.00  0.00     0.005 A 
ATOM     27  C   UNL A   1      32.396  18.766  23.205  1.00  0.00     0.000 A 
ATOM     28  C   UNL A   1      34.401  17.679  23.970  1.00  0.00     0.000 A 
ATOM     29  C   UNL A   1      33.245  17.667  23.191  1.00  0.00     0.000 A 
ENDBRANCH  23  24
ENDBRANCH  16  23
ENDBRANCH   6   8
ENDBRANCH   5   6
ENDBRANCH   4   5
ENDBRANCH   3   4
ENDBRANCH   2   3
ENDBRANCH   1   2
BRANCH   1  30
ATOM     30  C   UNL A   1      39.307  27.305  28.820  1.00  0.00     0.188 C 
BRANCH  30  31
ATOM     31  O   UNL A   1      40.393  28.064  29.335  1.00  0.00    -0.376 OA
BRANCH  31  32
ATOM     32  C   UNL A   1      40.055  29.211  30.113  1.00  0.00     0.202 C 
BRANCH  32  33
ATOM     33  C   UNL A   1      40.817  30.480  29.715  1.00  0.00     0.261 C 
BRANCH  33  34
ATOM     34  O   UNL A   1      40.768  31.416  30.811  1.00  0.00    -0.460 OA
BRANCH  34  35
ATOM     35  C   UNL A   1      39.917  32.459  30.650  1.00  0.00     0.338 C 
ATOM     36  O   UNL A   1      38.783  32.546  31.099  1.00  0.00    -0.246 OA
BRANCH  35  37
ATOM     37  C   UNL A   1      40.695  33.608  30.114  1.00  0.00     0.060 A 
ATOM     38  C   UNL A   1      40.127  34.618  29.330  1.00  0.00     0.016 A 
ATOM     39  C   UNL A   1      42.078  33.583  30.284  1.00  0.00     0.016 A 
ATOM     40  C   UNL A   1      40.949  35.519  28.626  1.00  0.00     0.010 A 
ATOM     41  C   UNL A   1      42.879  34.531  29.640  1.00  0.00     0.010 A 
ATOM     42  C   UNL A   1      42.351  35.462  28.727  1.00  0.00    -0.014 A 
BRANCH  42  43
ATOM     43  C   UNL A   1      43.174  36.583  28.177  1.00  0.00     0.031 A 
ATOM     44  C   UNL A   1      44.497  36.050  27.819  1.00  0.00     0.074 A 
ATOM     45  C   UNL A   1      43.037  37.925  27.948  1.00  0.00     0.049 A 
ATOM     46  N   UNL A   1      45.558  36.300  28.507  1.00  0.00    -0.248 NA
ATOM     47  C   UNL A   1      44.650  35.039  26.774  1.00  0.00     0.031 C 
ATOM     48  C   UNL A   1      41.952  38.845  28.257  1.00  0.00     0.029 A 
ATOM     49  N   UNL A   1      43.886  38.778  27.259  1.00  0.00    -0.354 N 
ATOM     50  C   UNL A   1      46.577  35.659  27.843  1.00  0.00     0.074 A 
ATOM     51  C   UNL A   1      45.951  34.768  26.893  1.00  0.00     0.031 C 
ATOM     52  C   UNL A   1      42.005  39.960  27.495  1.00  0.00     0.029 A 
ATOM     53  C   UNL A   1      43.295  39.980  26.839  1.00  0.00     0.049 A 
ATOM     54  H   UNL A   1      44.828  38.559  27.078  1.00  0.00     0.167 HD
ATOM     55  C   UNL A   1      47.840  36.138  27.948  1.00  0.00     0.037 A 
ATOM     56  C   UNL A   1      43.836  41.032  26.167  1.00  0.00     0.037 A 
ATOM     57  C   UNL A   1      48.016  36.995  29.102  1.00  0.00     0.049 A 
ATOM     58  C   UNL A   1      45.240  41.091  26.614  1.00  0.00     0.074 A 
ATOM     59  C   UNL A   1      47.704  36.891  30.448  1.00  0.00     0.029 A 
ATOM     60  N   UNL A   1      48.287  38.327  28.906  1.00  0.00    -0.354 N 
ATOM     61  N   UNL A   1      45.604  41.517  27.790  1.00  0.00    -0.248 NA
ATOM     62  C   UNL A   1      46.248  40.363  25.865  1.00  0.00     0.031 C 
ATOM     63  C   UNL A   1      47.330  38.205  30.860  1.00  0.00     0.029 A 
ATOM     64  C   UNL A   1      47.480  39.041  29.757  1.00  0.00     0.049 A 
ATOM     65  H   UNL A   1      48.940  38.701  28.272  1.00  0.00     0.167 HD
ATOM     66  C   UNL A   1      46.662  40.693  28.121  1.00  0.00     0.074 A 
ATOM     67  C   UNL A   1      47.114  40.133  26.852  1.00  0.00     0.031 C 
ATOM     68  C   UNL A   1      46.872  40.307  29.413  1.00  0.00     0.037 A 
BRANCH  55  69
ATOM     69  C   UNL A   1      48.760  36.133  26.768  1.00  0.00     0.057 A 
ATOM     70  C   UNL A   1      48.469  36.783  25.549  1.00  0.00     0.134 A 
ATOM     71  C   UNL A   1      50.082  35.701  26.928  1.00  0.00     0.134 A 
ATOM     72  F   UNL A   1      47.288  37.372  25.314  1.00  0.00    -0.206 F 
ATOM     73  C   UNL A   1      49.417  36.959  24.544  1.00  0.00     0.040 A 
ATOM     74  C   UNL A   1      51.056  35.929  25.953  1.00  0.00     0.040 A 
ATOM     75  F   UNL A   1      50.480  35.125  28.071  1.00  0.00    -0.206 F 
ATOM     76  C   UNL A   1      50.724  36.555  24.755  1.00  0.00     0.006 A 
ENDBRANCH  55  69
BRANCH  56  77
ATOM     77  C   UNL A   1      43.274  42.058  25.242  1.00  0.00     0.057 A 
ATOM     78  C   UNL A   1      42.175  41.800  24.408  1.00  0.00     0.134 A 
ATOM     79  C   UNL A   1      44.004  43.220  24.927  1.00  0.00     0.134 A 
ATOM     80  F   UNL A   1      41.375  40.749  24.621  1.00  0.00    -0.206 F 
ATOM     81  C   UNL A   1      41.888  42.577  23.274  1.00  0.00     0.040 A 
ATOM     82  C   UNL A   1      43.721  44.013  23.803  1.00  0.00     0.040 A 
ATOM     83  F   UNL A   1      45.069  43.584  25.654  1.00  0.00    -0.206 F 
ATOM     84  C   UNL A   1      42.679  43.672  22.952  1.00  0.00     0.006 A 
ENDBRANCH  56  77
BRANCH  68  85
ATOM     85  C   UNL A   1      46.196  41.083  30.515  1.00  0.00     0.057 A 
ATOM     86  C   UNL A   1      46.926  42.083  31.171  1.00  0.00     0.134 A 
ATOM     87  C   UNL A   1      44.914  40.815  31.019  1.00  0.00     0.134 A 
ATOM     88  F   UNL A   1      48.177  42.372  30.781  1.00  0.00    -0.206 F 
ATOM     89  C   UNL A   1      46.406  42.791  32.260  1.00  0.00     0.040 A 
ATOM     90  C   UNL A   1      44.368  41.537  32.087  1.00  0.00     0.040 A 
ATOM     91  F   UNL A   1      44.169  39.818  30.526  1.00  0.00    -0.206 F 
ATOM     92  C   UNL A   1      45.117  42.527  32.714  1.00  0.00     0.006 A 
ENDBRANCH  68  85
ENDBRANCH  42  43
ENDBRANCH  35  37
ENDBRANCH  34  35
ENDBRANCH  33  34
ENDBRANCH  32  33
ENDBRANCH  31  32
ENDBRANCH  30  31
ENDBRANCH   1  30
TORSDOF 22
ENDMDL
