MODEL 1
REMARK VINA RESULT:     -11.7      0.000      0.000
REMARK SMILES Cc1cc(NC(=O)[C@H]2[C@@H](C(=O)OCCOCCOCCOC(=O)c3ccc(-c4c5nc(c(-c6c(F)cccc6F)c6ccc([nH]6)c(-c6c(F)cccc6F)c6nc(c(-c7c(F)cccc7F)c7ccc4[nH]7)C=C6)C=C5)cc3)C2(C)C)n(-c2ccc(F)cc2)n1
REMARK SMILES IDX 16 1 15 2 14 3 13 4 12 5 10 6 11 7 9 8 8 9 78 10 79 11 80 12
REMARK SMILES IDX 6 13 5 14 7 16 4 17 1 18 2 19 3 20 89 21 81 22 82 23 83 24
REMARK SMILES IDX 88 25 84 26 87 27 85 28 86 29 17 30 18 31 19 32 20 33 21 34
REMARK SMILES IDX 22 35 23 36 24 37 25 38 77 39 26 40 76 41 27 42 28 43 29 44
REMARK SMILES IDX 70 45 30 46 75 47 69 48 71 49 31 50 74 51 68 52 67 53 32 55
REMARK SMILES IDX 58 56 41 57 57 58 42 59 45 60 56 61 72 62 43 63 44 64 55 66
REMARK SMILES IDX 73 67 46 68 33 69 34 70 39 71 35 72 36 73 38 74 40 75 37 76
REMARK SMILES IDX 59 77 60 78 65 79 61 80 62 81 64 82 66 83 63 84 47 85 48 86
REMARK SMILES IDX 53 87 49 88 50 89 52 90 54 91 51 92
REMARK H PARENT 5 15 71 54 45 65
REMARK Flexibility Score: inf
ROOT
ATOM      1  C   UNL A   1      38.611  22.137  25.804  1.00  0.00     0.188 C 
ENDROOT
BRANCH   1   2
ATOM      2  O   UNL A   1      37.298  21.808  25.413  1.00  0.00    -0.376 OA
BRANCH   2   3
ATOM      3  C   UNL A   1      36.941  21.906  24.037  1.00  0.00     0.202 C 
BRANCH   3   4
ATOM      4  C   UNL A   1      35.936  22.968  23.537  1.00  0.00     0.261 C 
BRANCH   4   5
ATOM      5  O   UNL A   1      34.581  22.671  23.914  1.00  0.00    -0.463 OA
BRANCH   5   6
ATOM      6  C   UNL A   1      33.612  23.221  23.141  1.00  0.00     0.310 C 
ATOM      7  O   UNL A   1      33.352  22.926  21.985  1.00  0.00    -0.252 OA
BRANCH   6   8
ATOM      8  C   UNL A   1      32.623  23.980  23.942  1.00  0.00     0.118 C 
ATOM      9  C   UNL A   1      32.384  25.427  23.671  1.00  0.00     0.100 C 
ATOM     10  C   UNL A   1      32.849  24.992  25.061  1.00  0.00    -0.009 C 
ATOM     11  C   UNL A   1      34.248  25.316  25.520  1.00  0.00     0.013 C 
ATOM     12  C   UNL A   1      31.851  25.076  26.199  1.00  0.00     0.013 C 
BRANCH   9  13
ATOM     13  C   UNL A   1      33.211  26.248  22.795  1.00  0.00     0.230 C 
ATOM     14  N   UNL A   1      33.360  27.638  23.032  1.00  0.00    -0.310 N 
ATOM     15  H   UNL A   1      33.890  28.098  22.342  1.00  0.00     0.171 HD
ATOM     16  O   UNL A   1      33.918  25.797  21.920  1.00  0.00    -0.274 OA
BRANCH  14  17
ATOM     17  C   UNL A   1      32.911  28.488  24.042  1.00  0.00     0.136 A 
ATOM     18  C   UNL A   1      33.773  30.368  27.075  1.00  0.00     0.069 C 
ATOM     19  C   UNL A   1      33.197  29.738  25.865  1.00  0.00     0.062 A 
ATOM     20  C   UNL A   1      33.869  28.944  24.927  1.00  0.00     0.072 A 
ATOM     21  N   UNL A   1      31.906  29.864  25.564  1.00  0.00    -0.171 NA
ATOM     22  N   UNL A   1      31.712  29.087  24.469  1.00  0.00    -0.217 N 
BRANCH  22  23
ATOM     23  C   UNL A   1      30.404  29.061  23.938  1.00  0.00     0.067 A 
ATOM     24  C   UNL A   1      29.759  30.274  23.665  1.00  0.00     0.031 A 
ATOM     25  C   UNL A   1      29.799  27.851  23.581  1.00  0.00     0.031 A 
ATOM     26  C   UNL A   1      28.418  30.270  23.267  1.00  0.00     0.041 A 
ATOM     27  C   UNL A   1      28.476  27.859  23.119  1.00  0.00     0.041 A 
ATOM     28  C   UNL A   1      27.782  29.062  23.021  1.00  0.00     0.123 A 
ATOM     29  F   UNL A   1      26.487  29.058  22.680  1.00  0.00    -0.207 F 
ENDBRANCH  22  23
ENDBRANCH  14  17
ENDBRANCH   9  13
ENDBRANCH   6   8
ENDBRANCH   5   6
ENDBRANCH   4   5
ENDBRANCH   3   4
ENDBRANCH   2   3
ENDBRANCH   1   2
BRANCH   1  30
ATOM     30  C   UNL A   1      39.549  20.983  26.173  1.00  0.00     0.188 C 
BRANCH  30  31
ATOM     31  O   UNL A   1      40.468  20.984  27.252  1.00  0.00    -0.376 OA
BRANCH  31  32
ATOM     32  C   UNL A   1      41.716  20.302  27.289  1.00  0.00     0.202 C 
BRANCH  32  33
ATOM     33  C   UNL A   1      42.071  19.195  26.300  1.00  0.00     0.261 C 
BRANCH  33  34
ATOM     34  O   UNL A   1      42.593  19.690  25.096  1.00  0.00    -0.460 OA
BRANCH  34  35
ATOM     35  C   UNL A   1      43.934  19.556  25.009  1.00  0.00     0.338 C 
ATOM     36  O   UNL A   1      44.591  18.531  25.010  1.00  0.00    -0.246 OA
BRANCH  35  37
ATOM     37  C   UNL A   1      44.487  20.907  24.878  1.00  0.00     0.060 A 
ATOM     38  C   UNL A   1      45.654  21.162  25.594  1.00  0.00     0.016 A 
ATOM     39  C   UNL A   1      43.654  21.913  24.378  1.00  0.00     0.016 A 
ATOM     40  C   UNL A   1      45.750  22.389  26.184  1.00  0.00     0.010 A 
ATOM     41  C   UNL A   1      43.713  23.111  25.012  1.00  0.00     0.010 A 
ATOM     42  C   UNL A   1      44.684  23.268  25.997  1.00  0.00    -0.014 A 
BRANCH  42  43
ATOM     43  C   UNL A   1      44.588  24.420  26.852  1.00  0.00     0.031 A 
ATOM     44  C   UNL A   1      45.811  25.225  26.747  1.00  0.00     0.074 A 
ATOM     45  C   UNL A   1      43.440  24.699  27.497  1.00  0.00     0.049 A 
ATOM     46  N   UNL A   1      46.796  25.263  27.581  1.00  0.00    -0.248 NA
ATOM     47  C   UNL A   1      46.117  25.822  25.433  1.00  0.00     0.031 C 
ATOM     48  C   UNL A   1      42.142  24.026  27.336  1.00  0.00     0.029 A 
ATOM     49  N   UNL A   1      43.154  25.726  28.344  1.00  0.00    -0.354 N 
ATOM     50  C   UNL A   1      47.681  26.166  27.005  1.00  0.00     0.074 A 
ATOM     51  C   UNL A   1      47.393  26.172  25.602  1.00  0.00     0.031 C 
ATOM     52  C   UNL A   1      41.169  24.800  27.868  1.00  0.00     0.029 A 
ATOM     53  C   UNL A   1      41.787  25.939  28.521  1.00  0.00     0.049 A 
ATOM     54  H   UNL A   1      43.846  26.267  28.789  1.00  0.00     0.167 HD
ATOM     55  C   UNL A   1      48.192  27.172  27.765  1.00  0.00     0.037 A 
ATOM     56  C   UNL A   1      41.236  27.035  29.098  1.00  0.00     0.037 A 
ATOM     57  C   UNL A   1      48.012  26.882  29.166  1.00  0.00     0.049 A 
ATOM     58  C   UNL A   1      42.302  27.693  29.894  1.00  0.00     0.074 A 
ATOM     59  C   UNL A   1      48.568  26.026  30.090  1.00  0.00     0.029 A 
ATOM     60  N   UNL A   1      46.796  27.283  29.656  1.00  0.00    -0.354 N 
ATOM     61  N   UNL A   1      42.832  27.158  30.959  1.00  0.00    -0.248 NA
ATOM     62  C   UNL A   1      43.076  28.772  29.287  1.00  0.00     0.031 C 
ATOM     63  C   UNL A   1      47.592  25.855  31.116  1.00  0.00     0.029 A 
ATOM     64  C   UNL A   1      46.481  26.640  30.820  1.00  0.00     0.049 A 
ATOM     65  H   UNL A   1      46.220  27.953  29.222  1.00  0.00     0.167 HD
ATOM     66  C   UNL A   1      44.163  27.526  30.902  1.00  0.00     0.074 A 
ATOM     67  C   UNL A   1      44.220  28.641  29.965  1.00  0.00     0.031 C 
ATOM     68  C   UNL A   1      45.135  26.682  31.348  1.00  0.00     0.037 A 
BRANCH  55  69
ATOM     69  C   UNL A   1      48.333  28.607  27.289  1.00  0.00     0.057 A 
ATOM     70  C   UNL A   1      49.598  29.211  27.387  1.00  0.00     0.134 A 
ATOM     71  C   UNL A   1      47.271  29.502  27.024  1.00  0.00     0.134 A 
ATOM     72  F   UNL A   1      50.690  28.476  27.647  1.00  0.00    -0.206 F 
ATOM     73  C   UNL A   1      49.779  30.597  27.298  1.00  0.00     0.040 A 
ATOM     74  C   UNL A   1      47.449  30.880  26.885  1.00  0.00     0.040 A 
ATOM     75  F   UNL A   1      45.989  29.131  26.976  1.00  0.00    -0.206 F 
ATOM     76  C   UNL A   1      48.701  31.437  27.052  1.00  0.00     0.006 A 
ENDBRANCH  55  69
BRANCH  56  77
ATOM     77  C   UNL A   1      39.958  27.708  28.787  1.00  0.00     0.057 A 
ATOM     78  C   UNL A   1      38.944  27.831  29.746  1.00  0.00     0.134 A 
ATOM     79  C   UNL A   1      39.815  28.493  27.629  1.00  0.00     0.134 A 
ATOM     80  F   UNL A   1      39.015  27.150  30.899  1.00  0.00    -0.206 F 
ATOM     81  C   UNL A   1      37.860  28.703  29.577  1.00  0.00     0.040 A 
ATOM     82  C   UNL A   1      38.738  29.367  27.447  1.00  0.00     0.040 A 
ATOM     83  F   UNL A   1      40.765  28.507  26.684  1.00  0.00    -0.206 F 
ATOM     84  C   UNL A   1      37.762  29.485  28.429  1.00  0.00     0.006 A 
ENDBRANCH  56  77
BRANCH  68  85
ATOM     85  C   UNL A   1      44.741  25.637  32.341  1.00  0.00     0.057 A 
ATOM     86  C   UNL A   1      44.406  24.315  32.020  1.00  0.00     0.134 A 
ATOM     87  C   UNL A   1      44.798  25.972  33.698  1.00  0.00     0.134 A 
ATOM     88  F   UNL A   1      44.396  23.893  30.747  1.00  0.00    -0.206 F 
ATOM     89  C   UNL A   1      44.114  23.375  33.014  1.00  0.00     0.040 A 
ATOM     90  C   UNL A   1      44.542  25.037  34.699  1.00  0.00     0.040 A 
ATOM     91  F   UNL A   1      45.151  27.212  34.071  1.00  0.00    -0.206 F 
ATOM     92  C   UNL A   1      44.191  23.734  34.358  1.00  0.00     0.006 A 
ENDBRANCH  68  85
ENDBRANCH  42  43
ENDBRANCH  35  37
ENDBRANCH  34  35
ENDBRANCH  33  34
ENDBRANCH  32  33
ENDBRANCH  31  32
ENDBRANCH  30  31
ENDBRANCH   1  30
TORSDOF 20
ENDMDL
MODEL 2
REMARK VINA RESULT:     -11.6      1.186      2.065
REMARK SMILES Cc1cc(NC(=O)[C@H]2[C@@H](C(=O)OCCOCCOCCOC(=O)c3ccc(-c4c5nc(c(-c6c(F)cccc6F)c6ccc([nH]6)c(-c6c(F)cccc6F)c6nc(c(-c7c(F)cccc7F)c7ccc4[nH]7)C=C6)C=C5)cc3)C2(C)C)n(-c2ccc(F)cc2)n1
REMARK SMILES IDX 16 1 15 2 14 3 13 4 12 5 10 6 11 7 9 8 8 9 78 10 79 11 80 12
REMARK SMILES IDX 6 13 5 14 7 16 4 17 1 18 2 19 3 20 89 21 81 22 82 23 83 24
REMARK SMILES IDX 88 25 84 26 87 27 85 28 86 29 17 30 18 31 19 32 20 33 21 34
REMARK SMILES IDX 22 35 23 36 24 37 25 38 77 39 26 40 76 41 27 42 28 43 29 44
REMARK SMILES IDX 70 45 30 46 75 47 69 48 71 49 31 50 74 51 68 52 67 53 32 55
REMARK SMILES IDX 58 56 41 57 57 58 42 59 45 60 56 61 72 62 43 63 44 64 55 66
REMARK SMILES IDX 73 67 46 68 33 69 34 70 39 71 35 72 36 73 38 74 40 75 37 76
REMARK SMILES IDX 59 77 60 78 65 79 61 80 62 81 64 82 66 83 63 84 47 85 48 86
REMARK SMILES IDX 53 87 49 88 50 89 52 90 54 91 51 92
REMARK H PARENT 5 15 71 54 45 65
REMARK Flexibility Score: inf
ROOT
ATOM      1  C   UNL A   1      38.629  22.184  25.772  1.00  0.00     0.188 C 
ENDROOT
BRANCH   1   2
ATOM      2  O   UNL A   1      37.322  21.843  25.371  1.00  0.00    -0.376 OA
BRANCH   2   3
ATOM      3  C   UNL A   1      36.951  22.010  24.006  1.00  0.00     0.202 C 
BRANCH   3   4
ATOM      4  C   UNL A   1      35.881  23.040  23.581  1.00  0.00     0.261 C 
BRANCH   4   5
ATOM      5  O   UNL A   1      34.556  22.668  23.995  1.00  0.00    -0.463 OA
BRANCH   5   6
ATOM      6  C   UNL A   1      33.542  23.071  23.189  1.00  0.00     0.310 C 
ATOM      7  O   UNL A   1      33.294  22.648  22.070  1.00  0.00    -0.252 OA
BRANCH   6   8
ATOM      8  C   UNL A   1      32.508  23.831  23.930  1.00  0.00     0.118 C 
ATOM      9  C   UNL A   1      32.066  25.171  23.447  1.00  0.00     0.100 C 
ATOM     10  C   UNL A   1      32.661  25.038  24.849  1.00  0.00    -0.009 C 
ATOM     11  C   UNL A   1      34.029  25.602  25.140  1.00  0.00     0.013 C 
ATOM     12  C   UNL A   1      31.726  25.194  26.032  1.00  0.00     0.013 C 
BRANCH   9  13
ATOM     13  C   UNL A   1      32.728  25.924  22.389  1.00  0.00     0.230 C 
ATOM     14  N   UNL A   1      32.392  27.280  22.144  1.00  0.00    -0.310 N 
ATOM     15  H   UNL A   1      32.858  27.664  21.367  1.00  0.00     0.171 HD
ATOM     16  O   UNL A   1      33.677  25.508  21.760  1.00  0.00    -0.274 OA
BRANCH  14  17
ATOM     17  C   UNL A   1      31.537  28.180  22.777  1.00  0.00     0.136 A 
ATOM     18  C   UNL A   1      28.469  30.181  22.535  1.00  0.00     0.069 C 
ATOM     19  C   UNL A   1      29.706  29.446  22.885  1.00  0.00     0.062 A 
ATOM     20  C   UNL A   1      30.384  28.513  22.091  1.00  0.00     0.072 A 
ATOM     21  N   UNL A   1      30.325  29.643  24.048  1.00  0.00    -0.171 NA
ATOM     22  N   UNL A   1      31.456  28.896  23.986  1.00  0.00    -0.217 N 
BRANCH  22  23
ATOM     23  C   UNL A   1      32.294  28.924  25.122  1.00  0.00     0.067 A 
ATOM     24  C   UNL A   1      31.723  28.751  26.389  1.00  0.00     0.031 A 
ATOM     25  C   UNL A   1      33.684  29.009  24.986  1.00  0.00     0.031 A 
ATOM     26  C   UNL A   1      32.514  28.909  27.531  1.00  0.00     0.041 A 
ATOM     27  C   UNL A   1      34.478  29.102  26.137  1.00  0.00     0.041 A 
ATOM     28  C   UNL A   1      33.881  29.107  27.394  1.00  0.00     0.123 A 
ATOM     29  F   UNL A   1      34.629  29.300  28.488  1.00  0.00    -0.207 F 
ENDBRANCH  22  23
ENDBRANCH  14  17
ENDBRANCH   9  13
ENDBRANCH   6   8
ENDBRANCH   5   6
ENDBRANCH   4   5
ENDBRANCH   3   4
ENDBRANCH   2   3
ENDBRANCH   1   2
BRANCH   1  30
ATOM     30  C   UNL A   1      39.583  21.038  26.122  1.00  0.00     0.188 C 
BRANCH  30  31
ATOM     31  O   UNL A   1      40.510  21.040  27.196  1.00  0.00    -0.376 OA
BRANCH  31  32
ATOM     32  C   UNL A   1      41.745  20.336  27.235  1.00  0.00     0.202 C 
BRANCH  32  33
ATOM     33  C   UNL A   1      42.088  19.230  26.240  1.00  0.00     0.261 C 
BRANCH  33  34
ATOM     34  O   UNL A   1      42.626  19.725  25.043  1.00  0.00    -0.460 OA
BRANCH  34  35
ATOM     35  C   UNL A   1      43.966  19.579  24.968  1.00  0.00     0.338 C 
ATOM     36  O   UNL A   1      44.614  18.549  24.972  1.00  0.00    -0.246 OA
BRANCH  35  37
ATOM     37  C   UNL A   1      44.533  20.926  24.850  1.00  0.00     0.060 A 
ATOM     38  C   UNL A   1      45.693  21.168  25.581  1.00  0.00     0.016 A 
ATOM     39  C   UNL A   1      43.714  21.940  24.342  1.00  0.00     0.016 A 
ATOM     40  C   UNL A   1      45.792  22.392  26.176  1.00  0.00     0.010 A 
ATOM     41  C   UNL A   1      43.776  23.136  24.981  1.00  0.00     0.010 A 
ATOM     42  C   UNL A   1      44.736  23.281  25.979  1.00  0.00    -0.014 A 
BRANCH  42  43
ATOM     43  C   UNL A   1      44.640  24.431  26.836  1.00  0.00     0.031 A 
ATOM     44  C   UNL A   1      45.865  25.233  26.739  1.00  0.00     0.074 A 
ATOM     45  C   UNL A   1      43.489  24.712  27.477  1.00  0.00     0.049 A 
ATOM     46  N   UNL A   1      46.846  25.266  27.578  1.00  0.00    -0.248 NA
ATOM     47  C   UNL A   1      46.179  25.833  25.428  1.00  0.00     0.031 C 
ATOM     48  C   UNL A   1      42.190  24.043  27.308  1.00  0.00     0.029 A 
ATOM     49  N   UNL A   1      43.202  25.737  28.325  1.00  0.00    -0.354 N 
ATOM     50  C   UNL A   1      47.736  26.169  27.008  1.00  0.00     0.074 A 
ATOM     51  C   UNL A   1      47.454  26.178  25.603  1.00  0.00     0.031 C 
ATOM     52  C   UNL A   1      41.216  24.818  27.838  1.00  0.00     0.029 A 
ATOM     53  C   UNL A   1      41.834  25.953  28.496  1.00  0.00     0.049 A 
ATOM     54  H   UNL A   1      43.893  26.275  28.774  1.00  0.00     0.167 HD
ATOM     55  C   UNL A   1      48.247  27.171  27.772  1.00  0.00     0.037 A 
ATOM     56  C   UNL A   1      41.284  27.049  29.074  1.00  0.00     0.037 A 
ATOM     57  C   UNL A   1      48.059  26.877  29.172  1.00  0.00     0.049 A 
ATOM     58  C   UNL A   1      42.348  27.703  29.876  1.00  0.00     0.074 A 
ATOM     59  C   UNL A   1      48.609  26.018  30.097  1.00  0.00     0.029 A 
ATOM     60  N   UNL A   1      46.842  27.281  29.658  1.00  0.00    -0.354 N 
ATOM     61  N   UNL A   1      42.872  27.164  30.942  1.00  0.00    -0.248 NA
ATOM     62  C   UNL A   1      43.128  28.781  29.275  1.00  0.00     0.031 C 
ATOM     63  C   UNL A   1      47.627  25.846  31.117  1.00  0.00     0.029 A 
ATOM     64  C   UNL A   1      46.520  26.636  30.819  1.00  0.00     0.049 A 
ATOM     65  H   UNL A   1      46.270  27.954  29.223  1.00  0.00     0.167 HD
ATOM     66  C   UNL A   1      44.204  27.528  30.893  1.00  0.00     0.074 A 
ATOM     67  C   UNL A   1      44.268  28.645  29.959  1.00  0.00     0.031 C 
ATOM     68  C   UNL A   1      45.172  26.679  31.340  1.00  0.00     0.037 A 
BRANCH  55  69
ATOM     69  C   UNL A   1      48.394  28.607  27.301  1.00  0.00     0.057 A 
ATOM     70  C   UNL A   1      49.659  29.207  27.408  1.00  0.00     0.134 A 
ATOM     71  C   UNL A   1      47.336  29.504  27.032  1.00  0.00     0.134 A 
ATOM     72  F   UNL A   1      50.748  28.470  27.673  1.00  0.00    -0.206 F 
ATOM     73  C   UNL A   1      49.843  30.593  27.324  1.00  0.00     0.040 A 
ATOM     74  C   UNL A   1      47.517  30.883  26.897  1.00  0.00     0.040 A 
ATOM     75  F   UNL A   1      46.053  29.137  26.975  1.00  0.00    -0.206 F 
ATOM     76  C   UNL A   1      48.769  31.437  27.074  1.00  0.00     0.006 A 
ENDBRANCH  55  69
BRANCH  56  77
ATOM     77  C   UNL A   1      40.009  27.727  28.758  1.00  0.00     0.057 A 
ATOM     78  C   UNL A   1      38.995  27.858  29.716  1.00  0.00     0.134 A 
ATOM     79  C   UNL A   1      39.871  28.508  27.598  1.00  0.00     0.134 A 
ATOM     80  F   UNL A   1      39.061  27.182  30.872  1.00  0.00    -0.206 F 
ATOM     81  C   UNL A   1      37.915  28.734  29.542  1.00  0.00     0.040 A 
ATOM     82  C   UNL A   1      38.798  29.386  27.411  1.00  0.00     0.040 A 
ATOM     83  F   UNL A   1      40.822  28.513  26.653  1.00  0.00    -0.206 F 
ATOM     84  C   UNL A   1      37.821  29.511  28.390  1.00  0.00     0.006 A 
ENDBRANCH  56  77
BRANCH  68  85
ATOM     85  C   UNL A   1      44.770  25.633  32.329  1.00  0.00     0.057 A 
ATOM     86  C   UNL A   1      44.437  24.312  32.003  1.00  0.00     0.134 A 
ATOM     87  C   UNL A   1      44.818  25.966  33.687  1.00  0.00     0.134 A 
ATOM     88  F   UNL A   1      44.436  23.893  30.730  1.00  0.00    -0.206 F 
ATOM     89  C   UNL A   1      44.138  23.370  32.993  1.00  0.00     0.040 A 
ATOM     90  C   UNL A   1      44.554  25.029  34.685  1.00  0.00     0.040 A 
ATOM     91  F   UNL A   1      45.169  27.205  34.065  1.00  0.00    -0.206 F 
ATOM     92  C   UNL A   1      44.205  23.727  34.339  1.00  0.00     0.006 A 
ENDBRANCH  68  85
ENDBRANCH  42  43
ENDBRANCH  35  37
ENDBRANCH  34  35
ENDBRANCH  33  34
ENDBRANCH  32  33
ENDBRANCH  31  32
ENDBRANCH  30  31
ENDBRANCH   1  30
TORSDOF 20
ENDMDL
MODEL 3
REMARK VINA RESULT:     -11.3      5.498     10.782
REMARK SMILES Cc1cc(NC(=O)[C@H]2[C@@H](C(=O)OCCOCCOCCOC(=O)c3ccc(-c4c5nc(c(-c6c(F)cccc6F)c6ccc([nH]6)c(-c6c(F)cccc6F)c6nc(c(-c7c(F)cccc7F)c7ccc4[nH]7)C=C6)C=C5)cc3)C2(C)C)n(-c2ccc(F)cc2)n1
REMARK SMILES IDX 16 1 15 2 14 3 13 4 12 5 10 6 11 7 9 8 8 9 78 10 79 11 80 12
REMARK SMILES IDX 6 13 5 14 7 16 4 17 1 18 2 19 3 20 89 21 81 22 82 23 83 24
REMARK SMILES IDX 88 25 84 26 87 27 85 28 86 29 17 30 18 31 19 32 20 33 21 34
REMARK SMILES IDX 22 35 23 36 24 37 25 38 77 39 26 40 76 41 27 42 28 43 29 44
REMARK SMILES IDX 70 45 30 46 75 47 69 48 71 49 31 50 74 51 68 52 67 53 32 55
REMARK SMILES IDX 58 56 41 57 57 58 42 59 45 60 56 61 72 62 43 63 44 64 55 66
REMARK SMILES IDX 73 67 46 68 33 69 34 70 39 71 35 72 36 73 38 74 40 75 37 76
REMARK SMILES IDX 59 77 60 78 65 79 61 80 62 81 64 82 66 83 63 84 47 85 48 86
REMARK SMILES IDX 53 87 49 88 50 89 52 90 54 91 51 92
REMARK H PARENT 5 15 71 54 45 65
REMARK Flexibility Score: inf
ROOT
ATOM      1  C   UNL A   1      33.910  30.317  27.248  1.00  0.00     0.188 C 
ENDROOT
BRANCH   1   2
ATOM      2  O   UNL A   1      32.965  30.431  26.210  1.00  0.00    -0.376 OA
BRANCH   2   3
ATOM      3  C   UNL A   1      31.832  29.567  26.208  1.00  0.00     0.202 C 
BRANCH   3   4
ATOM      4  C   UNL A   1      31.955  28.073  26.585  1.00  0.00     0.261 C 
BRANCH   4   5
ATOM      5  O   UNL A   1      31.529  27.197  25.529  1.00  0.00    -0.463 OA
BRANCH   5   6
ATOM      6  C   UNL A   1      30.975  26.020  25.915  1.00  0.00     0.310 C 
ATOM      7  O   UNL A   1      29.880  25.592  25.586  1.00  0.00    -0.252 OA
BRANCH   6   8
ATOM      8  C   UNL A   1      31.977  25.097  26.497  1.00  0.00     0.118 C 
ATOM      9  C   UNL A   1      32.831  24.255  25.611  1.00  0.00     0.100 C 
ATOM     10  C   UNL A   1      31.930  23.580  26.645  1.00  0.00    -0.009 C 
ATOM     11  C   UNL A   1      30.715  22.810  26.194  1.00  0.00     0.013 C 
ATOM     12  C   UNL A   1      32.594  22.930  27.843  1.00  0.00     0.013 C 
BRANCH   9  13
ATOM     13  C   UNL A   1      32.623  24.096  24.176  1.00  0.00     0.230 C 
ATOM     14  N   UNL A   1      32.932  22.873  23.530  1.00  0.00    -0.310 N 
ATOM     15  H   UNL A   1      32.810  22.904  22.553  1.00  0.00     0.171 HD
ATOM     16  O   UNL A   1      32.060  24.916  23.484  1.00  0.00    -0.274 OA
BRANCH  14  17
ATOM     17  C   UNL A   1      33.374  21.634  23.991  1.00  0.00     0.136 A 
ATOM     18  C   UNL A   1      32.558  18.097  24.535  1.00  0.00     0.069 C 
ATOM     19  C   UNL A   1      33.132  19.453  24.381  1.00  0.00     0.062 A 
ATOM     20  C   UNL A   1      32.507  20.573  23.816  1.00  0.00     0.072 A 
ATOM     21  N   UNL A   1      34.357  19.742  24.815  1.00  0.00    -0.171 NA
ATOM     22  N   UNL A   1      34.510  21.075  24.606  1.00  0.00    -0.217 N 
BRANCH  22  23
ATOM     23  C   UNL A   1      35.752  21.633  24.978  1.00  0.00     0.067 A 
ATOM     24  C   UNL A   1      36.904  20.843  24.886  1.00  0.00     0.031 A 
ATOM     25  C   UNL A   1      35.855  22.985  25.324  1.00  0.00     0.031 A 
ATOM     26  C   UNL A   1      38.119  21.333  25.375  1.00  0.00     0.041 A 
ATOM     27  C   UNL A   1      37.092  23.488  25.751  1.00  0.00     0.041 A 
ATOM     28  C   UNL A   1      38.196  22.644  25.825  1.00  0.00     0.123 A 
ATOM     29  F   UNL A   1      39.350  23.098  26.331  1.00  0.00    -0.207 F 
ENDBRANCH  22  23
ENDBRANCH  14  17
ENDBRANCH   9  13
ENDBRANCH   6   8
ENDBRANCH   5   6
ENDBRANCH   4   5
ENDBRANCH   3   4
ENDBRANCH   2   3
ENDBRANCH   1   2
BRANCH   1  30
ATOM     30  C   UNL A   1      34.414  31.614  27.891  1.00  0.00     0.188 C 
BRANCH  30  31
ATOM     31  O   UNL A   1      33.651  32.797  28.060  1.00  0.00    -0.376 OA
BRANCH  31  32
ATOM     32  C   UNL A   1      34.155  34.127  28.037  1.00  0.00     0.202 C 
BRANCH  32  33
ATOM     33  C   UNL A   1      33.920  35.110  29.180  1.00  0.00     0.261 C 
BRANCH  33  34
ATOM     34  O   UNL A   1      33.154  34.562  30.218  1.00  0.00    -0.460 OA
BRANCH  34  35
ATOM     35  C   UNL A   1      33.154  35.324  31.332  1.00  0.00     0.338 C 
ATOM     36  O   UNL A   1      32.492  36.319  31.566  1.00  0.00    -0.246 OA
BRANCH  35  37
ATOM     37  C   UNL A   1      34.106  34.712  32.264  1.00  0.00     0.060 A 
ATOM     38  C   UNL A   1      35.143  35.530  32.704  1.00  0.00     0.016 A 
ATOM     39  C   UNL A   1      34.133  33.317  32.353  1.00  0.00     0.016 A 
ATOM     40  C   UNL A   1      36.371  34.946  32.819  1.00  0.00     0.010 A 
ATOM     41  C   UNL A   1      35.361  32.743  32.406  1.00  0.00     0.010 A 
ATOM     42  C   UNL A   1      36.461  33.590  32.504  1.00  0.00    -0.014 A 
BRANCH  42  43
ATOM     43  C   UNL A   1      37.764  33.021  32.294  1.00  0.00     0.031 A 
ATOM     44  C   UNL A   1      38.559  33.117  33.523  1.00  0.00     0.074 A 
ATOM     45  C   UNL A   1      38.055  32.388  31.142  1.00  0.00     0.049 A 
ATOM     46  N   UNL A   1      39.485  33.975  33.790  1.00  0.00    -0.248 NA
ATOM     47  C   UNL A   1      38.070  32.378  34.704  1.00  0.00     0.031 C 
ATOM     48  C   UNL A   1      37.127  32.053  30.051  1.00  0.00     0.029 A 
ATOM     49  N   UNL A   1      39.217  31.794  30.753  1.00  0.00    -0.354 N 
ATOM     50  C   UNL A   1      39.897  33.628  35.072  1.00  0.00     0.074 A 
ATOM     51  C   UNL A   1      38.797  32.935  35.673  1.00  0.00     0.031 C 
ATOM     52  C   UNL A   1      37.695  31.123  29.249  1.00  0.00     0.029 A 
ATOM     53  C   UNL A   1      39.061  30.906  29.688  1.00  0.00     0.049 A 
ATOM     54  H   UNL A   1      40.084  31.973  31.182  1.00  0.00     0.167 HD
ATOM     55  C   UNL A   1      41.225  33.484  35.327  1.00  0.00     0.037 A 
ATOM     56  C   UNL A   1      39.990  30.008  29.279  1.00  0.00     0.037 A 
ATOM     57  C   UNL A   1      42.004  34.108  34.286  1.00  0.00     0.049 A 
ATOM     58  C   UNL A   1      41.298  30.452  29.822  1.00  0.00     0.074 A 
ATOM     59  C   UNL A   1      42.313  35.393  33.901  1.00  0.00     0.029 A 
ATOM     60  N   UNL A   1      42.238  33.289  33.211  1.00  0.00    -0.354 N 
ATOM     61  N   UNL A   1      41.899  31.543  29.435  1.00  0.00    -0.248 NA
ATOM     62  C   UNL A   1      41.762  29.902  31.092  1.00  0.00     0.031 C 
ATOM     63  C   UNL A   1      42.652  35.326  32.517  1.00  0.00     0.029 A 
ATOM     64  C   UNL A   1      42.587  34.000  32.098  1.00  0.00     0.049 A 
ATOM     65  H   UNL A   1      42.164  32.307  33.239  1.00  0.00     0.167 HD
ATOM     66  C   UNL A   1      42.490  32.035  30.582  1.00  0.00     0.074 A 
ATOM     67  C   UNL A   1      42.520  30.917  31.517  1.00  0.00     0.031 C 
ATOM     68  C   UNL A   1      42.585  33.379  30.792  1.00  0.00     0.037 A 
BRANCH  55  69
ATOM     69  C   UNL A   1      41.812  32.355  36.155  1.00  0.00     0.057 A 
ATOM     70  C   UNL A   1      42.677  32.695  37.210  1.00  0.00     0.134 A 
ATOM     71  C   UNL A   1      41.816  30.985  35.807  1.00  0.00     0.134 A 
ATOM     72  F   UNL A   1      42.778  33.964  37.632  1.00  0.00    -0.206 F 
ATOM     73  C   UNL A   1      43.523  31.759  37.818  1.00  0.00     0.040 A 
ATOM     74  C   UNL A   1      42.621  30.037  36.441  1.00  0.00     0.040 A 
ATOM     75  F   UNL A   1      41.124  30.483  34.781  1.00  0.00    -0.206 F 
ATOM     76  C   UNL A   1      43.503  30.426  37.430  1.00  0.00     0.006 A 
ENDBRANCH  55  69
BRANCH  56  77
ATOM     77  C   UNL A   1      39.793  28.659  28.708  1.00  0.00     0.057 A 
ATOM     78  C   UNL A   1      40.269  28.329  27.432  1.00  0.00     0.134 A 
ATOM     79  C   UNL A   1      39.384  27.583  29.515  1.00  0.00     0.134 A 
ATOM     80  F   UNL A   1      40.717  29.285  26.607  1.00  0.00    -0.206 F 
ATOM     81  C   UNL A   1      40.355  27.002  26.990  1.00  0.00     0.040 A 
ATOM     82  C   UNL A   1      39.464  26.254  29.086  1.00  0.00     0.040 A 
ATOM     83  F   UNL A   1      38.982  27.782  30.778  1.00  0.00    -0.206 F 
ATOM     84  C   UNL A   1      39.963  25.958  27.824  1.00  0.00     0.006 A 
ENDBRANCH  56  77
BRANCH  68  85
ATOM     85  C   UNL A   1      42.538  34.270  29.593  1.00  0.00     0.057 A 
ATOM     86  C   UNL A   1      41.390  34.928  29.133  1.00  0.00     0.134 A 
ATOM     87  C   UNL A   1      43.741  34.544  28.935  1.00  0.00     0.134 A 
ATOM     88  F   UNL A   1      40.210  34.776  29.751  1.00  0.00    -0.206 F 
ATOM     89  C   UNL A   1      41.439  35.803  28.042  1.00  0.00     0.040 A 
ATOM     90  C   UNL A   1      43.811  35.438  27.868  1.00  0.00     0.040 A 
ATOM     91  F   UNL A   1      44.882  33.974  29.354  1.00  0.00    -0.206 F 
ATOM     92  C   UNL A   1      42.655  36.065  27.413  1.00  0.00     0.006 A 
ENDBRANCH  68  85
ENDBRANCH  42  43
ENDBRANCH  35  37
ENDBRANCH  34  35
ENDBRANCH  33  34
ENDBRANCH  32  33
ENDBRANCH  31  32
ENDBRANCH  30  31
ENDBRANCH   1  30
TORSDOF 20
ENDMDL
