MODEL 1
REMARK VINA RESULT:     -10.2      0.000      0.000
REMARK SMILES O=C(OCCOCCOCCOC(=O)[C@@H]1CC2(CC[NH2+]CC2)C[N@H+]1Cc1cccc2nonc12)c1ccc(-c2c3nc(c(-c4c(F)cccc4F)c4ccc([nH]4)c(-c4c(F)cccc4F)c4nc(c(-c5c(F)cccc5F)c5ccc2[nH]5)C=C4)C=C3)cc1
REMARK SMILES IDX 7 1 6 2 5 3 4 4 3 5 2 6 1 7 35 8 36 9 88 10 37 11 87 12
REMARK SMILES IDX 38 13 39 14 40 15 81 16 41 17 86 18 80 19 82 20 42 21 85 22
REMARK SMILES IDX 79 23 78 24 43 26 69 27 52 28 68 29 53 30 56 31 67 32 83 33
REMARK SMILES IDX 54 34 55 35 66 37 84 38 57 39 44 40 45 41 50 42 46 43 47 44
REMARK SMILES IDX 49 45 51 46 48 47 70 48 71 49 76 50 72 51 73 52 75 53 77 54
REMARK SMILES IDX 74 55 58 56 59 57 64 58 60 59 61 60 63 61 65 62 62 63 8 64
REMARK SMILES IDX 9 65 10 66 11 67 12 68 13 69 14 70 15 71 16 72 24 73 17 74
REMARK SMILES IDX 23 75 18 77 22 78 19 79 21 80 20 81 25 84 26 85 27 86 34 87
REMARK SMILES IDX 28 88 30 89 33 90 29 91 31 92 32 93
REMARK H PARENT 82 25 56 36 24 76 20 82 20 83
REMARK Flexibility Score: inf
ROOT
ATOM      1  C   UNL A   1      43.353  27.610  36.272  1.00  0.00     0.188 C 
ENDROOT
BRANCH   1   2
ATOM      2  O   UNL A   1      43.474  27.144  37.622  1.00  0.00    -0.376 OA
BRANCH   2   3
ATOM      3  C   UNL A   1      43.393  25.729  37.774  1.00  0.00     0.202 C 
BRANCH   3   4
ATOM      4  C   UNL A   1      44.784  25.121  37.951  1.00  0.00     0.261 C 
BRANCH   4   5
ATOM      5  O   UNL A   1      44.814  23.874  37.230  1.00  0.00    -0.460 OA
BRANCH   5   6
ATOM      6  C   UNL A   1      45.835  23.772  36.337  1.00  0.00     0.338 C 
ATOM      7  O   UNL A   1      46.885  23.188  36.520  1.00  0.00    -0.246 OA
BRANCH   6   8
ATOM      8  C   UNL A   1      45.536  24.592  35.129  1.00  0.00     0.060 A 
ATOM      9  C   UNL A   1      44.424  24.296  34.334  1.00  0.00     0.016 A 
ATOM     10  C   UNL A   1      46.428  25.575  34.704  1.00  0.00     0.016 A 
ATOM     11  C   UNL A   1      44.196  25.007  33.142  1.00  0.00     0.010 A 
ATOM     12  C   UNL A   1      46.228  26.232  33.497  1.00  0.00     0.010 A 
ATOM     13  C   UNL A   1      45.101  25.988  32.701  1.00  0.00    -0.014 A 
BRANCH  13  14
ATOM     14  C   UNL A   1      44.836  26.897  31.552  1.00  0.00     0.031 A 
ATOM     15  C   UNL A   1      44.657  26.233  30.191  1.00  0.00     0.074 A 
ATOM     16  C   UNL A   1      44.502  28.204  31.623  1.00  0.00     0.049 A 
ATOM     17  N   UNL A   1      43.511  25.973  29.615  1.00  0.00    -0.248 NA
ATOM     18  C   UNL A   1      45.794  25.577  29.536  1.00  0.00     0.031 C 
ATOM     19  C   UNL A   1      43.884  28.947  32.727  1.00  0.00     0.029 A 
ATOM     20  N   UNL A   1      44.546  29.128  30.616  1.00  0.00    -0.354 N 
ATOM     21  C   UNL A   1      43.756  25.085  28.573  1.00  0.00     0.074 A 
ATOM     22  C   UNL A   1      45.187  24.860  28.579  1.00  0.00     0.031 C 
ATOM     23  C   UNL A   1      43.383  30.112  32.248  1.00  0.00     0.029 A 
ATOM     24  C   UNL A   1      43.799  30.259  30.868  1.00  0.00     0.049 A 
ATOM     25  H   UNL A   1      45.062  28.997  29.788  1.00  0.00     0.167 HD
ATOM     26  C   UNL A   1      42.813  24.560  27.742  1.00  0.00     0.037 A 
ATOM     27  C   UNL A   1      43.400  31.202  29.974  1.00  0.00     0.037 A 
ATOM     28  C   UNL A   1      41.457  25.021  27.844  1.00  0.00     0.049 A 
ATOM     29  C   UNL A   1      42.600  30.385  28.967  1.00  0.00     0.074 A 
ATOM     30  C   UNL A   1      40.202  24.490  28.056  1.00  0.00     0.029 A 
ATOM     31  N   UNL A   1      41.152  26.217  27.243  1.00  0.00    -0.354 N 
ATOM     32  N   UNL A   1      41.311  30.122  28.997  1.00  0.00    -0.248 NA
ATOM     33  C   UNL A   1      43.363  29.522  28.072  1.00  0.00     0.031 C 
ATOM     34  C   UNL A   1      39.287  25.595  27.981  1.00  0.00     0.029 A 
ATOM     35  C   UNL A   1      40.052  26.756  27.852  1.00  0.00     0.049 A 
ATOM     36  H   UNL A   1      41.647  26.622  26.495  1.00  0.00     0.167 HD
ATOM     37  C   UNL A   1      41.132  28.923  28.281  1.00  0.00     0.074 A 
ATOM     38  C   UNL A   1      42.474  28.570  27.860  1.00  0.00     0.031 C 
ATOM     39  C   UNL A   1      39.964  28.190  28.154  1.00  0.00     0.037 A 
BRANCH  26  40
ATOM     40  C   UNL A   1      43.080  23.684  26.571  1.00  0.00     0.057 A 
ATOM     41  C   UNL A   1      43.566  24.171  25.358  1.00  0.00     0.134 A 
ATOM     42  C   UNL A   1      43.212  22.309  26.826  1.00  0.00     0.134 A 
ATOM     43  F   UNL A   1      43.494  25.478  25.067  1.00  0.00    -0.206 F 
ATOM     44  C   UNL A   1      44.218  23.322  24.455  1.00  0.00     0.040 A 
ATOM     45  C   UNL A   1      43.888  21.462  25.954  1.00  0.00     0.040 A 
ATOM     46  F   UNL A   1      42.771  21.794  27.987  1.00  0.00    -0.206 F 
ATOM     47  C   UNL A   1      44.407  21.973  24.768  1.00  0.00     0.006 A 
ENDBRANCH  26  40
BRANCH  27  48
ATOM     48  C   UNL A   1      44.585  32.065  29.598  1.00  0.00     0.057 A 
ATOM     49  C   UNL A   1      45.720  32.331  30.378  1.00  0.00     0.134 A 
ATOM     50  C   UNL A   1      44.494  32.800  28.397  1.00  0.00     0.134 A 
ATOM     51  F   UNL A   1      45.998  31.629  31.483  1.00  0.00    -0.206 F 
ATOM     52  C   UNL A   1      46.614  33.367  30.067  1.00  0.00     0.040 A 
ATOM     53  C   UNL A   1      45.386  33.825  28.066  1.00  0.00     0.040 A 
ATOM     54  F   UNL A   1      43.494  32.560  27.533  1.00  0.00    -0.206 F 
ATOM     55  C   UNL A   1      46.433  34.135  28.922  1.00  0.00     0.006 A 
ENDBRANCH  27  48
BRANCH  39  56
ATOM     56  C   UNL A   1      38.648  28.837  28.584  1.00  0.00     0.057 A 
ATOM     57  C   UNL A   1      38.063  28.640  29.853  1.00  0.00     0.134 A 
ATOM     58  C   UNL A   1      37.938  29.717  27.752  1.00  0.00     0.134 A 
ATOM     59  F   UNL A   1      38.639  27.870  30.782  1.00  0.00    -0.206 F 
ATOM     60  C   UNL A   1      36.918  29.313  30.296  1.00  0.00     0.040 A 
ATOM     61  C   UNL A   1      36.818  30.439  28.198  1.00  0.00     0.040 A 
ATOM     62  F   UNL A   1      38.298  29.896  26.472  1.00  0.00    -0.206 F 
ATOM     63  C   UNL A   1      36.313  30.250  29.479  1.00  0.00     0.006 A 
ENDBRANCH  39  56
ENDBRANCH  13  14
ENDBRANCH   6   8
ENDBRANCH   5   6
ENDBRANCH   4   5
ENDBRANCH   3   4
ENDBRANCH   2   3
ENDBRANCH   1   2
BRANCH   1  64
ATOM     64  C   UNL A   1      41.870  27.849  36.035  1.00  0.00     0.188 C 
BRANCH  64  65
ATOM     65  O   UNL A   1      41.411  29.177  36.260  1.00  0.00    -0.376 OA
BRANCH  65  66
ATOM     66  C   UNL A   1      40.703  29.780  35.164  1.00  0.00     0.202 C 
BRANCH  66  67
ATOM     67  C   UNL A   1      39.403  30.567  35.425  1.00  0.00     0.261 C 
BRANCH  67  68
ATOM     68  O   UNL A   1      38.658  30.814  34.235  1.00  0.00    -0.459 OA
BRANCH  68  69
ATOM     69  C   UNL A   1      37.619  31.682  34.364  1.00  0.00     0.365 C 
ATOM     70  O   UNL A   1      37.268  32.183  35.429  1.00  0.00    -0.245 OA
BRANCH  69  71
ATOM     71  C   UNL A   1      36.989  32.039  33.012  1.00  0.00     0.296 C 
ATOM     72  C   UNL A   1      38.146  32.210  32.041  1.00  0.00     0.091 C 
ATOM     73  N   UNL A   1      36.355  33.363  33.020  1.00  0.00    -0.319 N 
ATOM     74  C   UNL A   1      38.432  33.710  32.084  1.00  0.00     0.036 C 
ATOM     75  C   UNL A   1      36.995  34.237  32.047  1.00  0.00     0.270 C 
ATOM     76  H   UNL A   1      36.554  33.758  33.939  1.00  0.00     0.349 HD
ATOM     77  C   UNL A   1      39.282  34.115  30.894  1.00  0.00     0.074 C 
ATOM     78  C   UNL A   1      39.159  34.182  33.368  1.00  0.00     0.074 C 
ATOM     79  C   UNL A   1      40.725  33.625  31.015  1.00  0.00     0.261 C 
ATOM     80  C   UNL A   1      40.583  33.647  33.446  1.00  0.00     0.261 C 
ATOM     81  N   UNL A   1      41.371  34.023  32.272  1.00  0.00    -0.346 N 
ATOM     82  H   UNL A   1      41.496  35.035  32.270  1.00  0.00     0.346 HD
ATOM     83  H   UNL A   1      42.266  33.537  32.329  1.00  0.00     0.346 HD
BRANCH  73  84
ATOM     84  C   UNL A   1      34.925  33.477  33.244  1.00  0.00     0.302 C 
BRANCH  84  85
ATOM     85  C   UNL A   1      34.438  34.801  32.711  1.00  0.00     0.038 A 
ATOM     86  C   UNL A   1      34.505  35.976  33.504  1.00  0.00     0.012 A 
ATOM     87  C   UNL A   1      33.766  35.011  31.486  1.00  0.00     0.144 A 
ATOM     88  C   UNL A   1      33.907  37.214  33.162  1.00  0.00     0.003 A 
ATOM     89  C   UNL A   1      33.134  36.280  31.142  1.00  0.00     0.135 A 
ATOM     90  N   UNL A   1      33.554  34.172  30.466  1.00  0.00    -0.049 NA
ATOM     91  C   UNL A   1      33.179  37.405  31.980  1.00  0.00     0.034 A 
ATOM     92  N   UNL A   1      32.528  36.149  29.955  1.00  0.00    -0.050 NA
ATOM     93  O   UNL A   1      32.794  34.857  29.542  1.00  0.00    -0.243 OA
ENDBRANCH  84  85
ENDBRANCH  73  84
ENDBRANCH  69  71
ENDBRANCH  68  69
ENDBRANCH  67  68
ENDBRANCH  66  67
ENDBRANCH  65  66
ENDBRANCH  64  65
ENDBRANCH   1  64
TORSDOF 19
ENDMDL
MODEL 2
REMARK VINA RESULT:     -10.1      5.806     10.343
REMARK SMILES O=C(OCCOCCOCCOC(=O)[C@@H]1CC2(CC[NH2+]CC2)C[N@H+]1Cc1cccc2nonc12)c1ccc(-c2c3nc(c(-c4c(F)cccc4F)c4ccc([nH]4)c(-c4c(F)cccc4F)c4nc(c(-c5c(F)cccc5F)c5ccc2[nH]5)C=C4)C=C3)cc1
REMARK SMILES IDX 7 1 6 2 5 3 4 4 3 5 2 6 1 7 35 8 36 9 88 10 37 11 87 12
REMARK SMILES IDX 38 13 39 14 40 15 81 16 41 17 86 18 80 19 82 20 42 21 85 22
REMARK SMILES IDX 79 23 78 24 43 26 69 27 52 28 68 29 53 30 56 31 67 32 83 33
REMARK SMILES IDX 54 34 55 35 66 37 84 38 57 39 44 40 45 41 50 42 46 43 47 44
REMARK SMILES IDX 49 45 51 46 48 47 70 48 71 49 76 50 72 51 73 52 75 53 77 54
REMARK SMILES IDX 74 55 58 56 59 57 64 58 60 59 61 60 63 61 65 62 62 63 8 64
REMARK SMILES IDX 9 65 10 66 11 67 12 68 13 69 14 70 15 71 16 72 24 73 17 74
REMARK SMILES IDX 23 75 18 77 22 78 19 79 21 80 20 81 25 84 26 85 27 86 34 87
REMARK SMILES IDX 28 88 30 89 33 90 29 91 31 92 32 93
REMARK H PARENT 82 25 56 36 24 76 20 82 20 83
REMARK Flexibility Score: inf
ROOT
ATOM      1  C   UNL A   1      37.484  23.381  24.753  1.00  0.00     0.188 C 
ENDROOT
BRANCH   1   2
ATOM      2  O   UNL A   1      37.648  22.430  25.814  1.00  0.00    -0.376 OA
BRANCH   2   3
ATOM      3  C   UNL A   1      38.478  21.316  25.494  1.00  0.00     0.202 C 
BRANCH   3   4
ATOM      4  C   UNL A   1      39.797  21.382  26.262  1.00  0.00     0.261 C 
BRANCH   4   5
ATOM      5  O   UNL A   1      39.733  22.513  27.151  1.00  0.00    -0.460 OA
BRANCH   5   6
ATOM      6  C   UNL A   1      40.902  22.786  27.792  1.00  0.00     0.338 C 
ATOM      7  O   UNL A   1      41.688  21.964  28.218  1.00  0.00    -0.246 OA
BRANCH   6   8
ATOM      8  C   UNL A   1      41.030  24.255  28.011  1.00  0.00     0.060 A 
ATOM      9  C   UNL A   1      42.293  24.856  28.041  1.00  0.00     0.016 A 
ATOM     10  C   UNL A   1      39.909  25.023  28.317  1.00  0.00     0.016 A 
ATOM     11  C   UNL A   1      42.419  26.224  28.344  1.00  0.00     0.010 A 
ATOM     12  C   UNL A   1      40.046  26.359  28.673  1.00  0.00     0.010 A 
ATOM     13  C   UNL A   1      41.293  26.999  28.669  1.00  0.00    -0.014 A 
BRANCH  13  14
ATOM     14  C   UNL A   1      41.329  28.480  28.826  1.00  0.00     0.031 A 
ATOM     15  C   UNL A   1      40.074  29.235  28.400  1.00  0.00     0.074 A 
ATOM     16  C   UNL A   1      42.243  29.191  29.520  1.00  0.00     0.049 A 
ATOM     17  N   UNL A   1      39.134  29.666  29.202  1.00  0.00    -0.248 NA
ATOM     18  C   UNL A   1      39.697  29.297  26.983  1.00  0.00     0.031 C 
ATOM     19  C   UNL A   1      43.115  28.763  30.620  1.00  0.00     0.029 A 
ATOM     20  N   UNL A   1      42.483  30.534  29.441  1.00  0.00    -0.354 N 
ATOM     21  C   UNL A   1      38.032  29.995  28.420  1.00  0.00     0.074 A 
ATOM     22  C   UNL A   1      38.431  29.731  27.052  1.00  0.00     0.031 C 
ATOM     23  C   UNL A   1      43.584  29.860  31.263  1.00  0.00     0.029 A 
ATOM     24  C   UNL A   1      43.187  31.036  30.516  1.00  0.00     0.049 A 
ATOM     25  H   UNL A   1      42.182  31.092  28.689  1.00  0.00     0.167 HD
ATOM     26  C   UNL A   1      36.842  30.466  28.887  1.00  0.00     0.037 A 
ATOM     27  C   UNL A   1      43.320  32.339  30.881  1.00  0.00     0.037 A 
ATOM     28  C   UNL A   1      36.710  30.767  30.285  1.00  0.00     0.049 A 
ATOM     29  C   UNL A   1      41.875  32.775  31.082  1.00  0.00     0.074 A 
ATOM     30  C   UNL A   1      35.903  30.408  31.344  1.00  0.00     0.029 A 
ATOM     31  N   UNL A   1      37.222  31.963  30.721  1.00  0.00    -0.354 N 
ATOM     32  N   UNL A   1      41.173  32.720  32.194  1.00  0.00    -0.248 NA
ATOM     33  C   UNL A   1      41.071  32.951  29.879  1.00  0.00     0.031 C 
ATOM     34  C   UNL A   1      36.359  31.177  32.467  1.00  0.00     0.029 A 
ATOM     35  C   UNL A   1      37.500  31.870  32.058  1.00  0.00     0.049 A 
ATOM     36  H   UNL A   1      37.365  32.761  30.162  1.00  0.00     0.167 HD
ATOM     37  C   UNL A   1      39.820  32.645  31.809  1.00  0.00     0.074 A 
ATOM     38  C   UNL A   1      39.874  32.668  30.360  1.00  0.00     0.031 C 
ATOM     39  C   UNL A   1      38.725  32.442  32.631  1.00  0.00     0.037 A 
BRANCH  26  40
ATOM     40  C   UNL A   1      35.696  30.905  28.050  1.00  0.00     0.057 A 
ATOM     41  C   UNL A   1      34.680  30.040  27.645  1.00  0.00     0.134 A 
ATOM     42  C   UNL A   1      35.440  32.285  28.001  1.00  0.00     0.134 A 
ATOM     43  F   UNL A   1      34.853  28.711  27.695  1.00  0.00    -0.206 F 
ATOM     44  C   UNL A   1      33.428  30.535  27.263  1.00  0.00     0.040 A 
ATOM     45  C   UNL A   1      34.189  32.788  27.656  1.00  0.00     0.040 A 
ATOM     46  F   UNL A   1      36.382  33.160  28.394  1.00  0.00    -0.206 F 
ATOM     47  C   UNL A   1      33.172  31.909  27.299  1.00  0.00     0.006 A 
ENDBRANCH  26  40
BRANCH  27  48
ATOM     48  C   UNL A   1      44.277  33.026  29.931  1.00  0.00     0.057 A 
ATOM     49  C   UNL A   1      45.274  32.424  29.150  1.00  0.00     0.134 A 
ATOM     50  C   UNL A   1      44.273  34.437  29.920  1.00  0.00     0.134 A 
ATOM     51  F   UNL A   1      45.328  31.098  28.972  1.00  0.00    -0.206 F 
ATOM     52  C   UNL A   1      46.292  33.167  28.534  1.00  0.00     0.040 A 
ATOM     53  C   UNL A   1      45.273  35.192  29.297  1.00  0.00     0.040 A 
ATOM     54  F   UNL A   1      43.309  35.116  30.561  1.00  0.00    -0.206 F 
ATOM     55  C   UNL A   1      46.308  34.555  28.629  1.00  0.00     0.006 A 
ENDBRANCH  27  48
BRANCH  39  56
ATOM     56  C   UNL A   1      38.913  32.576  34.141  1.00  0.00     0.057 A 
ATOM     57  C   UNL A   1      38.890  33.813  34.821  1.00  0.00     0.134 A 
ATOM     58  C   UNL A   1      39.083  31.462  34.977  1.00  0.00     0.134 A 
ATOM     59  F   UNL A   1      38.687  34.967  34.177  1.00  0.00    -0.206 F 
ATOM     60  C   UNL A   1      38.951  33.937  36.214  1.00  0.00     0.040 A 
ATOM     61  C   UNL A   1      39.094  31.564  36.379  1.00  0.00     0.040 A 
ATOM     62  F   UNL A   1      39.260  30.236  34.463  1.00  0.00    -0.206 F 
ATOM     63  C   UNL A   1      39.012  32.804  37.003  1.00  0.00     0.006 A 
ENDBRANCH  39  56
ENDBRANCH  13  14
ENDBRANCH   6   8
ENDBRANCH   5   6
ENDBRANCH   4   5
ENDBRANCH   3   4
ENDBRANCH   2   3
ENDBRANCH   1   2
BRANCH   1  64
ATOM     64  C   UNL A   1      36.090  23.153  24.190  1.00  0.00     0.188 C 
BRANCH  64  65
ATOM     65  O   UNL A   1      35.009  23.481  25.057  1.00  0.00    -0.376 OA
BRANCH  65  66
ATOM     66  C   UNL A   1      34.972  24.844  25.510  1.00  0.00     0.202 C 
BRANCH  66  67
ATOM     67  C   UNL A   1      33.987  25.844  24.873  1.00  0.00     0.261 C 
BRANCH  67  68
ATOM     68  O   UNL A   1      33.569  25.453  23.567  1.00  0.00    -0.459 OA
BRANCH  68  69
ATOM     69  C   UNL A   1      33.054  26.447  22.795  1.00  0.00     0.365 C 
ATOM     70  O   UNL A   1      33.650  27.484  22.519  1.00  0.00    -0.245 OA
BRANCH  69  71
ATOM     71  C   UNL A   1      31.674  26.086  22.230  1.00  0.00     0.296 C 
ATOM     72  C   UNL A   1      30.935  27.402  22.051  1.00  0.00     0.091 C 
ATOM     73  N   UNL A   1      30.844  25.359  23.198  1.00  0.00    -0.319 N 
ATOM     74  C   UNL A   1      30.148  27.551  23.351  1.00  0.00     0.036 C 
ATOM     75  C   UNL A   1      29.635  26.116  23.497  1.00  0.00     0.270 C 
ATOM     76  H   UNL A   1      31.387  25.330  24.060  1.00  0.00     0.349 HD
ATOM     77  C   UNL A   1      29.059  28.596  23.187  1.00  0.00     0.074 C 
ATOM     78  C   UNL A   1      31.011  27.955  24.574  1.00  0.00     0.074 C 
ATOM     79  C   UNL A   1      29.619  30.016  23.119  1.00  0.00     0.261 C 
ATOM     80  C   UNL A   1      31.559  29.370  24.442  1.00  0.00     0.261 C 
ATOM     81  N   UNL A   1      30.492  30.352  24.251  1.00  0.00    -0.346 N 
ATOM     82  H   UNL A   1      29.926  30.393  25.099  1.00  0.00     0.346 HD
ATOM     83  H   UNL A   1      30.929  31.251  24.051  1.00  0.00     0.346 HD
BRANCH  73  84
ATOM     84  C   UNL A   1      30.780  23.910  23.150  1.00  0.00     0.302 C 
BRANCH  84  85
ATOM     85  C   UNL A   1      31.216  23.345  24.479  1.00  0.00     0.038 A 
ATOM     86  C   UNL A   1      30.984  24.055  25.685  1.00  0.00     0.012 A 
ATOM     87  C   UNL A   1      31.986  22.177  24.677  1.00  0.00     0.144 A 
ATOM     88  C   UNL A   1      31.518  23.696  26.947  1.00  0.00     0.003 A 
ATOM     89  C   UNL A   1      32.552  21.817  25.972  1.00  0.00     0.135 A 
ATOM     90  N   UNL A   1      32.359  21.235  23.804  1.00  0.00    -0.049 NA
ATOM     91  C   UNL A   1      32.341  22.577  27.133  1.00  0.00     0.034 A 
ATOM     92  N   UNL A   1      33.279  20.702  25.826  1.00  0.00    -0.050 NA
ATOM     93  O   UNL A   1      33.152  20.345  24.497  1.00  0.00    -0.243 OA
ENDBRANCH  84  85
ENDBRANCH  73  84
ENDBRANCH  69  71
ENDBRANCH  68  69
ENDBRANCH  67  68
ENDBRANCH  66  67
ENDBRANCH  65  66
ENDBRANCH  64  65
ENDBRANCH   1  64
TORSDOF 19
ENDMDL
MODEL 3
REMARK VINA RESULT:      -9.9      4.188     11.802
REMARK SMILES O=C(OCCOCCOCCOC(=O)[C@@H]1CC2(CC[NH2+]CC2)C[N@H+]1Cc1cccc2nonc12)c1ccc(-c2c3nc(c(-c4c(F)cccc4F)c4ccc([nH]4)c(-c4c(F)cccc4F)c4nc(c(-c5c(F)cccc5F)c5ccc2[nH]5)C=C4)C=C3)cc1
REMARK SMILES IDX 7 1 6 2 5 3 4 4 3 5 2 6 1 7 35 8 36 9 88 10 37 11 87 12
REMARK SMILES IDX 38 13 39 14 40 15 81 16 41 17 86 18 80 19 82 20 42 21 85 22
REMARK SMILES IDX 79 23 78 24 43 26 69 27 52 28 68 29 53 30 56 31 67 32 83 33
REMARK SMILES IDX 54 34 55 35 66 37 84 38 57 39 44 40 45 41 50 42 46 43 47 44
REMARK SMILES IDX 49 45 51 46 48 47 70 48 71 49 76 50 72 51 73 52 75 53 77 54
REMARK SMILES IDX 74 55 58 56 59 57 64 58 60 59 61 60 63 61 65 62 62 63 8 64
REMARK SMILES IDX 9 65 10 66 11 67 12 68 13 69 14 70 15 71 16 72 24 73 17 74
REMARK SMILES IDX 23 75 18 77 22 78 19 79 21 80 20 81 25 84 26 85 27 86 34 87
REMARK SMILES IDX 28 88 30 89 33 90 29 91 31 92 32 93
REMARK H PARENT 82 25 56 36 24 76 20 82 20 83
REMARK Flexibility Score: inf
ROOT
ATOM      1  C   UNL A   1      46.508  33.475  26.497  1.00  0.00     0.188 C 
ENDROOT
BRANCH   1   2
ATOM      2  O   UNL A   1      45.559  34.490  26.853  1.00  0.00    -0.376 OA
BRANCH   2   3
ATOM      3  C   UNL A   1      45.710  35.720  26.149  1.00  0.00     0.202 C 
BRANCH   3   4
ATOM      4  C   UNL A   1      45.614  36.909  27.105  1.00  0.00     0.261 C 
BRANCH   4   5
ATOM      5  O   UNL A   1      44.344  37.550  26.883  1.00  0.00    -0.460 OA
BRANCH   5   6
ATOM      6  C   UNL A   1      43.682  37.885  28.025  1.00  0.00     0.338 C 
ATOM      7  O   UNL A   1      43.496  39.014  28.434  1.00  0.00    -0.246 OA
BRANCH   6   8
ATOM      8  C   UNL A   1      43.318  36.653  28.781  1.00  0.00     0.060 A 
ATOM      9  C   UNL A   1      43.826  36.440  30.067  1.00  0.00     0.016 A 
ATOM     10  C   UNL A   1      42.578  35.643  28.170  1.00  0.00     0.016 A 
ATOM     11  C   UNL A   1      43.561  35.234  30.742  1.00  0.00     0.010 A 
ATOM     12  C   UNL A   1      42.371  34.432  28.819  1.00  0.00     0.010 A 
ATOM     13  C   UNL A   1      42.829  34.206  30.124  1.00  0.00    -0.014 A 
BRANCH  13  14
ATOM     14  C   UNL A   1      42.362  32.983  30.835  1.00  0.00     0.031 A 
ATOM     15  C   UNL A   1      40.868  32.899  31.126  1.00  0.00     0.074 A 
ATOM     16  C   UNL A   1      43.070  31.850  31.031  1.00  0.00     0.049 A 
ATOM     17  N   UNL A   1      39.992  32.227  30.423  1.00  0.00    -0.248 NA
ATOM     18  C   UNL A   1      40.252  33.814  32.093  1.00  0.00     0.031 C 
ATOM     19  C   UNL A   1      44.215  31.326  30.277  1.00  0.00     0.029 A 
ATOM     20  N   UNL A   1      42.800  30.845  31.917  1.00  0.00    -0.354 N 
ATOM     21  C   UNL A   1      38.726  32.663  30.801  1.00  0.00     0.074 A 
ATOM     22  C   UNL A   1      38.947  33.661  31.829  1.00  0.00     0.031 C 
ATOM     23  C   UNL A   1      44.368  30.011  30.564  1.00  0.00     0.029 A 
ATOM     24  C   UNL A   1      43.454  29.664  31.635  1.00  0.00     0.049 A 
ATOM     25  H   UNL A   1      42.193  30.953  32.685  1.00  0.00     0.167 HD
ATOM     26  C   UNL A   1      37.548  32.216  30.284  1.00  0.00     0.037 A 
ATOM     27  C   UNL A   1      43.178  28.427  32.127  1.00  0.00     0.037 A 
ATOM     28  C   UNL A   1      37.563  31.127  29.350  1.00  0.00     0.049 A 
ATOM     29  C   UNL A   1      41.730  28.219  31.700  1.00  0.00     0.074 A 
ATOM     30  C   UNL A   1      37.134  30.865  28.066  1.00  0.00     0.029 A 
ATOM     31  N   UNL A   1      37.683  29.859  29.864  1.00  0.00    -0.354 N 
ATOM     32  N   UNL A   1      41.300  27.677  30.581  1.00  0.00    -0.248 NA
ATOM     33  C   UNL A   1      40.719  28.987  32.417  1.00  0.00     0.031 C 
ATOM     34  C   UNL A   1      37.475  29.494  27.806  1.00  0.00     0.029 A 
ATOM     35  C   UNL A   1      38.205  29.035  28.904  1.00  0.00     0.049 A 
ATOM     36  H   UNL A   1      37.434  29.587  30.776  1.00  0.00     0.167 HD
ATOM     37  C   UNL A   1      40.017  28.210  30.347  1.00  0.00     0.074 A 
ATOM     38  C   UNL A   1      39.805  29.102  31.471  1.00  0.00     0.031 C 
ATOM     39  C   UNL A   1      39.226  28.030  29.225  1.00  0.00     0.037 A 
BRANCH  26  40
ATOM     40  C   UNL A   1      36.192  32.612  30.748  1.00  0.00     0.057 A 
ATOM     41  C   UNL A   1      35.668  32.214  31.978  1.00  0.00     0.134 A 
ATOM     42  C   UNL A   1      35.600  33.713  30.109  1.00  0.00     0.134 A 
ATOM     43  F   UNL A   1      36.207  31.187  32.651  1.00  0.00    -0.206 F 
ATOM     44  C   UNL A   1      34.627  32.932  32.578  1.00  0.00     0.040 A 
ATOM     45  C   UNL A   1      34.589  34.456  30.710  1.00  0.00     0.040 A 
ATOM     46  F   UNL A   1      36.078  34.144  28.928  1.00  0.00    -0.206 F 
ATOM     47  C   UNL A   1      34.108  34.072  31.959  1.00  0.00     0.006 A 
ENDBRANCH  26  40
BRANCH  27  48
ATOM     48  C   UNL A   1      43.646  28.347  33.564  1.00  0.00     0.057 A 
ATOM     49  C   UNL A   1      44.728  29.026  34.141  1.00  0.00     0.134 A 
ATOM     50  C   UNL A   1      43.026  27.387  34.392  1.00  0.00     0.134 A 
ATOM     51  F   UNL A   1      45.339  30.042  33.519  1.00  0.00    -0.206 F 
ATOM     52  C   UNL A   1      45.258  28.664  35.389  1.00  0.00     0.040 A 
ATOM     53  C   UNL A   1      43.533  27.027  35.644  1.00  0.00     0.040 A 
ATOM     54  F   UNL A   1      41.926  26.742  33.972  1.00  0.00    -0.206 F 
ATOM     55  C   UNL A   1      44.677  27.643  36.133  1.00  0.00     0.006 A 
ENDBRANCH  27  48
BRANCH  39  56
ATOM     56  C   UNL A   1      39.615  26.940  28.227  1.00  0.00     0.057 A 
ATOM     57  C   UNL A   1      40.333  27.194  27.039  1.00  0.00     0.134 A 
ATOM     58  C   UNL A   1      39.320  25.585  28.445  1.00  0.00     0.134 A 
ATOM     59  F   UNL A   1      40.735  28.425  26.708  1.00  0.00    -0.206 F 
ATOM     60  C   UNL A   1      40.789  26.190  26.176  1.00  0.00     0.040 A 
ATOM     61  C   UNL A   1      39.814  24.563  27.617  1.00  0.00     0.040 A 
ATOM     62  F   UNL A   1      38.529  25.208  29.460  1.00  0.00    -0.206 F 
ATOM     63  C   UNL A   1      40.564  24.862  26.486  1.00  0.00     0.006 A 
ENDBRANCH  39  56
ENDBRANCH  13  14
ENDBRANCH   6   8
ENDBRANCH   5   6
ENDBRANCH   4   5
ENDBRANCH   3   4
ENDBRANCH   2   3
ENDBRANCH   1   2
BRANCH   1  64
ATOM     64  C   UNL A   1      45.800  32.144  26.695  1.00  0.00     0.188 C 
BRANCH  64  65
ATOM     65  O   UNL A   1      46.140  31.116  25.772  1.00  0.00    -0.376 OA
BRANCH  65  66
ATOM     66  C   UNL A   1      46.041  29.773  26.277  1.00  0.00     0.202 C 
BRANCH  66  67
ATOM     67  C   UNL A   1      46.349  28.577  25.355  1.00  0.00     0.261 C 
BRANCH  67  68
ATOM     68  O   UNL A   1      45.376  27.540  25.449  1.00  0.00    -0.459 OA
BRANCH  68  69
ATOM     69  C   UNL A   1      45.777  26.318  25.007  1.00  0.00     0.365 C 
ATOM     70  O   UNL A   1      46.796  26.123  24.350  1.00  0.00    -0.245 OA
BRANCH  69  71
ATOM     71  C   UNL A   1      44.858  25.193  25.499  1.00  0.00     0.296 C 
ATOM     72  C   UNL A   1      44.599  25.474  26.970  1.00  0.00     0.091 C 
ATOM     73  N   UNL A   1      45.530  23.887  25.517  1.00  0.00    -0.319 N 
ATOM     74  C   UNL A   1      45.668  24.652  27.686  1.00  0.00     0.036 C 
ATOM     75  C   UNL A   1      45.572  23.358  26.873  1.00  0.00     0.270 C 
ATOM     76  H   UNL A   1      46.496  24.071  25.248  1.00  0.00     0.349 HD
ATOM     77  C   UNL A   1      45.314  24.500  29.155  1.00  0.00     0.074 C 
ATOM     78  C   UNL A   1      47.094  25.251  27.602  1.00  0.00     0.074 C 
ATOM     79  C   UNL A   1      45.495  25.802  29.935  1.00  0.00     0.261 C 
ATOM     80  C   UNL A   1      47.210  26.556  28.380  1.00  0.00     0.261 C 
ATOM     81  N   UNL A   1      46.831  26.390  29.783  1.00  0.00    -0.346 N 
ATOM     82  H   UNL A   1      47.511  25.780  30.237  1.00  0.00     0.346 HD
ATOM     83  H   UNL A   1      46.815  27.315  30.213  1.00  0.00     0.346 HD
BRANCH  73  84
ATOM     84  C   UNL A   1      45.360  22.972  24.403  1.00  0.00     0.302 C 
BRANCH  84  85
ATOM     85  C   UNL A   1      44.438  21.851  24.812  1.00  0.00     0.038 A 
ATOM     86  C   UNL A   1      43.177  22.121  25.404  1.00  0.00     0.012 A 
ATOM     87  C   UNL A   1      44.743  20.471  24.792  1.00  0.00     0.144 A 
ATOM     88  C   UNL A   1      42.334  21.143  25.985  1.00  0.00     0.003 A 
ATOM     89  C   UNL A   1      43.883  19.465  25.407  1.00  0.00     0.135 A 
ATOM     90  N   UNL A   1      45.797  19.830  24.274  1.00  0.00    -0.049 NA
ATOM     91  C   UNL A   1      42.666  19.782  26.029  1.00  0.00     0.034 A 
ATOM     92  N   UNL A   1      44.468  18.267  25.280  1.00  0.00    -0.050 NA
ATOM     93  O   UNL A   1      45.637  18.495  24.580  1.00  0.00    -0.243 OA
ENDBRANCH  84  85
ENDBRANCH  73  84
ENDBRANCH  69  71
ENDBRANCH  68  69
ENDBRANCH  67  68
ENDBRANCH  66  67
ENDBRANCH  65  66
ENDBRANCH  64  65
ENDBRANCH   1  64
TORSDOF 19
ENDMDL
