MODEL 1
REMARK VINA RESULT:     -11.1      0.000      0.000
REMARK SMILES C[C@H](NC(=O)N1CC[C@@H](C(=O)OCCOCCOCCOC(=O)c2ccc(-c3c4nc(c(-c5c(F)cccc5F)c5ccc([nH]5)c(-c5c(F)cccc5F)c5nc(c(-c6c(F)cccc6F)c6ccc3[nH]6)C=C5)C=C4)cc2)[C@H]1C)c1ccc(Cl)cc1
REMARK SMILES IDX 16 1 15 2 14 3 13 4 12 5 10 6 11 7 9 8 6 9 7 10 78 11 8 12
REMARK SMILES IDX 79 13 4 14 3 15 5 17 2 18 1 19 80 20 81 21 86 22 82 23 85 24
REMARK SMILES IDX 83 25 84 26 17 27 18 28 19 29 20 30 21 31 22 32 23 33 24 34
REMARK SMILES IDX 25 35 77 36 26 37 76 38 27 39 28 40 29 41 70 42 30 43 75 44
REMARK SMILES IDX 69 45 71 46 31 47 74 48 68 49 67 50 32 52 58 53 41 54 57 55
REMARK SMILES IDX 42 56 45 57 56 58 72 59 43 60 44 61 55 63 73 64 46 65 33 66
REMARK SMILES IDX 34 67 39 68 35 69 36 70 38 71 40 72 37 73 59 74 60 75 65 76
REMARK SMILES IDX 61 77 62 78 64 79 66 80 63 81 47 82 48 83 53 84 49 85 50 86
REMARK SMILES IDX 52 87 54 88 51 89
REMARK H PARENT 3 16 71 51 45 62
REMARK Flexibility Score: inf
ROOT
ATOM      1  C   UNL A   1      40.212  20.384  26.126  1.00  0.00     0.188 C 
ENDROOT
BRANCH   1   2
ATOM      2  O   UNL A   1      39.679  21.462  26.882  1.00  0.00    -0.376 OA
BRANCH   2   3
ATOM      3  C   UNL A   1      39.300  22.631  26.154  1.00  0.00     0.202 C 
BRANCH   3   4
ATOM      4  C   UNL A   1      37.795  22.780  25.911  1.00  0.00     0.261 C 
BRANCH   4   5
ATOM      5  O   UNL A   1      37.488  22.310  24.589  1.00  0.00    -0.463 OA
BRANCH   5   6
ATOM      6  C   UNL A   1      36.382  22.737  23.946  1.00  0.00     0.311 C 
ATOM      7  O   UNL A   1      36.353  23.057  22.766  1.00  0.00    -0.252 OA
BRANCH   6   8
ATOM      8  C   UNL A   1      35.134  22.664  24.824  1.00  0.00     0.123 C 
ATOM      9  N   UNL A   1      33.039  23.455  25.680  1.00  0.00    -0.321 N 
ATOM     10  C   UNL A   1      32.825  22.183  24.996  1.00  0.00     0.122 C 
ATOM     11  C   UNL A   1      34.451  23.939  25.415  1.00  0.00     0.098 C 
ATOM     12  C   UNL A   1      33.989  22.031  24.040  1.00  0.00     0.039 C 
ATOM     13  C   UNL A   1      34.556  25.128  24.439  1.00  0.00     0.032 C 
BRANCH   9  14
ATOM     14  C   UNL A   1      32.129  23.748  26.689  1.00  0.00     0.318 C 
ATOM     15  N   UNL A   1      31.462  24.941  26.717  1.00  0.00    -0.331 N 
ATOM     16  H   UNL A   1      31.022  25.207  27.556  1.00  0.00     0.165 HD
ATOM     17  O   UNL A   1      31.794  22.905  27.526  1.00  0.00    -0.249 OA
BRANCH  15  18
ATOM     18  C   UNL A   1      31.365  25.824  25.597  1.00  0.00     0.111 C 
ATOM     19  C   UNL A   1      30.225  25.398  24.657  1.00  0.00     0.036 C 
BRANCH  18  20
ATOM     20  C   UNL A   1      31.379  27.332  25.728  1.00  0.00    -0.026 A 
ATOM     21  C   UNL A   1      31.172  28.255  24.708  1.00  0.00     0.007 A 
ATOM     22  C   UNL A   1      31.669  27.821  27.030  1.00  0.00     0.007 A 
ATOM     23  C   UNL A   1      31.260  29.629  24.991  1.00  0.00     0.021 A 
ATOM     24  C   UNL A   1      31.759  29.177  27.310  1.00  0.00     0.021 A 
ATOM     25  C   UNL A   1      31.555  30.081  26.282  1.00  0.00     0.041 A 
ATOM     26  Cl  UNL A   1      31.675  31.764  26.614  1.00  0.00    -0.084 Cl
ENDBRANCH  18  20
ENDBRANCH  15  18
ENDBRANCH   9  14
ENDBRANCH   6   8
ENDBRANCH   5   6
ENDBRANCH   4   5
ENDBRANCH   3   4
ENDBRANCH   2   3
ENDBRANCH   1   2
BRANCH   1  27
ATOM     27  C   UNL A   1      41.281  19.544  26.815  1.00  0.00     0.188 C 
BRANCH  27  28
ATOM     28  O   UNL A   1      42.646  19.847  26.640  1.00  0.00    -0.376 OA
BRANCH  28  29
ATOM     29  C   UNL A   1      43.016  20.904  25.746  1.00  0.00     0.202 C 
BRANCH  29  30
ATOM     30  C   UNL A   1      44.431  21.538  25.557  1.00  0.00     0.261 C 
BRANCH  30  31
ATOM     31  O   UNL A   1      44.768  22.754  26.237  1.00  0.00    -0.460 OA
BRANCH  31  32
ATOM     32  C   UNL A   1      44.518  23.900  25.557  1.00  0.00     0.338 C 
ATOM     33  O   UNL A   1      44.696  24.083  24.363  1.00  0.00    -0.246 OA
BRANCH  32  34
ATOM     34  C   UNL A   1      43.722  24.812  26.427  1.00  0.00     0.060 A 
ATOM     35  C   UNL A   1      44.065  26.174  26.427  1.00  0.00     0.016 A 
ATOM     36  C   UNL A   1      42.625  24.377  27.176  1.00  0.00     0.016 A 
ATOM     37  C   UNL A   1      43.351  27.090  27.204  1.00  0.00     0.010 A 
ATOM     38  C   UNL A   1      41.924  25.291  27.977  1.00  0.00     0.010 A 
ATOM     39  C   UNL A   1      42.310  26.645  28.028  1.00  0.00    -0.014 A 
BRANCH  39  40
ATOM     40  C   UNL A   1      41.806  27.526  29.117  1.00  0.00     0.031 A 
ATOM     41  C   UNL A   1      42.518  27.474  30.445  1.00  0.00     0.074 A 
ATOM     42  C   UNL A   1      40.777  28.376  28.949  1.00  0.00     0.049 A 
ATOM     43  N   UNL A   1      42.246  28.094  31.565  1.00  0.00    -0.248 NA
ATOM     44  C   UNL A   1      43.698  26.596  30.514  1.00  0.00     0.031 C 
ATOM     45  C   UNL A   1      40.030  28.574  27.710  1.00  0.00     0.029 A 
ATOM     46  N   UNL A   1      40.179  29.233  29.843  1.00  0.00    -0.354 N 
ATOM     47  C   UNL A   1      43.212  27.673  32.472  1.00  0.00     0.074 A 
ATOM     48  C   UNL A   1      44.054  26.719  31.783  1.00  0.00     0.031 C 
ATOM     49  C   UNL A   1      39.062  29.484  27.926  1.00  0.00     0.029 A 
ATOM     50  C   UNL A   1      39.099  29.910  29.325  1.00  0.00     0.049 A 
ATOM     51  H   UNL A   1      40.493  29.351  30.768  1.00  0.00     0.167 HD
ATOM     52  C   UNL A   1      43.393  28.050  33.759  1.00  0.00     0.037 A 
ATOM     53  C   UNL A   1      38.232  30.755  29.921  1.00  0.00     0.037 A 
ATOM     54  C   UNL A   1      42.562  28.998  34.452  1.00  0.00     0.049 A 
ATOM     55  C   UNL A   1      38.400  31.095  31.381  1.00  0.00     0.074 A 
ATOM     56  C   UNL A   1      42.675  29.451  35.754  1.00  0.00     0.029 A 
ATOM     57  N   UNL A   1      41.459  29.630  33.901  1.00  0.00    -0.354 N 
ATOM     58  N   UNL A   1      39.328  30.707  32.224  1.00  0.00    -0.248 NA
ATOM     59  C   UNL A   1      37.399  31.996  31.975  1.00  0.00     0.031 C 
ATOM     60  C   UNL A   1      41.606  30.315  36.010  1.00  0.00     0.029 A 
ATOM     61  C   UNL A   1      40.864  30.449  34.848  1.00  0.00     0.049 A 
ATOM     62  H   UNL A   1      41.144  29.515  32.976  1.00  0.00     0.167 HD
ATOM     63  C   UNL A   1      39.042  31.340  33.430  1.00  0.00     0.074 A 
ATOM     64  C   UNL A   1      37.863  32.149  33.206  1.00  0.00     0.031 C 
ATOM     65  C   UNL A   1      39.696  31.260  34.615  1.00  0.00     0.037 A 
BRANCH  52  66
ATOM     66  C   UNL A   1      44.522  27.408  34.513  1.00  0.00     0.057 A 
ATOM     67  C   UNL A   1      45.815  27.949  34.517  1.00  0.00     0.134 A 
ATOM     68  C   UNL A   1      44.305  26.246  35.264  1.00  0.00     0.134 A 
ATOM     69  F   UNL A   1      46.095  29.049  33.803  1.00  0.00    -0.206 F 
ATOM     70  C   UNL A   1      46.857  27.341  35.219  1.00  0.00     0.040 A 
ATOM     71  C   UNL A   1      45.332  25.648  35.996  1.00  0.00     0.040 A 
ATOM     72  F   UNL A   1      43.091  25.678  35.307  1.00  0.00    -0.206 F 
ATOM     73  C   UNL A   1      46.614  26.191  35.969  1.00  0.00     0.006 A 
ENDBRANCH  52  66
BRANCH  53  74
ATOM     74  C   UNL A   1      37.098  31.333  29.150  1.00  0.00     0.057 A 
ATOM     75  C   UNL A   1      37.099  32.675  28.749  1.00  0.00     0.134 A 
ATOM     76  C   UNL A   1      35.961  30.574  28.843  1.00  0.00     0.134 A 
ATOM     77  F   UNL A   1      38.143  33.466  29.041  1.00  0.00    -0.206 F 
ATOM     78  C   UNL A   1      36.006  33.246  28.093  1.00  0.00     0.040 A 
ATOM     79  C   UNL A   1      34.874  31.124  28.162  1.00  0.00     0.040 A 
ATOM     80  F   UNL A   1      35.890  29.285  29.205  1.00  0.00    -0.206 F 
ATOM     81  C   UNL A   1      34.891  32.468  27.794  1.00  0.00     0.006 A 
ENDBRANCH  53  74
BRANCH  65  82
ATOM     82  C   UNL A   1      39.187  32.101  35.752  1.00  0.00     0.057 A 
ATOM     83  C   UNL A   1      38.285  31.605  36.701  1.00  0.00     0.134 A 
ATOM     84  C   UNL A   1      39.641  33.416  35.924  1.00  0.00     0.134 A 
ATOM     85  F   UNL A   1      37.802  30.356  36.594  1.00  0.00    -0.206 F 
ATOM     86  C   UNL A   1      37.831  32.392  37.761  1.00  0.00     0.040 A 
ATOM     87  C   UNL A   1      39.218  34.203  36.995  1.00  0.00     0.040 A 
ATOM     88  F   UNL A   1      40.516  33.954  35.060  1.00  0.00    -0.206 F 
ATOM     89  C   UNL A   1      38.303  33.694  37.914  1.00  0.00     0.006 A 
ENDBRANCH  65  82
ENDBRANCH  39  40
ENDBRANCH  32  34
ENDBRANCH  31  32
ENDBRANCH  30  31
ENDBRANCH  29  30
ENDBRANCH  28  29
ENDBRANCH  27  28
ENDBRANCH   1  27
TORSDOF 20
ENDMDL
MODEL 2
REMARK VINA RESULT:     -10.4      1.179      1.765
REMARK SMILES C[C@H](NC(=O)N1CC[C@@H](C(=O)OCCOCCOCCOC(=O)c2ccc(-c3c4nc(c(-c5c(F)cccc5F)c5ccc([nH]5)c(-c5c(F)cccc5F)c5nc(c(-c6c(F)cccc6F)c6ccc3[nH]6)C=C5)C=C4)cc2)[C@H]1C)c1ccc(Cl)cc1
REMARK SMILES IDX 16 1 15 2 14 3 13 4 12 5 10 6 11 7 9 8 6 9 7 10 78 11 8 12
REMARK SMILES IDX 79 13 4 14 3 15 5 17 2 18 1 19 80 20 81 21 86 22 82 23 85 24
REMARK SMILES IDX 83 25 84 26 17 27 18 28 19 29 20 30 21 31 22 32 23 33 24 34
REMARK SMILES IDX 25 35 77 36 26 37 76 38 27 39 28 40 29 41 70 42 30 43 75 44
REMARK SMILES IDX 69 45 71 46 31 47 74 48 68 49 67 50 32 52 58 53 41 54 57 55
REMARK SMILES IDX 42 56 45 57 56 58 72 59 43 60 44 61 55 63 73 64 46 65 33 66
REMARK SMILES IDX 34 67 39 68 35 69 36 70 38 71 40 72 37 73 59 74 60 75 65 76
REMARK SMILES IDX 61 77 62 78 64 79 66 80 63 81 47 82 48 83 53 84 49 85 50 86
REMARK SMILES IDX 52 87 54 88 51 89
REMARK H PARENT 3 16 71 51 45 62
REMARK Flexibility Score: inf
ROOT
ATOM      1  C   UNL A   1      41.594  20.092  27.430  1.00  0.00     0.188 C 
ENDROOT
BRANCH   1   2
ATOM      2  O   UNL A   1      40.277  19.983  26.911  1.00  0.00    -0.376 OA
BRANCH   2   3
ATOM      3  C   UNL A   1      39.786  21.099  26.165  1.00  0.00     0.202 C 
BRANCH   3   4
ATOM      4  C   UNL A   1      38.491  20.837  25.390  1.00  0.00     0.261 C 
BRANCH   4   5
ATOM      5  O   UNL A   1      37.410  21.518  26.046  1.00  0.00    -0.463 OA
BRANCH   5   6
ATOM      6  C   UNL A   1      36.967  22.706  25.588  1.00  0.00     0.311 C 
ATOM      7  O   UNL A   1      37.489  23.782  25.850  1.00  0.00    -0.252 OA
BRANCH   6   8
ATOM      8  C   UNL A   1      35.808  22.557  24.605  1.00  0.00     0.123 C 
ATOM      9  N   UNL A   1      33.749  23.213  23.568  1.00  0.00    -0.321 N 
ATOM     10  C   UNL A   1      34.808  23.213  22.565  1.00  0.00     0.122 C 
ATOM     11  C   UNL A   1      34.357  23.024  24.944  1.00  0.00     0.098 C 
ATOM     12  C   UNL A   1      36.103  23.351  23.337  1.00  0.00     0.039 C 
ATOM     13  C   UNL A   1      34.372  24.289  25.825  1.00  0.00     0.032 C 
BRANCH   9  14
ATOM     14  C   UNL A   1      32.466  22.991  23.080  1.00  0.00     0.318 C 
ATOM     15  N   UNL A   1      31.591  24.023  22.891  1.00  0.00    -0.331 N 
ATOM     16  H   UNL A   1      30.637  23.808  22.779  1.00  0.00     0.165 HD
ATOM     17  O   UNL A   1      32.107  21.879  22.681  1.00  0.00    -0.249 OA
BRANCH  15  18
ATOM     18  C   UNL A   1      31.981  25.398  22.844  1.00  0.00     0.111 C 
ATOM     19  C   UNL A   1      31.402  26.092  21.600  1.00  0.00     0.036 C 
BRANCH  18  20
ATOM     20  C   UNL A   1      31.885  26.327  24.036  1.00  0.00    -0.026 A 
ATOM     21  C   UNL A   1      31.204  26.082  25.224  1.00  0.00     0.007 A 
ATOM     22  C   UNL A   1      32.537  27.578  23.879  1.00  0.00     0.007 A 
ATOM     23  C   UNL A   1      31.177  27.072  26.222  1.00  0.00     0.021 A 
ATOM     24  C   UNL A   1      32.509  28.557  24.862  1.00  0.00     0.021 A 
ATOM     25  C   UNL A   1      31.824  28.300  26.036  1.00  0.00     0.041 A 
ATOM     26  Cl  UNL A   1      31.773  29.509  27.256  1.00  0.00    -0.084 Cl
ENDBRANCH  18  20
ENDBRANCH  15  18
ENDBRANCH   9  14
ENDBRANCH   6   8
ENDBRANCH   5   6
ENDBRANCH   4   5
ENDBRANCH   3   4
ENDBRANCH   2   3
ENDBRANCH   1   2
BRANCH   1  27
ATOM     27  C   UNL A   1      42.570  20.932  26.616  1.00  0.00     0.188 C 
BRANCH  27  28
ATOM     28  O   UNL A   1      43.492  20.311  25.750  1.00  0.00    -0.376 OA
BRANCH  28  29
ATOM     29  C   UNL A   1      44.505  21.107  25.124  1.00  0.00     0.202 C 
BRANCH  29  30
ATOM     30  C   UNL A   1      44.306  22.245  24.072  1.00  0.00     0.261 C 
BRANCH  30  31
ATOM     31  O   UNL A   1      43.652  23.464  24.448  1.00  0.00    -0.460 OA
BRANCH  31  32
ATOM     32  C   UNL A   1      44.443  24.409  25.013  1.00  0.00     0.338 C 
ATOM     33  O   UNL A   1      45.575  24.706  24.661  1.00  0.00    -0.246 OA
BRANCH  32  34
ATOM     34  C   UNL A   1      43.621  25.232  25.944  1.00  0.00     0.060 A 
ATOM     35  C   UNL A   1      43.819  26.622  25.931  1.00  0.00     0.016 A 
ATOM     36  C   UNL A   1      42.630  24.685  26.765  1.00  0.00     0.016 A 
ATOM     37  C   UNL A   1      43.071  27.458  26.765  1.00  0.00     0.010 A 
ATOM     38  C   UNL A   1      41.896  25.520  27.621  1.00  0.00     0.010 A 
ATOM     39  C   UNL A   1      42.143  26.906  27.655  1.00  0.00    -0.014 A 
BRANCH  39  40
ATOM     40  C   UNL A   1      41.629  27.729  28.785  1.00  0.00     0.031 A 
ATOM     41  C   UNL A   1      42.343  27.625  30.109  1.00  0.00     0.074 A 
ATOM     42  C   UNL A   1      40.588  28.572  28.657  1.00  0.00     0.049 A 
ATOM     43  N   UNL A   1      42.065  28.188  31.256  1.00  0.00    -0.248 NA
ATOM     44  C   UNL A   1      43.535  26.761  30.136  1.00  0.00     0.031 C 
ATOM     45  C   UNL A   1      39.836  28.817  27.429  1.00  0.00     0.029 A 
ATOM     46  N   UNL A   1      39.980  29.378  29.590  1.00  0.00    -0.354 N 
ATOM     47  C   UNL A   1      43.037  27.739  32.141  1.00  0.00     0.074 A 
ATOM     48  C   UNL A   1      43.891  26.830  31.409  1.00  0.00     0.031 C 
ATOM     49  C   UNL A   1      38.857  29.703  27.689  1.00  0.00     0.029 A 
ATOM     50  C   UNL A   1      38.891  30.064  29.105  1.00  0.00     0.049 A 
ATOM     51  H   UNL A   1      40.294  29.457  30.520  1.00  0.00     0.167 HD
ATOM     52  C   UNL A   1      43.215  28.058  33.445  1.00  0.00     0.037 A 
ATOM     53  C   UNL A   1      38.012  30.868  29.740  1.00  0.00     0.037 A 
ATOM     54  C   UNL A   1      42.373  28.962  34.181  1.00  0.00     0.049 A 
ATOM     55  C   UNL A   1      38.178  31.143  31.215  1.00  0.00     0.074 A 
ATOM     56  C   UNL A   1      42.482  29.356  35.503  1.00  0.00     0.029 A 
ATOM     57  N   UNL A   1      41.260  29.604  33.662  1.00  0.00    -0.354 N 
ATOM     58  N   UNL A   1      39.113  30.729  32.038  1.00  0.00    -0.248 NA
ATOM     59  C   UNL A   1      37.166  32.001  31.850  1.00  0.00     0.031 C 
ATOM     60  C   UNL A   1      41.401  30.192  35.800  1.00  0.00     0.029 A 
ATOM     61  C   UNL A   1      40.656  30.370  34.646  1.00  0.00     0.049 A 
ATOM     62  H   UNL A   1      40.946  29.528  32.732  1.00  0.00     0.167 HD
ATOM     63  C   UNL A   1      38.820  31.301  33.272  1.00  0.00     0.074 A 
ATOM     64  C   UNL A   1      37.630  32.104  33.087  1.00  0.00     0.031 C 
ATOM     65  C   UNL A   1      39.477  31.175  34.451  1.00  0.00     0.037 A 
BRANCH  52  66
ATOM     66  C   UNL A   1      44.354  27.398  34.167  1.00  0.00     0.057 A 
ATOM     67  C   UNL A   1      44.212  26.157  34.803  1.00  0.00     0.134 A 
ATOM     68  C   UNL A   1      45.617  28.002  34.206  1.00  0.00     0.134 A 
ATOM     69  F   UNL A   1      43.024  25.533  34.819  1.00  0.00    -0.206 F 
ATOM     70  C   UNL A   1      45.278  25.555  35.473  1.00  0.00     0.040 A 
ATOM     71  C   UNL A   1      46.698  27.395  34.847  1.00  0.00     0.040 A 
ATOM     72  F   UNL A   1      45.823  29.189  33.616  1.00  0.00    -0.206 F 
ATOM     73  C   UNL A   1      46.528  26.171  35.489  1.00  0.00     0.006 A 
ENDBRANCH  52  66
BRANCH  53  74
ATOM     74  C   UNL A   1      36.870  31.466  28.998  1.00  0.00     0.057 A 
ATOM     75  C   UNL A   1      36.868  32.818  28.630  1.00  0.00     0.134 A 
ATOM     76  C   UNL A   1      35.729  30.717  28.687  1.00  0.00     0.134 A 
ATOM     77  F   UNL A   1      37.916  33.600  28.928  1.00  0.00    -0.206 F 
ATOM     78  C   UNL A   1      35.767  33.406  28.002  1.00  0.00     0.040 A 
ATOM     79  C   UNL A   1      34.634  31.284  28.033  1.00  0.00     0.040 A 
ATOM     80  F   UNL A   1      35.661  29.419  29.018  1.00  0.00    -0.206 F 
ATOM     81  C   UNL A   1      34.647  32.636  27.698  1.00  0.00     0.006 A 
ENDBRANCH  53  74
BRANCH  65  82
ATOM     82  C   UNL A   1      38.958  31.956  35.627  1.00  0.00     0.057 A 
ATOM     83  C   UNL A   1      38.156  31.371  36.614  1.00  0.00     0.134 A 
ATOM     84  C   UNL A   1      39.303  33.304  35.795  1.00  0.00     0.134 A 
ATOM     85  F   UNL A   1      37.780  30.086  36.514  1.00  0.00    -0.206 F 
ATOM     86  C   UNL A   1      37.692  32.104  37.709  1.00  0.00     0.040 A 
ATOM     87  C   UNL A   1      38.872  34.039  36.899  1.00  0.00     0.040 A 
ATOM     88  F   UNL A   1      40.080  33.926  34.894  1.00  0.00    -0.206 F 
ATOM     89  C   UNL A   1      38.056  33.441  37.857  1.00  0.00     0.006 A 
ENDBRANCH  65  82
ENDBRANCH  39  40
ENDBRANCH  32  34
ENDBRANCH  31  32
ENDBRANCH  30  31
ENDBRANCH  29  30
ENDBRANCH  28  29
ENDBRANCH  27  28
ENDBRANCH   1  27
TORSDOF 20
ENDMDL
MODEL 3
REMARK VINA RESULT:     -10.3      1.173      6.245
REMARK SMILES C[C@H](NC(=O)N1CC[C@@H](C(=O)OCCOCCOCCOC(=O)c2ccc(-c3c4nc(c(-c5c(F)cccc5F)c5ccc([nH]5)c(-c5c(F)cccc5F)c5nc(c(-c6c(F)cccc6F)c6ccc3[nH]6)C=C5)C=C4)cc2)[C@H]1C)c1ccc(Cl)cc1
REMARK SMILES IDX 16 1 15 2 14 3 13 4 12 5 10 6 11 7 9 8 6 9 7 10 78 11 8 12
REMARK SMILES IDX 79 13 4 14 3 15 5 17 2 18 1 19 80 20 81 21 86 22 82 23 85 24
REMARK SMILES IDX 83 25 84 26 17 27 18 28 19 29 20 30 21 31 22 32 23 33 24 34
REMARK SMILES IDX 25 35 77 36 26 37 76 38 27 39 28 40 29 41 70 42 30 43 75 44
REMARK SMILES IDX 69 45 71 46 31 47 74 48 68 49 67 50 32 52 58 53 41 54 57 55
REMARK SMILES IDX 42 56 45 57 56 58 72 59 43 60 44 61 55 63 73 64 46 65 33 66
REMARK SMILES IDX 34 67 39 68 35 69 36 70 38 71 40 72 37 73 59 74 60 75 65 76
REMARK SMILES IDX 61 77 62 78 64 79 66 80 63 81 47 82 48 83 53 84 49 85 50 86
REMARK SMILES IDX 52 87 54 88 51 89
REMARK H PARENT 3 16 71 51 45 62
REMARK Flexibility Score: inf
ROOT
ATOM      1  C   UNL A   1      39.929  20.957  26.262  1.00  0.00     0.188 C 
ENDROOT
BRANCH   1   2
ATOM      2  O   UNL A   1      39.107  21.945  25.657  1.00  0.00    -0.376 OA
BRANCH   2   3
ATOM      3  C   UNL A   1      37.695  21.749  25.748  1.00  0.00     0.202 C 
BRANCH   3   4
ATOM      4  C   UNL A   1      36.848  22.962  25.351  1.00  0.00     0.261 C 
BRANCH   4   5
ATOM      5  O   UNL A   1      36.013  23.330  26.460  1.00  0.00    -0.463 OA
BRANCH   5   6
ATOM      6  C   UNL A   1      34.825  22.724  26.657  1.00  0.00     0.311 C 
ATOM      7  O   UNL A   1      34.668  21.724  27.345  1.00  0.00    -0.252 OA
BRANCH   6   8
ATOM      8  C   UNL A   1      33.667  23.491  26.022  1.00  0.00     0.123 C 
ATOM      9  N   UNL A   1      31.714  23.722  24.652  1.00  0.00    -0.321 N 
ATOM     10  C   UNL A   1      31.362  24.022  26.036  1.00  0.00     0.122 C 
ATOM     11  C   UNL A   1      33.118  23.154  24.600  1.00  0.00     0.098 C 
ATOM     12  C   UNL A   1      32.416  23.341  26.883  1.00  0.00     0.039 C 
ATOM     13  C   UNL A   1      33.195  21.639  24.320  1.00  0.00     0.032 C 
BRANCH   9  14
ATOM     14  C   UNL A   1      30.926  24.343  23.689  1.00  0.00     0.318 C 
ATOM     15  N   UNL A   1      31.076  25.670  23.399  1.00  0.00    -0.331 N 
ATOM     16  H   UNL A   1      30.356  26.121  22.901  1.00  0.00     0.165 HD
ATOM     17  O   UNL A   1      30.150  23.703  22.973  1.00  0.00    -0.249 OA
BRANCH  15  18
ATOM     18  C   UNL A   1      32.220  26.442  23.774  1.00  0.00     0.111 C 
ATOM     19  C   UNL A   1      33.170  26.634  22.580  1.00  0.00     0.036 C 
BRANCH  18  20
ATOM     20  C   UNL A   1      32.126  27.731  24.562  1.00  0.00    -0.026 A 
ATOM     21  C   UNL A   1      32.746  28.008  25.776  1.00  0.00     0.007 A 
ATOM     22  C   UNL A   1      31.285  28.725  23.994  1.00  0.00     0.007 A 
ATOM     23  C   UNL A   1      32.521  29.247  26.401  1.00  0.00     0.021 A 
ATOM     24  C   UNL A   1      31.060  29.947  24.610  1.00  0.00     0.021 A 
ATOM     25  C   UNL A   1      31.681  30.205  25.820  1.00  0.00     0.041 A 
ATOM     26  Cl  UNL A   1      31.401  31.711  26.599  1.00  0.00    -0.084 Cl
ENDBRANCH  18  20
ENDBRANCH  15  18
ENDBRANCH   9  14
ENDBRANCH   6   8
ENDBRANCH   5   6
ENDBRANCH   4   5
ENDBRANCH   3   4
ENDBRANCH   2   3
ENDBRANCH   1   2
BRANCH   1  27
ATOM     27  C   UNL A   1      41.055  21.471  27.151  1.00  0.00     0.188 C 
BRANCH  27  28
ATOM     28  O   UNL A   1      42.364  20.973  26.998  1.00  0.00    -0.376 OA
BRANCH  28  29
ATOM     29  C   UNL A   1      43.032  21.142  25.742  1.00  0.00     0.202 C 
BRANCH  29  30
ATOM     30  C   UNL A   1      43.889  22.363  25.276  1.00  0.00     0.261 C 
BRANCH  30  31
ATOM     31  O   UNL A   1      43.257  23.619  25.000  1.00  0.00    -0.460 OA
BRANCH  31  32
ATOM     32  C   UNL A   1      43.992  24.724  25.276  1.00  0.00     0.338 C 
ATOM     33  O   UNL A   1      44.940  25.140  24.628  1.00  0.00    -0.246 OA
BRANCH  32  34
ATOM     34  C   UNL A   1      43.293  25.518  26.326  1.00  0.00     0.060 A 
ATOM     35  C   UNL A   1      43.654  26.867  26.470  1.00  0.00     0.016 A 
ATOM     36  C   UNL A   1      42.264  24.992  27.113  1.00  0.00     0.016 A 
ATOM     37  C   UNL A   1      43.028  27.676  27.422  1.00  0.00     0.010 A 
ATOM     38  C   UNL A   1      41.652  25.797  28.087  1.00  0.00     0.010 A 
ATOM     39  C   UNL A   1      42.062  27.131  28.275  1.00  0.00    -0.014 A 
BRANCH  39  40
ATOM     40  C   UNL A   1      41.674  27.865  29.511  1.00  0.00     0.031 A 
ATOM     41  C   UNL A   1      40.473  28.775  29.437  1.00  0.00     0.074 A 
ATOM     42  C   UNL A   1      42.327  27.722  30.678  1.00  0.00     0.049 A 
ATOM     43  N   UNL A   1      39.964  29.564  30.348  1.00  0.00    -0.248 NA
ATOM     44  C   UNL A   1      39.753  28.795  28.153  1.00  0.00     0.031 C 
ATOM     45  C   UNL A   1      43.468  26.841  30.913  1.00  0.00     0.029 A 
ATOM     46  N   UNL A   1      42.118  28.333  31.893  1.00  0.00    -0.354 N 
ATOM     47  C   UNL A   1      38.874  30.180  29.745  1.00  0.00     0.074 A 
ATOM     48  C   UNL A   1      38.817  29.702  28.381  1.00  0.00     0.031 C 
ATOM     49  C   UNL A   1      43.868  26.980  32.191  1.00  0.00     0.029 A 
ATOM     50  C   UNL A   1      43.034  27.981  32.856  1.00  0.00     0.049 A 
ATOM     51  H   UNL A   1      41.381  28.965  32.057  1.00  0.00     0.167 HD
ATOM     52  C   UNL A   1      37.992  31.059  30.275  1.00  0.00     0.037 A 
ATOM     53  C   UNL A   1      43.191  28.433  34.117  1.00  0.00     0.037 A 
ATOM     54  C   UNL A   1      38.040  31.539  31.630  1.00  0.00     0.049 A 
ATOM     55  C   UNL A   1      42.248  29.478  34.662  1.00  0.00     0.074 A 
ATOM     56  C   UNL A   1      37.181  32.421  32.261  1.00  0.00     0.029 A 
ATOM     57  N   UNL A   1      39.005  31.185  32.559  1.00  0.00    -0.354 N 
ATOM     58  N   UNL A   1      41.209  30.039  34.090  1.00  0.00    -0.248 NA
ATOM     59  C   UNL A   1      42.498  29.951  36.033  1.00  0.00     0.031 C 
ATOM     60  C   UNL A   1      37.660  32.646  33.556  1.00  0.00     0.029 A 
ATOM     61  C   UNL A   1      38.780  31.855  33.751  1.00  0.00     0.049 A 
ATOM     62  H   UNL A   1      39.742  30.552  32.397  1.00  0.00     0.167 HD
ATOM     63  C   UNL A   1      40.666  30.901  35.039  1.00  0.00     0.074 A 
ATOM     64  C   UNL A   1      41.481  30.777  36.228  1.00  0.00     0.031 C 
ATOM     65  C   UNL A   1      39.590  31.719  34.935  1.00  0.00     0.037 A 
BRANCH  52  66
ATOM     66  C   UNL A   1      36.911  31.580  29.373  1.00  0.00     0.057 A 
ATOM     67  C   UNL A   1      35.772  30.824  29.062  1.00  0.00     0.134 A 
ATOM     68  C   UNL A   1      37.001  32.866  28.826  1.00  0.00     0.134 A 
ATOM     69  F   UNL A   1      35.633  29.577  29.538  1.00  0.00    -0.206 F 
ATOM     70  C   UNL A   1      34.776  31.320  28.219  1.00  0.00     0.040 A 
ATOM     71  C   UNL A   1      35.996  33.384  28.007  1.00  0.00     0.040 A 
ATOM     72  F   UNL A   1      38.062  33.645  29.085  1.00  0.00    -0.206 F 
ATOM     73  C   UNL A   1      34.883  32.607  27.696  1.00  0.00     0.006 A 
ENDBRANCH  52  66
BRANCH  53  74
ATOM     74  C   UNL A   1      44.304  27.924  34.964  1.00  0.00     0.057 A 
ATOM     75  C   UNL A   1      45.538  28.585  35.018  1.00  0.00     0.134 A 
ATOM     76  C   UNL A   1      44.180  26.737  35.697  1.00  0.00     0.134 A 
ATOM     77  F   UNL A   1      45.734  29.709  34.314  1.00  0.00    -0.206 F 
ATOM     78  C   UNL A   1      46.612  28.072  35.749  1.00  0.00     0.040 A 
ATOM     79  C   UNL A   1      45.236  26.230  36.456  1.00  0.00     0.040 A 
ATOM     80  F   UNL A   1      43.028  26.050  35.683  1.00  0.00    -0.206 F 
ATOM     81  C   UNL A   1      46.461  26.893  36.475  1.00  0.00     0.006 A 
ENDBRANCH  53  74
BRANCH  65  82
ATOM     82  C   UNL A   1      39.197  32.512  36.150  1.00  0.00     0.057 A 
ATOM     83  C   UNL A   1      39.687  33.802  36.389  1.00  0.00     0.134 A 
ATOM     84  C   UNL A   1      38.278  31.993  37.073  1.00  0.00     0.134 A 
ATOM     85  F   UNL A   1      40.576  34.359  35.551  1.00  0.00    -0.206 F 
ATOM     86  C   UNL A   1      39.302  34.534  37.515  1.00  0.00     0.040 A 
ATOM     87  C   UNL A   1      37.862  32.727  38.185  1.00  0.00     0.040 A 
ATOM     88  F   UNL A   1      37.757  30.769  36.901  1.00  0.00    -0.206 F 
ATOM     89  C   UNL A   1      38.382  33.999  38.413  1.00  0.00     0.006 A 
ENDBRANCH  65  82
ENDBRANCH  39  40
ENDBRANCH  32  34
ENDBRANCH  31  32
ENDBRANCH  30  31
ENDBRANCH  29  30
ENDBRANCH  28  29
ENDBRANCH  27  28
ENDBRANCH   1  27
TORSDOF 20
ENDMDL
