MODEL 1
REMARK VINA RESULT:     -10.9      0.000      0.000
REMARK SMILES COc1cccc(/C=C(/CC(=O)OCCOCCOCCOC(=O)c2ccc(-c3c4nc(c(-c5c(F)cccc5F)c5ccc([nH]5)c(-c5c(F)cccc5F)c5nc(c(-c6c(F)cccc6F)c6ccc3[nH]6)C=C5)C=C4)cc2)c2nc3ccccc3o2)c1
REMARK SMILES IDX 17 1 16 2 15 3 14 4 13 5 11 6 12 7 10 8 9 9 8 10 7 11 3 12
REMARK SMILES IDX 4 13 88 14 5 15 6 16 2 17 1 18 79 19 80 20 87 21 81 22 86 23
REMARK SMILES IDX 82 24 85 25 83 26 84 27 18 28 19 29 20 30 21 31 22 32 23 33
REMARK SMILES IDX 24 34 25 35 26 36 78 37 27 38 77 39 28 40 29 41 30 42 71 43
REMARK SMILES IDX 31 44 76 45 70 46 72 47 32 48 75 49 69 50 68 51 33 53 59 54
REMARK SMILES IDX 42 55 58 56 43 57 46 58 57 59 73 60 44 61 45 62 56 64 74 65
REMARK SMILES IDX 47 66 34 67 35 68 40 69 36 70 37 71 39 72 41 73 38 74 60 75
REMARK SMILES IDX 61 76 66 77 62 78 63 79 65 80 67 81 64 82 48 83 49 84 54 85
REMARK SMILES IDX 50 86 51 87 53 88 55 89 52 90
REMARK H PARENT 72 52 46 63
REMARK Flexibility Score: inf
ROOT
ATOM      1  C   UNL A   1      30.586  28.456  23.921  1.00  0.00     0.188 C 
ENDROOT
BRANCH   1   2
ATOM      2  O   UNL A   1      29.919  27.347  23.327  1.00  0.00    -0.376 OA
BRANCH   2   3
ATOM      3  C   UNL A   1      29.417  26.349  24.205  1.00  0.00     0.202 C 
BRANCH   3   4
ATOM      4  C   UNL A   1      30.484  25.691  25.085  1.00  0.00     0.261 C 
BRANCH   4   5
ATOM      5  O   UNL A   1      29.893  24.879  26.130  1.00  0.00    -0.463 OA
BRANCH   5   6
ATOM      6  C   UNL A   1      30.573  23.757  26.477  1.00  0.00     0.310 C 
ATOM      7  O   UNL A   1      30.938  23.507  27.622  1.00  0.00    -0.252 OA
BRANCH   6   8
ATOM      8  C   UNL A   1      30.711  22.726  25.349  1.00  0.00     0.163 C 
BRANCH   8   9
ATOM      9  C   UNL A   1      32.048  22.198  24.839  1.00  0.00     0.026 C 
ATOM     10  C   UNL A   1      33.095  23.048  24.704  1.00  0.00     0.018 C 
BRANCH  10  11
ATOM     11  C   UNL A   1      34.522  22.802  24.375  1.00  0.00    -0.021 A 
ATOM     12  C   UNL A   1      36.676  21.931  25.140  1.00  0.00     0.119 A 
ATOM     13  C   UNL A   1      37.239  22.243  23.904  1.00  0.00     0.046 A 
ATOM     14  C   UNL A   1      35.322  22.197  25.364  1.00  0.00     0.054 A 
ATOM     15  C   UNL A   1      36.470  22.852  22.916  1.00  0.00     0.004 A 
ATOM     16  C   UNL A   1      35.132  23.163  23.167  1.00  0.00     0.008 A 
BRANCH  12  17
ATOM     17  O   UNL A   1      37.552  21.387  26.039  1.00  0.00    -0.497 OA
ATOM     18  C   UNL A   1      38.904  21.823  25.975  1.00  0.00     0.278 C 
ENDBRANCH  12  17
ENDBRANCH  10  11
BRANCH   9  19
ATOM     19  C   UNL A   1      32.254  20.782  24.635  1.00  0.00     0.223 A 
ATOM     20  N   UNL A   1      32.456  20.199  23.458  1.00  0.00    -0.210 NA
ATOM     21  O   UNL A   1      32.303  19.858  25.676  1.00  0.00    -0.436 OA
ATOM     22  C   UNL A   1      32.734  18.879  23.739  1.00  0.00     0.110 A 
ATOM     23  C   UNL A   1      32.639  18.668  25.098  1.00  0.00     0.155 A 
ATOM     24  C   UNL A   1      33.090  17.797  22.920  1.00  0.00     0.032 A 
ATOM     25  C   UNL A   1      32.886  17.447  25.720  1.00  0.00     0.049 A 
ATOM     26  C   UNL A   1      33.327  16.546  23.497  1.00  0.00     0.003 A 
ATOM     27  C   UNL A   1      33.234  16.378  24.878  1.00  0.00     0.004 A 
ENDBRANCH   9  19
ENDBRANCH   8   9
ENDBRANCH   6   8
ENDBRANCH   5   6
ENDBRANCH   4   5
ENDBRANCH   3   4
ENDBRANCH   2   3
ENDBRANCH   1   2
BRANCH   1  28
ATOM     28  C   UNL A   1      32.119  28.549  23.792  1.00  0.00     0.188 C 
BRANCH  28  29
ATOM     29  O   UNL A   1      32.693  29.405  24.776  1.00  0.00    -0.376 OA
BRANCH  29  30
ATOM     30  C   UNL A   1      31.797  29.725  25.834  1.00  0.00     0.202 C 
BRANCH  30  31
ATOM     31  C   UNL A   1      32.464  30.628  26.875  1.00  0.00     0.261 C 
BRANCH  31  32
ATOM     32  O   UNL A   1      33.505  29.964  27.630  1.00  0.00    -0.460 OA
BRANCH  32  33
ATOM     33  C   UNL A   1      34.485  30.755  28.110  1.00  0.00     0.338 C 
ATOM     34  O   UNL A   1      34.396  31.953  28.321  1.00  0.00    -0.246 OA
BRANCH  33  35
ATOM     35  C   UNL A   1      35.756  30.013  28.350  1.00  0.00     0.060 A 
ATOM     36  C   UNL A   1      36.181  29.673  29.637  1.00  0.00     0.016 A 
ATOM     37  C   UNL A   1      36.669  29.939  27.298  1.00  0.00     0.016 A 
ATOM     38  C   UNL A   1      37.534  29.385  29.890  1.00  0.00     0.010 A 
ATOM     39  C   UNL A   1      38.005  29.580  27.540  1.00  0.00     0.010 A 
ATOM     40  C   UNL A   1      38.470  29.344  28.845  1.00  0.00    -0.014 A 
BRANCH  40  41
ATOM     41  C   UNL A   1      39.917  29.055  29.085  1.00  0.00     0.031 A 
ATOM     42  C   UNL A   1      40.866  30.127  29.568  1.00  0.00     0.074 A 
ATOM     43  C   UNL A   1      40.416  27.828  28.834  1.00  0.00     0.049 A 
ATOM     44  N   UNL A   1      42.178  30.131  29.587  1.00  0.00    -0.248 NA
ATOM     45  C   UNL A   1      40.261  31.349  30.117  1.00  0.00     0.031 C 
ATOM     46  C   UNL A   1      39.632  26.657  28.448  1.00  0.00     0.029 A 
ATOM     47  N   UNL A   1      41.716  27.374  28.842  1.00  0.00    -0.354 N 
ATOM     48  C   UNL A   1      42.557  31.360  30.117  1.00  0.00     0.074 A 
ATOM     49  C   UNL A   1      41.331  32.076  30.414  1.00  0.00     0.031 C 
ATOM     50  C   UNL A   1      40.462  25.625  28.238  1.00  0.00     0.029 A 
ATOM     51  C   UNL A   1      41.840  26.084  28.386  1.00  0.00     0.049 A 
ATOM     52  H   UNL A   1      42.478  27.918  29.143  1.00  0.00     0.167 HD
ATOM     53  C   UNL A   1      43.805  31.848  30.328  1.00  0.00     0.037 A 
ATOM     54  C   UNL A   1      42.927  25.363  28.048  1.00  0.00     0.037 A 
ATOM     55  C   UNL A   1      45.030  31.132  30.052  1.00  0.00     0.049 A 
ATOM     56  C   UNL A   1      44.296  25.965  28.166  1.00  0.00     0.074 A 
ATOM     57  C   UNL A   1      46.338  31.554  30.243  1.00  0.00     0.029 A 
ATOM     58  N   UNL A   1      45.103  29.851  29.533  1.00  0.00    -0.354 N 
ATOM     59  N   UNL A   1      44.643  27.149  28.603  1.00  0.00    -0.248 NA
ATOM     60  C   UNL A   1      45.425  25.130  27.728  1.00  0.00     0.031 C 
ATOM     61  C   UNL A   1      47.199  30.549  29.787  1.00  0.00     0.029 A 
ATOM     62  C   UNL A   1      46.430  29.479  29.366  1.00  0.00     0.049 A 
ATOM     63  H   UNL A   1      44.327  29.285  29.313  1.00  0.00     0.167 HD
ATOM     64  C   UNL A   1      46.029  27.195  28.514  1.00  0.00     0.074 A 
ATOM     65  C   UNL A   1      46.460  25.916  27.990  1.00  0.00     0.031 C 
ATOM     66  C   UNL A   1      46.864  28.211  28.842  1.00  0.00     0.037 A 
BRANCH  53  67
ATOM     67  C   UNL A   1      43.940  33.253  30.847  1.00  0.00     0.057 A 
ATOM     68  C   UNL A   1      43.909  34.369  30.002  1.00  0.00     0.134 A 
ATOM     69  C   UNL A   1      43.998  33.492  32.227  1.00  0.00     0.134 A 
ATOM     70  F   UNL A   1      43.855  34.213  28.671  1.00  0.00    -0.206 F 
ATOM     71  C   UNL A   1      43.937  35.670  30.511  1.00  0.00     0.040 A 
ATOM     72  C   UNL A   1      44.005  34.788  32.749  1.00  0.00     0.040 A 
ATOM     73  F   UNL A   1      44.016  32.468  33.095  1.00  0.00    -0.206 F 
ATOM     74  C   UNL A   1      43.976  35.882  31.888  1.00  0.00     0.006 A 
ENDBRANCH  53  67
BRANCH  54  75
ATOM     75  C   UNL A   1      42.746  24.000  27.490  1.00  0.00     0.057 A 
ATOM     76  C   UNL A   1      42.540  22.896  28.323  1.00  0.00     0.134 A 
ATOM     77  C   UNL A   1      42.757  23.775  26.107  1.00  0.00     0.134 A 
ATOM     78  F   UNL A   1      42.550  23.045  29.656  1.00  0.00    -0.206 F 
ATOM     79  C   UNL A   1      42.347  21.617  27.801  1.00  0.00     0.040 A 
ATOM     80  C   UNL A   1      42.535  22.509  25.571  1.00  0.00     0.040 A 
ATOM     81  F   UNL A   1      42.954  24.795  25.257  1.00  0.00    -0.206 F 
ATOM     82  C   UNL A   1      42.333  21.423  26.420  1.00  0.00     0.006 A 
ENDBRANCH  54  75
BRANCH  66  83
ATOM     83  C   UNL A   1      48.337  27.965  28.680  1.00  0.00     0.057 A 
ATOM     84  C   UNL A   1      49.016  28.279  27.497  1.00  0.00     0.134 A 
ATOM     85  C   UNL A   1      49.087  27.408  29.725  1.00  0.00     0.134 A 
ATOM     86  F   UNL A   1      48.355  28.800  26.452  1.00  0.00    -0.206 F 
ATOM     87  C   UNL A   1      50.381  28.024  27.347  1.00  0.00     0.040 A 
ATOM     88  C   UNL A   1      50.456  27.169  29.596  1.00  0.00     0.040 A 
ATOM     89  F   UNL A   1      48.500  27.087  30.889  1.00  0.00    -0.206 F 
ATOM     90  C   UNL A   1      51.106  27.470  28.401  1.00  0.00     0.006 A 
ENDBRANCH  66  83
ENDBRANCH  40  41
ENDBRANCH  33  35
ENDBRANCH  32  33
ENDBRANCH  31  32
ENDBRANCH  30  31
ENDBRANCH  29  30
ENDBRANCH  28  29
ENDBRANCH   1  28
TORSDOF 21
ENDMDL
MODEL 2
REMARK VINA RESULT:     -10.8      1.778      3.433
REMARK SMILES COc1cccc(/C=C(/CC(=O)OCCOCCOCCOC(=O)c2ccc(-c3c4nc(c(-c5c(F)cccc5F)c5ccc([nH]5)c(-c5c(F)cccc5F)c5nc(c(-c6c(F)cccc6F)c6ccc3[nH]6)C=C5)C=C4)cc2)c2nc3ccccc3o2)c1
REMARK SMILES IDX 17 1 16 2 15 3 14 4 13 5 11 6 12 7 10 8 9 9 8 10 7 11 3 12
REMARK SMILES IDX 4 13 88 14 5 15 6 16 2 17 1 18 79 19 80 20 87 21 81 22 86 23
REMARK SMILES IDX 82 24 85 25 83 26 84 27 18 28 19 29 20 30 21 31 22 32 23 33
REMARK SMILES IDX 24 34 25 35 26 36 78 37 27 38 77 39 28 40 29 41 30 42 71 43
REMARK SMILES IDX 31 44 76 45 70 46 72 47 32 48 75 49 69 50 68 51 33 53 59 54
REMARK SMILES IDX 42 55 58 56 43 57 46 58 57 59 73 60 44 61 45 62 56 64 74 65
REMARK SMILES IDX 47 66 34 67 35 68 40 69 36 70 37 71 39 72 41 73 38 74 60 75
REMARK SMILES IDX 61 76 66 77 62 78 63 79 65 80 67 81 64 82 48 83 49 84 54 85
REMARK SMILES IDX 50 86 51 87 53 88 55 89 52 90
REMARK H PARENT 72 52 46 63
REMARK Flexibility Score: inf
ROOT
ATOM      1  C   UNL A   1      31.995  29.355  24.805  1.00  0.00     0.188 C 
ENDROOT
BRANCH   1   2
ATOM      2  O   UNL A   1      32.096  29.199  23.393  1.00  0.00    -0.376 OA
BRANCH   2   3
ATOM      3  C   UNL A   1      30.891  28.950  22.683  1.00  0.00     0.202 C 
BRANCH   3   4
ATOM      4  C   UNL A   1      30.377  27.511  22.799  1.00  0.00     0.261 C 
BRANCH   4   5
ATOM      5  O   UNL A   1      31.378  26.548  22.389  1.00  0.00    -0.463 OA
BRANCH   5   6
ATOM      6  C   UNL A   1      31.982  25.847  23.382  1.00  0.00     0.310 C 
ATOM      7  O   UNL A   1      31.646  25.909  24.561  1.00  0.00    -0.252 OA
BRANCH   6   8
ATOM      8  C   UNL A   1      33.022  24.830  22.897  1.00  0.00     0.163 C 
BRANCH   8   9
ATOM      9  C   UNL A   1      33.383  23.556  23.656  1.00  0.00     0.026 C 
ATOM     10  C   UNL A   1      32.486  22.543  23.725  1.00  0.00     0.018 C 
BRANCH  10  11
ATOM     11  C   UNL A   1      32.606  21.162  24.259  1.00  0.00    -0.021 A 
ATOM     12  C   UNL A   1      32.724  18.774  23.744  1.00  0.00     0.119 A 
ATOM     13  C   UNL A   1      32.852  18.490  25.103  1.00  0.00     0.046 A 
ATOM     14  C   UNL A   1      32.616  20.104  23.330  1.00  0.00     0.054 A 
ATOM     15  C   UNL A   1      32.833  19.518  26.040  1.00  0.00     0.004 A 
ATOM     16  C   UNL A   1      32.672  20.841  25.621  1.00  0.00     0.008 A 
BRANCH  12  17
ATOM     17  O   UNL A   1      32.702  17.670  22.936  1.00  0.00    -0.497 OA
ATOM     18  C   UNL A   1      33.437  16.533  23.368  1.00  0.00     0.278 C 
ENDBRANCH  12  17
ENDBRANCH  10  11
BRANCH   9  19
ATOM     19  C   UNL A   1      34.716  23.360  24.177  1.00  0.00     0.223 A 
ATOM     20  N   UNL A   1      35.374  24.224  24.944  1.00  0.00    -0.210 NA
ATOM     21  O   UNL A   1      35.460  22.203  23.962  1.00  0.00    -0.436 OA
ATOM     22  C   UNL A   1      36.537  23.584  25.314  1.00  0.00     0.110 A 
ATOM     23  C   UNL A   1      36.592  22.345  24.712  1.00  0.00     0.155 A 
ATOM     24  C   UNL A   1      37.589  23.960  26.161  1.00  0.00     0.032 A 
ATOM     25  C   UNL A   1      37.623  21.429  24.898  1.00  0.00     0.049 A 
ATOM     26  C   UNL A   1      38.658  23.082  26.363  1.00  0.00     0.003 A 
ATOM     27  C   UNL A   1      38.668  21.831  25.745  1.00  0.00     0.004 A 
ENDBRANCH   9  19
ENDBRANCH   8   9
ENDBRANCH   6   8
ENDBRANCH   5   6
ENDBRANCH   4   5
ENDBRANCH   3   4
ENDBRANCH   2   3
ENDBRANCH   1   2
BRANCH   1  28
ATOM     28  C   UNL A   1      31.116  30.492  25.360  1.00  0.00     0.188 C 
BRANCH  28  29
ATOM     29  O   UNL A   1      31.768  31.223  26.395  1.00  0.00    -0.376 OA
BRANCH  29  30
ATOM     30  C   UNL A   1      32.885  30.538  26.948  1.00  0.00     0.202 C 
BRANCH  30  31
ATOM     31  C   UNL A   1      33.801  31.495  27.716  1.00  0.00     0.261 C 
BRANCH  31  32
ATOM     32  O   UNL A   1      35.189  31.084  27.721  1.00  0.00    -0.460 OA
BRANCH  32  33
ATOM     33  C   UNL A   1      35.773  30.983  28.931  1.00  0.00     0.338 C 
ATOM     34  O   UNL A   1      35.414  31.555  29.947  1.00  0.00    -0.246 OA
BRANCH  33  35
ATOM     35  C   UNL A   1      36.967  30.092  28.920  1.00  0.00     0.060 A 
ATOM     36  C   UNL A   1      37.572  29.653  30.101  1.00  0.00     0.016 A 
ATOM     37  C   UNL A   1      37.662  29.957  27.718  1.00  0.00     0.016 A 
ATOM     38  C   UNL A   1      38.904  29.201  30.096  1.00  0.00     0.010 A 
ATOM     39  C   UNL A   1      38.967  29.437  27.705  1.00  0.00     0.010 A 
ATOM     40  C   UNL A   1      39.626  29.096  28.898  1.00  0.00    -0.014 A 
BRANCH  40  41
ATOM     41  C   UNL A   1      41.048  28.633  28.864  1.00  0.00     0.031 A 
ATOM     42  C   UNL A   1      42.196  29.600  29.041  1.00  0.00     0.074 A 
ATOM     43  C   UNL A   1      41.335  27.337  28.633  1.00  0.00     0.049 A 
ATOM     44  N   UNL A   1      43.473  29.430  28.791  1.00  0.00    -0.248 NA
ATOM     45  C   UNL A   1      41.868  30.926  29.585  1.00  0.00     0.031 C 
ATOM     46  C   UNL A   1      40.356  26.258  28.525  1.00  0.00     0.029 A 
ATOM     47  N   UNL A   1      42.545  26.715  28.418  1.00  0.00    -0.354 N 
ATOM     48  C   UNL A   1      44.096  30.631  29.116  1.00  0.00     0.074 A 
ATOM     49  C   UNL A   1      43.055  31.521  29.588  1.00  0.00     0.031 C 
ATOM     50  C   UNL A   1      40.996  25.112  28.248  1.00  0.00     0.029 A 
ATOM     51  C   UNL A   1      42.417  25.393  28.068  1.00  0.00     0.049 A 
ATOM     52  H   UNL A   1      43.412  27.172  28.505  1.00  0.00     0.167 HD
ATOM     53  C   UNL A   1      45.409  30.960  29.021  1.00  0.00     0.037 A 
ATOM     54  C   UNL A   1      43.315  24.512  27.585  1.00  0.00     0.037 A 
ATOM     55  C   UNL A   1      46.455  30.071  28.571  1.00  0.00     0.049 A 
ATOM     56  C   UNL A   1      44.739  24.933  27.365  1.00  0.00     0.074 A 
ATOM     57  C   UNL A   1      47.813  30.327  28.450  1.00  0.00     0.029 A 
ATOM     58  N   UNL A   1      46.266  28.759  28.169  1.00  0.00    -0.354 N 
ATOM     59  N   UNL A   1      45.306  26.087  27.609  1.00  0.00    -0.248 NA
ATOM     60  C   UNL A   1      45.643  23.928  26.786  1.00  0.00     0.031 C 
ATOM     61  C   UNL A   1      48.434  29.188  27.925  1.00  0.00     0.029 A 
ATOM     62  C   UNL A   1      47.474  28.204  27.771  1.00  0.00     0.049 A 
ATOM     63  H   UNL A   1      45.400  28.289  28.166  1.00  0.00     0.167 HD
ATOM     64  C   UNL A   1      46.637  25.942  27.236  1.00  0.00     0.074 A 
ATOM     65  C   UNL A   1      46.794  24.585  26.757  1.00  0.00     0.031 C 
ATOM     66  C   UNL A   1      47.635  26.857  27.290  1.00  0.00     0.037 A 
BRANCH  53  67
ATOM     67  C   UNL A   1      45.814  32.367  29.369  1.00  0.00     0.057 A 
ATOM     68  C   UNL A   1      45.762  33.411  28.438  1.00  0.00     0.134 A 
ATOM     69  C   UNL A   1      46.164  32.695  30.686  1.00  0.00     0.134 A 
ATOM     70  F   UNL A   1      45.437  33.168  27.160  1.00  0.00    -0.206 F 
ATOM     71  C   UNL A   1      46.048  34.729  28.805  1.00  0.00     0.040 A 
ATOM     72  C   UNL A   1      46.431  34.011  31.069  1.00  0.00     0.040 A 
ATOM     73  F   UNL A   1      46.219  31.744  31.632  1.00  0.00    -0.206 F 
ATOM     74  C   UNL A   1      46.375  35.033  30.125  1.00  0.00     0.006 A 
ENDBRANCH  53  67
BRANCH  54  75
ATOM     75  C   UNL A   1      42.862  23.151  27.206  1.00  0.00     0.057 A 
ATOM     76  C   UNL A   1      42.651  22.162  28.170  1.00  0.00     0.134 A 
ATOM     77  C   UNL A   1      42.613  22.817  25.868  1.00  0.00     0.134 A 
ATOM     78  F   UNL A   1      42.903  22.414  29.463  1.00  0.00    -0.206 F 
ATOM     79  C   UNL A   1      42.204  20.887  27.819  1.00  0.00     0.040 A 
ATOM     80  C   UNL A   1      42.136  21.559  25.506  1.00  0.00     0.040 A 
ATOM     81  F   UNL A   1      42.801  23.724  24.897  1.00  0.00    -0.206 F 
ATOM     82  C   UNL A   1      41.934  20.588  26.484  1.00  0.00     0.006 A 
ENDBRANCH  54  75
BRANCH  66  83
ATOM     83  C   UNL A   1      49.001  26.406  26.856  1.00  0.00     0.057 A 
ATOM     84  C   UNL A   1      49.873  25.739  27.725  1.00  0.00     0.134 A 
ATOM     85  C   UNL A   1      49.448  26.640  25.548  1.00  0.00     0.134 A 
ATOM     86  F   UNL A   1      49.513  25.497  28.995  1.00  0.00    -0.206 F 
ATOM     87  C   UNL A   1      51.150  25.346  27.320  1.00  0.00     0.040 A 
ATOM     88  C   UNL A   1      50.714  26.232  25.124  1.00  0.00     0.040 A 
ATOM     89  F   UNL A   1      48.661  27.269  24.661  1.00  0.00    -0.206 F 
ATOM     90  C   UNL A   1      51.573  25.589  26.014  1.00  0.00     0.006 A 
ENDBRANCH  66  83
ENDBRANCH  40  41
ENDBRANCH  33  35
ENDBRANCH  32  33
ENDBRANCH  31  32
ENDBRANCH  30  31
ENDBRANCH  29  30
ENDBRANCH  28  29
ENDBRANCH   1  28
TORSDOF 21
ENDMDL
MODEL 3
REMARK VINA RESULT:     -10.7      2.763      8.058
REMARK SMILES COc1cccc(/C=C(/CC(=O)OCCOCCOCCOC(=O)c2ccc(-c3c4nc(c(-c5c(F)cccc5F)c5ccc([nH]5)c(-c5c(F)cccc5F)c5nc(c(-c6c(F)cccc6F)c6ccc3[nH]6)C=C5)C=C4)cc2)c2nc3ccccc3o2)c1
REMARK SMILES IDX 17 1 16 2 15 3 14 4 13 5 11 6 12 7 10 8 9 9 8 10 7 11 3 12
REMARK SMILES IDX 4 13 88 14 5 15 6 16 2 17 1 18 79 19 80 20 87 21 81 22 86 23
REMARK SMILES IDX 82 24 85 25 83 26 84 27 18 28 19 29 20 30 21 31 22 32 23 33
REMARK SMILES IDX 24 34 25 35 26 36 78 37 27 38 77 39 28 40 29 41 30 42 71 43
REMARK SMILES IDX 31 44 76 45 70 46 72 47 32 48 75 49 69 50 68 51 33 53 59 54
REMARK SMILES IDX 42 55 58 56 43 57 46 58 57 59 73 60 44 61 45 62 56 64 74 65
REMARK SMILES IDX 47 66 34 67 35 68 40 69 36 70 37 71 39 72 41 73 38 74 60 75
REMARK SMILES IDX 61 76 66 77 62 78 63 79 65 80 67 81 64 82 48 83 49 84 54 85
REMARK SMILES IDX 50 86 51 87 53 88 55 89 52 90
REMARK H PARENT 72 52 46 63
REMARK Flexibility Score: inf
ROOT
ATOM      1  C   UNL A   1      36.254  23.582  24.632  1.00  0.00     0.188 C 
ENDROOT
BRANCH   1   2
ATOM      2  O   UNL A   1      35.620  23.181  23.422  1.00  0.00    -0.376 OA
BRANCH   2   3
ATOM      3  C   UNL A   1      34.280  22.719  23.518  1.00  0.00     0.202 C 
BRANCH   3   4
ATOM      4  C   UNL A   1      33.375  23.163  22.364  1.00  0.00     0.261 C 
BRANCH   4   5
ATOM      5  O   UNL A   1      32.684  24.399  22.667  1.00  0.00    -0.463 OA
BRANCH   5   6
ATOM      6  C   UNL A   1      33.388  25.543  22.482  1.00  0.00     0.310 C 
ATOM      7  O   UNL A   1      33.584  26.053  21.383  1.00  0.00    -0.252 OA
BRANCH   6   8
ATOM      8  C   UNL A   1      33.789  26.258  23.779  1.00  0.00     0.163 C 
BRANCH   8   9
ATOM      9  C   UNL A   1      33.029  27.443  24.366  1.00  0.00     0.026 C 
ATOM     10  C   UNL A   1      33.580  28.156  25.378  1.00  0.00     0.018 C 
BRANCH  10  11
ATOM     11  C   UNL A   1      33.150  29.415  26.038  1.00  0.00    -0.021 A 
ATOM     12  C   UNL A   1      33.744  31.225  27.573  1.00  0.00     0.119 A 
ATOM     13  C   UNL A   1      32.503  31.819  27.349  1.00  0.00     0.046 A 
ATOM     14  C   UNL A   1      34.066  30.038  26.908  1.00  0.00     0.054 A 
ATOM     15  C   UNL A   1      31.578  31.214  26.504  1.00  0.00     0.004 A 
ATOM     16  C   UNL A   1      31.888  30.001  25.884  1.00  0.00     0.008 A 
BRANCH  12  17
ATOM     17  O   UNL A   1      34.537  31.891  28.467  1.00  0.00    -0.497 OA
ATOM     18  C   UNL A   1      34.334  33.292  28.599  1.00  0.00     0.278 C 
ENDBRANCH  12  17
ENDBRANCH  10  11
BRANCH   9  19
ATOM     19  C   UNL A   1      31.798  27.902  23.764  1.00  0.00     0.223 A 
ATOM     20  N   UNL A   1      30.585  27.439  24.051  1.00  0.00    -0.210 NA
ATOM     21  O   UNL A   1      31.741  28.928  22.825  1.00  0.00    -0.436 OA
ATOM     22  C   UNL A   1      29.707  28.239  23.354  1.00  0.00     0.110 A 
ATOM     23  C   UNL A   1      30.413  29.152  22.601  1.00  0.00     0.155 A 
ATOM     24  C   UNL A   1      28.305  28.279  23.307  1.00  0.00     0.032 A 
ATOM     25  C   UNL A   1      29.827  30.127  21.799  1.00  0.00     0.049 A 
ATOM     26  C   UNL A   1      27.670  29.228  22.500  1.00  0.00     0.003 A 
ATOM     27  C   UNL A   1      28.423  30.143  21.764  1.00  0.00     0.004 A 
ENDBRANCH   9  19
ENDBRANCH   8   9
ENDBRANCH   6   8
ENDBRANCH   5   6
ENDBRANCH   4   5
ENDBRANCH   3   4
ENDBRANCH   2   3
ENDBRANCH   1   2
BRANCH   1  28
ATOM     28  C   UNL A   1      37.028  22.525  25.443  1.00  0.00     0.188 C 
BRANCH  28  29
ATOM     29  O   UNL A   1      37.703  21.590  24.607  1.00  0.00    -0.376 OA
BRANCH  29  30
ATOM     30  C   UNL A   1      37.438  20.235  24.950  1.00  0.00     0.202 C 
BRANCH  30  31
ATOM     31  C   UNL A   1      38.731  19.475  25.258  1.00  0.00     0.261 C 
BRANCH  31  32
ATOM     32  O   UNL A   1      39.652  20.218  26.092  1.00  0.00    -0.460 OA
BRANCH  32  33
ATOM     33  C   UNL A   1      40.942  19.832  26.042  1.00  0.00     0.338 C 
ATOM     34  O   UNL A   1      41.343  18.728  25.715  1.00  0.00    -0.246 OA
BRANCH  33  35
ATOM     35  C   UNL A   1      41.881  20.909  26.466  1.00  0.00     0.060 A 
ATOM     36  C   UNL A   1      42.229  21.099  27.806  1.00  0.00     0.016 A 
ATOM     37  C   UNL A   1      42.161  21.921  25.548  1.00  0.00     0.016 A 
ATOM     38  C   UNL A   1      42.737  22.336  28.243  1.00  0.00     0.010 A 
ATOM     39  C   UNL A   1      42.735  23.129  25.974  1.00  0.00     0.010 A 
ATOM     40  C   UNL A   1      42.988  23.375  27.335  1.00  0.00    -0.014 A 
BRANCH  40  41
ATOM     41  C   UNL A   1      43.512  24.705  27.772  1.00  0.00     0.031 A 
ATOM     42  C   UNL A   1      42.582  25.825  28.177  1.00  0.00     0.074 A 
ATOM     43  C   UNL A   1      44.839  24.944  27.776  1.00  0.00     0.049 A 
ATOM     44  N   UNL A   1      42.838  27.103  28.336  1.00  0.00    -0.248 NA
ATOM     45  C   UNL A   1      41.186  25.460  28.454  1.00  0.00     0.031 C 
ATOM     46  C   UNL A   1      45.879  23.957  27.500  1.00  0.00     0.029 A 
ATOM     47  N   UNL A   1      45.535  26.112  27.997  1.00  0.00    -0.354 N 
ATOM     48  C   UNL A   1      41.634  27.698  28.700  1.00  0.00     0.074 A 
ATOM     49  C   UNL A   1      40.647  26.637  28.745  1.00  0.00     0.031 C 
ATOM     50  C   UNL A   1      47.077  24.558  27.549  1.00  0.00     0.029 A 
ATOM     51  C   UNL A   1      46.883  25.988  27.768  1.00  0.00     0.049 A 
ATOM     52  H   UNL A   1      45.109  26.950  28.287  1.00  0.00     0.167 HD
ATOM     53  C   UNL A   1      41.376  29.004  28.963  1.00  0.00     0.037 A 
ATOM     54  C   UNL A   1      47.856  26.915  27.670  1.00  0.00     0.037 A 
ATOM     55  C   UNL A   1      42.359  30.062  28.940  1.00  0.00     0.049 A 
ATOM     56  C   UNL A   1      47.529  28.370  27.837  1.00  0.00     0.074 A 
ATOM     57  C   UNL A   1      42.180  31.413  29.200  1.00  0.00     0.029 A 
ATOM     58  N   UNL A   1      43.701  29.895  28.643  1.00  0.00    -0.354 N 
ATOM     59  N   UNL A   1      46.379  28.932  28.113  1.00  0.00    -0.248 NA
ATOM     60  C   UNL A   1      48.636  29.321  27.662  1.00  0.00     0.031 C 
ATOM     61  C   UNL A   1      43.402  32.068  29.006  1.00  0.00     0.029 A 
ATOM     62  C   UNL A   1      44.354  31.119  28.682  1.00  0.00     0.049 A 
ATOM     63  H   UNL A   1      44.130  29.033  28.434  1.00  0.00     0.167 HD
ATOM     64  C   UNL A   1      46.627  30.298  28.168  1.00  0.00     0.074 A 
ATOM     65  C   UNL A   1      48.039  30.480  27.905  1.00  0.00     0.031 C 
ATOM     66  C   UNL A   1      45.757  31.306  28.417  1.00  0.00     0.037 A 
BRANCH  53  67
ATOM     67  C   UNL A   1      39.956  29.400  29.263  1.00  0.00     0.057 A 
ATOM     68  C   UNL A   1      38.995  29.553  28.257  1.00  0.00     0.134 A 
ATOM     69  C   UNL A   1      39.525  29.529  30.590  1.00  0.00     0.134 A 
ATOM     70  F   UNL A   1      39.339  29.445  26.965  1.00  0.00    -0.206 F 
ATOM     71  C   UNL A   1      37.658  29.826  28.561  1.00  0.00     0.040 A 
ATOM     72  C   UNL A   1      38.188  29.780  30.908  1.00  0.00     0.040 A 
ATOM     73  F   UNL A   1      40.391  29.380  31.604  1.00  0.00    -0.206 F 
ATOM     74  C   UNL A   1      37.250  29.931  29.889  1.00  0.00     0.006 A 
ENDBRANCH  53  67
BRANCH  54  75
ATOM     75  C   UNL A   1      49.233  26.486  27.321  1.00  0.00     0.057 A 
ATOM     76  C   UNL A   1      50.165  26.164  28.312  1.00  0.00     0.134 A 
ATOM     77  C   UNL A   1      49.639  26.370  25.985  1.00  0.00     0.134 A 
ATOM     78  F   UNL A   1      49.843  26.285  29.607  1.00  0.00    -0.206 F 
ATOM     79  C   UNL A   1      51.454  25.739  27.987  1.00  0.00     0.040 A 
ATOM     80  C   UNL A   1      50.912  25.917  25.646  1.00  0.00     0.040 A 
ATOM     81  F   UNL A   1      48.790  26.668  24.990  1.00  0.00    -0.206 F 
ATOM     82  C   UNL A   1      51.825  25.603  26.650  1.00  0.00     0.006 A 
ENDBRANCH  54  75
BRANCH  66  83
ATOM     83  C   UNL A   1      46.317  32.699  28.457  1.00  0.00     0.057 A 
ATOM     84  C   UNL A   1      46.882  33.238  29.619  1.00  0.00     0.134 A 
ATOM     85  C   UNL A   1      46.294  33.511  27.315  1.00  0.00     0.134 A 
ATOM     86  F   UNL A   1      46.922  32.520  30.751  1.00  0.00    -0.206 F 
ATOM     87  C   UNL A   1      47.378  34.543  29.654  1.00  0.00     0.040 A 
ATOM     88  C   UNL A   1      46.808  34.810  27.330  1.00  0.00     0.040 A 
ATOM     89  F   UNL A   1      45.772  33.056  26.165  1.00  0.00    -0.206 F 
ATOM     90  C   UNL A   1      47.345  35.332  28.505  1.00  0.00     0.006 A 
ENDBRANCH  66  83
ENDBRANCH  40  41
ENDBRANCH  33  35
ENDBRANCH  32  33
ENDBRANCH  31  32
ENDBRANCH  30  31
ENDBRANCH  29  30
ENDBRANCH  28  29
ENDBRANCH   1  28
TORSDOF 21
ENDMDL
