MODEL 1
REMARK VINA RESULT:     -14.5      0.000      0.000
REMARK SMILES Cc1ccccc1S(=O)(=O)Nc1ccc(N2CCOCC2)cc1C(=O)OCCOCCOCCOC(=O)c1ccc(-c2c3nc(c(-c4c(F)cccc4F)c4ccc([nH]4)c(-c4c(F)cccc4F)c4nc(c(-c5c(F)cccc5F)c5ccc2[nH]5)C=C4)C=C3)cc1
REMARK SMILES IDX 30 1 29 2 28 3 27 4 26 5 24 6 25 7 23 8 12 9 13 10 14 11
REMARK SMILES IDX 22 12 15 13 11 14 8 16 9 17 10 18 7 19 1 20 2 21 3 22 4 23
REMARK SMILES IDX 6 24 5 25 16 26 17 27 21 28 18 29 20 30 19 31 31 32 32 33
REMARK SMILES IDX 33 34 34 35 35 36 36 37 37 38 38 39 39 40 91 41 40 42 90 43
REMARK SMILES IDX 41 44 42 45 43 46 84 47 44 48 89 49 83 50 85 51 45 52 88 53
REMARK SMILES IDX 82 54 81 55 46 57 72 58 55 59 71 60 56 61 59 62 70 63 86 64
REMARK SMILES IDX 57 65 58 66 69 68 87 69 60 70 47 71 48 72 53 73 49 74 50 75
REMARK SMILES IDX 52 76 54 77 51 78 73 79 74 80 79 81 75 82 76 83 78 84 80 85
REMARK SMILES IDX 77 86 61 87 62 88 67 89 63 90 64 91 66 92 68 93 65 94
REMARK H PARENT 11 15 85 56 59 67
REMARK Flexibility Score: inf
ROOT
ATOM      1  C   UNL A   1      33.894  31.784  28.099  1.00  0.00     0.188 C 
ENDROOT
BRANCH   1   2
ATOM      2  O   UNL A   1      33.941  30.912  26.945  1.00  0.00    -0.376 OA
BRANCH   2   3
ATOM      3  C   UNL A   1      33.369  29.648  26.584  1.00  0.00     0.202 C 
BRANCH   3   4
ATOM      4  C   UNL A   1      33.990  28.430  25.348  1.00  0.00     0.261 C 
BRANCH   4   5
ATOM      5  O   UNL A   1      33.409  27.038  24.247  1.00  0.00    -0.460 OA
BRANCH   5   6
ATOM      6  C   UNL A   1      32.314  26.756  22.999  1.00  0.00     0.340 C 
ATOM      7  O   UNL A   1      32.469  26.287  21.866  1.00  0.00    -0.246 OA
BRANCH   6   8
ATOM      8  C   UNL A   1      30.876  26.865  23.221  1.00  0.00     0.086 A 
ATOM      9  C   UNL A   1      29.878  25.978  23.827  1.00  0.00     0.064 A 
ATOM     10  C   UNL A   1      28.603  26.538  23.695  1.00  0.00     0.030 A 
ATOM     11  C   UNL A   1      28.421  27.924  23.289  1.00  0.00     0.028 A 
ATOM     12  C   UNL A   1      30.634  28.107  22.636  1.00  0.00     0.043 A 
ATOM     13  C   UNL A   1      29.462  28.756  22.830  1.00  0.00     0.038 A 
BRANCH   9  14
ATOM     14  N   UNL A   1      30.067  24.563  24.559  1.00  0.00    -0.279 N 
ATOM     15  H   UNL A   1      29.526  23.836  24.172  1.00  0.00     0.180 HD
BRANCH  14  16
ATOM     16  S   UNL A   1      31.210  23.995  26.131  1.00  0.00     0.262 S 
ATOM     17  O   UNL A   1      30.759  22.703  26.597  1.00  0.00    -0.201 OA
ATOM     18  O   UNL A   1      31.270  25.087  27.079  1.00  0.00    -0.201 OA
BRANCH  16  19
ATOM     19  C   UNL A   1      32.974  23.731  25.477  1.00  0.00     0.090 A 
ATOM     20  C   UNL A   1      31.684  22.700  23.546  1.00  0.00     0.046 C 
ATOM     21  C   UNL A   1      32.795  22.158  24.805  1.00  0.00    -0.031 A 
ATOM     22  C   UNL A   1      34.387  20.896  24.707  1.00  0.00     0.005 A 
ATOM     23  C   UNL A   1      35.874  21.261  25.115  1.00  0.00     0.000 A 
ATOM     24  C   UNL A   1      34.664  24.157  25.898  1.00  0.00     0.022 A 
ATOM     25  C   UNL A   1      36.010  22.880  25.721  1.00  0.00     0.001 A 
ENDBRANCH  16  19
ENDBRANCH  14  16
ENDBRANCH   9  14
BRANCH  13  26
ATOM     26  N   UNL A   1      29.447  30.124  22.636  1.00  0.00    -0.367 N 
ATOM     27  C   UNL A   1      29.232  31.104  23.747  1.00  0.00     0.145 C 
ATOM     28  C   UNL A   1      29.117  30.661  21.305  1.00  0.00     0.145 C 
ATOM     29  C   UNL A   1      27.866  31.802  23.640  1.00  0.00     0.181 C 
ATOM     30  C   UNL A   1      27.821  31.511  21.314  1.00  0.00     0.181 C 
ATOM     31  O   UNL A   1      27.762  32.472  22.379  1.00  0.00    -0.378 OA
ENDBRANCH  13  26
ENDBRANCH   6   8
ENDBRANCH   5   6
ENDBRANCH   4   5
ENDBRANCH   3   4
ENDBRANCH   2   3
ENDBRANCH   1   2
BRANCH   1  32
ATOM     32  C   UNL A   1      34.895  32.166  29.300  1.00  0.00     0.188 C 
BRANCH  32  33
ATOM     33  O   UNL A   1      34.425  32.387  30.630  1.00  0.00    -0.376 OA
BRANCH  33  34
ATOM     34  C   UNL A   1      35.092  33.338  31.563  1.00  0.00     0.202 C 
BRANCH  34  35
ATOM     35  C   UNL A   1      35.689  32.993  33.206  1.00  0.00     0.261 C 
BRANCH  35  36
ATOM     36  O   UNL A   1      37.395  33.193  33.653  1.00  0.00    -0.460 OA
BRANCH  36  37
ATOM     37  C   UNL A   1      38.412  34.207  34.173  1.00  0.00     0.338 C 
ATOM     38  O   UNL A   1      37.973  35.082  34.925  1.00  0.00    -0.246 OA
BRANCH  37  39
ATOM     39  C   UNL A   1      40.158  34.340  33.815  1.00  0.00     0.060 A 
ATOM     40  C   UNL A   1      40.916  33.265  32.520  1.00  0.00     0.016 A 
ATOM     41  C   UNL A   1      41.454  35.767  34.449  1.00  0.00     0.016 A 
ATOM     42  C   UNL A   1      42.688  33.775  32.146  1.00  0.00     0.010 A 
ATOM     43  C   UNL A   1      42.943  36.060  34.035  1.00  0.00     0.010 A 
ATOM     44  C   UNL A   1      43.543  35.306  32.906  1.00  0.00    -0.014 A 
BRANCH  44  45
ATOM     45  C   UNL A   1      44.794  36.622  32.314  1.00  0.00     0.031 A 
ATOM     46  C   UNL A   1      44.573  38.406  32.482  1.00  0.00     0.074 A 
ATOM     47  C   UNL A   1      45.900  36.410  31.518  1.00  0.00     0.049 A 
ATOM     48  N   UNL A   1      44.299  39.166  31.444  1.00  0.00    -0.248 NA
ATOM     49  C   UNL A   1      44.207  39.249  33.727  1.00  0.00     0.031 C 
ATOM     50  C   UNL A   1      46.941  37.390  31.201  1.00  0.00     0.029 A 
ATOM     51  N   UNL A   1      46.405  35.261  30.883  1.00  0.00    -0.354 N 
ATOM     52  C   UNL A   1      43.890  40.400  31.934  1.00  0.00     0.074 A 
ATOM     53  C   UNL A   1      43.405  40.176  33.232  1.00  0.00     0.031 C 
ATOM     54  C   UNL A   1      47.794  36.880  30.291  1.00  0.00     0.029 A 
ATOM     55  C   UNL A   1      47.307  35.587  29.862  1.00  0.00     0.049 A 
ATOM     56  H   UNL A   1      46.156  34.340  31.127  1.00  0.00     0.167 HD
ATOM     57  C   UNL A   1      44.468  41.567  31.546  1.00  0.00     0.037 A 
ATOM     58  C   UNL A   1      47.156  35.124  28.581  1.00  0.00     0.037 A 
ATOM     59  C   UNL A   1      45.489  41.251  30.569  1.00  0.00     0.049 A 
ATOM     60  C   UNL A   1      46.623  36.243  27.714  1.00  0.00     0.074 A 
ATOM     61  C   UNL A   1      46.851  41.008  30.620  1.00  0.00     0.029 A 
ATOM     62  N   UNL A   1      45.057  40.592  29.444  1.00  0.00    -0.354 N 
ATOM     63  N   UNL A   1      46.728  37.507  28.014  1.00  0.00    -0.248 NA
ATOM     64  C   UNL A   1      45.831  36.013  26.506  1.00  0.00     0.031 C 
ATOM     65  C   UNL A   1      47.213  40.302  29.425  1.00  0.00     0.029 A 
ATOM     66  C   UNL A   1      46.077  40.142  28.651  1.00  0.00     0.049 A 
ATOM     67  H   UNL A   1      44.106  40.455  29.230  1.00  0.00     0.167 HD
ATOM     68  C   UNL A   1      45.908  38.232  27.196  1.00  0.00     0.074 A 
ATOM     69  C   UNL A   1      45.397  37.257  26.244  1.00  0.00     0.031 C 
ATOM     70  C   UNL A   1      45.654  39.562  27.389  1.00  0.00     0.037 A 
BRANCH  57  71
ATOM     71  C   UNL A   1      44.352  42.820  32.397  1.00  0.00     0.057 A 
ATOM     72  C   UNL A   1      43.208  43.620  32.323  1.00  0.00     0.134 A 
ATOM     73  C   UNL A   1      45.356  43.321  33.266  1.00  0.00     0.134 A 
ATOM     74  F   UNL A   1      42.137  43.233  31.620  1.00  0.00    -0.206 F 
ATOM     75  C   UNL A   1      43.107  44.862  32.965  1.00  0.00     0.040 A 
ATOM     76  C   UNL A   1      45.306  44.599  33.845  1.00  0.00     0.040 A 
ATOM     77  F   UNL A   1      46.432  42.587  33.599  1.00  0.00    -0.206 F 
ATOM     78  C   UNL A   1      44.171  45.377  33.694  1.00  0.00     0.006 A 
ENDBRANCH  57  71
BRANCH  58  79
ATOM     79  C   UNL A   1      46.686  33.696  28.519  1.00  0.00     0.057 A 
ATOM     80  C   UNL A   1      45.312  33.441  28.307  1.00  0.00     0.134 A 
ATOM     81  C   UNL A   1      47.573  32.808  27.944  1.00  0.00     0.134 A 
ATOM     82  F   UNL A   1      44.386  34.170  28.946  1.00  0.00    -0.206 F 
ATOM     83  C   UNL A   1      44.859  32.536  27.336  1.00  0.00     0.040 A 
ATOM     84  C   UNL A   1      47.122  32.087  26.853  1.00  0.00     0.040 A 
ATOM     85  F   UNL A   1      48.898  32.907  28.128  1.00  0.00    -0.206 F 
ATOM     86  C   UNL A   1      45.786  31.932  26.518  1.00  0.00     0.006 A 
ENDBRANCH  58  79
BRANCH  70  87
ATOM     87  C   UNL A   1      44.861  40.421  26.421  1.00  0.00     0.057 A 
ATOM     88  C   UNL A   1      45.477  41.437  25.683  1.00  0.00     0.134 A 
ATOM     89  C   UNL A   1      43.448  40.379  26.283  1.00  0.00     0.134 A 
ATOM     90  F   UNL A   1      46.778  41.720  25.840  1.00  0.00    -0.206 F 
ATOM     91  C   UNL A   1      44.772  42.251  24.790  1.00  0.00     0.040 A 
ATOM     92  C   UNL A   1      42.730  41.214  25.433  1.00  0.00     0.040 A 
ATOM     93  F   UNL A   1      42.656  39.540  26.958  1.00  0.00    -0.206 F 
ATOM     94  C   UNL A   1      43.395  42.138  24.658  1.00  0.00     0.006 A 
ENDBRANCH  70  87
ENDBRANCH  44  45
ENDBRANCH  37  39
ENDBRANCH  36  37
ENDBRANCH  35  36
ENDBRANCH  34  35
ENDBRANCH  33  34
ENDBRANCH  32  33
ENDBRANCH   1  32
TORSDOF 21
ENDMDL
MODEL 2
REMARK VINA RESULT:     -14.4      4.952      8.546
REMARK SMILES Cc1ccccc1S(=O)(=O)Nc1ccc(N2CCOCC2)cc1C(=O)OCCOCCOCCOC(=O)c1ccc(-c2c3nc(c(-c4c(F)cccc4F)c4ccc([nH]4)c(-c4c(F)cccc4F)c4nc(c(-c5c(F)cccc5F)c5ccc2[nH]5)C=C4)C=C3)cc1
REMARK SMILES IDX 30 1 29 2 28 3 27 4 26 5 24 6 25 7 23 8 12 9 13 10 14 11
REMARK SMILES IDX 22 12 15 13 11 14 8 16 9 17 10 18 7 19 1 20 2 21 3 22 4 23
REMARK SMILES IDX 6 24 5 25 16 26 17 27 21 28 18 29 20 30 19 31 31 32 32 33
REMARK SMILES IDX 33 34 34 35 35 36 36 37 37 38 38 39 39 40 91 41 40 42 90 43
REMARK SMILES IDX 41 44 42 45 43 46 84 47 44 48 89 49 83 50 85 51 45 52 88 53
REMARK SMILES IDX 82 54 81 55 46 57 72 58 55 59 71 60 56 61 59 62 70 63 86 64
REMARK SMILES IDX 57 65 58 66 69 68 87 69 60 70 47 71 48 72 53 73 49 74 50 75
REMARK SMILES IDX 52 76 54 77 51 78 73 79 74 80 79 81 75 82 76 83 78 84 80 85
REMARK SMILES IDX 77 86 61 87 62 88 67 89 63 90 64 91 66 92 68 93 65 94
REMARK H PARENT 11 15 85 56 59 67
REMARK Flexibility Score: inf
ROOT
ATOM      1  C   UNL A   1      34.095  31.026  27.962  1.00  0.00     0.188 C 
ENDROOT
BRANCH   1   2
ATOM      2  O   UNL A   1      34.109  30.385  26.666  1.00  0.00    -0.376 OA
BRANCH   2   3
ATOM      3  C   UNL A   1      33.590  29.169  26.112  1.00  0.00     0.202 C 
BRANCH   3   4
ATOM      4  C   UNL A   1      33.922  28.443  24.450  1.00  0.00     0.261 C 
BRANCH   4   5
ATOM      5  O   UNL A   1      33.416  27.025  23.346  1.00  0.00    -0.460 OA
BRANCH   5   6
ATOM      6  C   UNL A   1      32.083  26.491  22.467  1.00  0.00     0.340 C 
ATOM      7  O   UNL A   1      31.999  25.769  21.467  1.00  0.00    -0.246 OA
BRANCH   6   8
ATOM      8  C   UNL A   1      30.726  26.684  22.966  1.00  0.00     0.086 A 
ATOM      9  C   UNL A   1      29.814  25.854  23.760  1.00  0.00     0.064 A 
ATOM     10  C   UNL A   1      28.574  26.492  23.879  1.00  0.00     0.030 A 
ATOM     11  C   UNL A   1      28.400  27.889  23.510  1.00  0.00     0.028 A 
ATOM     12  C   UNL A   1      30.450  27.943  22.434  1.00  0.00     0.043 A 
ATOM     13  C   UNL A   1      29.380  28.660  22.852  1.00  0.00     0.038 A 
BRANCH   9  14
ATOM     14  N   UNL A   1      30.056  24.425  24.446  1.00  0.00    -0.279 N 
ATOM     15  H   UNL A   1      29.533  23.694  24.046  1.00  0.00     0.180 HD
BRANCH  14  16
ATOM     16  S   UNL A   1      31.238  23.847  25.986  1.00  0.00     0.262 S 
ATOM     17  O   UNL A   1      30.571  22.794  26.719  1.00  0.00    -0.201 OA
ATOM     18  O   UNL A   1      31.666  25.025  26.710  1.00  0.00    -0.201 OA
BRANCH  16  19
ATOM     19  C   UNL A   1      32.796  23.061  25.235  1.00  0.00     0.090 A 
ATOM     20  C   UNL A   1      33.191  22.458  27.672  1.00  0.00     0.046 C 
ATOM     21  C   UNL A   1      33.940  23.485  26.447  1.00  0.00    -0.031 A 
ATOM     22  C   UNL A   1      35.898  23.749  25.963  1.00  0.00     0.005 A 
ATOM     23  C   UNL A   1      36.531  23.497  24.533  1.00  0.00     0.000 A 
ATOM     24  C   UNL A   1      33.521  22.735  23.628  1.00  0.00     0.022 A 
ATOM     25  C   UNL A   1      35.346  23.006  23.366  1.00  0.00     0.001 A 
ENDBRANCH  16  19
ENDBRANCH  14  16
ENDBRANCH   9  14
BRANCH  13  26
ATOM     26  N   UNL A   1      29.410  30.028  22.658  1.00  0.00    -0.367 N 
ATOM     27  C   UNL A   1      29.025  31.011  23.720  1.00  0.00     0.145 C 
ATOM     28  C   UNL A   1      29.309  30.566  21.292  1.00  0.00     0.145 C 
ATOM     29  C   UNL A   1      27.701  31.722  23.390  1.00  0.00     0.181 C 
ATOM     30  C   UNL A   1      28.037  31.429  21.088  1.00  0.00     0.181 C 
ATOM     31  O   UNL A   1      27.813  32.391  22.128  1.00  0.00    -0.378 OA
ENDBRANCH  13  26
ENDBRANCH   6   8
ENDBRANCH   5   6
ENDBRANCH   4   5
ENDBRANCH   3   4
ENDBRANCH   2   3
ENDBRANCH   1   2
BRANCH   1  32
ATOM     32  C   UNL A   1      35.198  31.655  28.953  1.00  0.00     0.188 C 
BRANCH  32  33
ATOM     33  O   UNL A   1      34.829  32.412  30.106  1.00  0.00    -0.376 OA
BRANCH  33  34
ATOM     34  C   UNL A   1      35.605  33.600  30.560  1.00  0.00     0.202 C 
BRANCH  34  35
ATOM     35  C   UNL A   1      35.549  34.371  32.165  1.00  0.00     0.261 C 
BRANCH  35  36
ATOM     36  O   UNL A   1      35.739  33.443  33.667  1.00  0.00    -0.460 OA
BRANCH  36  37
ATOM     37  C   UNL A   1      36.760  33.016  34.719  1.00  0.00     0.338 C 
ATOM     38  O   UNL A   1      36.601  33.481  35.851  1.00  0.00    -0.246 OA
BRANCH  37  39
ATOM     39  C   UNL A   1      38.191  31.961  34.541  1.00  0.00     0.060 A 
ATOM     40  C   UNL A   1      38.030  30.329  33.694  1.00  0.00     0.016 A 
ATOM     41  C   UNL A   1      40.134  32.427  34.895  1.00  0.00     0.016 A 
ATOM     42  C   UNL A   1      39.710  29.533  33.398  1.00  0.00     0.010 A 
ATOM     43  C   UNL A   1      41.455  31.629  34.589  1.00  0.00     0.010 A 
ATOM     44  C   UNL A   1      41.378  30.379  33.792  1.00  0.00    -0.014 A 
BRANCH  44  45
ATOM     45  C   UNL A   1      43.116  30.433  33.003  1.00  0.00     0.031 A 
ATOM     46  C   UNL A   1      43.522  31.276  31.459  1.00  0.00     0.074 A 
ATOM     47  C   UNL A   1      44.216  29.690  33.377  1.00  0.00     0.049 A 
ATOM     48  N   UNL A   1      43.774  30.606  30.355  1.00  0.00    -0.248 NA
ATOM     49  C   UNL A   1      43.224  32.727  31.010  1.00  0.00     0.031 C 
ATOM     50  C   UNL A   1      45.582  29.851  32.876  1.00  0.00     0.029 A 
ATOM     51  N   UNL A   1      44.397  28.687  34.347  1.00  0.00    -0.354 N 
ATOM     52  C   UNL A   1      43.742  31.515  29.305  1.00  0.00     0.074 A 
ATOM     53  C   UNL A   1      42.939  32.587  29.727  1.00  0.00     0.031 C 
ATOM     54  C   UNL A   1      46.369  28.870  33.358  1.00  0.00     0.029 A 
ATOM     55  C   UNL A   1      45.555  27.936  34.105  1.00  0.00     0.049 A 
ATOM     56  H   UNL A   1      43.786  28.533  35.102  1.00  0.00     0.167 HD
ATOM     57  C   UNL A   1      44.772  31.655  28.430  1.00  0.00     0.037 A 
ATOM     58  C   UNL A   1      45.530  26.570  34.005  1.00  0.00     0.037 A 
ATOM     59  C   UNL A   1      45.796  30.699  28.795  1.00  0.00     0.049 A 
ATOM     60  C   UNL A   1      45.639  26.181  32.548  1.00  0.00     0.074 A 
ATOM     61  C   UNL A   1      46.932  30.737  29.586  1.00  0.00     0.029 A 
ATOM     62  N   UNL A   1      45.411  29.381  28.797  1.00  0.00    -0.354 N 
ATOM     63  N   UNL A   1      46.125  26.961  31.623  1.00  0.00    -0.248 NA
ATOM     64  C   UNL A   1      45.101  24.934  32.008  1.00  0.00     0.031 C 
ATOM     65  C   UNL A   1      47.266  29.386  29.933  1.00  0.00     0.029 A 
ATOM     66  C   UNL A   1      46.346  28.542  29.337  1.00  0.00     0.049 A 
ATOM     67  H   UNL A   1      44.546  29.071  28.444  1.00  0.00     0.167 HD
ATOM     68  C   UNL A   1      45.820  26.444  30.395  1.00  0.00     0.074 A 
ATOM     69  C   UNL A   1      45.212  25.155  30.688  1.00  0.00     0.031 C 
ATOM     70  C   UNL A   1      46.028  27.130  29.229  1.00  0.00     0.037 A 
BRANCH  57  71
ATOM     71  C   UNL A   1      44.933  32.922  27.606  1.00  0.00     0.057 A 
ATOM     72  C   UNL A   1      44.390  33.002  26.320  1.00  0.00     0.134 A 
ATOM     73  C   UNL A   1      45.661  34.074  28.003  1.00  0.00     0.134 A 
ATOM     74  F   UNL A   1      43.599  32.034  25.842  1.00  0.00    -0.206 F 
ATOM     75  C   UNL A   1      44.635  34.080  25.458  1.00  0.00     0.040 A 
ATOM     76  C   UNL A   1      45.986  35.119  27.124  1.00  0.00     0.040 A 
ATOM     77  F   UNL A   1      46.084  34.241  29.267  1.00  0.00    -0.206 F 
ATOM     78  C   UNL A   1      45.469  35.123  25.840  1.00  0.00     0.006 A 
ENDBRANCH  57  71
BRANCH  58  79
ATOM     79  C   UNL A   1      44.602  25.921  34.996  1.00  0.00     0.057 A 
ATOM     80  C   UNL A   1      43.284  25.608  34.590  1.00  0.00     0.134 A 
ATOM     81  C   UNL A   1      45.201  25.041  35.875  1.00  0.00     0.134 A 
ATOM     82  F   UNL A   1      42.583  26.481  33.853  1.00  0.00    -0.206 F 
ATOM     83  C   UNL A   1      42.713  24.346  34.808  1.00  0.00     0.040 A 
ATOM     84  C   UNL A   1      44.717  23.746  35.895  1.00  0.00     0.040 A 
ATOM     85  F   UNL A   1      46.422  25.263  36.383  1.00  0.00    -0.206 F 
ATOM     86  C   UNL A   1      43.491  23.362  35.374  1.00  0.00     0.006 A 
ENDBRANCH  58  79
BRANCH  70  87
ATOM     87  C   UNL A   1      45.829  26.529  27.849  1.00  0.00     0.057 A 
ATOM     88  C   UNL A   1      44.548  26.322  27.327  1.00  0.00     0.134 A 
ATOM     89  C   UNL A   1      46.875  26.001  27.047  1.00  0.00     0.134 A 
ATOM     90  F   UNL A   1      43.451  26.603  28.045  1.00  0.00    -0.206 F 
ATOM     91  C   UNL A   1      44.332  25.762  26.064  1.00  0.00     0.040 A 
ATOM     92  C   UNL A   1      46.670  25.400  25.808  1.00  0.00     0.040 A 
ATOM     93  F   UNL A   1      48.166  26.018  27.394  1.00  0.00    -0.206 F 
ATOM     94  C   UNL A   1      45.395  25.304  25.296  1.00  0.00     0.006 A 
ENDBRANCH  70  87
ENDBRANCH  44  45
ENDBRANCH  37  39
ENDBRANCH  36  37
ENDBRANCH  35  36
ENDBRANCH  34  35
ENDBRANCH  33  34
ENDBRANCH  32  33
ENDBRANCH   1  32
TORSDOF 21
ENDMDL
MODEL 3
REMARK VINA RESULT:     -14.4      5.162     10.680
REMARK SMILES Cc1ccccc1S(=O)(=O)Nc1ccc(N2CCOCC2)cc1C(=O)OCCOCCOCCOC(=O)c1ccc(-c2c3nc(c(-c4c(F)cccc4F)c4ccc([nH]4)c(-c4c(F)cccc4F)c4nc(c(-c5c(F)cccc5F)c5ccc2[nH]5)C=C4)C=C3)cc1
REMARK SMILES IDX 30 1 29 2 28 3 27 4 26 5 24 6 25 7 23 8 12 9 13 10 14 11
REMARK SMILES IDX 22 12 15 13 11 14 8 16 9 17 10 18 7 19 1 20 2 21 3 22 4 23
REMARK SMILES IDX 6 24 5 25 16 26 17 27 21 28 18 29 20 30 19 31 31 32 32 33
REMARK SMILES IDX 33 34 34 35 35 36 36 37 37 38 38 39 39 40 91 41 40 42 90 43
REMARK SMILES IDX 41 44 42 45 43 46 84 47 44 48 89 49 83 50 85 51 45 52 88 53
REMARK SMILES IDX 82 54 81 55 46 57 72 58 55 59 71 60 56 61 59 62 70 63 86 64
REMARK SMILES IDX 57 65 58 66 69 68 87 69 60 70 47 71 48 72 53 73 49 74 50 75
REMARK SMILES IDX 52 76 54 77 51 78 73 79 74 80 79 81 75 82 76 83 78 84 80 85
REMARK SMILES IDX 77 86 61 87 62 88 67 89 63 90 64 91 66 92 68 93 65 94
REMARK H PARENT 11 15 85 56 59 67
REMARK Flexibility Score: inf
ROOT
ATOM      1  C   UNL A   1      38.953  21.880  26.080  1.00  0.00     0.188 C 
ENDROOT
BRANCH   1   2
ATOM      2  O   UNL A   1      38.030  22.778  25.420  1.00  0.00    -0.376 OA
BRANCH   2   3
ATOM      3  C   UNL A   1      36.630  22.773  25.114  1.00  0.00     0.202 C 
BRANCH   3   4
ATOM      4  C   UNL A   1      35.258  23.574  26.050  1.00  0.00     0.261 C 
BRANCH   4   5
ATOM      5  O   UNL A   1      33.458  23.342  26.491  1.00  0.00    -0.460 OA
BRANCH   5   6
ATOM      6  C   UNL A   1      32.073  22.595  25.893  1.00  0.00     0.340 C 
ATOM      7  O   UNL A   1      30.890  22.668  26.243  1.00  0.00    -0.246 OA
BRANCH   6   8
ATOM      8  C   UNL A   1      32.100  21.856  24.637  1.00  0.00     0.086 A 
ATOM      9  C   UNL A   1      31.904  22.239  23.235  1.00  0.00     0.064 A 
ATOM     10  C   UNL A   1      31.943  21.101  22.421  1.00  0.00     0.030 A 
ATOM     11  C   UNL A   1      32.419  19.822  22.928  1.00  0.00     0.028 A 
ATOM     12  C   UNL A   1      32.339  20.569  25.118  1.00  0.00     0.043 A 
ATOM     13  C   UNL A   1      32.705  19.567  24.284  1.00  0.00     0.038 A 
BRANCH   9  14
ATOM     14  N   UNL A   1      31.669  23.687  22.586  1.00  0.00    -0.279 N 
ATOM     15  H   UNL A   1      30.787  23.799  22.162  1.00  0.00     0.180 HD
BRANCH  14  16
ATOM     16  S   UNL A   1      32.851  25.328  22.477  1.00  0.00     0.262 S 
ATOM     17  O   UNL A   1      32.635  25.978  21.203  1.00  0.00    -0.201 OA
ATOM     18  O   UNL A   1      34.202  24.951  22.838  1.00  0.00    -0.201 OA
BRANCH  16  19
ATOM     19  C   UNL A   1      32.243  26.548  23.800  1.00  0.00     0.090 A 
ATOM     20  C   UNL A   1      33.787  28.104  22.514  1.00  0.00     0.046 C 
ATOM     21  C   UNL A   1      33.717  27.376  24.120  1.00  0.00    -0.031 A 
ATOM     22  C   UNL A   1      34.061  28.187  25.954  1.00  0.00     0.005 A 
ATOM     23  C   UNL A   1      33.023  28.224  27.150  1.00  0.00     0.000 A 
ATOM     24  C   UNL A   1      31.054  26.628  25.140  1.00  0.00     0.022 A 
ATOM     25  C   UNL A   1      31.531  27.436  26.750  1.00  0.00     0.001 A 
ENDBRANCH  16  19
ENDBRANCH  14  16
ENDBRANCH   9  14
BRANCH  13  26
ATOM     26  N   UNL A   1      33.362  18.483  24.835  1.00  0.00    -0.367 N 
ATOM     27  C   UNL A   1      34.537  17.824  24.183  1.00  0.00     0.145 C 
ATOM     28  C   UNL A   1      32.649  17.612  25.784  1.00  0.00     0.145 C 
ATOM     29  C   UNL A   1      34.188  16.422  23.653  1.00  0.00     0.181 C 
ATOM     30  C   UNL A   1      32.497  16.162  25.256  1.00  0.00     0.181 C 
ATOM     31  O   UNL A   1      33.709  15.604  24.726  1.00  0.00    -0.378 OA
ENDBRANCH  13  26
ENDBRANCH   6   8
ENDBRANCH   5   6
ENDBRANCH   4   5
ENDBRANCH   3   4
ENDBRANCH   2   3
ENDBRANCH   1   2
BRANCH   1  32
ATOM     32  C   UNL A   1      40.117  22.026  27.183  1.00  0.00     0.188 C 
BRANCH  32  33
ATOM     33  O   UNL A   1      41.486  21.766  26.873  1.00  0.00    -0.376 OA
BRANCH  33  34
ATOM     34  C   UNL A   1      42.209  22.494  25.791  1.00  0.00     0.202 C 
BRANCH  34  35
ATOM     35  C   UNL A   1      42.589  24.234  25.736  1.00  0.00     0.261 C 
BRANCH  35  36
ATOM     36  O   UNL A   1      44.050  24.857  24.942  1.00  0.00    -0.460 OA
BRANCH  36  37
ATOM     37  C   UNL A   1      45.417  25.480  25.213  1.00  0.00     0.338 C 
ATOM     38  O   UNL A   1      46.379  24.948  24.651  1.00  0.00    -0.246 OA
BRANCH  37  39
ATOM     39  C   UNL A   1      45.840  26.859  26.267  1.00  0.00     0.060 A 
ATOM     40  C   UNL A   1      45.715  28.584  25.622  1.00  0.00     0.016 A 
ATOM     41  C   UNL A   1      46.186  26.838  28.268  1.00  0.00     0.016 A 
ATOM     42  C   UNL A   1      45.953  29.855  26.988  1.00  0.00     0.010 A 
ATOM     43  C   UNL A   1      46.377  28.017  29.290  1.00  0.00     0.010 A 
ATOM     44  C   UNL A   1      46.151  29.413  28.837  1.00  0.00    -0.014 A 
BRANCH  44  45
ATOM     45  C   UNL A   1      45.604  30.171  30.502  1.00  0.00     0.031 A 
ATOM     46  C   UNL A   1      44.892  29.241  31.876  1.00  0.00     0.074 A 
ATOM     47  C   UNL A   1      45.486  31.513  30.798  1.00  0.00     0.049 A 
ATOM     48  N   UNL A   1      43.615  29.332  32.178  1.00  0.00    -0.248 NA
ATOM     49  C   UNL A   1      45.400  27.957  32.576  1.00  0.00     0.031 C 
ATOM     50  C   UNL A   1      45.223  32.089  32.119  1.00  0.00     0.029 A 
ATOM     51  N   UNL A   1      45.662  32.674  30.024  1.00  0.00    -0.354 N 
ATOM     52  C   UNL A   1      43.325  28.291  33.051  1.00  0.00     0.074 A 
ATOM     53  C   UNL A   1      44.284  27.292  32.818  1.00  0.00     0.031 C 
ATOM     54  C   UNL A   1      45.040  33.420  32.014  1.00  0.00     0.029 A 
ATOM     55  C   UNL A   1      45.049  33.788  30.615  1.00  0.00     0.049 A 
ATOM     56  H   UNL A   1      46.153  32.701  29.172  1.00  0.00     0.167 HD
ATOM     57  C   UNL A   1      42.740  28.494  34.261  1.00  0.00     0.037 A 
ATOM     58  C   UNL A   1      44.146  34.567  29.940  1.00  0.00     0.037 A 
ATOM     59  C   UNL A   1      42.486  29.913  34.396  1.00  0.00     0.049 A 
ATOM     60  C   UNL A   1      42.753  34.235  30.424  1.00  0.00     0.074 A 
ATOM     61  C   UNL A   1      43.171  30.982  34.947  1.00  0.00     0.029 A 
ATOM     62  N   UNL A   1      41.682  30.471  33.432  1.00  0.00    -0.354 N 
ATOM     63  N   UNL A   1      42.499  33.668  31.571  1.00  0.00    -0.248 NA
ATOM     64  C   UNL A   1      41.555  34.411  29.604  1.00  0.00     0.031 C 
ATOM     65  C   UNL A   1      42.644  32.184  34.366  1.00  0.00     0.029 A 
ATOM     66  C   UNL A   1      41.633  31.836  33.487  1.00  0.00     0.049 A 
ATOM     67  H   UNL A   1      41.189  29.939  32.766  1.00  0.00     0.167 HD
ATOM     68  C   UNL A   1      41.199  33.245  31.583  1.00  0.00     0.074 A 
ATOM     69  C   UNL A   1      40.638  33.767  30.346  1.00  0.00     0.031 C 
ATOM     70  C   UNL A   1      40.688  32.447  32.571  1.00  0.00     0.037 A 
BRANCH  57  71
ATOM     71  C   UNL A   1      42.851  27.460  35.369  1.00  0.00     0.057 A 
ATOM     72  C   UNL A   1      41.883  26.460  35.501  1.00  0.00     0.134 A 
ATOM     73  C   UNL A   1      43.857  27.431  36.370  1.00  0.00     0.134 A 
ATOM     74  F   UNL A   1      40.924  26.299  34.580  1.00  0.00    -0.206 F 
ATOM     75  C   UNL A   1      41.848  25.575  36.588  1.00  0.00     0.040 A 
ATOM     76  C   UNL A   1      43.787  26.610  37.507  1.00  0.00     0.040 A 
ATOM     77  F   UNL A   1      44.959  28.195  36.285  1.00  0.00    -0.206 F 
ATOM     78  C   UNL A   1      42.774  25.674  37.618  1.00  0.00     0.006 A 
ENDBRANCH  57  71
BRANCH  58  79
ATOM     79  C   UNL A   1      44.519  34.793  28.500  1.00  0.00     0.057 A 
ATOM     80  C   UNL A   1      43.965  33.945  27.512  1.00  0.00     0.134 A 
ATOM     81  C   UNL A   1      44.712  36.112  28.141  1.00  0.00     0.134 A 
ATOM     82  F   UNL A   1      43.878  32.625  27.731  1.00  0.00    -0.206 F 
ATOM     83  C   UNL A   1      43.364  34.445  26.348  1.00  0.00     0.040 A 
ATOM     84  C   UNL A   1      43.935  36.602  27.108  1.00  0.00     0.040 A 
ATOM     85  F   UNL A   1      45.289  36.996  28.967  1.00  0.00    -0.206 F 
ATOM     86  C   UNL A   1      43.249  35.808  26.201  1.00  0.00     0.006 A 
ENDBRANCH  58  79
BRANCH  70  87
ATOM     87  C   UNL A   1      39.219  32.079  32.684  1.00  0.00     0.057 A 
ATOM     88  C   UNL A   1      38.633  31.165  31.801  1.00  0.00     0.134 A 
ATOM     89  C   UNL A   1      38.300  32.710  33.562  1.00  0.00     0.134 A 
ATOM     90  F   UNL A   1      39.334  30.618  30.798  1.00  0.00    -0.206 F 
ATOM     91  C   UNL A   1      37.281  30.812  31.874  1.00  0.00     0.040 A 
ATOM     92  C   UNL A   1      36.943  32.401  33.612  1.00  0.00     0.040 A 
ATOM     93  F   UNL A   1      38.633  33.671  34.429  1.00  0.00    -0.206 F 
ATOM     94  C   UNL A   1      36.432  31.426  32.785  1.00  0.00     0.006 A 
ENDBRANCH  70  87
ENDBRANCH  44  45
ENDBRANCH  37  39
ENDBRANCH  36  37
ENDBRANCH  35  36
ENDBRANCH  34  35
ENDBRANCH  33  34
ENDBRANCH  32  33
ENDBRANCH   1  32
TORSDOF 21
ENDMDL
