MODEL 1
REMARK VINA RESULT:     -10.2      0.000      0.000
REMARK SMILES C=CC[N@@H+](CC(=O)OCCOCCOCCOC(=O)c1ccc(-c2c3nc(c(-c4c(F)cccc4F)c4ccc([nH]4)c(-c4c(F)cccc4F)c4nc(c(-c5c(F)cccc5F)c5ccc2[nH]5)C=C4)C=C3)cc1)Cc1ccc([N+](=O)[O-])o1
REMARK SMILES IDX 12 1 11 2 10 3 9 4 8 5 6 6 7 7 5 8 4 9 3 11 2 12 1 13 74 14
REMARK SMILES IDX 75 15 76 16 82 17 77 18 78 19 79 20 80 21 81 22 13 23 14 24
REMARK SMILES IDX 15 25 16 26 17 27 18 28 19 29 20 30 21 31 73 32 22 33 72 34
REMARK SMILES IDX 23 35 24 36 25 37 66 38 26 39 71 40 65 41 67 42 27 43 70 44
REMARK SMILES IDX 64 45 63 46 28 48 54 49 37 50 53 51 38 52 41 53 52 54 68 55
REMARK SMILES IDX 39 56 40 57 51 59 69 60 42 61 29 62 30 63 35 64 31 65 32 66
REMARK SMILES IDX 34 67 36 68 33 69 55 70 56 71 61 72 57 73 58 74 60 75 62 76
REMARK SMILES IDX 59 77 43 78 44 79 49 80 45 81 46 82 48 83 50 84 47 85
REMARK H PARENT 4 10 67 47 41 58
REMARK Flexibility Score: inf
ROOT
ATOM      1  C   UNL A   1      38.850  21.950  26.086  1.00  0.00     0.188 C 
ENDROOT
BRANCH   1   2
ATOM      2  O   UNL A   1      37.967  21.698  24.812  1.00  0.00    -0.376 OA
BRANCH   2   3
ATOM      3  C   UNL A   1      36.891  20.747  24.894  1.00  0.00     0.202 C 
BRANCH   3   4
ATOM      4  C   UNL A   1      35.643  21.146  25.686  1.00  0.00     0.261 C 
BRANCH   4   5
ATOM      5  O   UNL A   1      35.573  22.567  25.908  1.00  0.00    -0.459 OA
BRANCH   5   6
ATOM      6  C   UNL A   1      34.532  23.014  26.660  1.00  0.00     0.361 C 
ATOM      7  O   UNL A   1      34.128  22.467  27.682  1.00  0.00    -0.245 OA
BRANCH   6   8
ATOM      8  C   UNL A   1      33.861  24.253  26.090  1.00  0.00     0.387 C 
BRANCH   8   9
ATOM      9  N   UNL A   1      32.748  24.063  25.152  1.00  0.00    -0.316 N 
ATOM     10  H   UNL A   1      32.234  23.313  25.616  1.00  0.00     0.349 HD
BRANCH   9  11
ATOM     11  C   UNL A   1      33.088  23.442  23.881  1.00  0.00     0.291 C 
BRANCH  11  12
ATOM     12  C   UNL A   1      32.356  22.142  23.682  1.00  0.00     0.025 C 
ATOM     13  C   UNL A   1      32.172  21.232  24.649  1.00  0.00     0.010 C 
ENDBRANCH  11  12
ENDBRANCH   9  11
BRANCH   9  14
ATOM     14  C   UNL A   1      31.702  25.077  25.134  1.00  0.00     0.339 C 
BRANCH  14  15
ATOM     15  C   UNL A   1      31.803  26.215  24.169  1.00  0.00     0.165 A 
ATOM     16  C   UNL A   1      33.117  27.290  23.671  1.00  0.00     0.059 A 
ATOM     17  O   UNL A   1      30.241  27.029  23.492  1.00  0.00    -0.400 OA
ATOM     18  C   UNL A   1      32.400  28.816  22.757  1.00  0.00     0.134 A 
ATOM     19  C   UNL A   1      30.645  28.679  22.677  1.00  0.00     0.433 A 
BRANCH  19  20
ATOM     20  N   UNL A   1      29.578  29.575  22.412  1.00  0.00     0.102 N 
ATOM     21  O   UNL A   1      29.517  30.003  21.253  1.00  0.00    -0.256 OA
ATOM     22  O   UNL A   1      28.854  29.906  23.356  1.00  0.00    -0.256 OA
ENDBRANCH  19  20
ENDBRANCH  14  15
ENDBRANCH   9  14
ENDBRANCH   8   9
ENDBRANCH   6   8
ENDBRANCH   5   6
ENDBRANCH   4   5
ENDBRANCH   3   4
ENDBRANCH   2   3
ENDBRANCH   1   2
BRANCH   1  23
ATOM     23  C   UNL A   1      40.811  20.958  26.634  1.00  0.00     0.188 C 
BRANCH  23  24
ATOM     24  O   UNL A   1      41.712  20.192  25.633  1.00  0.00    -0.376 OA
BRANCH  24  25
ATOM     25  C   UNL A   1      43.134  20.208  25.754  1.00  0.00     0.202 C 
BRANCH  25  26
ATOM     26  C   UNL A   1      44.002  21.412  25.347  1.00  0.00     0.261 C 
BRANCH  26  27
ATOM     27  O   UNL A   1      43.938  22.571  26.189  1.00  0.00    -0.460 OA
BRANCH  27  28
ATOM     28  C   UNL A   1      44.209  23.772  25.636  1.00  0.00     0.338 C 
ATOM     29  O   UNL A   1      44.860  23.984  24.630  1.00  0.00    -0.246 OA
BRANCH  28  30
ATOM     30  C   UNL A   1      43.404  24.794  26.366  1.00  0.00     0.060 A 
ATOM     31  C   UNL A   1      43.868  26.116  26.391  1.00  0.00     0.016 A 
ATOM     32  C   UNL A   1      42.174  24.480  26.966  1.00  0.00     0.016 A 
ATOM     33  C   UNL A   1      43.146  27.105  27.071  1.00  0.00     0.010 A 
ATOM     34  C   UNL A   1      41.453  25.466  27.648  1.00  0.00     0.010 A 
ATOM     35  C   UNL A   1      41.963  26.772  27.751  1.00  0.00    -0.014 A 
BRANCH  35  36
ATOM     36  C   UNL A   1      41.469  27.655  28.841  1.00  0.00     0.031 A 
ATOM     37  C   UNL A   1      42.193  27.567  30.161  1.00  0.00     0.074 A 
ATOM     38  C   UNL A   1      40.440  28.511  28.702  1.00  0.00     0.049 A 
ATOM     39  N   UNL A   1      41.955  28.184  31.289  1.00  0.00    -0.248 NA
ATOM     40  C   UNL A   1      43.343  26.647  30.209  1.00  0.00     0.031 C 
ATOM     41  C   UNL A   1      39.673  28.739  27.481  1.00  0.00     0.029 A 
ATOM     42  N   UNL A   1      39.860  29.351  29.625  1.00  0.00    -0.354 N 
ATOM     43  C   UNL A   1      42.925  27.729  32.174  1.00  0.00     0.074 A 
ATOM     44  C   UNL A   1      43.729  26.758  31.467  1.00  0.00     0.031 C 
ATOM     45  C   UNL A   1      38.715  29.653  27.733  1.00  0.00     0.029 A 
ATOM     46  C   UNL A   1      38.784  30.054  29.140  1.00  0.00     0.049 A 
ATOM     47  H   UNL A   1      40.187  29.440  30.549  1.00  0.00     0.167 HD
ATOM     48  C   UNL A   1      43.145  28.091  33.458  1.00  0.00     0.037 A 
ATOM     49  C   UNL A   1      37.944  30.907  29.766  1.00  0.00     0.037 A 
ATOM     50  C   UNL A   1      42.343  29.035  34.181  1.00  0.00     0.049 A 
ATOM     51  C   UNL A   1      38.145  31.220  31.232  1.00  0.00     0.074 A 
ATOM     52  C   UNL A   1      42.481  29.453  35.493  1.00  0.00     0.029 A 
ATOM     53  N   UNL A   1      41.244  29.696  33.660  1.00  0.00    -0.354 N 
ATOM     54  N   UNL A   1      39.084  30.808  32.050  1.00  0.00    -0.248 NA
ATOM     55  C   UNL A   1      37.166  32.123  31.863  1.00  0.00     0.031 C 
ATOM     56  C   UNL A   1      41.431  30.330  35.781  1.00  0.00     0.029 A 
ATOM     57  C   UNL A   1      40.681  30.505  34.631  1.00  0.00     0.049 A 
ATOM     58  H   UNL A   1      40.913  29.606  32.737  1.00  0.00     0.167 HD
ATOM     59  C   UNL A   1      38.837  31.436  33.268  1.00  0.00     0.074 A 
ATOM     60  C   UNL A   1      37.659  32.254  33.087  1.00  0.00     0.031 C 
ATOM     61  C   UNL A   1      39.529  31.346  34.430  1.00  0.00     0.037 A 
BRANCH  48  62
ATOM     62  C   UNL A   1      44.284  27.423  34.166  1.00  0.00     0.057 A 
ATOM     63  C   UNL A   1      45.601  27.890  34.053  1.00  0.00     0.134 A 
ATOM     64  C   UNL A   1      44.061  26.297  34.967  1.00  0.00     0.134 A 
ATOM     65  F   UNL A   1      45.881  28.950  33.279  1.00  0.00    -0.206 F 
ATOM     66  C   UNL A   1      46.659  27.243  34.690  1.00  0.00     0.040 A 
ATOM     67  C   UNL A   1      45.107  25.659  35.634  1.00  0.00     0.040 A 
ATOM     68  F   UNL A   1      42.824  25.799  35.113  1.00  0.00    -0.206 F 
ATOM     69  C   UNL A   1      46.412  26.128  35.489  1.00  0.00     0.006 A 
ENDBRANCH  48  62
BRANCH  49  70
ATOM     70  C   UNL A   1      36.810  31.529  29.031  1.00  0.00     0.057 A 
ATOM     71  C   UNL A   1      36.837  32.880  28.659  1.00  0.00     0.134 A 
ATOM     72  C   UNL A   1      35.641  30.810  28.748  1.00  0.00     0.134 A 
ATOM     73  F   UNL A   1      37.912  33.633  28.931  1.00  0.00    -0.206 F 
ATOM     74  C   UNL A   1      35.736  33.499  28.060  1.00  0.00     0.040 A 
ATOM     75  C   UNL A   1      34.545  31.409  28.125  1.00  0.00     0.040 A 
ATOM     76  F   UNL A   1      35.545  29.516  29.084  1.00  0.00    -0.206 F 
ATOM     77  C   UNL A   1      34.586  32.761  27.788  1.00  0.00     0.006 A 
ENDBRANCH  49  70
BRANCH  61  78
ATOM     78  C   UNL A   1      39.094  32.201  35.586  1.00  0.00     0.057 A 
ATOM     79  C   UNL A   1      38.284  31.711  36.617  1.00  0.00     0.134 A 
ATOM     80  C   UNL A   1      39.578  33.511  35.714  1.00  0.00     0.134 A 
ATOM     81  F   UNL A   1      37.782  30.469  36.556  1.00  0.00    -0.206 F 
ATOM     82  C   UNL A   1      37.962  32.495  37.728  1.00  0.00     0.040 A 
ATOM     83  C   UNL A   1      39.286  34.295  36.832  1.00  0.00     0.040 A 
ATOM     84  F   UNL A   1      40.372  34.039  34.770  1.00  0.00    -0.206 F 
ATOM     85  C   UNL A   1      38.473  33.787  37.842  1.00  0.00     0.006 A 
ENDBRANCH  61  78
ENDBRANCH  35  36
ENDBRANCH  28  30
ENDBRANCH  27  28
ENDBRANCH  26  27
ENDBRANCH  25  26
ENDBRANCH  24  25
ENDBRANCH  23  24
ENDBRANCH   1  23
TORSDOF 23
ENDMDL
MODEL 2
REMARK VINA RESULT:     -10.1      2.210      7.382
REMARK SMILES C=CC[N@@H+](CC(=O)OCCOCCOCCOC(=O)c1ccc(-c2c3nc(c(-c4c(F)cccc4F)c4ccc([nH]4)c(-c4c(F)cccc4F)c4nc(c(-c5c(F)cccc5F)c5ccc2[nH]5)C=C4)C=C3)cc1)Cc1ccc([N+](=O)[O-])o1
REMARK SMILES IDX 12 1 11 2 10 3 9 4 8 5 6 6 7 7 5 8 4 9 3 11 2 12 1 13 74 14
REMARK SMILES IDX 75 15 76 16 82 17 77 18 78 19 79 20 80 21 81 22 13 23 14 24
REMARK SMILES IDX 15 25 16 26 17 27 18 28 19 29 20 30 21 31 73 32 22 33 72 34
REMARK SMILES IDX 23 35 24 36 25 37 66 38 26 39 71 40 65 41 67 42 27 43 70 44
REMARK SMILES IDX 64 45 63 46 28 48 54 49 37 50 53 51 38 52 41 53 52 54 68 55
REMARK SMILES IDX 39 56 40 57 51 59 69 60 42 61 29 62 30 63 35 64 31 65 32 66
REMARK SMILES IDX 34 67 36 68 33 69 55 70 56 71 61 72 57 73 58 74 60 75 62 76
REMARK SMILES IDX 59 77 43 78 44 79 49 80 45 81 46 82 48 83 50 84 47 85
REMARK H PARENT 4 10 67 47 41 58
REMARK Flexibility Score: inf
ROOT
ATOM      1  C   UNL A   1      39.164  21.877  26.123  1.00  0.00     0.188 C 
ENDROOT
BRANCH   1   2
ATOM      2  O   UNL A   1      38.173  20.929  25.358  1.00  0.00    -0.376 OA
BRANCH   2   3
ATOM      3  C   UNL A   1      36.800  21.333  25.215  1.00  0.00     0.202 C 
BRANCH   3   4
ATOM      4  C   UNL A   1      36.520  22.711  24.608  1.00  0.00     0.261 C 
BRANCH   4   5
ATOM      5  O   UNL A   1      35.675  23.514  25.453  1.00  0.00    -0.459 OA
BRANCH   5   6
ATOM      6  C   UNL A   1      34.418  23.046  25.677  1.00  0.00     0.361 C 
ATOM      7  O   UNL A   1      33.922  22.892  26.789  1.00  0.00    -0.245 OA
BRANCH   6   8
ATOM      8  C   UNL A   1      33.674  22.673  24.404  1.00  0.00     0.387 C 
BRANCH   8   9
ATOM      9  N   UNL A   1      32.327  22.106  24.536  1.00  0.00    -0.316 N 
ATOM     10  H   UNL A   1      32.130  21.853  23.568  1.00  0.00     0.349 HD
BRANCH   9  11
ATOM     11  C   UNL A   1      31.261  23.058  24.812  1.00  0.00     0.291 C 
BRANCH  11  12
ATOM     12  C   UNL A   1      31.410  24.314  23.997  1.00  0.00     0.025 C 
ATOM     13  C   UNL A   1      30.427  24.847  23.260  1.00  0.00     0.010 C 
ENDBRANCH  11  12
ENDBRANCH   9  11
BRANCH   9  14
ATOM     14  C   UNL A   1      32.209  20.787  25.144  1.00  0.00     0.339 C 
BRANCH  14  15
ATOM     15  C   UNL A   1      32.843  19.612  24.470  1.00  0.00     0.165 A 
ATOM     16  C   UNL A   1      32.478  18.694  23.002  1.00  0.00     0.059 A 
ATOM     17  O   UNL A   1      34.101  18.551  25.394  1.00  0.00    -0.400 OA
ATOM     18  C   UNL A   1      33.428  17.028  23.023  1.00  0.00     0.134 A 
ATOM     19  C   UNL A   1      34.391  16.921  24.495  1.00  0.00     0.433 A 
BRANCH  19  20
ATOM     20  N   UNL A   1      35.038  15.873  25.199  1.00  0.00     0.102 N 
ATOM     21  O   UNL A   1      34.403  14.815  25.282  1.00  0.00    -0.256 OA
ATOM     22  O   UNL A   1      36.129  16.118  25.723  1.00  0.00    -0.256 OA
ENDBRANCH  19  20
ENDBRANCH  14  15
ENDBRANCH   9  14
ENDBRANCH   8   9
ENDBRANCH   6   8
ENDBRANCH   5   6
ENDBRANCH   4   5
ENDBRANCH   3   4
ENDBRANCH   2   3
ENDBRANCH   1   2
BRANCH   1  23
ATOM     23  C   UNL A   1      41.362  21.535  26.547  1.00  0.00     0.188 C 
BRANCH  23  24
ATOM     24  O   UNL A   1      42.372  20.965  25.519  1.00  0.00    -0.376 OA
BRANCH  24  25
ATOM     25  C   UNL A   1      43.763  21.270  25.599  1.00  0.00     0.202 C 
BRANCH  25  26
ATOM     26  C   UNL A   1      44.394  22.512  24.942  1.00  0.00     0.261 C 
BRANCH  26  27
ATOM     27  O   UNL A   1      43.671  23.744  25.058  1.00  0.00    -0.460 OA
BRANCH  27  28
ATOM     28  C   UNL A   1      44.371  24.867  25.322  1.00  0.00     0.338 C 
ATOM     29  O   UNL A   1      45.375  25.254  24.754  1.00  0.00    -0.246 OA
BRANCH  28  30
ATOM     30  C   UNL A   1      43.586  25.662  26.311  1.00  0.00     0.060 A 
ATOM     31  C   UNL A   1      43.816  27.042  26.392  1.00  0.00     0.016 A 
ATOM     32  C   UNL A   1      42.588  25.079  27.108  1.00  0.00     0.016 A 
ATOM     33  C   UNL A   1      43.106  27.824  27.311  1.00  0.00     0.010 A 
ATOM     34  C   UNL A   1      41.880  25.858  28.029  1.00  0.00     0.010 A 
ATOM     35  C   UNL A   1      42.174  27.225  28.174  1.00  0.00    -0.014 A 
BRANCH  35  36
ATOM     36  C   UNL A   1      41.791  27.916  29.434  1.00  0.00     0.031 A 
ATOM     37  C   UNL A   1      40.569  28.799  29.374  1.00  0.00     0.074 A 
ATOM     38  C   UNL A   1      42.462  27.786  30.593  1.00  0.00     0.049 A 
ATOM     39  N   UNL A   1      40.032  29.548  30.301  1.00  0.00    -0.248 NA
ATOM     40  C   UNL A   1      39.862  28.840  28.082  1.00  0.00     0.031 C 
ATOM     41  C   UNL A   1      43.630  26.940  30.817  1.00  0.00     0.029 A 
ATOM     42  N   UNL A   1      42.244  28.388  31.812  1.00  0.00    -0.354 N 
ATOM     43  C   UNL A   1      38.927  30.143  29.705  1.00  0.00     0.074 A 
ATOM     44  C   UNL A   1      38.892  29.701  28.329  1.00  0.00     0.031 C 
ATOM     45  C   UNL A   1      44.033  27.084  32.095  1.00  0.00     0.029 A 
ATOM     46  C   UNL A   1      43.167  28.052  32.772  1.00  0.00     0.049 A 
ATOM     47  H   UNL A   1      41.493  29.002  31.980  1.00  0.00     0.167 HD
ATOM     48  C   UNL A   1      38.009  30.975  30.247  1.00  0.00     0.037 A 
ATOM     49  C   UNL A   1      43.306  28.492  34.041  1.00  0.00     0.037 A 
ATOM     50  C   UNL A   1      38.043  31.442  31.603  1.00  0.00     0.049 A 
ATOM     51  C   UNL A   1      42.327  29.502  34.599  1.00  0.00     0.074 A 
ATOM     52  C   UNL A   1      37.163  32.300  32.238  1.00  0.00     0.029 A 
ATOM     53  N   UNL A   1      39.015  31.103  32.529  1.00  0.00    -0.354 N 
ATOM     54  N   UNL A   1      41.269  30.034  34.035  1.00  0.00    -0.248 NA
ATOM     55  C   UNL A   1      42.564  29.972  35.975  1.00  0.00     0.031 C 
ATOM     56  C   UNL A   1      37.633  32.522  33.535  1.00  0.00     0.029 A 
ATOM     57  C   UNL A   1      38.769  31.752  33.726  1.00  0.00     0.049 A 
ATOM     58  H   UNL A   1      39.769  30.492  32.361  1.00  0.00     0.167 HD
ATOM     59  C   UNL A   1      40.693  30.857  34.999  1.00  0.00     0.074 A 
ATOM     60  C   UNL A   1      41.517  30.759  36.182  1.00  0.00     0.031 C 
ATOM     61  C   UNL A   1      39.575  31.620  34.911  1.00  0.00     0.037 A 
BRANCH  48  62
ATOM     62  C   UNL A   1      36.913  31.458  29.347  1.00  0.00     0.057 A 
ATOM     63  C   UNL A   1      35.822  30.645  29.011  1.00  0.00     0.134 A 
ATOM     64  C   UNL A   1      36.954  32.748  28.807  1.00  0.00     0.134 A 
ATOM     65  F   UNL A   1      35.740  29.390  29.476  1.00  0.00    -0.206 F 
ATOM     66  C   UNL A   1      34.823  31.092  28.146  1.00  0.00     0.040 A 
ATOM     67  C   UNL A   1      35.945  33.217  27.966  1.00  0.00     0.040 A 
ATOM     68  F   UNL A   1      37.974  33.573  29.088  1.00  0.00    -0.206 F 
ATOM     69  C   UNL A   1      34.880  32.384  27.627  1.00  0.00     0.006 A 
ENDBRANCH  48  62
BRANCH  49  70
ATOM     70  C   UNL A   1      44.424  28.006  34.894  1.00  0.00     0.057 A 
ATOM     71  C   UNL A   1      44.277  26.879  35.714  1.00  0.00     0.134 A 
ATOM     72  C   UNL A   1      45.640  28.696  34.967  1.00  0.00     0.134 A 
ATOM     73  F   UNL A   1      43.126  26.192  35.716  1.00  0.00    -0.206 F 
ATOM     74  C   UNL A   1      45.285  26.474  36.593  1.00  0.00     0.040 A 
ATOM     75  C   UNL A   1      46.666  28.287  35.821  1.00  0.00     0.040 A 
ATOM     76  F   UNL A   1      45.845  29.787  34.215  1.00  0.00    -0.206 F 
ATOM     77  C   UNL A   1      46.487  27.178  36.645  1.00  0.00     0.006 A 
ENDBRANCH  49  70
BRANCH  61  78
ATOM     78  C   UNL A   1      39.118  32.358  36.138  1.00  0.00     0.057 A 
ATOM     79  C   UNL A   1      38.261  31.782  37.082  1.00  0.00     0.134 A 
ATOM     80  C   UNL A   1      39.628  33.633  36.422  1.00  0.00     0.134 A 
ATOM     81  F   UNL A   1      37.734  30.567  36.871  1.00  0.00    -0.206 F 
ATOM     82  C   UNL A   1      37.918  32.451  38.259  1.00  0.00     0.040 A 
ATOM     83  C   UNL A   1      39.313  34.301  37.606  1.00  0.00     0.040 A 
ATOM     84  F   UNL A   1      40.466  34.238  35.567  1.00  0.00    -0.206 F 
ATOM     85  C   UNL A   1      38.453  33.709  38.528  1.00  0.00     0.006 A 
ENDBRANCH  61  78
ENDBRANCH  35  36
ENDBRANCH  28  30
ENDBRANCH  27  28
ENDBRANCH  26  27
ENDBRANCH  25  26
ENDBRANCH  24  25
ENDBRANCH  23  24
ENDBRANCH   1  23
TORSDOF 23
ENDMDL
MODEL 3
REMARK VINA RESULT:     -10.0      1.694      6.643
REMARK SMILES C=CC[N@@H+](CC(=O)OCCOCCOCCOC(=O)c1ccc(-c2c3nc(c(-c4c(F)cccc4F)c4ccc([nH]4)c(-c4c(F)cccc4F)c4nc(c(-c5c(F)cccc5F)c5ccc2[nH]5)C=C4)C=C3)cc1)Cc1ccc([N+](=O)[O-])o1
REMARK SMILES IDX 12 1 11 2 10 3 9 4 8 5 6 6 7 7 5 8 4 9 3 11 2 12 1 13 74 14
REMARK SMILES IDX 75 15 76 16 82 17 77 18 78 19 79 20 80 21 81 22 13 23 14 24
REMARK SMILES IDX 15 25 16 26 17 27 18 28 19 29 20 30 21 31 73 32 22 33 72 34
REMARK SMILES IDX 23 35 24 36 25 37 66 38 26 39 71 40 65 41 67 42 27 43 70 44
REMARK SMILES IDX 64 45 63 46 28 48 54 49 37 50 53 51 38 52 41 53 52 54 68 55
REMARK SMILES IDX 39 56 40 57 51 59 69 60 42 61 29 62 30 63 35 64 31 65 32 66
REMARK SMILES IDX 34 67 36 68 33 69 55 70 56 71 61 72 57 73 58 74 60 75 62 76
REMARK SMILES IDX 59 77 43 78 44 79 49 80 45 81 46 82 48 83 50 84 47 85
REMARK H PARENT 4 10 67 47 41 58
REMARK Flexibility Score: inf
ROOT
ATOM      1  C   UNL A   1      38.877  21.383  25.727  1.00  0.00     0.188 C 
ENDROOT
BRANCH   1   2
ATOM      2  O   UNL A   1      37.534  20.698  25.291  1.00  0.00    -0.376 OA
BRANCH   2   3
ATOM      3  C   UNL A   1      36.296  21.395  25.518  1.00  0.00     0.202 C 
BRANCH   3   4
ATOM      4  C   UNL A   1      35.000  20.715  25.069  1.00  0.00     0.261 C 
BRANCH   4   5
ATOM      5  O   UNL A   1      33.898  21.014  25.947  1.00  0.00    -0.459 OA
BRANCH   5   6
ATOM      6  C   UNL A   1      32.650  20.888  25.421  1.00  0.00     0.361 C 
ATOM      7  O   UNL A   1      32.232  19.880  24.860  1.00  0.00    -0.245 OA
BRANCH   6   8
ATOM      8  C   UNL A   1      31.809  22.148  25.547  1.00  0.00     0.387 C 
BRANCH   8   9
ATOM      9  N   UNL A   1      32.475  23.441  25.358  1.00  0.00    -0.316 N 
ATOM     10  H   UNL A   1      33.393  23.244  25.758  1.00  0.00     0.349 HD
BRANCH   9  11
ATOM     11  C   UNL A   1      32.012  24.526  26.210  1.00  0.00     0.291 C 
BRANCH  11  12
ATOM     12  C   UNL A   1      30.509  24.606  26.243  1.00  0.00     0.025 C 
ATOM     13  C   UNL A   1      29.814  25.721  25.980  1.00  0.00     0.010 C 
ENDBRANCH  11  12
ENDBRANCH   9  11
BRANCH   9  14
ATOM     14  C   UNL A   1      32.889  23.793  24.006  1.00  0.00     0.339 C 
BRANCH  14  15
ATOM     15  C   UNL A   1      32.730  25.204  23.536  1.00  0.00     0.165 A 
ATOM     16  C   UNL A   1      33.663  26.689  23.769  1.00  0.00     0.059 A 
ATOM     17  O   UNL A   1      31.089  25.783  22.807  1.00  0.00    -0.400 OA
ATOM     18  C   UNL A   1      32.604  28.209  23.273  1.00  0.00     0.134 A 
ATOM     19  C   UNL A   1      31.021  27.664  22.719  1.00  0.00     0.433 A 
BRANCH  19  20
ATOM     20  N   UNL A   1      29.761  28.281  22.515  1.00  0.00     0.102 N 
ATOM     21  O   UNL A   1      29.728  29.145  21.630  1.00  0.00    -0.256 OA
ATOM     22  O   UNL A   1      28.835  27.967  23.269  1.00  0.00    -0.256 OA
ENDBRANCH  19  20
ENDBRANCH  14  15
ENDBRANCH   9  14
ENDBRANCH   8   9
ENDBRANCH   6   8
ENDBRANCH   5   6
ENDBRANCH   4   5
ENDBRANCH   3   4
ENDBRANCH   2   3
ENDBRANCH   1   2
BRANCH   1  23
ATOM     23  C   UNL A   1      40.814  20.379  26.335  1.00  0.00     0.188 C 
BRANCH  23  24
ATOM     24  O   UNL A   1      42.194  20.684  25.698  1.00  0.00    -0.376 OA
BRANCH  24  25
ATOM     25  C   UNL A   1      42.738  22.002  25.707  1.00  0.00     0.202 C 
BRANCH  25  26
ATOM     26  C   UNL A   1      42.421  23.039  26.800  1.00  0.00     0.261 C 
BRANCH  26  27
ATOM     27  O   UNL A   1      41.379  23.982  26.515  1.00  0.00    -0.460 OA
BRANCH  27  28
ATOM     28  C   UNL A   1      41.735  25.204  26.067  1.00  0.00     0.338 C 
ATOM     29  O   UNL A   1      42.203  25.477  24.978  1.00  0.00    -0.246 OA
BRANCH  28  30
ATOM     30  C   UNL A   1      41.274  26.203  27.076  1.00  0.00     0.060 A 
ATOM     31  C   UNL A   1      41.780  27.508  27.003  1.00  0.00     0.016 A 
ATOM     32  C   UNL A   1      40.308  25.888  28.044  1.00  0.00     0.016 A 
ATOM     33  C   UNL A   1      41.378  28.474  27.933  1.00  0.00     0.010 A 
ATOM     34  C   UNL A   1      39.908  26.851  28.976  1.00  0.00     0.010 A 
ATOM     35  C   UNL A   1      40.482  28.134  28.960  1.00  0.00    -0.014 A 
BRANCH  35  36
ATOM     36  C   UNL A   1      40.429  28.964  30.192  1.00  0.00     0.031 A 
ATOM     37  C   UNL A   1      39.381  30.049  30.230  1.00  0.00     0.074 A 
ATOM     38  C   UNL A   1      41.246  28.791  31.248  1.00  0.00     0.049 A 
ATOM     39  N   UNL A   1      39.135  30.943  31.152  1.00  0.00    -0.248 NA
ATOM     40  C   UNL A   1      38.493  30.132  29.058  1.00  0.00     0.031 C 
ATOM     41  C   UNL A   1      42.275  27.764  31.375  1.00  0.00     0.029 A 
ATOM     42  N   UNL A   1      41.332  29.501  32.423  1.00  0.00    -0.354 N 
ATOM     43  C   UNL A   1      38.065  31.688  30.671  1.00  0.00     0.074 A 
ATOM     44  C   UNL A   1      37.735  31.170  29.363  1.00  0.00     0.031 C 
ATOM     45  C   UNL A   1      42.896  27.915  32.562  1.00  0.00     0.029 A 
ATOM     46  C   UNL A   1      42.327  29.067  33.265  1.00  0.00     0.049 A 
ATOM     47  H   UNL A   1      40.733  30.251  32.642  1.00  0.00     0.167 HD
ATOM     48  C   UNL A   1      37.401  32.707  31.263  1.00  0.00     0.037 A 
ATOM     49  C   UNL A   1      42.741  29.557  34.453  1.00  0.00     0.037 A 
ATOM     50  C   UNL A   1      37.731  33.248  32.550  1.00  0.00     0.049 A 
ATOM     51  C   UNL A   1      42.050  30.763  35.052  1.00  0.00     0.074 A 
ATOM     52  C   UNL A   1      37.123  34.292  33.224  1.00  0.00     0.029 A 
ATOM     53  N   UNL A   1      38.768  32.800  33.350  1.00  0.00    -0.354 N 
ATOM     54  N   UNL A   1      41.021  31.440  34.602  1.00  0.00    -0.248 NA
ATOM     55  C   UNL A   1      42.581  31.271  36.329  1.00  0.00     0.031 C 
ATOM     56  C   UNL A   1      37.827  34.509  34.412  1.00  0.00     0.029 A 
ATOM     57  C   UNL A   1      38.831  33.560  34.504  1.00  0.00     0.049 A 
ATOM     58  H   UNL A   1      39.370  32.052  33.131  1.00  0.00     0.167 HD
ATOM     59  C   UNL A   1      40.754  32.416  35.560  1.00  0.00     0.074 A 
ATOM     60  C   UNL A   1      41.729  32.247  36.613  1.00  0.00     0.031 C 
ATOM     61  C   UNL A   1      39.783  33.361  35.566  1.00  0.00     0.037 A 
BRANCH  48  62
ATOM     62  C   UNL A   1      36.272  33.320  30.492  1.00  0.00     0.057 A 
ATOM     63  C   UNL A   1      34.933  33.047  30.800  1.00  0.00     0.134 A 
ATOM     64  C   UNL A   1      36.530  34.190  29.427  1.00  0.00     0.134 A 
ATOM     65  F   UNL A   1      34.623  32.200  31.793  1.00  0.00    -0.206 F 
ATOM     66  C   UNL A   1      33.889  33.597  30.056  1.00  0.00     0.040 A 
ATOM     67  C   UNL A   1      35.495  34.771  28.695  1.00  0.00     0.040 A 
ATOM     68  F   UNL A   1      37.791  34.490  29.080  1.00  0.00    -0.206 F 
ATOM     69  C   UNL A   1      34.170  34.468  29.004  1.00  0.00     0.006 A 
ENDBRANCH  48  62
BRANCH  49  70
ATOM     70  C   UNL A   1      43.883  28.933  35.175  1.00  0.00     0.057 A 
ATOM     71  C   UNL A   1      43.675  27.981  36.182  1.00  0.00     0.134 A 
ATOM     72  C   UNL A   1      45.204  29.325  34.928  1.00  0.00     0.134 A 
ATOM     73  F   UNL A   1      42.431  27.587  36.491  1.00  0.00    -0.206 F 
ATOM     74  C   UNL A   1      44.733  27.464  36.934  1.00  0.00     0.040 A 
ATOM     75  C   UNL A   1      46.274  28.796  35.653  1.00  0.00     0.040 A 
ATOM     76  F   UNL A   1      45.474  30.237  33.983  1.00  0.00    -0.206 F 
ATOM     77  C   UNL A   1      46.039  27.870  36.667  1.00  0.00     0.006 A 
ENDBRANCH  49  70
BRANCH  61  78
ATOM     78  C   UNL A   1      39.661  34.249  36.772  1.00  0.00     0.057 A 
ATOM     79  C   UNL A   1      40.207  35.537  36.812  1.00  0.00     0.134 A 
ATOM     80  C   UNL A   1      38.898  33.837  37.874  1.00  0.00     0.134 A 
ATOM     81  F   UNL A   1      40.952  35.992  35.794  1.00  0.00    -0.206 F 
ATOM     82  C   UNL A   1      40.008  36.380  37.908  1.00  0.00     0.040 A 
ATOM     83  C   UNL A   1      38.670  34.680  38.963  1.00  0.00     0.040 A 
ATOM     84  F   UNL A   1      38.334  32.620  37.896  1.00  0.00    -0.206 F 
ATOM     85  C   UNL A   1      39.228  35.955  38.983  1.00  0.00     0.006 A 
ENDBRANCH  61  78
ENDBRANCH  35  36
ENDBRANCH  28  30
ENDBRANCH  27  28
ENDBRANCH  26  27
ENDBRANCH  25  26
ENDBRANCH  24  25
ENDBRANCH  23  24
ENDBRANCH   1  23
TORSDOF 23
ENDMDL
