MODEL 1
REMARK VINA RESULT:     -10.9      0.000      0.000
REMARK SMILES COc1ccc2c(c1)C=C(C(=O)OCCOCCOCCOC(=O)c1ccc(-c3c4nc(c(-c5c(F)cccc5F)c5ccc([nH]5)c(-c5c(F)cccc5F)c5nc(c(-c6c(F)cccc6F)c6ccc3[nH]6)C=C5)C=C4)cc1)[C@H](C(F)(F)F)O2
REMARK SMILES IDX 18 1 17 2 16 3 15 4 14 5 13 6 11 7 12 8 10 9 3 10 4 11 8 12
REMARK SMILES IDX 5 13 7 14 6 15 9 16 84 17 79 18 2 19 1 20 80 21 81 22 82 23
REMARK SMILES IDX 83 24 19 25 20 26 21 27 22 28 23 29 24 30 25 31 26 32 78 33
REMARK SMILES IDX 27 34 77 35 28 36 29 37 30 38 71 39 31 40 76 41 70 42 72 43
REMARK SMILES IDX 32 44 75 45 69 46 68 47 33 49 59 50 42 51 58 52 43 53 46 54
REMARK SMILES IDX 57 55 73 56 44 57 45 58 56 60 74 61 47 62 34 63 35 64 40 65
REMARK SMILES IDX 36 66 37 67 39 68 41 69 38 70 60 71 61 72 66 73 62 74 63 75
REMARK SMILES IDX 65 76 67 77 64 78 48 79 49 80 54 81 50 82 51 83 53 84 55 85
REMARK SMILES IDX 52 86
REMARK H PARENT 72 48 46 59
REMARK Flexibility Score: inf
ROOT
ATOM      1  C   UNL A   1      33.286  34.130  28.326  1.00  0.00     0.188 C 
ENDROOT
BRANCH   1   2
ATOM      2  C   UNL A   1      34.333  33.021  28.089  1.00  0.00     0.188 C 
BRANCH   2   3
ATOM      3  O   UNL A   1      33.841  31.709  28.210  1.00  0.00    -0.376 OA
BRANCH   3   4
ATOM      4  C   UNL A   1      34.387  30.661  27.429  1.00  0.00     0.202 C 
BRANCH   4   5
ATOM      5  C   UNL A   1      33.586  29.735  26.490  1.00  0.00     0.261 C 
BRANCH   5   6
ATOM      6  O   UNL A   1      34.042  28.391  26.322  1.00  0.00    -0.460 OA
BRANCH   6   7
ATOM      7  C   UNL A   1      33.642  27.751  25.195  1.00  0.00     0.338 C 
ATOM      8  O   UNL A   1      33.520  28.246  24.091  1.00  0.00    -0.246 OA
BRANCH   7   9
ATOM      9  C   UNL A   1      33.499  26.305  25.457  1.00  0.00     0.087 C 
ATOM     10  C   UNL A   1      35.228  21.846  26.114  1.00  0.00     0.119 A 
ATOM     11  C   UNL A   1      34.043  21.496  26.764  1.00  0.00     0.050 A 
ATOM     12  C   UNL A   1      35.404  23.155  25.644  1.00  0.00     0.058 A 
ATOM     13  C   UNL A   1      33.025  22.440  26.916  1.00  0.00     0.051 A 
ATOM     14  C   UNL A   1      34.392  24.107  25.801  1.00  0.00     0.021 A 
ATOM     15  C   UNL A   1      33.194  23.728  26.419  1.00  0.00     0.128 A 
ATOM     16  C   UNL A   1      34.585  25.511  25.439  1.00  0.00     0.027 C 
ATOM     17  O   UNL A   1      32.169  24.610  26.635  1.00  0.00    -0.475 OA
ATOM     18  C   UNL A   1      32.126  25.717  25.695  1.00  0.00     0.316 C 
BRANCH  10  19
ATOM     19  O   UNL A   1      36.302  21.016  25.934  1.00  0.00    -0.497 OA
ATOM     20  C   UNL A   1      36.873  21.001  24.630  1.00  0.00     0.278 C 
ENDBRANCH  10  19
BRANCH  18  21
ATOM     21  C   UNL A   1      30.980  26.655  26.110  1.00  0.00     0.430 C 
ATOM     22  F   UNL A   1      30.698  27.551  25.135  1.00  0.00    -0.167 F 
ATOM     23  F   UNL A   1      29.836  25.941  26.290  1.00  0.00    -0.167 F 
ATOM     24  F   UNL A   1      31.219  27.318  27.257  1.00  0.00    -0.167 F 
ENDBRANCH  18  21
ENDBRANCH   7   9
ENDBRANCH   6   7
ENDBRANCH   5   6
ENDBRANCH   4   5
ENDBRANCH   3   4
ENDBRANCH   2   3
ENDBRANCH   1   2
BRANCH   1  25
ATOM     25  O   UNL A   1      33.053  34.625  29.634  1.00  0.00    -0.376 OA
BRANCH  25  26
ATOM     26  C   UNL A   1      34.127  34.670  30.564  1.00  0.00     0.202 C 
BRANCH  26  27
ATOM     27  C   UNL A   1      34.063  33.893  31.891  1.00  0.00     0.261 C 
BRANCH  27  28
ATOM     28  O   UNL A   1      34.548  32.541  31.858  1.00  0.00    -0.460 OA
BRANCH  28  29
ATOM     29  C   UNL A   1      35.597  32.278  32.677  1.00  0.00     0.338 C 
ATOM     30  O   UNL A   1      35.685  32.511  33.869  1.00  0.00    -0.246 OA
BRANCH  29  31
ATOM     31  C   UNL A   1      36.606  31.481  31.950  1.00  0.00     0.060 A 
ATOM     32  C   UNL A   1      37.524  30.725  32.693  1.00  0.00     0.016 A 
ATOM     33  C   UNL A   1      36.700  31.541  30.560  1.00  0.00     0.016 A 
ATOM     34  C   UNL A   1      38.555  30.043  32.049  1.00  0.00     0.010 A 
ATOM     35  C   UNL A   1      37.751  30.878  29.917  1.00  0.00     0.010 A 
ATOM     36  C   UNL A   1      38.701  30.154  30.661  1.00  0.00    -0.014 A 
BRANCH  36  37
ATOM     37  C   UNL A   1      39.945  29.674  30.012  1.00  0.00     0.031 A 
ATOM     38  C   UNL A   1      41.084  30.639  29.837  1.00  0.00     0.074 A 
ATOM     39  C   UNL A   1      40.071  28.401  29.597  1.00  0.00     0.049 A 
ATOM     40  N   UNL A   1      42.239  30.468  29.244  1.00  0.00    -0.248 NA
ATOM     41  C   UNL A   1      40.894  31.982  30.408  1.00  0.00     0.031 C 
ATOM     42  C   UNL A   1      39.064  27.354  29.753  1.00  0.00     0.029 A 
ATOM     43  N   UNL A   1      41.108  27.778  28.947  1.00  0.00    -0.354 N 
ATOM     44  C   UNL A   1      42.906  31.680  29.362  1.00  0.00     0.074 A 
ATOM     45  C   UNL A   1      42.019  32.587  30.057  1.00  0.00     0.031 C 
ATOM     46  C   UNL A   1      39.525  26.221  29.196  1.00  0.00     0.029 A 
ATOM     47  C   UNL A   1      40.843  26.472  28.615  1.00  0.00     0.049 A 
ATOM     48  H   UNL A   1      41.959  28.226  28.739  1.00  0.00     0.167 HD
ATOM     49  C   UNL A   1      44.149  32.008  28.935  1.00  0.00     0.037 A 
ATOM     50  C   UNL A   1      41.573  25.591  27.903  1.00  0.00     0.037 A 
ATOM     51  C   UNL A   1      45.030  31.108  28.239  1.00  0.00     0.049 A 
ATOM     52  C   UNL A   1      42.920  26.005  27.366  1.00  0.00     0.074 A 
ATOM     53  C   UNL A   1      46.313  31.342  27.777  1.00  0.00     0.029 A 
ATOM     54  N   UNL A   1      44.713  29.802  27.895  1.00  0.00    -0.354 N 
ATOM     55  N   UNL A   1      43.552  27.145  27.499  1.00  0.00    -0.248 NA
ATOM     56  C   UNL A   1      43.655  25.003  26.579  1.00  0.00     0.031 C 
ATOM     57  C   UNL A   1      46.752  30.196  27.106  1.00  0.00     0.029 A 
ATOM     58  C   UNL A   1      45.767  29.227  27.204  1.00  0.00     0.049 A 
ATOM     59  H   UNL A   1      43.865  29.350  28.111  1.00  0.00     0.167 HD
ATOM     60  C   UNL A   1      44.771  26.987  26.849  1.00  0.00     0.074 A 
ATOM     61  C   UNL A   1      44.792  25.636  26.328  1.00  0.00     0.031 C 
ATOM     62  C   UNL A   1      45.783  27.877  26.701  1.00  0.00     0.037 A 
BRANCH  49  63
ATOM     63  C   UNL A   1      44.616  33.413  29.184  1.00  0.00     0.057 A 
ATOM     64  C   UNL A   1      45.331  33.765  30.337  1.00  0.00     0.134 A 
ATOM     65  C   UNL A   1      44.370  34.421  28.244  1.00  0.00     0.134 A 
ATOM     66  F   UNL A   1      45.588  32.850  31.284  1.00  0.00    -0.206 F 
ATOM     67  C   UNL A   1      45.762  35.074  30.556  1.00  0.00     0.040 A 
ATOM     68  C   UNL A   1      44.819  35.728  28.439  1.00  0.00     0.040 A 
ATOM     69  F   UNL A   1      43.694  34.153  27.116  1.00  0.00    -0.206 F 
ATOM     70  C   UNL A   1      45.512  36.059  29.602  1.00  0.00     0.006 A 
ENDBRANCH  49  63
BRANCH  50  71
ATOM     71  C   UNL A   1      41.043  24.230  27.634  1.00  0.00     0.057 A 
ATOM     72  C   UNL A   1      41.547  23.109  28.304  1.00  0.00     0.134 A 
ATOM     73  C   UNL A   1      40.045  24.012  26.676  1.00  0.00     0.134 A 
ATOM     74  F   UNL A   1      42.525  23.249  29.212  1.00  0.00    -0.206 F 
ATOM     75  C   UNL A   1      41.093  21.820  28.019  1.00  0.00     0.040 A 
ATOM     76  C   UNL A   1      39.560  22.732  26.402  1.00  0.00     0.040 A 
ATOM     77  F   UNL A   1      39.522  25.043  25.996  1.00  0.00    -0.206 F 
ATOM     78  C   UNL A   1      40.092  21.631  27.068  1.00  0.00     0.006 A 
ENDBRANCH  50  71
BRANCH  62  79
ATOM     79  C   UNL A   1      47.022  27.409  25.991  1.00  0.00     0.057 A 
ATOM     80  C   UNL A   1      47.169  27.509  24.602  1.00  0.00     0.134 A 
ATOM     81  C   UNL A   1      48.102  26.890  26.718  1.00  0.00     0.134 A 
ATOM     82  F   UNL A   1      46.170  27.987  23.845  1.00  0.00    -0.206 F 
ATOM     83  C   UNL A   1      48.336  27.087  23.959  1.00  0.00     0.040 A 
ATOM     84  C   UNL A   1      49.284  26.492  26.090  1.00  0.00     0.040 A 
ATOM     85  F   UNL A   1      48.033  26.776  28.054  1.00  0.00    -0.206 F 
ATOM     86  C   UNL A   1      49.399  26.583  24.706  1.00  0.00     0.006 A 
ENDBRANCH  62  79
ENDBRANCH  36  37
ENDBRANCH  29  31
ENDBRANCH  28  29
ENDBRANCH  27  28
ENDBRANCH  26  27
ENDBRANCH  25  26
ENDBRANCH   1  25
TORSDOF 19
ENDMDL
MODEL 2
REMARK VINA RESULT:     -10.4      4.184      9.672
REMARK SMILES COc1ccc2c(c1)C=C(C(=O)OCCOCCOCCOC(=O)c1ccc(-c3c4nc(c(-c5c(F)cccc5F)c5ccc([nH]5)c(-c5c(F)cccc5F)c5nc(c(-c6c(F)cccc6F)c6ccc3[nH]6)C=C5)C=C4)cc1)[C@H](C(F)(F)F)O2
REMARK SMILES IDX 18 1 17 2 16 3 15 4 14 5 13 6 11 7 12 8 10 9 3 10 4 11 8 12
REMARK SMILES IDX 5 13 7 14 6 15 9 16 84 17 79 18 2 19 1 20 80 21 81 22 82 23
REMARK SMILES IDX 83 24 19 25 20 26 21 27 22 28 23 29 24 30 25 31 26 32 78 33
REMARK SMILES IDX 27 34 77 35 28 36 29 37 30 38 71 39 31 40 76 41 70 42 72 43
REMARK SMILES IDX 32 44 75 45 69 46 68 47 33 49 59 50 42 51 58 52 43 53 46 54
REMARK SMILES IDX 57 55 73 56 44 57 45 58 56 60 74 61 47 62 34 63 35 64 40 65
REMARK SMILES IDX 36 66 37 67 39 68 41 69 38 70 60 71 61 72 66 73 62 74 63 75
REMARK SMILES IDX 65 76 67 77 64 78 48 79 49 80 54 81 50 82 51 83 53 84 55 85
REMARK SMILES IDX 52 86
REMARK H PARENT 72 48 46 59
REMARK Flexibility Score: inf
ROOT
ATOM      1  C   UNL A   1      40.500  20.534  26.557  1.00  0.00     0.188 C 
ENDROOT
BRANCH   1   2
ATOM      2  C   UNL A   1      39.385  21.471  26.046  1.00  0.00     0.188 C 
BRANCH   2   3
ATOM      3  O   UNL A   1      39.300  22.706  26.714  1.00  0.00    -0.376 OA
BRANCH   3   4
ATOM      4  C   UNL A   1      38.184  23.556  26.516  1.00  0.00     0.202 C 
BRANCH   4   5
ATOM      5  C   UNL A   1      37.432  23.749  25.182  1.00  0.00     0.261 C 
BRANCH   5   6
ATOM      6  O   UNL A   1      36.194  23.057  25.003  1.00  0.00    -0.460 OA
BRANCH   6   7
ATOM      7  C   UNL A   1      35.478  23.372  23.895  1.00  0.00     0.338 C 
ATOM      8  O   UNL A   1      35.761  23.080  22.749  1.00  0.00    -0.246 OA
BRANCH   7   9
ATOM      9  C   UNL A   1      34.206  24.014  24.279  1.00  0.00     0.087 C 
ATOM     10  C   UNL A   1      31.316  27.829  24.919  1.00  0.00     0.119 A 
ATOM     11  C   UNL A   1      30.208  26.982  24.862  1.00  0.00     0.050 A 
ATOM     12  C   UNL A   1      32.605  27.300  24.758  1.00  0.00     0.058 A 
ATOM     13  C   UNL A   1      30.386  25.610  24.678  1.00  0.00     0.051 A 
ATOM     14  C   UNL A   1      32.789  25.927  24.565  1.00  0.00     0.021 A 
ATOM     15  C   UNL A   1      31.669  25.088  24.551  1.00  0.00     0.128 A 
ATOM     16  C   UNL A   1      34.102  25.356  24.267  1.00  0.00     0.027 C 
ATOM     17  O   UNL A   1      31.766  23.738  24.337  1.00  0.00    -0.475 OA
ATOM     18  C   UNL A   1      33.040  23.162  24.731  1.00  0.00     0.316 C 
BRANCH  10  19
ATOM     19  O   UNL A   1      31.261  29.189  25.065  1.00  0.00    -0.497 OA
ATOM     20  C   UNL A   1      32.472  29.828  25.456  1.00  0.00     0.278 C 
ENDBRANCH  10  19
BRANCH  18  21
ATOM     21  C   UNL A   1      33.026  21.669  24.361  1.00  0.00     0.430 C 
ATOM     22  F   UNL A   1      34.004  20.992  25.009  1.00  0.00    -0.167 F 
ATOM     23  F   UNL A   1      31.859  21.100  24.765  1.00  0.00    -0.167 F 
ATOM     24  F   UNL A   1      33.142  21.444  23.039  1.00  0.00    -0.167 F 
ENDBRANCH  18  21
ENDBRANCH   7   9
ENDBRANCH   6   7
ENDBRANCH   5   6
ENDBRANCH   4   5
ENDBRANCH   3   4
ENDBRANCH   2   3
ENDBRANCH   1   2
BRANCH   1  25
ATOM     25  O   UNL A   1      41.795  21.044  26.825  1.00  0.00    -0.376 OA
BRANCH  25  26
ATOM     26  C   UNL A   1      42.894  20.602  26.040  1.00  0.00     0.202 C 
BRANCH  26  27
ATOM     27  C   UNL A   1      43.748  21.599  25.234  1.00  0.00     0.261 C 
BRANCH  27  28
ATOM     28  O   UNL A   1      43.097  22.819  24.842  1.00  0.00    -0.460 OA
BRANCH  28  29
ATOM     29  C   UNL A   1      43.849  23.942  24.954  1.00  0.00     0.338 C 
ATOM     30  O   UNL A   1      44.869  24.216  24.348  1.00  0.00    -0.246 OA
BRANCH  29  31
ATOM     31  C   UNL A   1      43.157  24.918  25.819  1.00  0.00     0.060 A 
ATOM     32  C   UNL A   1      43.706  26.201  25.954  1.00  0.00     0.016 A 
ATOM     33  C   UNL A   1      42.028  24.551  26.551  1.00  0.00     0.016 A 
ATOM     34  C   UNL A   1      43.142  27.116  26.841  1.00  0.00     0.010 A 
ATOM     35  C   UNL A   1      41.478  25.461  27.460  1.00  0.00     0.010 A 
ATOM     36  C   UNL A   1      42.051  26.735  27.632  1.00  0.00    -0.014 A 
BRANCH  36  37
ATOM     37  C   UNL A   1      41.631  27.592  28.768  1.00  0.00     0.031 A 
ATOM     38  C   UNL A   1      42.392  27.496  30.062  1.00  0.00     0.074 A 
ATOM     39  C   UNL A   1      40.605  28.453  28.652  1.00  0.00     0.049 A 
ATOM     40  N   UNL A   1      42.171  28.095  31.205  1.00  0.00    -0.248 NA
ATOM     41  C   UNL A   1      43.560  26.602  30.067  1.00  0.00     0.031 C 
ATOM     42  C   UNL A   1      39.820  28.679  27.441  1.00  0.00     0.029 A 
ATOM     43  N   UNL A   1      40.042  29.292  29.582  1.00  0.00    -0.354 N 
ATOM     44  C   UNL A   1      43.163  27.642  32.065  1.00  0.00     0.074 A 
ATOM     45  C   UNL A   1      43.971  26.700  31.322  1.00  0.00     0.031 C 
ATOM     46  C   UNL A   1      38.863  29.585  27.706  1.00  0.00     0.029 A 
ATOM     47  C   UNL A   1      38.947  29.975  29.113  1.00  0.00     0.049 A 
ATOM     48  H   UNL A   1      40.390  29.394  30.497  1.00  0.00     0.167 HD
ATOM     49  C   UNL A   1      43.387  27.987  33.355  1.00  0.00     0.037 A 
ATOM     50  C   UNL A   1      38.097  30.801  29.755  1.00  0.00     0.037 A 
ATOM     51  C   UNL A   1      42.582  28.921  34.096  1.00  0.00     0.049 A 
ATOM     52  C   UNL A   1      38.317  31.105  31.215  1.00  0.00     0.074 A 
ATOM     53  C   UNL A   1      42.735  29.344  35.405  1.00  0.00     0.029 A 
ATOM     54  N   UNL A   1      41.462  29.569  33.594  1.00  0.00    -0.354 N 
ATOM     55  N   UNL A   1      39.269  30.690  32.015  1.00  0.00    -0.248 NA
ATOM     56  C   UNL A   1      37.341  31.996  31.861  1.00  0.00     0.031 C 
ATOM     57  C   UNL A   1      41.678  30.206  35.712  1.00  0.00     0.029 A 
ATOM     58  C   UNL A   1      40.901  30.369  34.577  1.00  0.00     0.049 A 
ATOM     59  H   UNL A   1      41.119  29.475  32.677  1.00  0.00     0.167 HD
ATOM     60  C   UNL A   1      39.030  31.297  33.243  1.00  0.00     0.074 A 
ATOM     61  C   UNL A   1      37.847  32.115  33.080  1.00  0.00     0.031 C 
ATOM     62  C   UNL A   1      39.730  31.190  34.400  1.00  0.00     0.037 A 
BRANCH  49  63
ATOM     63  C   UNL A   1      44.535  27.322  34.058  1.00  0.00     0.057 A 
ATOM     64  C   UNL A   1      44.376  26.133  34.782  1.00  0.00     0.134 A 
ATOM     65  C   UNL A   1      45.825  27.866  33.986  1.00  0.00     0.134 A 
ATOM     66  F   UNL A   1      43.165  25.567  34.902  1.00  0.00    -0.206 F 
ATOM     67  C   UNL A   1      45.452  25.523  35.429  1.00  0.00     0.040 A 
ATOM     68  C   UNL A   1      46.913  27.250  34.606  1.00  0.00     0.040 A 
ATOM     69  F   UNL A   1      46.049  29.001  33.306  1.00  0.00    -0.206 F 
ATOM     70  C   UNL A   1      46.726  26.079  35.336  1.00  0.00     0.006 A 
ENDBRANCH  49  63
BRANCH  50  71
ATOM     71  C   UNL A   1      36.941  31.391  29.031  1.00  0.00     0.057 A 
ATOM     72  C   UNL A   1      36.945  32.730  28.627  1.00  0.00     0.134 A 
ATOM     73  C   UNL A   1      35.792  30.639  28.757  1.00  0.00     0.134 A 
ATOM     74  F   UNL A   1      38.005  33.511  28.886  1.00  0.00    -0.206 F 
ATOM     75  C   UNL A   1      35.842  33.307  27.994  1.00  0.00     0.040 A 
ATOM     76  C   UNL A   1      34.694  31.194  28.099  1.00  0.00     0.040 A 
ATOM     77  F   UNL A   1      35.723  29.350  29.121  1.00  0.00    -0.206 F 
ATOM     78  C   UNL A   1      34.714  32.535  27.724  1.00  0.00     0.006 A 
ENDBRANCH  50  71
BRANCH  62  79
ATOM     79  C   UNL A   1      39.270  32.015  35.568  1.00  0.00     0.057 A 
ATOM     80  C   UNL A   1      39.654  33.351  35.736  1.00  0.00     0.134 A 
ATOM     81  C   UNL A   1      38.392  31.473  36.517  1.00  0.00     0.134 A 
ATOM     82  F   UNL A   1      40.500  33.929  34.870  1.00  0.00    -0.206 F 
ATOM     83  C   UNL A   1      39.203  34.110  36.818  1.00  0.00     0.040 A 
ATOM     84  C   UNL A   1      37.911  32.230  37.586  1.00  0.00     0.040 A 
ATOM     85  F   UNL A   1      37.975  30.201  36.411  1.00  0.00    -0.206 F 
ATOM     86  C   UNL A   1      38.323  33.551  37.743  1.00  0.00     0.006 A 
ENDBRANCH  62  79
ENDBRANCH  36  37
ENDBRANCH  29  31
ENDBRANCH  28  29
ENDBRANCH  27  28
ENDBRANCH  26  27
ENDBRANCH  25  26
ENDBRANCH   1  25
TORSDOF 19
ENDMDL
MODEL 3
REMARK VINA RESULT:     -10.4      4.426      9.621
REMARK SMILES COc1ccc2c(c1)C=C(C(=O)OCCOCCOCCOC(=O)c1ccc(-c3c4nc(c(-c5c(F)cccc5F)c5ccc([nH]5)c(-c5c(F)cccc5F)c5nc(c(-c6c(F)cccc6F)c6ccc3[nH]6)C=C5)C=C4)cc1)[C@H](C(F)(F)F)O2
REMARK SMILES IDX 18 1 17 2 16 3 15 4 14 5 13 6 11 7 12 8 10 9 3 10 4 11 8 12
REMARK SMILES IDX 5 13 7 14 6 15 9 16 84 17 79 18 2 19 1 20 80 21 81 22 82 23
REMARK SMILES IDX 83 24 19 25 20 26 21 27 22 28 23 29 24 30 25 31 26 32 78 33
REMARK SMILES IDX 27 34 77 35 28 36 29 37 30 38 71 39 31 40 76 41 70 42 72 43
REMARK SMILES IDX 32 44 75 45 69 46 68 47 33 49 59 50 42 51 58 52 43 53 46 54
REMARK SMILES IDX 57 55 73 56 44 57 45 58 56 60 74 61 47 62 34 63 35 64 40 65
REMARK SMILES IDX 36 66 37 67 39 68 41 69 38 70 60 71 61 72 66 73 62 74 63 75
REMARK SMILES IDX 65 76 67 77 64 78 48 79 49 80 54 81 50 82 51 83 53 84 55 85
REMARK SMILES IDX 52 86
REMARK H PARENT 72 48 46 59
REMARK Flexibility Score: inf
ROOT
ATOM      1  C   UNL A   1      40.361  20.783  26.615  1.00  0.00     0.188 C 
ENDROOT
BRANCH   1   2
ATOM      2  C   UNL A   1      39.123  21.562  26.123  1.00  0.00     0.188 C 
BRANCH   2   3
ATOM      3  O   UNL A   1      39.017  22.874  26.619  1.00  0.00    -0.376 OA
BRANCH   3   4
ATOM      4  C   UNL A   1      38.047  23.764  26.094  1.00  0.00     0.202 C 
BRANCH   4   5
ATOM      5  C   UNL A   1      36.643  23.364  25.593  1.00  0.00     0.261 C 
BRANCH   5   6
ATOM      6  O   UNL A   1      35.575  23.330  26.543  1.00  0.00    -0.460 OA
BRANCH   6   7
ATOM      7  C   UNL A   1      34.318  23.438  26.045  1.00  0.00     0.338 C 
ATOM      8  O   UNL A   1      33.614  24.429  26.075  1.00  0.00    -0.246 OA
BRANCH   7   9
ATOM      9  C   UNL A   1      33.953  22.205  25.320  1.00  0.00     0.087 C 
ATOM     10  C   UNL A   1      32.610  17.574  25.081  1.00  0.00     0.119 A 
ATOM     11  C   UNL A   1      32.138  17.791  23.786  1.00  0.00     0.050 A 
ATOM     12  C   UNL A   1      33.161  18.638  25.809  1.00  0.00     0.058 A 
ATOM     13  C   UNL A   1      32.246  19.056  23.206  1.00  0.00     0.051 A 
ATOM     14  C   UNL A   1      33.264  19.910  25.237  1.00  0.00     0.021 A 
ATOM     15  C   UNL A   1      32.823  20.100  23.922  1.00  0.00     0.128 A 
ATOM     16  C   UNL A   1      33.715  21.071  26.003  1.00  0.00     0.027 C 
ATOM     17  O   UNL A   1      32.863  21.322  23.304  1.00  0.00    -0.475 OA
ATOM     18  C   UNL A   1      33.894  22.212  23.808  1.00  0.00     0.316 C 
BRANCH  10  19
ATOM     19  O   UNL A   1      32.531  16.388  25.760  1.00  0.00    -0.497 OA
ATOM     20  C   UNL A   1      33.302  15.311  25.237  1.00  0.00     0.278 C 
ENDBRANCH  10  19
BRANCH  18  21
ATOM     21  C   UNL A   1      33.764  23.559  23.077  1.00  0.00     0.430 C 
ATOM     22  F   UNL A   1      34.857  24.334  23.274  1.00  0.00    -0.167 F 
ATOM     23  F   UNL A   1      33.699  23.356  21.734  1.00  0.00    -0.167 F 
ATOM     24  F   UNL A   1      32.667  24.255  23.428  1.00  0.00    -0.167 F 
ENDBRANCH  18  21
ENDBRANCH   7   9
ENDBRANCH   6   7
ENDBRANCH   5   6
ENDBRANCH   4   5
ENDBRANCH   3   4
ENDBRANCH   2   3
ENDBRANCH   1   2
BRANCH   1  25
ATOM     25  O   UNL A   1      41.617  21.431  26.722  1.00  0.00    -0.376 OA
BRANCH  25  26
ATOM     26  C   UNL A   1      42.732  20.913  26.009  1.00  0.00     0.202 C 
BRANCH  26  27
ATOM     27  C   UNL A   1      43.702  21.848  25.262  1.00  0.00     0.261 C 
BRANCH  27  28
ATOM     28  O   UNL A   1      43.152  23.091  24.797  1.00  0.00    -0.460 OA
BRANCH  28  29
ATOM     29  C   UNL A   1      43.912  24.189  25.036  1.00  0.00     0.338 C 
ATOM     30  O   UNL A   1      44.980  24.477  24.527  1.00  0.00    -0.246 OA
BRANCH  29  31
ATOM     31  C   UNL A   1      43.172  25.126  25.905  1.00  0.00     0.060 A 
ATOM     32  C   UNL A   1      43.638  26.443  26.020  1.00  0.00     0.016 A 
ATOM     33  C   UNL A   1      42.081  24.692  26.658  1.00  0.00     0.016 A 
ATOM     34  C   UNL A   1      43.030  27.327  26.910  1.00  0.00     0.010 A 
ATOM     35  C   UNL A   1      41.488  25.573  27.570  1.00  0.00     0.010 A 
ATOM     36  C   UNL A   1      41.980  26.882  27.722  1.00  0.00    -0.014 A 
BRANCH  36  37
ATOM     37  C   UNL A   1      41.524  27.720  28.858  1.00  0.00     0.031 A 
ATOM     38  C   UNL A   1      42.252  27.614  30.169  1.00  0.00     0.074 A 
ATOM     39  C   UNL A   1      40.492  28.573  28.728  1.00  0.00     0.049 A 
ATOM     40  N   UNL A   1      41.997  28.195  31.314  1.00  0.00    -0.248 NA
ATOM     41  C   UNL A   1      43.429  26.731  30.191  1.00  0.00     0.031 C 
ATOM     42  C   UNL A   1      39.735  28.807  27.501  1.00  0.00     0.029 A 
ATOM     43  N   UNL A   1      39.898  29.394  29.654  1.00  0.00    -0.354 N 
ATOM     44  C   UNL A   1      42.973  27.741  32.193  1.00  0.00     0.074 A 
ATOM     45  C   UNL A   1      43.807  26.816  31.457  1.00  0.00     0.031 C 
ATOM     46  C   UNL A   1      38.763  29.701  27.753  1.00  0.00     0.029 A 
ATOM     47  C   UNL A   1      38.808  30.073  29.167  1.00  0.00     0.049 A 
ATOM     48  H   UNL A   1      40.222  29.487  30.579  1.00  0.00     0.167 HD
ATOM     49  C   UNL A   1      43.161  28.070  33.493  1.00  0.00     0.037 A 
ATOM     50  C   UNL A   1      37.934  30.882  29.799  1.00  0.00     0.037 A 
ATOM     51  C   UNL A   1      42.328  28.986  34.225  1.00  0.00     0.049 A 
ATOM     52  C   UNL A   1      38.115  31.168  31.268  1.00  0.00     0.074 A 
ATOM     53  C   UNL A   1      42.444  29.394  35.543  1.00  0.00     0.029 A 
ATOM     54  N   UNL A   1      41.215  29.631  33.704  1.00  0.00    -0.354 N 
ATOM     55  N   UNL A   1      39.051  30.752  32.086  1.00  0.00    -0.248 NA
ATOM     56  C   UNL A   1      37.115  32.042  31.900  1.00  0.00     0.031 C 
ATOM     57  C   UNL A   1      41.372  30.242  35.835  1.00  0.00     0.029 A 
ATOM     58  C   UNL A   1      40.622  30.412  34.683  1.00  0.00     0.049 A 
ATOM     59  H   UNL A   1      40.895  29.545  32.777  1.00  0.00     0.167 HD
ATOM     60  C   UNL A   1      38.776  31.340  33.315  1.00  0.00     0.074 A 
ATOM     61  C   UNL A   1      37.590  32.149  33.133  1.00  0.00     0.031 C 
ATOM     62  C   UNL A   1      39.448  31.225  34.487  1.00  0.00     0.037 A 
BRANCH  49  63
ATOM     63  C   UNL A   1      44.298  27.406  34.215  1.00  0.00     0.057 A 
ATOM     64  C   UNL A   1      44.149  26.170  34.858  1.00  0.00     0.134 A 
ATOM     65  C   UNL A   1      45.566  28.001  34.243  1.00  0.00     0.134 A 
ATOM     66  F   UNL A   1      42.958  25.554  34.881  1.00  0.00    -0.206 F 
ATOM     67  C   UNL A   1      45.215  25.563  35.525  1.00  0.00     0.040 A 
ATOM     68  C   UNL A   1      46.645  27.390  34.883  1.00  0.00     0.040 A 
ATOM     69  F   UNL A   1      45.779  29.183  33.645  1.00  0.00    -0.206 F 
ATOM     70  C   UNL A   1      46.469  26.170  35.532  1.00  0.00     0.006 A 
ENDBRANCH  49  63
BRANCH  50  71
ATOM     71  C   UNL A   1      36.792  31.471  29.054  1.00  0.00     0.057 A 
ATOM     72  C   UNL A   1      36.799  32.811  28.654  1.00  0.00     0.134 A 
ATOM     73  C   UNL A   1      35.650  30.716  28.755  1.00  0.00     0.134 A 
ATOM     74  F   UNL A   1      37.851  33.594  28.936  1.00  0.00    -0.206 F 
ATOM     75  C   UNL A   1      35.707  33.387  28.001  1.00  0.00     0.040 A 
ATOM     76  C   UNL A   1      34.563  31.270  28.078  1.00  0.00     0.040 A 
ATOM     77  F   UNL A   1      35.578  29.426  29.114  1.00  0.00    -0.206 F 
ATOM     78  C   UNL A   1      34.587  32.613  27.707  1.00  0.00     0.006 A 
ENDBRANCH  50  71
BRANCH  62  79
ATOM     79  C   UNL A   1      38.951  32.029  35.655  1.00  0.00     0.057 A 
ATOM     80  C   UNL A   1      38.163  31.468  36.667  1.00  0.00     0.134 A 
ATOM     81  C   UNL A   1      39.307  33.378  35.789  1.00  0.00     0.134 A 
ATOM     82  F   UNL A   1      37.778  30.184  36.595  1.00  0.00    -0.206 F 
ATOM     83  C   UNL A   1      37.725  32.224  37.756  1.00  0.00     0.040 A 
ATOM     84  C   UNL A   1      38.900  34.137  36.888  1.00  0.00     0.040 A 
ATOM     85  F   UNL A   1      40.071  33.977  34.862  1.00  0.00    -0.206 F 
ATOM     86  C   UNL A   1      38.101  33.562  37.872  1.00  0.00     0.006 A 
ENDBRANCH  62  79
ENDBRANCH  36  37
ENDBRANCH  29  31
ENDBRANCH  28  29
ENDBRANCH  27  28
ENDBRANCH  26  27
ENDBRANCH  25  26
ENDBRANCH   1  25
TORSDOF 19
ENDMDL
