MODEL 1
REMARK VINA RESULT:     -11.6      0.000      0.000
REMARK SMILES O=C(OCCOCCOCCOC(=O)c1ccc(-c2c3nc(c(-c4c(F)cccc4F)c4ccc([nH]4)c(-c4c(F)cccc4F)c4nc(c(-c5c(F)cccc5F)c5ccc2[nH]5)C=C4)C=C3)cc1)C1=Cc2cc(S(F)(F)(F)(F)F)ccc2O[C@H]1C(F)(F)F
REMARK SMILES IDX 8 1 7 2 6 3 5 4 4 5 3 6 2 7 1 8 69 9 70 10 84 11 71 12 83 13
REMARK SMILES IDX 72 14 82 15 73 16 81 17 80 18 85 19 86 20 87 21 88 22 74 23
REMARK SMILES IDX 75 24 76 25 77 26 78 27 79 28 9 29 10 30 11 31 12 32 13 33
REMARK SMILES IDX 14 34 15 35 16 36 68 37 17 38 67 39 18 40 19 41 20 42 61 43
REMARK SMILES IDX 21 44 66 45 60 46 62 47 22 48 65 49 59 50 58 51 23 53 49 54
REMARK SMILES IDX 32 55 48 56 33 57 36 58 47 59 63 60 34 61 35 62 46 64 64 65
REMARK SMILES IDX 37 66 24 67 25 68 30 69 26 70 27 71 29 72 31 73 28 74 50 75
REMARK SMILES IDX 51 76 56 77 52 78 53 79 55 80 57 81 54 82 38 83 39 84 44 85
REMARK SMILES IDX 40 86 41 87 43 88 45 89 42 90
REMARK H PARENT 62 52 36 63
REMARK Flexibility Score: inf
ROOT
ATOM      1  C   UNL A   1      40.363  20.403  26.380  1.00  0.00     0.188 C 
ENDROOT
BRANCH   1   2
ATOM      2  C   UNL A   1      39.768  21.801  26.437  1.00  0.00     0.188 C 
BRANCH   2   3
ATOM      3  O   UNL A   1      38.526  21.815  25.749  1.00  0.00    -0.376 OA
BRANCH   3   4
ATOM      4  C   UNL A   1      37.890  23.069  25.947  1.00  0.00     0.202 C 
BRANCH   4   5
ATOM      5  C   UNL A   1      36.885  23.309  24.833  1.00  0.00     0.261 C 
BRANCH   5   6
ATOM      6  O   UNL A   1      35.579  23.389  25.382  1.00  0.00    -0.460 OA
BRANCH   6   7
ATOM      7  C   UNL A   1      34.463  22.936  24.629  1.00  0.00     0.338 C 
ATOM      8  O   UNL A   1      34.592  22.677  23.393  1.00  0.00    -0.246 OA
BRANCH   7   9
ATOM      9  C   UNL A   1      33.112  22.762  25.306  1.00  0.00     0.087 C 
ATOM     10  C   UNL A   1      32.352  23.851  25.598  1.00  0.00     0.027 C 
ATOM     11  C   UNL A   1      32.612  21.369  25.654  1.00  0.00     0.316 C 
ATOM     12  C   UNL A   1      32.852  25.243  25.248  1.00  0.00     0.019 A 
ATOM     13  O   UNL A   1      33.631  24.350  23.189  1.00  0.00    -0.475 OA
ATOM     14  C   UNL A   1      32.745  26.267  26.176  1.00  0.00     0.036 A 
ATOM     15  C   UNL A   1      33.389  25.451  24.052  1.00  0.00     0.128 A 
ATOM     16  C   UNL A   1      32.971  27.555  25.635  1.00  0.00     0.107 A 
ATOM     17  C   UNL A   1      33.713  26.722  23.641  1.00  0.00     0.048 A 
ATOM     18  C   UNL A   1      33.576  27.788  24.484  1.00  0.00     0.028 A 
BRANCH  11  19
ATOM     19  C   UNL A   1      33.643  20.338  25.224  1.00  0.00     0.430 C 
ATOM     20  F   UNL A   1      33.654  20.255  23.897  1.00  0.00    -0.167 F 
ATOM     21  F   UNL A   1      34.868  20.613  25.662  1.00  0.00    -0.167 F 
ATOM     22  F   UNL A   1      33.238  19.180  25.739  1.00  0.00    -0.167 F 
ENDBRANCH  11  19
BRANCH  16  23
ATOM     23  S   UNL A   1      32.393  28.982  26.588  1.00  0.00     0.310 S 
ATOM     24  F   UNL A   1      31.401  28.087  27.442  1.00  0.00    -0.094 F 
ATOM     25  F   UNL A   1      31.224  29.166  25.548  1.00  0.00    -0.094 F 
ATOM     26  F   UNL A   1      31.897  30.206  27.407  1.00  0.00    -0.094 F 
ATOM     27  F   UNL A   1      33.486  28.697  27.692  1.00  0.00    -0.094 F 
ATOM     28  F   UNL A   1      32.840  27.669  25.829  1.00  0.00    -0.094 F 
ENDBRANCH  16  23
ENDBRANCH   7   9
ENDBRANCH   6   7
ENDBRANCH   5   6
ENDBRANCH   4   5
ENDBRANCH   3   4
ENDBRANCH   2   3
ENDBRANCH   1   2
BRANCH   1  29
ATOM     29  O   UNL A   1      41.611  20.448  25.702  1.00  0.00    -0.376 OA
BRANCH  29  30
ATOM     30  C   UNL A   1      42.494  21.318  26.392  1.00  0.00     0.202 C 
BRANCH  30  31
ATOM     31  C   UNL A   1      43.478  21.927  25.407  1.00  0.00     0.261 C 
BRANCH  31  32
ATOM     32  O   UNL A   1      42.973  23.171  24.941  1.00  0.00    -0.460 OA
BRANCH  32  33
ATOM     33  C   UNL A   1      43.648  24.377  25.266  1.00  0.00     0.338 C 
ATOM     34  O   UNL A   1      44.673  24.731  24.602  1.00  0.00    -0.246 OA
BRANCH  33  35
ATOM     35  C   UNL A   1      43.146  25.245  26.408  1.00  0.00     0.060 A 
ATOM     36  C   UNL A   1      42.176  24.764  27.270  1.00  0.00     0.016 A 
ATOM     37  C   UNL A   1      43.662  26.459  26.560  1.00  0.00     0.016 A 
ATOM     38  C   UNL A   1      41.602  25.757  28.099  1.00  0.00     0.010 A 
ATOM     39  C   UNL A   1      43.138  27.332  27.484  1.00  0.00     0.010 A 
ATOM     40  C   UNL A   1      42.137  26.941  28.329  1.00  0.00    -0.014 A 
BRANCH  40  41
ATOM     41  C   UNL A   1      41.667  27.824  29.474  1.00  0.00     0.031 A 
ATOM     42  C   UNL A   1      40.583  28.674  29.247  1.00  0.00     0.074 A 
ATOM     43  C   UNL A   1      42.342  27.735  30.680  1.00  0.00     0.049 A 
ATOM     44  N   UNL A   1      39.997  29.496  30.119  1.00  0.00    -0.248 NA
ATOM     45  C   UNL A   1      39.886  28.795  27.958  1.00  0.00     0.031 C 
ATOM     46  C   UNL A   1      43.430  26.875  30.919  1.00  0.00     0.029 A 
ATOM     47  N   UNL A   1      42.097  28.438  31.839  1.00  0.00    -0.354 N 
ATOM     48  C   UNL A   1      38.977  30.133  29.540  1.00  0.00     0.074 A 
ATOM     49  C   UNL A   1      38.895  29.696  28.140  1.00  0.00     0.031 C 
ATOM     50  C   UNL A   1      43.845  27.064  32.198  1.00  0.00     0.029 A 
ATOM     51  C   UNL A   1      43.021  28.045  32.782  1.00  0.00     0.049 A 
ATOM     52  H   UNL A   1      41.386  29.106  31.970  1.00  0.00     0.167 HD
ATOM     53  C   UNL A   1      38.112  31.059  30.125  1.00  0.00     0.037 A 
ATOM     54  C   UNL A   1      43.156  28.507  34.082  1.00  0.00     0.037 A 
ATOM     55  C   UNL A   1      38.219  31.489  31.438  1.00  0.00     0.049 A 
ATOM     56  C   UNL A   1      42.326  29.477  34.649  1.00  0.00     0.074 A 
ATOM     57  C   UNL A   1      37.351  32.416  32.045  1.00  0.00     0.029 A 
ATOM     58  N   UNL A   1      39.158  31.114  32.373  1.00  0.00    -0.354 N 
ATOM     59  N   UNL A   1      41.283  30.085  34.082  1.00  0.00    -0.248 NA
ATOM     60  C   UNL A   1      42.478  29.997  36.014  1.00  0.00     0.031 C 
ATOM     61  C   UNL A   1      37.765  32.606  33.326  1.00  0.00     0.029 A 
ATOM     62  C   UNL A   1      38.900  31.801  33.540  1.00  0.00     0.049 A 
ATOM     63  H   UNL A   1      39.887  30.468  32.233  1.00  0.00     0.167 HD
ATOM     64  C   UNL A   1      40.724  30.938  34.942  1.00  0.00     0.074 A 
ATOM     65  C   UNL A   1      41.489  30.900  36.195  1.00  0.00     0.031 C 
ATOM     66  C   UNL A   1      39.603  31.744  34.733  1.00  0.00     0.037 A 
BRANCH  53  67
ATOM     67  C   UNL A   1      36.990  31.629  29.273  1.00  0.00     0.057 A 
ATOM     68  C   UNL A   1      37.131  32.890  28.718  1.00  0.00     0.134 A 
ATOM     69  C   UNL A   1      35.893  30.909  29.073  1.00  0.00     0.134 A 
ATOM     70  F   UNL A   1      38.292  33.539  28.676  1.00  0.00    -0.206 F 
ATOM     71  C   UNL A   1      35.928  33.427  28.201  1.00  0.00     0.040 A 
ATOM     72  C   UNL A   1      34.803  31.453  28.439  1.00  0.00     0.040 A 
ATOM     73  F   UNL A   1      35.849  29.646  29.491  1.00  0.00    -0.206 F 
ATOM     74  C   UNL A   1      34.852  32.717  27.918  1.00  0.00     0.006 A 
ENDBRANCH  53  67
BRANCH  54  75
ATOM     75  C   UNL A   1      44.268  27.925  34.938  1.00  0.00     0.057 A 
ATOM     76  C   UNL A   1      44.049  26.741  35.624  1.00  0.00     0.134 A 
ATOM     77  C   UNL A   1      45.431  28.560  35.016  1.00  0.00     0.134 A 
ATOM     78  F   UNL A   1      43.010  25.946  35.384  1.00  0.00    -0.206 F 
ATOM     79  C   UNL A   1      45.030  26.455  36.603  1.00  0.00     0.040 A 
ATOM     80  C   UNL A   1      46.398  28.145  35.899  1.00  0.00     0.040 A 
ATOM     81  F   UNL A   1      45.662  29.609  34.231  1.00  0.00    -0.206 F 
ATOM     82  C   UNL A   1      46.224  27.016  36.651  1.00  0.00     0.006 A 
ENDBRANCH  54  75
BRANCH  66  83
ATOM     83  C   UNL A   1      39.124  32.613  35.885  1.00  0.00     0.057 A 
ATOM     84  C   UNL A   1      39.540  33.930  35.980  1.00  0.00     0.134 A 
ATOM     85  C   UNL A   1      38.301  32.084  36.782  1.00  0.00     0.134 A 
ATOM     86  F   UNL A   1      40.150  34.572  34.987  1.00  0.00    -0.206 F 
ATOM     87  C   UNL A   1      39.257  34.532  37.229  1.00  0.00     0.040 A 
ATOM     88  C   UNL A   1      37.959  32.783  37.915  1.00  0.00     0.040 A 
ATOM     89  F   UNL A   1      37.801  30.867  36.582  1.00  0.00    -0.206 F 
ATOM     90  C   UNL A   1      38.383  34.068  38.103  1.00  0.00     0.006 A 
ENDBRANCH  66  83
ENDBRANCH  40  41
ENDBRANCH  33  35
ENDBRANCH  32  33
ENDBRANCH  31  32
ENDBRANCH  30  31
ENDBRANCH  29  30
ENDBRANCH   1  29
TORSDOF 19
ENDMDL
MODEL 2
REMARK VINA RESULT:     -11.3      5.356     10.396
REMARK SMILES O=C(OCCOCCOCCOC(=O)c1ccc(-c2c3nc(c(-c4c(F)cccc4F)c4ccc([nH]4)c(-c4c(F)cccc4F)c4nc(c(-c5c(F)cccc5F)c5ccc2[nH]5)C=C4)C=C3)cc1)C1=Cc2cc(S(F)(F)(F)(F)F)ccc2O[C@H]1C(F)(F)F
REMARK SMILES IDX 8 1 7 2 6 3 5 4 4 5 3 6 2 7 1 8 69 9 70 10 84 11 71 12 83 13
REMARK SMILES IDX 72 14 82 15 73 16 81 17 80 18 85 19 86 20 87 21 88 22 74 23
REMARK SMILES IDX 75 24 76 25 77 26 78 27 79 28 9 29 10 30 11 31 12 32 13 33
REMARK SMILES IDX 14 34 15 35 16 36 68 37 17 38 67 39 18 40 19 41 20 42 61 43
REMARK SMILES IDX 21 44 66 45 60 46 62 47 22 48 65 49 59 50 58 51 23 53 49 54
REMARK SMILES IDX 32 55 48 56 33 57 36 58 47 59 63 60 34 61 35 62 46 64 64 65
REMARK SMILES IDX 37 66 24 67 25 68 30 69 26 70 27 71 29 72 31 73 28 74 50 75
REMARK SMILES IDX 51 76 56 77 52 78 53 79 55 80 57 81 54 82 38 83 39 84 44 85
REMARK SMILES IDX 40 86 41 87 43 88 45 89 42 90
REMARK H PARENT 62 52 36 63
REMARK Flexibility Score: inf
ROOT
ATOM      1  C   UNL A   1      43.184  18.504  25.723  1.00  0.00     0.188 C 
ENDROOT
BRANCH   1   2
ATOM      2  C   UNL A   1      44.594  18.821  25.250  1.00  0.00     0.188 C 
BRANCH   2   3
ATOM      3  O   UNL A   1      44.599  20.075  24.583  1.00  0.00    -0.376 OA
BRANCH   3   4
ATOM      4  C   UNL A   1      45.893  20.652  24.671  1.00  0.00     0.202 C 
BRANCH   4   5
ATOM      5  C   UNL A   1      45.787  22.160  24.512  1.00  0.00     0.261 C 
BRANCH   5   6
ATOM      6  O   UNL A   1      46.356  22.796  25.646  1.00  0.00    -0.460 OA
BRANCH   6   7
ATOM      7  C   UNL A   1      45.717  23.925  26.223  1.00  0.00     0.338 C 
ATOM      8  O   UNL A   1      44.980  24.673  25.509  1.00  0.00    -0.246 OA
BRANCH   7   9
ATOM      9  C   UNL A   1      45.914  24.236  27.699  1.00  0.00     0.087 C 
ATOM     10  C   UNL A   1      47.062  24.830  28.121  1.00  0.00     0.027 C 
ATOM     11  C   UNL A   1      44.826  23.883  28.701  1.00  0.00     0.316 C 
ATOM     12  C   UNL A   1      48.149  25.183  27.119  1.00  0.00     0.019 A 
ATOM     13  O   UNL A   1      46.430  25.905  25.644  1.00  0.00    -0.475 OA
ATOM     14  C   UNL A   1      49.473  24.891  27.405  1.00  0.00     0.036 A 
ATOM     15  C   UNL A   1      47.804  25.767  25.977  1.00  0.00     0.128 A 
ATOM     16  C   UNL A   1      50.399  25.522  26.541  1.00  0.00     0.107 A 
ATOM     17  C   UNL A   1      48.764  26.238  25.114  1.00  0.00     0.048 A 
ATOM     18  C   UNL A   1      50.092  26.038  25.364  1.00  0.00     0.028 A 
BRANCH  11  19
ATOM     19  C   UNL A   1      43.659  23.236  27.975  1.00  0.00     0.430 C 
ATOM     20  F   UNL A   1      43.096  24.127  27.164  1.00  0.00    -0.167 F 
ATOM     21  F   UNL A   1      44.012  22.161  27.276  1.00  0.00    -0.167 F 
ATOM     22  F   UNL A   1      42.791  22.884  28.920  1.00  0.00    -0.167 F 
ENDBRANCH  11  19
BRANCH  16  23
ATOM     23  S   UNL A   1      52.122  25.628  27.085  1.00  0.00     0.310 S 
ATOM     24  F   UNL A   1      52.398  26.893  26.171  1.00  0.00    -0.094 F 
ATOM     25  F   UNL A   1      52.535  24.734  25.855  1.00  0.00    -0.094 F 
ATOM     26  F   UNL A   1      53.602  25.720  27.553  1.00  0.00    -0.094 F 
ATOM     27  F   UNL A   1      51.707  26.635  28.229  1.00  0.00    -0.094 F 
ATOM     28  F   UNL A   1      50.631  25.637  26.558  1.00  0.00    -0.094 F 
ENDBRANCH  16  23
ENDBRANCH   7   9
ENDBRANCH   6   7
ENDBRANCH   5   6
ENDBRANCH   4   5
ENDBRANCH   3   4
ENDBRANCH   2   3
ENDBRANCH   1   2
BRANCH   1  29
ATOM     29  O   UNL A   1      42.339  19.615  25.467  1.00  0.00    -0.376 OA
BRANCH  29  30
ATOM     30  C   UNL A   1      41.128  19.466  26.192  1.00  0.00     0.202 C 
BRANCH  30  31
ATOM     31  C   UNL A   1      40.783  20.779  26.878  1.00  0.00     0.261 C 
BRANCH  31  32
ATOM     32  O   UNL A   1      40.317  21.709  25.910  1.00  0.00    -0.460 OA
BRANCH  32  33
ATOM     33  C   UNL A   1      39.371  22.701  26.279  1.00  0.00     0.338 C 
ATOM     34  O   UNL A   1      38.127  22.472  26.152  1.00  0.00    -0.246 OA
BRANCH  33  35
ATOM     35  C   UNL A   1      39.844  24.038  26.824  1.00  0.00     0.060 A 
ATOM     36  C   UNL A   1      39.931  24.238  28.192  1.00  0.00     0.016 A 
ATOM     37  C   UNL A   1      40.176  24.996  25.966  1.00  0.00     0.016 A 
ATOM     38  C   UNL A   1      40.108  25.592  28.564  1.00  0.00     0.010 A 
ATOM     39  C   UNL A   1      40.469  26.263  26.409  1.00  0.00     0.010 A 
ATOM     40  C   UNL A   1      40.515  26.546  27.747  1.00  0.00    -0.014 A 
BRANCH  40  41
ATOM     41  C   UNL A   1      41.009  27.887  28.264  1.00  0.00     0.031 A 
ATOM     42  C   UNL A   1      42.384  28.126  28.264  1.00  0.00     0.074 A 
ATOM     43  C   UNL A   1      40.064  28.798  28.705  1.00  0.00     0.049 A 
ATOM     44  N   UNL A   1      43.016  29.239  28.640  1.00  0.00    -0.248 NA
ATOM     45  C   UNL A   1      43.391  27.148  27.828  1.00  0.00     0.031 C 
ATOM     46  C   UNL A   1      38.675  28.568  28.700  1.00  0.00     0.029 A 
ATOM     47  N   UNL A   1      40.281  30.059  29.217  1.00  0.00    -0.354 N 
ATOM     48  C   UNL A   1      44.334  29.098  28.480  1.00  0.00     0.074 A 
ATOM     49  C   UNL A   1      44.594  27.749  27.961  1.00  0.00     0.031 C 
ATOM     50  C   UNL A   1      38.063  29.667  29.212  1.00  0.00     0.029 A 
ATOM     51  C   UNL A   1      39.059  30.605  29.545  1.00  0.00     0.049 A 
ATOM     52  H   UNL A   1      41.157  30.494  29.329  1.00  0.00     0.167 HD
ATOM     53  C   UNL A   1      45.327  30.043  28.745  1.00  0.00     0.037 A 
ATOM     54  C   UNL A   1      38.808  31.847  30.106  1.00  0.00     0.037 A 
ATOM     55  C   UNL A   1      45.073  31.301  29.265  1.00  0.00     0.049 A 
ATOM     56  C   UNL A   1      39.807  32.770  30.425  1.00  0.00     0.074 A 
ATOM     57  C   UNL A   1      46.062  32.267  29.530  1.00  0.00     0.029 A 
ATOM     58  N   UNL A   1      43.853  31.838  29.615  1.00  0.00    -0.354 N 
ATOM     59  N   UNL A   1      41.120  32.643  30.228  1.00  0.00    -0.248 NA
ATOM     60  C   UNL A   1      39.556  34.075  31.049  1.00  0.00     0.031 C 
ATOM     61  C   UNL A   1      45.449  33.368  30.042  1.00  0.00     0.029 A 
ATOM     62  C   UNL A   1      44.068  33.107  30.107  1.00  0.00     0.049 A 
ATOM     63  H   UNL A   1      42.981  31.391  29.530  1.00  0.00     0.167 HD
ATOM     64  C   UNL A   1      41.756  33.741  30.644  1.00  0.00     0.074 A 
ATOM     65  C   UNL A   1      40.760  34.675  31.184  1.00  0.00     0.031 C 
ATOM     66  C   UNL A   1      43.126  34.002  30.589  1.00  0.00     0.037 A 
BRANCH  53  67
ATOM     67  C   UNL A   1      46.769  29.668  28.446  1.00  0.00     0.057 A 
ATOM     68  C   UNL A   1      47.320  30.008  27.221  1.00  0.00     0.134 A 
ATOM     69  C   UNL A   1      47.479  29.021  29.363  1.00  0.00     0.134 A 
ATOM     70  F   UNL A   1      46.746  30.865  26.380  1.00  0.00    -0.206 F 
ATOM     71  C   UNL A   1      48.549  29.363  26.945  1.00  0.00     0.040 A 
ATOM     72  C   UNL A   1      48.729  28.535  29.067  1.00  0.00     0.040 A 
ATOM     73  F   UNL A   1      46.973  28.841  30.580  1.00  0.00    -0.206 F 
ATOM     74  C   UNL A   1      49.310  28.783  27.854  1.00  0.00     0.006 A 
ENDBRANCH  53  67
BRANCH  54  75
ATOM     75  C   UNL A   1      37.364  32.227  30.389  1.00  0.00     0.057 A 
ATOM     76  C   UNL A   1      36.804  31.903  31.614  1.00  0.00     0.134 A 
ATOM     77  C   UNL A   1      36.663  32.863  29.459  1.00  0.00     0.134 A 
ATOM     78  F   UNL A   1      37.524  31.500  32.657  1.00  0.00    -0.206 F 
ATOM     79  C   UNL A   1      35.396  32.038  31.655  1.00  0.00     0.040 A 
ATOM     80  C   UNL A   1      35.317  33.082  29.624  1.00  0.00     0.040 A 
ATOM     81  F   UNL A   1      37.270  33.293  28.356  1.00  0.00    -0.206 F 
ATOM     82  C   UNL A   1      34.686  32.734  30.786  1.00  0.00     0.006 A 
ENDBRANCH  54  75
BRANCH  66  83
ATOM     83  C   UNL A   1      43.616  35.351  31.090  1.00  0.00     0.057 A 
ATOM     84  C   UNL A   1      43.962  35.513  32.422  1.00  0.00     0.134 A 
ATOM     85  C   UNL A   1      43.708  36.356  30.228  1.00  0.00     0.134 A 
ATOM     86  F   UNL A   1      44.129  34.491  33.257  1.00  0.00    -0.206 F 
ATOM     87  C   UNL A   1      44.126  36.863  32.812  1.00  0.00     0.040 A 
ATOM     88  C   UNL A   1      44.004  37.626  30.662  1.00  0.00     0.040 A 
ATOM     89  F   UNL A   1      43.512  36.132  28.931  1.00  0.00    -0.206 F 
ATOM     90  C   UNL A   1      44.299  37.869  31.974  1.00  0.00     0.006 A 
ENDBRANCH  66  83
ENDBRANCH  40  41
ENDBRANCH  33  35
ENDBRANCH  32  33
ENDBRANCH  31  32
ENDBRANCH  30  31
ENDBRANCH  29  30
ENDBRANCH   1  29
TORSDOF 19
ENDMDL
MODEL 3
REMARK VINA RESULT:     -11.3      5.365      9.265
REMARK SMILES O=C(OCCOCCOCCOC(=O)c1ccc(-c2c3nc(c(-c4c(F)cccc4F)c4ccc([nH]4)c(-c4c(F)cccc4F)c4nc(c(-c5c(F)cccc5F)c5ccc2[nH]5)C=C4)C=C3)cc1)C1=Cc2cc(S(F)(F)(F)(F)F)ccc2O[C@H]1C(F)(F)F
REMARK SMILES IDX 8 1 7 2 6 3 5 4 4 5 3 6 2 7 1 8 69 9 70 10 84 11 71 12 83 13
REMARK SMILES IDX 72 14 82 15 73 16 81 17 80 18 85 19 86 20 87 21 88 22 74 23
REMARK SMILES IDX 75 24 76 25 77 26 78 27 79 28 9 29 10 30 11 31 12 32 13 33
REMARK SMILES IDX 14 34 15 35 16 36 68 37 17 38 67 39 18 40 19 41 20 42 61 43
REMARK SMILES IDX 21 44 66 45 60 46 62 47 22 48 65 49 59 50 58 51 23 53 49 54
REMARK SMILES IDX 32 55 48 56 33 57 36 58 47 59 63 60 34 61 35 62 46 64 64 65
REMARK SMILES IDX 37 66 24 67 25 68 30 69 26 70 27 71 29 72 31 73 28 74 50 75
REMARK SMILES IDX 51 76 56 77 52 78 53 79 55 80 57 81 54 82 38 83 39 84 44 85
REMARK SMILES IDX 40 86 41 87 43 88 45 89 42 90
REMARK H PARENT 62 52 36 63
REMARK Flexibility Score: inf
ROOT
ATOM      1  C   UNL A   1      43.350  18.489  25.702  1.00  0.00     0.188 C 
ENDROOT
BRANCH   1   2
ATOM      2  C   UNL A   1      44.773  18.874  25.333  1.00  0.00     0.188 C 
BRANCH   2   3
ATOM      3  O   UNL A   1      44.761  20.097  24.612  1.00  0.00    -0.376 OA
BRANCH   3   4
ATOM      4  C   UNL A   1      46.007  20.756  24.776  1.00  0.00     0.202 C 
BRANCH   4   5
ATOM      5  C   UNL A   1      45.829  22.246  24.533  1.00  0.00     0.261 C 
BRANCH   5   6
ATOM      6  O   UNL A   1      46.451  22.974  25.580  1.00  0.00    -0.460 OA
BRANCH   6   7
ATOM      7  C   UNL A   1      45.761  24.044  26.209  1.00  0.00     0.338 C 
ATOM      8  O   UNL A   1      44.861  24.680  25.577  1.00  0.00    -0.246 OA
BRANCH   7   9
ATOM      9  C   UNL A   1      46.100  24.428  27.641  1.00  0.00     0.087 C 
ATOM     10  C   UNL A   1      47.261  25.080  27.914  1.00  0.00     0.027 C 
ATOM     11  C   UNL A   1      45.138  24.082  28.767  1.00  0.00     0.316 C 
ATOM     12  C   UNL A   1      48.222  25.427  26.787  1.00  0.00     0.019 A 
ATOM     13  O   UNL A   1      46.330  26.020  25.477  1.00  0.00    -0.475 OA
ATOM     14  C   UNL A   1      49.579  25.195  26.943  1.00  0.00     0.036 A 
ATOM     15  C   UNL A   1      47.735  25.946  25.667  1.00  0.00     0.128 A 
ATOM     16  C   UNL A   1      50.383  25.820  25.960  1.00  0.00     0.107 A 
ATOM     17  C   UNL A   1      48.580  26.412  24.687  1.00  0.00     0.048 A 
ATOM     18  C   UNL A   1      49.934  26.271  24.802  1.00  0.00     0.028 A 
BRANCH  11  19
ATOM     19  C   UNL A   1      43.928  23.361  28.197  1.00  0.00     0.430 C 
ATOM     20  F   UNL A   1      43.151  22.949  29.194  1.00  0.00    -0.167 F 
ATOM     21  F   UNL A   1      43.217  24.116  27.364  1.00  0.00    -0.167 F 
ATOM     22  F   UNL A   1      44.406  22.307  27.541  1.00  0.00    -0.167 F 
ENDBRANCH  11  19
BRANCH  16  23
ATOM     23  S   UNL A   1      52.148  26.011  26.312  1.00  0.00     0.310 S 
ATOM     24  F   UNL A   1      51.974  25.470  27.793  1.00  0.00    -0.094 F 
ATOM     25  F   UNL A   1      51.849  27.452  26.876  1.00  0.00    -0.094 F 
ATOM     26  F   UNL A   1      53.664  26.175  26.616  1.00  0.00    -0.094 F 
ATOM     27  F   UNL A   1      52.406  24.516  25.874  1.00  0.00    -0.094 F 
ATOM     28  F   UNL A   1      50.596  25.789  26.104  1.00  0.00    -0.094 F 
ENDBRANCH  16  23
ENDBRANCH   7   9
ENDBRANCH   6   7
ENDBRANCH   5   6
ENDBRANCH   4   5
ENDBRANCH   3   4
ENDBRANCH   2   3
ENDBRANCH   1   2
BRANCH   1  29
ATOM     29  O   UNL A   1      42.472  19.558  25.381  1.00  0.00    -0.376 OA
BRANCH  29  30
ATOM     30  C   UNL A   1      41.277  19.433  26.136  1.00  0.00     0.202 C 
BRANCH  30  31
ATOM     31  C   UNL A   1      40.987  20.744  26.847  1.00  0.00     0.261 C 
BRANCH  31  32
ATOM     32  O   UNL A   1      40.529  21.703  25.904  1.00  0.00    -0.460 OA
BRANCH  32  33
ATOM     33  C   UNL A   1      39.544  22.654  26.280  1.00  0.00     0.338 C 
ATOM     34  O   UNL A   1      38.310  22.372  26.160  1.00  0.00    -0.246 OA
BRANCH  33  35
ATOM     35  C   UNL A   1      39.964  24.009  26.824  1.00  0.00     0.060 A 
ATOM     36  C   UNL A   1      40.054  24.211  28.191  1.00  0.00     0.016 A 
ATOM     37  C   UNL A   1      40.246  24.981  25.964  1.00  0.00     0.016 A 
ATOM     38  C   UNL A   1      40.175  25.570  28.564  1.00  0.00     0.010 A 
ATOM     39  C   UNL A   1      40.488  26.260  26.408  1.00  0.00     0.010 A 
ATOM     40  C   UNL A   1      40.533  26.542  27.745  1.00  0.00    -0.014 A 
BRANCH  40  41
ATOM     41  C   UNL A   1      40.973  27.903  28.261  1.00  0.00     0.031 A 
ATOM     42  C   UNL A   1      39.988  28.793  28.694  1.00  0.00     0.074 A 
ATOM     43  C   UNL A   1      42.329  28.183  28.272  1.00  0.00     0.049 A 
ATOM     44  N   UNL A   1      40.162  30.011  29.209  1.00  0.00    -0.248 NA
ATOM     45  C   UNL A   1      38.546  28.511  28.651  1.00  0.00     0.031 C 
ATOM     46  C   UNL A   1      43.328  27.288  27.845  1.00  0.00     0.029 A 
ATOM     47  N   UNL A   1      42.949  29.342  28.684  1.00  0.00    -0.354 N 
ATOM     48  C   UNL A   1      38.983  30.551  29.525  1.00  0.00     0.074 A 
ATOM     49  C   UNL A   1      37.926  29.597  29.164  1.00  0.00     0.031 C 
ATOM     50  C   UNL A   1      44.532  27.902  27.986  1.00  0.00     0.029 A 
ATOM     51  C   UNL A   1      44.306  29.190  28.505  1.00  0.00     0.049 A 
ATOM     52  H   UNL A   1      42.499  30.140  29.045  1.00  0.00     0.167 HD
ATOM     53  C   UNL A   1      38.749  31.801  30.100  1.00  0.00     0.037 A 
ATOM     54  C   UNL A   1      45.306  30.113  28.770  1.00  0.00     0.037 A 
ATOM     55  C   UNL A   1      39.752  32.707  30.406  1.00  0.00     0.049 A 
ATOM     56  C   UNL A   1      45.066  31.386  29.292  1.00  0.00     0.074 A 
ATOM     57  C   UNL A   1      39.533  33.968  30.993  1.00  0.00     0.029 A 
ATOM     58  N   UNL A   1      41.107  32.565  30.204  1.00  0.00    -0.354 N 
ATOM     59  N   UNL A   1      43.891  31.911  29.643  1.00  0.00    -0.248 NA
ATOM     60  C   UNL A   1      46.113  32.384  29.547  1.00  0.00     0.031 C 
ATOM     61  C   UNL A   1      40.738  34.582  31.134  1.00  0.00     0.029 A 
ATOM     62  C   UNL A   1      41.729  33.715  30.637  1.00  0.00     0.049 A 
ATOM     63  H   UNL A   1      41.553  31.778  29.816  1.00  0.00     0.167 HD
ATOM     64  C   UNL A   1      44.062  33.146  30.120  1.00  0.00     0.074 A 
ATOM     65  C   UNL A   1      45.493  33.471  30.058  1.00  0.00     0.031 C 
ATOM     66  C   UNL A   1      43.082  34.012  30.608  1.00  0.00     0.037 A 
BRANCH  53  67
ATOM     67  C   UNL A   1      37.312  32.190  30.407  1.00  0.00     0.057 A 
ATOM     68  C   UNL A   1      36.587  32.907  29.470  1.00  0.00     0.134 A 
ATOM     69  C   UNL A   1      36.775  31.836  31.569  1.00  0.00     0.134 A 
ATOM     70  F   UNL A   1      36.985  33.064  28.210  1.00  0.00    -0.206 F 
ATOM     71  C   UNL A   1      35.385  33.458  29.974  1.00  0.00     0.040 A 
ATOM     72  C   UNL A   1      35.537  32.302  31.939  1.00  0.00     0.040 A 
ATOM     73  F   UNL A   1      37.443  31.022  32.382  1.00  0.00    -0.206 F 
ATOM     74  C   UNL A   1      34.789  33.066  31.085  1.00  0.00     0.006 A 
ENDBRANCH  53  67
BRANCH  54  75
ATOM     75  C   UNL A   1      46.743  29.717  28.478  1.00  0.00     0.057 A 
ATOM     76  C   UNL A   1      47.300  30.036  27.250  1.00  0.00     0.134 A 
ATOM     77  C   UNL A   1      47.443  29.071  29.404  1.00  0.00     0.134 A 
ATOM     78  F   UNL A   1      46.737  30.889  26.399  1.00  0.00    -0.206 F 
ATOM     79  C   UNL A   1      48.520  29.371  26.983  1.00  0.00     0.040 A 
ATOM     80  C   UNL A   1      48.687  28.565  29.115  1.00  0.00     0.040 A 
ATOM     81  F   UNL A   1      46.934  28.913  30.622  1.00  0.00    -0.206 F 
ATOM     82  C   UNL A   1      49.273  28.793  27.900  1.00  0.00     0.006 A 
ENDBRANCH  54  75
BRANCH  66  83
ATOM     83  C   UNL A   1      43.527  35.365  31.139  1.00  0.00     0.057 A 
ATOM     84  C   UNL A   1      43.815  35.521  32.485  1.00  0.00     0.134 A 
ATOM     85  C   UNL A   1      43.638  36.379  30.289  1.00  0.00     0.134 A 
ATOM     86  F   UNL A   1      43.963  34.496  33.319  1.00  0.00    -0.206 F 
ATOM     87  C   UNL A   1      43.938  36.871  32.892  1.00  0.00     0.040 A 
ATOM     88  C   UNL A   1      43.894  37.650  30.745  1.00  0.00     0.040 A 
ATOM     89  F   UNL A   1      43.501  36.162  28.983  1.00  0.00    -0.206 F 
ATOM     90  C   UNL A   1      44.130  37.887  32.069  1.00  0.00     0.006 A 
ENDBRANCH  66  83
ENDBRANCH  40  41
ENDBRANCH  33  35
ENDBRANCH  32  33
ENDBRANCH  31  32
ENDBRANCH  30  31
ENDBRANCH  29  30
ENDBRANCH   1  29
TORSDOF 19
ENDMDL
