MODEL 1
REMARK VINA RESULT:     -12.4      0.000      0.000
REMARK SMILES Cc1cc(/C=C2/C(=O)NC(=S)N=C2OCCOCCOCCOC(=O)c2ccc(-c3c4nc(c(-c5c(F)cccc5F)c5ccc([nH]5)c(-c5c(F)cccc5F)c5nc(c(-c6c(F)cccc6F)c6ccc3[nH]6)C=C5)C=C4)cc2)c(C)n1-c1cccc(C(=O)[O-])c1
REMARK SMILES IDX 18 1 17 2 16 3 15 4 14 5 13 6 5 7 6 8 7 9 8 10 9 11 12 12
REMARK SMILES IDX 10 13 11 15 4 16 1 17 2 18 3 19 82 20 80 21 81 22 83 23
REMARK SMILES IDX 84 24 91 25 85 26 87 27 86 28 88 29 89 30 90 31 19 32 20 33
REMARK SMILES IDX 21 34 22 35 23 36 24 37 25 38 26 39 27 40 79 41 28 42 78 43
REMARK SMILES IDX 29 44 30 45 31 46 72 47 32 48 77 49 71 50 73 51 33 52 76 53
REMARK SMILES IDX 70 54 69 55 34 57 60 58 43 59 59 60 44 61 47 62 58 63 74 64
REMARK SMILES IDX 45 65 46 66 57 68 75 69 48 70 35 71 36 72 41 73 37 74 38 75
REMARK SMILES IDX 40 76 42 77 39 78 61 79 62 80 67 81 63 82 64 83 66 84 68 85
REMARK SMILES IDX 65 86 49 87 50 88 55 89 51 90 52 91 54 92 56 93 53 94
REMARK H PARENT 9 14 73 56 47 67
REMARK Flexibility Score: inf
ROOT
ATOM      1  C   UNL A   1      33.657  31.354  27.789  1.00  0.00     0.188 C 
ENDROOT
BRANCH   1   2
ATOM      2  O   UNL A   1      33.701  30.559  26.615  1.00  0.00    -0.376 OA
BRANCH   2   3
ATOM      3  C   UNL A   1      32.962  29.352  26.490  1.00  0.00     0.201 C 
BRANCH   3   4
ATOM      4  C   UNL A   1      33.420  28.329  25.454  1.00  0.00     0.260 C 
BRANCH   4   5
ATOM      5  O   UNL A   1      32.473  27.244  25.330  1.00  0.00    -0.475 OA
BRANCH   5   6
ATOM      6  C   UNL A   1      32.942  26.024  24.999  1.00  0.00     0.229 C 
ATOM      7  C   UNL A   1      30.658  25.210  24.101  1.00  0.00     0.029 C 
ATOM      8  C   UNL A   1      31.897  25.058  24.614  1.00  0.00     0.103 C 
ATOM      9  C   UNL A   1      32.300  23.628  24.853  1.00  0.00     0.262 C 
ATOM     10  O   UNL A   1      31.556  22.692  24.825  1.00  0.00    -0.269 OA
ATOM     11  N   UNL A   1      33.644  23.468  25.122  1.00  0.00    -0.297 N 
ATOM     12  N   UNL A   1      34.189  25.746  25.169  1.00  0.00    -0.184 NA
ATOM     13  C   UNL A   1      34.591  24.447  25.198  1.00  0.00     0.203 C 
ATOM     14  H   UNL A   1      33.954  22.546  25.277  1.00  0.00     0.172 HD
ATOM     15  S   UNL A   1      36.177  23.988  25.484  1.00  0.00    -0.038 S 
BRANCH   7  16
ATOM     16  C   UNL A   1      29.852  26.337  23.728  1.00  0.00    -0.003 A 
ATOM     17  C   UNL A   1      26.562  28.087  23.541  1.00  0.00     0.065 C 
ATOM     18  C   UNL A   1      27.975  27.613  23.576  1.00  0.00     0.020 A 
ATOM     19  C   UNL A   1      28.465  26.407  24.034  1.00  0.00     0.031 A 
ATOM     20  N   UNL A   1      29.058  28.341  23.102  1.00  0.00    -0.318 N 
ATOM     21  C   UNL A   1      30.130  27.444  22.937  1.00  0.00     0.027 A 
ATOM     22  C   UNL A   1      31.335  27.763  22.125  1.00  0.00     0.065 C 
BRANCH  20  23
ATOM     23  C   UNL A   1      29.131  29.767  22.992  1.00  0.00     0.046 A 
ATOM     24  C   UNL A   1      29.597  30.549  24.053  1.00  0.00     0.026 A 
ATOM     25  C   UNL A   1      28.560  30.396  21.873  1.00  0.00     0.036 A 
ATOM     26  C   UNL A   1      29.378  31.925  24.072  1.00  0.00     0.003 A 
ATOM     27  C   UNL A   1      28.364  31.786  21.880  1.00  0.00    -0.001 A 
ATOM     28  C   UNL A   1      28.739  32.539  23.000  1.00  0.00     0.010 A 
BRANCH  27  29
ATOM     29  C   UNL A   1      27.730  32.508  20.754  1.00  0.00     0.072 C 
ATOM     30  O   UNL A   1      27.521  33.711  20.707  1.00  0.00    -0.545 OA
ATOM     31  O   UNL A   1      27.426  31.710  19.719  1.00  0.00    -0.545 OA
ENDBRANCH  27  29
ENDBRANCH  20  23
ENDBRANCH   7  16
ENDBRANCH   5   6
ENDBRANCH   4   5
ENDBRANCH   3   4
ENDBRANCH   2   3
ENDBRANCH   1   2
BRANCH   1  32
ATOM     32  C   UNL A   1      34.042  32.840  27.776  1.00  0.00     0.188 C 
BRANCH  32  33
ATOM     33  O   UNL A   1      33.744  33.627  28.903  1.00  0.00    -0.376 OA
BRANCH  33  34
ATOM     34  C   UNL A   1      33.820  35.027  28.730  1.00  0.00     0.202 C 
BRANCH  34  35
ATOM     35  C   UNL A   1      32.934  36.016  29.579  1.00  0.00     0.261 C 
BRANCH  35  36
ATOM     36  O   UNL A   1      33.039  36.332  31.044  1.00  0.00    -0.460 OA
BRANCH  36  37
ATOM     37  C   UNL A   1      33.076  35.325  32.022  1.00  0.00     0.338 C 
ATOM     38  O   UNL A   1      32.155  35.175  32.813  1.00  0.00    -0.246 OA
BRANCH  37  39
ATOM     39  C   UNL A   1      34.390  34.428  32.137  1.00  0.00     0.060 A 
ATOM     40  C   UNL A   1      35.786  34.767  32.118  1.00  0.00     0.016 A 
ATOM     41  C   UNL A   1      34.276  33.083  32.198  1.00  0.00     0.016 A 
ATOM     42  C   UNL A   1      37.040  33.772  32.225  1.00  0.00     0.010 A 
ATOM     43  C   UNL A   1      35.487  32.229  32.307  1.00  0.00     0.010 A 
ATOM     44  C   UNL A   1      36.979  32.356  32.301  1.00  0.00    -0.014 A 
BRANCH  44  45
ATOM     45  C   UNL A   1      38.150  31.155  33.158  1.00  0.00     0.031 A 
ATOM     46  C   UNL A   1      37.377  29.919  32.823  1.00  0.00     0.074 A 
ATOM     47  C   UNL A   1      39.605  30.742  33.539  1.00  0.00     0.049 A 
ATOM     48  N   UNL A   1      36.812  30.028  31.641  1.00  0.00    -0.248 NA
ATOM     49  C   UNL A   1      37.797  28.553  33.029  1.00  0.00     0.031 C 
ATOM     50  C   UNL A   1      40.896  31.500  33.421  1.00  0.00     0.029 A 
ATOM     51  N   UNL A   1      40.349  29.397  34.025  1.00  0.00    -0.354 N 
ATOM     52  C   UNL A   1      37.832  29.513  30.892  1.00  0.00     0.074 A 
ATOM     53  C   UNL A   1      37.962  28.269  31.721  1.00  0.00     0.031 C 
ATOM     54  C   UNL A   1      42.037  30.754  33.526  1.00  0.00     0.029 A 
ATOM     55  C   UNL A   1      41.854  29.307  33.864  1.00  0.00     0.049 A 
ATOM     56  H   UNL A   1      39.839  28.651  34.417  1.00  0.00     0.167 HD
ATOM     57  C   UNL A   1      38.827  30.209  30.147  1.00  0.00     0.037 A 
ATOM     58  C   UNL A   1      43.087  28.503  34.037  1.00  0.00     0.037 A 
ATOM     59  C   UNL A   1      39.595  29.280  29.354  1.00  0.00     0.049 A 
ATOM     60  C   UNL A   1      43.386  28.393  32.569  1.00  0.00     0.074 A 
ATOM     61  C   UNL A   1      39.820  27.937  29.555  1.00  0.00     0.029 A 
ATOM     62  N   UNL A   1      40.821  29.669  28.829  1.00  0.00    -0.354 N 
ATOM     63  N   UNL A   1      44.171  29.104  31.823  1.00  0.00    -0.248 NA
ATOM     64  C   UNL A   1      42.835  27.174  31.928  1.00  0.00     0.031 C 
ATOM     65  C   UNL A   1      40.859  28.259  30.426  1.00  0.00     0.029 A 
ATOM     66  C   UNL A   1      41.707  29.112  29.708  1.00  0.00     0.049 A 
ATOM     67  H   UNL A   1      41.005  30.211  28.027  1.00  0.00     0.167 HD
ATOM     68  C   UNL A   1      43.823  28.646  30.557  1.00  0.00     0.074 A 
ATOM     69  C   UNL A   1      43.365  27.281  30.710  1.00  0.00     0.031 C 
ATOM     70  C   UNL A   1      43.077  29.525  29.829  1.00  0.00     0.037 A 
BRANCH  57  71
ATOM     71  C   UNL A   1      39.271  31.842  29.909  1.00  0.00     0.057 A 
ATOM     72  C   UNL A   1      40.378  32.640  30.378  1.00  0.00     0.134 A 
ATOM     73  C   UNL A   1      38.339  32.664  29.257  1.00  0.00     0.134 A 
ATOM     74  F   UNL A   1      41.404  32.178  31.070  1.00  0.00    -0.206 F 
ATOM     75  C   UNL A   1      40.481  34.048  30.322  1.00  0.00     0.040 A 
ATOM     76  C   UNL A   1      38.451  34.072  29.146  1.00  0.00     0.040 A 
ATOM     77  F   UNL A   1      37.242  32.126  28.710  1.00  0.00    -0.206 F 
ATOM     78  C   UNL A   1      39.497  34.778  29.718  1.00  0.00     0.006 A 
ENDBRANCH  57  71
BRANCH  58  79
ATOM     79  C   UNL A   1      44.218  27.247  34.491  1.00  0.00     0.057 A 
ATOM     80  C   UNL A   1      43.786  26.092  35.180  1.00  0.00     0.134 A 
ATOM     81  C   UNL A   1      45.682  27.330  34.699  1.00  0.00     0.134 A 
ATOM     82  F   UNL A   1      42.479  25.874  35.369  1.00  0.00    -0.206 F 
ATOM     83  C   UNL A   1      44.676  25.137  35.832  1.00  0.00     0.040 A 
ATOM     84  C   UNL A   1      46.559  26.384  35.284  1.00  0.00     0.040 A 
ATOM     85  F   UNL A   1      46.442  28.404  34.496  1.00  0.00    -0.206 F 
ATOM     86  C   UNL A   1      46.062  25.257  35.855  1.00  0.00     0.006 A 
ENDBRANCH  58  79
BRANCH  70  87
ATOM     87  C   UNL A   1      43.689  30.880  29.782  1.00  0.00     0.057 A 
ATOM     88  C   UNL A   1      43.943  31.477  28.540  1.00  0.00     0.134 A 
ATOM     89  C   UNL A   1      44.219  31.521  30.898  1.00  0.00     0.134 A 
ATOM     90  F   UNL A   1      43.469  30.922  27.413  1.00  0.00    -0.206 F 
ATOM     91  C   UNL A   1      44.725  32.627  28.417  1.00  0.00     0.040 A 
ATOM     92  C   UNL A   1      44.996  32.678  30.801  1.00  0.00     0.040 A 
ATOM     93  F   UNL A   1      44.043  31.003  32.109  1.00  0.00    -0.206 F 
ATOM     94  C   UNL A   1      45.264  33.227  29.552  1.00  0.00     0.006 A 
ENDBRANCH  70  87
ENDBRANCH  44  45
ENDBRANCH  37  39
ENDBRANCH  36  37
ENDBRANCH  35  36
ENDBRANCH  34  35
ENDBRANCH  33  34
ENDBRANCH  32  33
ENDBRANCH   1  32
TORSDOF 19
ENDMDL
MODEL 2
REMARK VINA RESULT:     -12.2      3.554      7.422
REMARK SMILES Cc1cc(/C=C2/C(=O)NC(=S)N=C2OCCOCCOCCOC(=O)c2ccc(-c3c4nc(c(-c5c(F)cccc5F)c5ccc([nH]5)c(-c5c(F)cccc5F)c5nc(c(-c6c(F)cccc6F)c6ccc3[nH]6)C=C5)C=C4)cc2)c(C)n1-c1cccc(C(=O)[O-])c1
REMARK SMILES IDX 18 1 17 2 16 3 15 4 14 5 13 6 5 7 6 8 7 9 8 10 9 11 12 12
REMARK SMILES IDX 10 13 11 15 4 16 1 17 2 18 3 19 82 20 80 21 81 22 83 23
REMARK SMILES IDX 84 24 91 25 85 26 87 27 86 28 88 29 89 30 90 31 19 32 20 33
REMARK SMILES IDX 21 34 22 35 23 36 24 37 25 38 26 39 27 40 79 41 28 42 78 43
REMARK SMILES IDX 29 44 30 45 31 46 72 47 32 48 77 49 71 50 73 51 33 52 76 53
REMARK SMILES IDX 70 54 69 55 34 57 60 58 43 59 59 60 44 61 47 62 58 63 74 64
REMARK SMILES IDX 45 65 46 66 57 68 75 69 48 70 35 71 36 72 41 73 37 74 38 75
REMARK SMILES IDX 40 76 42 77 39 78 61 79 62 80 67 81 63 82 64 83 66 84 68 85
REMARK SMILES IDX 65 86 49 87 50 88 55 89 51 90 52 91 54 92 56 93 53 94
REMARK H PARENT 9 14 73 56 47 67
REMARK Flexibility Score: inf
ROOT
ATOM      1  C   UNL A   1      36.965  22.368  23.541  1.00  0.00     0.188 C 
ENDROOT
BRANCH   1   2
ATOM      2  O   UNL A   1      36.081  23.094  22.702  1.00  0.00    -0.376 OA
BRANCH   2   3
ATOM      3  C   UNL A   1      34.916  23.735  23.203  1.00  0.00     0.201 C 
BRANCH   3   4
ATOM      4  C   UNL A   1      33.561  23.305  22.649  1.00  0.00     0.260 C 
BRANCH   4   5
ATOM      5  O   UNL A   1      32.533  23.364  23.664  1.00  0.00    -0.475 OA
BRANCH   5   6
ATOM      6  C   UNL A   1      32.514  22.401  24.608  1.00  0.00     0.229 C 
ATOM      7  C   UNL A   1      32.768  24.079  26.558  1.00  0.00     0.029 C 
ATOM      8  C   UNL A   1      32.861  22.873  25.960  1.00  0.00     0.103 C 
ATOM      9  C   UNL A   1      33.436  21.790  26.832  1.00  0.00     0.262 C 
ATOM     10  O   UNL A   1      33.984  21.972  27.879  1.00  0.00    -0.269 OA
ATOM     11  N   UNL A   1      33.282  20.520  26.314  1.00  0.00    -0.297 N 
ATOM     12  N   UNL A   1      32.346  21.169  24.266  1.00  0.00    -0.184 NA
ATOM     13  C   UNL A   1      32.693  20.179  25.132  1.00  0.00     0.203 C 
ATOM     14  H   UNL A   1      33.637  19.779  26.857  1.00  0.00     0.172 HD
ATOM     15  S   UNL A   1      32.578  18.551  24.751  1.00  0.00    -0.038 S 
BRANCH   7  16
ATOM     16  C   UNL A   1      32.315  25.377  26.145  1.00  0.00    -0.003 A 
ATOM     17  C   UNL A   1      32.565  29.099  26.198  1.00  0.00     0.065 C 
ATOM     18  C   UNL A   1      32.329  27.645  25.970  1.00  0.00     0.020 A 
ATOM     19  C   UNL A   1      32.977  26.571  26.544  1.00  0.00     0.031 A 
ATOM     20  N   UNL A   1      31.353  27.131  25.127  1.00  0.00    -0.318 N 
ATOM     21  C   UNL A   1      31.171  25.778  25.468  1.00  0.00     0.027 A 
ATOM     22  C   UNL A   1      29.982  24.990  25.043  1.00  0.00     0.065 C 
BRANCH  20  23
ATOM     23  C   UNL A   1      30.783  27.797  23.995  1.00  0.00     0.046 A 
ATOM     24  C   UNL A   1      31.588  28.252  22.946  1.00  0.00     0.026 A 
ATOM     25  C   UNL A   1      29.425  28.155  24.024  1.00  0.00     0.036 A 
ATOM     26  C   UNL A   1      31.094  29.161  22.013  1.00  0.00     0.003 A 
ATOM     27  C   UNL A   1      28.920  29.049  23.068  1.00  0.00    -0.001 A 
ATOM     28  C   UNL A   1      29.770  29.580  22.089  1.00  0.00     0.010 A 
BRANCH  27  29
ATOM     29  C   UNL A   1      27.510  29.502  23.064  1.00  0.00     0.072 C 
ATOM     30  O   UNL A   1      26.529  28.776  23.071  1.00  0.00    -0.545 OA
ATOM     31  O   UNL A   1      27.385  30.838  23.098  1.00  0.00    -0.545 OA
ENDBRANCH  27  29
ENDBRANCH  20  23
ENDBRANCH   7  16
ENDBRANCH   5   6
ENDBRANCH   4   5
ENDBRANCH   3   4
ENDBRANCH   2   3
ENDBRANCH   1   2
BRANCH   1  32
ATOM     32  C   UNL A   1      36.451  21.473  24.678  1.00  0.00     0.188 C 
BRANCH  32  33
ATOM     33  O   UNL A   1      36.633  21.895  26.007  1.00  0.00    -0.376 OA
BRANCH  33  34
ATOM     34  C   UNL A   1      37.389  23.074  26.193  1.00  0.00     0.202 C 
BRANCH  34  35
ATOM     35  C   UNL A   1      38.942  23.030  26.456  1.00  0.00     0.261 C 
BRANCH  35  36
ATOM     36  O   UNL A   1      39.983  24.032  26.045  1.00  0.00    -0.460 OA
BRANCH  36  37
ATOM     37  C   UNL A   1      41.039  24.398  26.894  1.00  0.00     0.338 C 
ATOM     38  O   UNL A   1      42.138  23.866  26.804  1.00  0.00    -0.246 OA
BRANCH  37  39
ATOM     39  C   UNL A   1      40.755  25.467  28.043  1.00  0.00     0.060 A 
ATOM     40  C   UNL A   1      39.542  25.860  28.706  1.00  0.00     0.016 A 
ATOM     41  C   UNL A   1      41.763  26.245  28.495  1.00  0.00     0.016 A 
ATOM     42  C   UNL A   1      39.364  26.973  29.849  1.00  0.00     0.010 A 
ATOM     43  C   UNL A   1      41.519  27.246  29.565  1.00  0.00     0.010 A 
ATOM     44  C   UNL A   1      40.387  27.809  30.367  1.00  0.00    -0.014 A 
BRANCH  44  45
ATOM     45  C   UNL A   1      40.570  28.543  32.092  1.00  0.00     0.031 A 
ATOM     46  C   UNL A   1      41.969  29.037  31.903  1.00  0.00     0.074 A 
ATOM     47  C   UNL A   1      39.938  29.295  33.304  1.00  0.00     0.049 A 
ATOM     48  N   UNL A   1      42.158  29.439  30.666  1.00  0.00    -0.248 NA
ATOM     49  C   UNL A   1      42.716  29.885  32.802  1.00  0.00     0.031 C 
ATOM     50  C   UNL A   1      38.504  29.629  33.603  1.00  0.00     0.029 A 
ATOM     51  N   UNL A   1      40.478  30.122  34.578  1.00  0.00    -0.354 N 
ATOM     52  C   UNL A   1      41.789  30.744  30.829  1.00  0.00     0.074 A 
ATOM     53  C   UNL A   1      42.697  30.971  32.002  1.00  0.00     0.031 C 
ATOM     54  C   UNL A   1      38.303  30.578  34.567  1.00  0.00     0.029 A 
ATOM     55  C   UNL A   1      39.525  31.068  35.280  1.00  0.00     0.049 A 
ATOM     56  H   UNL A   1      41.405  30.015  34.893  1.00  0.00     0.167 HD
ATOM     57  C   UNL A   1      40.543  31.361  30.519  1.00  0.00     0.037 A 
ATOM     58  C   UNL A   1      39.310  32.054  36.367  1.00  0.00     0.037 A 
ATOM     59  C   UNL A   1      40.645  32.792  30.674  1.00  0.00     0.049 A 
ATOM     60  C   UNL A   1      39.059  33.216  35.449  1.00  0.00     0.074 A 
ATOM     61  C   UNL A   1      41.505  33.528  31.457  1.00  0.00     0.029 A 
ATOM     62  N   UNL A   1      39.491  33.560  30.770  1.00  0.00    -0.354 N 
ATOM     63  N   UNL A   1      37.941  33.715  35.023  1.00  0.00    -0.248 NA
ATOM     64  C   UNL A   1      40.270  34.015  35.138  1.00  0.00     0.031 C 
ATOM     65  C   UNL A   1      40.652  33.336  32.543  1.00  0.00     0.029 A 
ATOM     66  C   UNL A   1      39.390  33.771  32.117  1.00  0.00     0.049 A 
ATOM     67  H   UNL A   1      38.894  33.871  30.050  1.00  0.00     0.167 HD
ATOM     68  C   UNL A   1      38.397  34.599  34.052  1.00  0.00     0.074 A 
ATOM     69  C   UNL A   1      39.726  35.019  34.448  1.00  0.00     0.031 C 
ATOM     70  C   UNL A   1      38.181  34.186  32.771  1.00  0.00     0.037 A 
BRANCH  57  71
ATOM     71  C   UNL A   1      39.019  30.841  29.948  1.00  0.00     0.057 A 
ATOM     72  C   UNL A   1      37.716  30.749  30.562  1.00  0.00     0.134 A 
ATOM     73  C   UNL A   1      38.989  30.233  28.683  1.00  0.00     0.134 A 
ATOM     74  F   UNL A   1      37.418  31.185  31.772  1.00  0.00    -0.206 F 
ATOM     75  C   UNL A   1      36.597  30.051  30.056  1.00  0.00     0.040 A 
ATOM     76  C   UNL A   1      37.861  29.572  28.138  1.00  0.00     0.040 A 
ATOM     77  F   UNL A   1      40.087  30.231  27.918  1.00  0.00    -0.206 F 
ATOM     78  C   UNL A   1      36.674  29.436  28.839  1.00  0.00     0.006 A 
ENDBRANCH  57  71
BRANCH  58  79
ATOM     79  C   UNL A   1      39.524  33.056  37.785  1.00  0.00     0.057 A 
ATOM     80  C   UNL A   1      40.759  33.095  38.470  1.00  0.00     0.134 A 
ATOM     81  C   UNL A   1      38.509  33.577  38.730  1.00  0.00     0.134 A 
ATOM     82  F   UNL A   1      41.829  32.475  37.959  1.00  0.00    -0.206 F 
ATOM     83  C   UNL A   1      40.951  33.674  39.796  1.00  0.00     0.040 A 
ATOM     84  C   UNL A   1      38.693  34.188  39.995  1.00  0.00     0.040 A 
ATOM     85  F   UNL A   1      37.191  33.431  38.622  1.00  0.00    -0.206 F 
ATOM     86  C   UNL A   1      39.932  34.255  40.545  1.00  0.00     0.006 A 
ENDBRANCH  58  79
BRANCH  70  87
ATOM     87  C   UNL A   1      36.767  33.786  32.540  1.00  0.00     0.057 A 
ATOM     88  C   UNL A   1      36.176  34.037  31.294  1.00  0.00     0.134 A 
ATOM     89  C   UNL A   1      35.916  33.355  33.553  1.00  0.00     0.134 A 
ATOM     90  F   UNL A   1      36.927  34.456  30.262  1.00  0.00    -0.206 F 
ATOM     91  C   UNL A   1      34.802  33.910  31.087  1.00  0.00     0.040 A 
ATOM     92  C   UNL A   1      34.539  33.211  33.367  1.00  0.00     0.040 A 
ATOM     93  F   UNL A   1      36.396  33.121  34.770  1.00  0.00    -0.206 F 
ATOM     94  C   UNL A   1      33.975  33.504  32.130  1.00  0.00     0.006 A 
ENDBRANCH  70  87
ENDBRANCH  44  45
ENDBRANCH  37  39
ENDBRANCH  36  37
ENDBRANCH  35  36
ENDBRANCH  34  35
ENDBRANCH  33  34
ENDBRANCH  32  33
ENDBRANCH   1  32
TORSDOF 19
ENDMDL
MODEL 3
REMARK VINA RESULT:     -11.9      4.117      6.661
REMARK SMILES Cc1cc(/C=C2/C(=O)NC(=S)N=C2OCCOCCOCCOC(=O)c2ccc(-c3c4nc(c(-c5c(F)cccc5F)c5ccc([nH]5)c(-c5c(F)cccc5F)c5nc(c(-c6c(F)cccc6F)c6ccc3[nH]6)C=C5)C=C4)cc2)c(C)n1-c1cccc(C(=O)[O-])c1
REMARK SMILES IDX 18 1 17 2 16 3 15 4 14 5 13 6 5 7 6 8 7 9 8 10 9 11 12 12
REMARK SMILES IDX 10 13 11 15 4 16 1 17 2 18 3 19 82 20 80 21 81 22 83 23
REMARK SMILES IDX 84 24 91 25 85 26 87 27 86 28 88 29 89 30 90 31 19 32 20 33
REMARK SMILES IDX 21 34 22 35 23 36 24 37 25 38 26 39 27 40 79 41 28 42 78 43
REMARK SMILES IDX 29 44 30 45 31 46 72 47 32 48 77 49 71 50 73 51 33 52 76 53
REMARK SMILES IDX 70 54 69 55 34 57 60 58 43 59 59 60 44 61 47 62 58 63 74 64
REMARK SMILES IDX 45 65 46 66 57 68 75 69 48 70 35 71 36 72 41 73 37 74 38 75
REMARK SMILES IDX 40 76 42 77 39 78 61 79 62 80 67 81 63 82 64 83 66 84 68 85
REMARK SMILES IDX 65 86 49 87 50 88 55 89 51 90 52 91 54 92 56 93 53 94
REMARK H PARENT 9 14 73 56 47 67
REMARK Flexibility Score: inf
ROOT
ATOM      1  C   UNL A   1      32.771  30.739  27.184  1.00  0.00     0.188 C 
ENDROOT
BRANCH   1   2
ATOM      2  O   UNL A   1      32.996  29.348  27.020  1.00  0.00    -0.376 OA
BRANCH   2   3
ATOM      3  C   UNL A   1      32.153  28.370  27.614  1.00  0.00     0.201 C 
BRANCH   3   4
ATOM      4  C   UNL A   1      31.568  27.283  26.718  1.00  0.00     0.260 C 
BRANCH   4   5
ATOM      5  O   UNL A   1      32.289  27.183  25.469  1.00  0.00    -0.475 OA
BRANCH   5   6
ATOM      6  C   UNL A   1      32.774  25.978  25.107  1.00  0.00     0.229 C 
ATOM      7  C   UNL A   1      30.552  25.229  24.018  1.00  0.00     0.029 C 
ATOM      8  C   UNL A   1      31.753  25.041  24.605  1.00  0.00     0.103 C 
ATOM      9  C   UNL A   1      32.133  23.598  24.796  1.00  0.00     0.262 C 
ATOM     10  O   UNL A   1      31.388  22.671  24.670  1.00  0.00    -0.269 OA
ATOM     11  N   UNL A   1      33.455  23.414  25.146  1.00  0.00    -0.297 N 
ATOM     12  N   UNL A   1      34.006  25.682  25.346  1.00  0.00    -0.184 NA
ATOM     13  C   UNL A   1      34.399  24.380  25.335  1.00  0.00     0.203 C 
ATOM     14  H   UNL A   1      33.749  22.483  25.273  1.00  0.00     0.172 HD
ATOM     15  S   UNL A   1      35.960  23.895  25.702  1.00  0.00    -0.038 S 
BRANCH   7  16
ATOM     16  C   UNL A   1      29.778  26.381  23.651  1.00  0.00    -0.003 A 
ATOM     17  C   UNL A   1      26.543  28.234  23.497  1.00  0.00     0.065 C 
ATOM     18  C   UNL A   1      27.941  27.715  23.517  1.00  0.00     0.020 A 
ATOM     19  C   UNL A   1      28.397  26.496  23.973  1.00  0.00     0.031 A 
ATOM     20  N   UNL A   1      29.041  28.406  23.028  1.00  0.00    -0.318 N 
ATOM     21  C   UNL A   1      30.082  27.475  22.853  1.00  0.00     0.027 A 
ATOM     22  C   UNL A   1      31.287  27.753  22.026  1.00  0.00     0.065 C 
BRANCH  20  23
ATOM     23  C   UNL A   1      29.158  29.829  22.911  1.00  0.00     0.046 A 
ATOM     24  C   UNL A   1      29.566  30.610  23.997  1.00  0.00     0.026 A 
ATOM     25  C   UNL A   1      28.685  30.461  21.749  1.00  0.00     0.036 A 
ATOM     26  C   UNL A   1      29.381  31.991  23.989  1.00  0.00     0.003 A 
ATOM     27  C   UNL A   1      28.525  31.855  21.731  1.00  0.00    -0.001 A 
ATOM     28  C   UNL A   1      28.837  32.610  22.869  1.00  0.00     0.010 A 
BRANCH  27  29
ATOM     29  C   UNL A   1      27.993  32.582  20.555  1.00  0.00     0.072 C 
ATOM     30  O   UNL A   1      28.076  32.215  19.394  1.00  0.00    -0.545 OA
ATOM     31  O   UNL A   1      27.344  33.710  20.883  1.00  0.00    -0.545 OA
ENDBRANCH  27  29
ENDBRANCH  20  23
ENDBRANCH   7  16
ENDBRANCH   5   6
ENDBRANCH   4   5
ENDBRANCH   3   4
ENDBRANCH   2   3
ENDBRANCH   1   2
BRANCH   1  32
ATOM     32  C   UNL A   1      33.926  31.727  27.406  1.00  0.00     0.188 C 
BRANCH  32  33
ATOM     33  O   UNL A   1      33.705  32.856  28.215  1.00  0.00    -0.376 OA
BRANCH  33  34
ATOM     34  C   UNL A   1      34.740  33.818  28.248  1.00  0.00     0.202 C 
BRANCH  34  35
ATOM     35  C   UNL A   1      36.104  33.543  28.988  1.00  0.00     0.261 C 
BRANCH  35  36
ATOM     36  O   UNL A   1      36.373  32.585  30.113  1.00  0.00    -0.460 OA
BRANCH  36  37
ATOM     37  C   UNL A   1      36.472  31.200  29.902  1.00  0.00     0.338 C 
ATOM     38  O   UNL A   1      35.582  30.439  30.260  1.00  0.00    -0.246 OA
BRANCH  37  39
ATOM     39  C   UNL A   1      37.815  30.623  29.262  1.00  0.00     0.060 A 
ATOM     40  C   UNL A   1      38.069  29.940  28.024  1.00  0.00     0.016 A 
ATOM     41  C   UNL A   1      38.966  30.677  29.968  1.00  0.00     0.016 A 
ATOM     42  C   UNL A   1      39.472  29.382  27.481  1.00  0.00     0.010 A 
ATOM     43  C   UNL A   1      40.228  30.146  29.389  1.00  0.00     0.010 A 
ATOM     44  C   UNL A   1      40.711  29.420  28.173  1.00  0.00    -0.014 A 
BRANCH  44  45
ATOM     45  C   UNL A   1      42.459  29.547  27.484  1.00  0.00     0.031 A 
ATOM     46  C   UNL A   1      43.070  30.128  28.719  1.00  0.00     0.074 A 
ATOM     47  C   UNL A   1      43.599  28.954  26.598  1.00  0.00     0.049 A 
ATOM     48  N   UNL A   1      42.499  29.640  29.797  1.00  0.00    -0.248 NA
ATOM     49  C   UNL A   1      44.477  30.334  28.974  1.00  0.00     0.031 C 
ATOM     50  C   UNL A   1      43.574  27.828  25.605  1.00  0.00     0.029 A 
ATOM     51  N   UNL A   1      45.195  29.138  26.469  1.00  0.00    -0.354 N 
ATOM     52  C   UNL A   1      43.318  28.562  29.978  1.00  0.00     0.074 A 
ATOM     53  C   UNL A   1      44.581  29.370  29.912  1.00  0.00     0.031 C 
ATOM     54  C   UNL A   1      44.795  27.331  25.238  1.00  0.00     0.029 A 
ATOM     55  C   UNL A   1      45.992  28.049  25.779  1.00  0.00     0.049 A 
ATOM     56  H   UNL A   1      45.641  29.938  26.831  1.00  0.00     0.167 HD
ATOM     57  C   UNL A   1      43.095  27.204  29.611  1.00  0.00     0.037 A 
ATOM     58  C   UNL A   1      47.319  27.554  25.341  1.00  0.00     0.037 A 
ATOM     59  C   UNL A   1      44.135  26.365  30.155  1.00  0.00     0.049 A 
ATOM     60  C   UNL A   1      47.315  26.346  26.233  1.00  0.00     0.074 A 
ATOM     61  C   UNL A   1      45.423  26.690  30.513  1.00  0.00     0.029 A 
ATOM     62  N   UNL A   1      44.325  25.085  29.650  1.00  0.00    -0.354 N 
ATOM     63  N   UNL A   1      46.974  25.121  25.977  1.00  0.00    -0.248 NA
ATOM     64  C   UNL A   1      47.971  26.559  27.546  1.00  0.00     0.031 C 
ATOM     65  C   UNL A   1      45.812  26.538  29.183  1.00  0.00     0.029 A 
ATOM     66  C   UNL A   1      45.388  25.257  28.807  1.00  0.00     0.049 A 
ATOM     67  H   UNL A   1      43.821  24.262  29.846  1.00  0.00     0.167 HD
ATOM     68  C   UNL A   1      46.978  24.571  27.253  1.00  0.00     0.074 A 
ATOM     69  C   UNL A   1      47.938  25.320  28.037  1.00  0.00     0.031 C 
ATOM     70  C   UNL A   1      45.738  24.333  27.765  1.00  0.00     0.037 A 
BRANCH  57  71
ATOM     71  C   UNL A   1      41.886  26.337  28.770  1.00  0.00     0.057 A 
ATOM     72  C   UNL A   1      41.863  25.666  27.493  1.00  0.00     0.134 A 
ATOM     73  C   UNL A   1      40.590  26.374  29.307  1.00  0.00     0.134 A 
ATOM     74  F   UNL A   1      42.911  25.501  26.706  1.00  0.00    -0.206 F 
ATOM     75  C   UNL A   1      40.717  25.216  26.801  1.00  0.00     0.040 A 
ATOM     76  C   UNL A   1      39.436  25.882  28.650  1.00  0.00     0.040 A 
ATOM     77  F   UNL A   1      40.381  26.925  30.509  1.00  0.00    -0.206 F 
ATOM     78  C   UNL A   1      39.484  25.343  27.375  1.00  0.00     0.006 A 
ENDBRANCH  57  71
BRANCH  58  79
ATOM     79  C   UNL A   1      49.026  27.436  24.977  1.00  0.00     0.057 A 
ATOM     80  C   UNL A   1      49.961  28.310  25.577  1.00  0.00     0.134 A 
ATOM     81  C   UNL A   1      49.697  26.867  23.785  1.00  0.00     0.134 A 
ATOM     82  F   UNL A   1      49.570  29.148  26.544  1.00  0.00    -0.206 F 
ATOM     83  C   UNL A   1      51.344  28.470  25.138  1.00  0.00     0.040 A 
ATOM     84  C   UNL A   1      51.051  26.974  23.382  1.00  0.00     0.040 A 
ATOM     85  F   UNL A   1      49.098  26.250  22.770  1.00  0.00    -0.206 F 
ATOM     86  C   UNL A   1      51.903  27.778  24.067  1.00  0.00     0.006 A 
ENDBRANCH  58  79
BRANCH  70  87
ATOM     87  C   UNL A   1      44.880  23.559  26.827  1.00  0.00     0.057 A 
ATOM     88  C   UNL A   1      44.945  23.831  25.454  1.00  0.00     0.134 A 
ATOM     89  C   UNL A   1      43.857  22.713  27.244  1.00  0.00     0.134 A 
ATOM     90  F   UNL A   1      45.902  24.639  24.969  1.00  0.00    -0.206 F 
ATOM     91  C   UNL A   1      44.008  23.321  24.553  1.00  0.00     0.040 A 
ATOM     92  C   UNL A   1      42.914  22.183  26.359  1.00  0.00     0.040 A 
ATOM     93  F   UNL A   1      43.714  22.428  28.534  1.00  0.00    -0.206 F 
ATOM     94  C   UNL A   1      42.981  22.500  25.007  1.00  0.00     0.006 A 
ENDBRANCH  70  87
ENDBRANCH  44  45
ENDBRANCH  37  39
ENDBRANCH  36  37
ENDBRANCH  35  36
ENDBRANCH  34  35
ENDBRANCH  33  34
ENDBRANCH  32  33
ENDBRANCH   1  32
TORSDOF 19
ENDMDL
