MODEL 1
REMARK VINA RESULT:     -11.3      0.000      0.000
REMARK SMILES COc1cccc(NC(=O)[C@@H]2[C@@H](C(=O)OCCOCCOCCOC(=O)c3ccc(-c4c5nc(c(-c6c(F)cccc6F)c6ccc([nH]6)c(-c6c(F)cccc6F)c6nc(c(-c7c(F)cccc7F)c7ccc4[nH]7)C=C6)C=C5)cc3)[C@H]3C=C[C@@H]2C3)c1
REMARK SMILES IDX 19 1 18 2 17 3 16 4 15 5 13 6 14 7 12 8 11 9 84 10 81 11
REMARK SMILES IDX 83 12 85 13 82 14 9 15 8 16 10 18 7 19 3 20 4 21 86 22 5 23
REMARK SMILES IDX 6 24 2 25 1 26 20 27 21 28 22 29 23 30 24 31 25 32 26 33
REMARK SMILES IDX 27 34 28 35 80 36 29 37 79 38 30 39 31 40 32 41 73 42 33 43
REMARK SMILES IDX 78 44 72 45 74 46 34 47 77 48 71 49 70 50 35 52 61 53 44 54
REMARK SMILES IDX 60 55 45 56 48 57 59 58 75 59 46 60 47 61 58 63 76 64 49 65
REMARK SMILES IDX 36 66 37 67 42 68 38 69 39 70 41 71 43 72 40 73 62 74 63 75
REMARK SMILES IDX 68 76 64 77 65 78 67 79 69 80 66 81 50 82 51 83 56 84 52 85
REMARK SMILES IDX 53 86 55 87 57 88 54 89
REMARK H PARENT 8 17 74 51 48 62
REMARK Flexibility Score: inf
ROOT
ATOM      1  C   UNL A   1      40.505  21.847  27.416  1.00  0.00     0.188 C 
ENDROOT
BRANCH   1   2
ATOM      2  O   UNL A   1      39.543  22.394  26.525  1.00  0.00    -0.376 OA
BRANCH   2   3
ATOM      3  C   UNL A   1      38.791  21.444  25.771  1.00  0.00     0.202 C 
BRANCH   3   4
ATOM      4  C   UNL A   1      37.336  21.848  25.521  1.00  0.00     0.261 C 
BRANCH   4   5
ATOM      5  O   UNL A   1      37.198  22.532  24.266  1.00  0.00    -0.463 OA
BRANCH   5   6
ATOM      6  C   UNL A   1      35.957  22.930  23.887  1.00  0.00     0.310 C 
ATOM      7  O   UNL A   1      35.597  23.052  22.728  1.00  0.00    -0.252 OA
BRANCH   6   8
ATOM      8  C   UNL A   1      35.106  23.125  25.135  1.00  0.00     0.119 C 
ATOM      9  C   UNL A   1      33.682  22.476  25.115  1.00  0.00     0.100 C 
ATOM     10  C   UNL A   1      32.773  23.735  25.277  1.00  0.00     0.025 C 
ATOM     11  C   UNL A   1      34.808  24.643  25.313  1.00  0.00     0.027 C 
ATOM     12  C   UNL A   1      32.911  24.575  24.025  1.00  0.00    -0.027 C 
ATOM     13  C   UNL A   1      33.596  24.613  26.234  1.00  0.00     0.017 C 
ATOM     14  C   UNL A   1      34.124  25.143  24.060  1.00  0.00    -0.027 C 
BRANCH   9  15
ATOM     15  C   UNL A   1      33.455  21.520  26.293  1.00  0.00     0.228 C 
ATOM     16  N   UNL A   1      33.285  20.175  26.184  1.00  0.00    -0.326 N 
ATOM     17  H   UNL A   1      33.262  19.735  27.064  1.00  0.00     0.169 HD
ATOM     18  O   UNL A   1      33.457  21.948  27.456  1.00  0.00    -0.274 OA
BRANCH  16  19
ATOM     19  C   UNL A   1      33.134  19.259  25.133  1.00  0.00     0.044 A 
ATOM     20  C   UNL A   1      33.497  16.996  24.343  1.00  0.00     0.120 A 
ATOM     21  C   UNL A   1      33.004  17.320  23.088  1.00  0.00     0.046 A 
ATOM     22  C   UNL A   1      33.604  17.958  25.351  1.00  0.00     0.072 A 
ATOM     23  C   UNL A   1      32.493  18.592  22.884  1.00  0.00     0.006 A 
ATOM     24  C   UNL A   1      32.520  19.532  23.919  1.00  0.00     0.026 A 
BRANCH  20  25
ATOM     25  O   UNL A   1      33.877  15.705  24.573  1.00  0.00    -0.497 OA
ATOM     26  C   UNL A   1      35.170  15.696  25.186  1.00  0.00     0.278 C 
ENDBRANCH  20  25
ENDBRANCH  16  19
ENDBRANCH   9  15
ENDBRANCH   6   8
ENDBRANCH   5   6
ENDBRANCH   4   5
ENDBRANCH   3   4
ENDBRANCH   2   3
ENDBRANCH   1   2
BRANCH   1  27
ATOM     27  C   UNL A   1      41.041  20.445  27.038  1.00  0.00     0.188 C 
BRANCH  27  28
ATOM     28  O   UNL A   1      42.208  20.304  26.243  1.00  0.00    -0.376 OA
BRANCH  28  29
ATOM     29  C   UNL A   1      42.755  21.454  25.613  1.00  0.00     0.202 C 
BRANCH  29  30
ATOM     30  C   UNL A   1      44.274  21.680  25.673  1.00  0.00     0.261 C 
BRANCH  30  31
ATOM     31  O   UNL A   1      44.676  22.880  26.359  1.00  0.00    -0.460 OA
BRANCH  31  32
ATOM     32  C   UNL A   1      44.485  24.032  25.673  1.00  0.00     0.338 C 
ATOM     33  O   UNL A   1      44.775  24.263  24.510  1.00  0.00    -0.246 OA
BRANCH  32  34
ATOM     34  C   UNL A   1      43.693  24.979  26.485  1.00  0.00     0.060 A 
ATOM     35  C   UNL A   1      44.092  26.322  26.516  1.00  0.00     0.016 A 
ATOM     36  C   UNL A   1      42.628  24.540  27.273  1.00  0.00     0.016 A 
ATOM     37  C   UNL A   1      43.444  27.229  27.354  1.00  0.00     0.010 A 
ATOM     38  C   UNL A   1      41.997  25.445  28.135  1.00  0.00     0.010 A 
ATOM     39  C   UNL A   1      42.423  26.785  28.204  1.00  0.00    -0.014 A 
BRANCH  39  40
ATOM     40  C   UNL A   1      41.933  27.672  29.288  1.00  0.00     0.031 A 
ATOM     41  C   UNL A   1      42.626  27.634  30.622  1.00  0.00     0.074 A 
ATOM     42  C   UNL A   1      40.898  28.508  29.099  1.00  0.00     0.049 A 
ATOM     43  N   UNL A   1      42.332  28.269  31.728  1.00  0.00    -0.248 NA
ATOM     44  C   UNL A   1      43.805  26.759  30.721  1.00  0.00     0.031 C 
ATOM     45  C   UNL A   1      40.151  28.666  27.855  1.00  0.00     0.029 A 
ATOM     46  N   UNL A   1      40.288  29.374  29.975  1.00  0.00    -0.354 N 
ATOM     47  C   UNL A   1      43.280  27.860  32.658  1.00  0.00     0.074 A 
ATOM     48  C   UNL A   1      44.147  26.912  31.992  1.00  0.00     0.031 C 
ATOM     49  C   UNL A   1      39.168  29.561  28.057  1.00  0.00     0.029 A 
ATOM     50  C   UNL A   1      39.200  30.018  29.440  1.00  0.00     0.049 A 
ATOM     51  H   UNL A   1      40.601  29.518  30.897  1.00  0.00     0.167 HD
ATOM     52  C   UNL A   1      43.416  28.241  33.950  1.00  0.00     0.037 A 
ATOM     53  C   UNL A   1      38.314  30.858  30.005  1.00  0.00     0.037 A 
ATOM     54  C   UNL A   1      42.557  29.181  34.621  1.00  0.00     0.049 A 
ATOM     55  C   UNL A   1      38.453  31.225  31.456  1.00  0.00     0.074 A 
ATOM     56  C   UNL A   1      42.635  29.643  35.922  1.00  0.00     0.029 A 
ATOM     57  N   UNL A   1      41.455  29.793  34.045  1.00  0.00    -0.354 N 
ATOM     58  N   UNL A   1      39.359  30.844  32.321  1.00  0.00    -0.248 NA
ATOM     59  C   UNL A   1      37.441  32.140  32.005  1.00  0.00     0.031 C 
ATOM     60  C   UNL A   1      41.553  30.500  36.150  1.00  0.00     0.029 A 
ATOM     61  C   UNL A   1      40.830  30.610  34.974  1.00  0.00     0.049 A 
ATOM     62  H   UNL A   1      41.160  29.667  33.114  1.00  0.00     0.167 HD
ATOM     63  C   UNL A   1      39.034  31.479  33.512  1.00  0.00     0.074 A 
ATOM     64  C   UNL A   1      37.860  32.285  33.254  1.00  0.00     0.031 C 
ATOM     65  C   UNL A   1      39.656  31.400  34.713  1.00  0.00     0.037 A 
BRANCH  52  66
ATOM     66  C   UNL A   1      44.525  27.611  34.737  1.00  0.00     0.057 A 
ATOM     67  C   UNL A   1      44.354  26.400  35.418  1.00  0.00     0.134 A 
ATOM     68  C   UNL A   1      45.789  28.212  34.790  1.00  0.00     0.134 A 
ATOM     69  F   UNL A   1      43.163  25.783  35.420  1.00  0.00    -0.206 F 
ATOM     70  C   UNL A   1      45.396  25.817  36.141  1.00  0.00     0.040 A 
ATOM     71  C   UNL A   1      46.846  27.627  35.487  1.00  0.00     0.040 A 
ATOM     72  F   UNL A   1      46.018  29.372  34.156  1.00  0.00    -0.206 F 
ATOM     73  C   UNL A   1      46.649  26.428  36.170  1.00  0.00     0.006 A 
ENDBRANCH  52  66
BRANCH  53  74
ATOM     74  C   UNL A   1      37.173  31.396  29.226  1.00  0.00     0.057 A 
ATOM     75  C   UNL A   1      37.199  32.697  28.709  1.00  0.00     0.134 A 
ATOM     76  C   UNL A   1      36.000  30.653  29.059  1.00  0.00     0.134 A 
ATOM     77  F   UNL A   1      38.284  33.466  28.872  1.00  0.00    -0.206 F 
ATOM     78  C   UNL A   1      36.088  33.248  28.069  1.00  0.00     0.040 A 
ATOM     79  C   UNL A   1      34.885  31.190  28.414  1.00  0.00     0.040 A 
ATOM     80  F   UNL A   1      35.917  29.402  29.533  1.00  0.00    -0.206 F 
ATOM     81  C   UNL A   1      34.925  32.493  27.920  1.00  0.00     0.006 A 
ENDBRANCH  53  74
BRANCH  65  82
ATOM     82  C   UNL A   1      39.089  32.222  35.831  1.00  0.00     0.057 A 
ATOM     83  C   UNL A   1      38.192  31.682  36.762  1.00  0.00     0.134 A 
ATOM     84  C   UNL A   1      39.461  33.562  35.990  1.00  0.00     0.134 A 
ATOM     85  F   UNL A   1      37.782  30.410  36.654  1.00  0.00    -0.206 F 
ATOM     86  C   UNL A   1      37.669  32.456  37.801  1.00  0.00     0.040 A 
ATOM     87  C   UNL A   1      38.964  34.338  37.038  1.00  0.00     0.040 A 
ATOM     88  F   UNL A   1      40.318  34.137  35.133  1.00  0.00    -0.206 F 
ATOM     89  C   UNL A   1      38.061  33.786  37.944  1.00  0.00     0.006 A 
ENDBRANCH  65  82
ENDBRANCH  39  40
ENDBRANCH  32  34
ENDBRANCH  31  32
ENDBRANCH  30  31
ENDBRANCH  29  30
ENDBRANCH  28  29
ENDBRANCH  27  28
ENDBRANCH   1  27
TORSDOF 20
ENDMDL
MODEL 2
REMARK VINA RESULT:     -11.1      4.626      9.667
REMARK SMILES COc1cccc(NC(=O)[C@@H]2[C@@H](C(=O)OCCOCCOCCOC(=O)c3ccc(-c4c5nc(c(-c6c(F)cccc6F)c6ccc([nH]6)c(-c6c(F)cccc6F)c6nc(c(-c7c(F)cccc7F)c7ccc4[nH]7)C=C6)C=C5)cc3)[C@H]3C=C[C@@H]2C3)c1
REMARK SMILES IDX 19 1 18 2 17 3 16 4 15 5 13 6 14 7 12 8 11 9 84 10 81 11
REMARK SMILES IDX 83 12 85 13 82 14 9 15 8 16 10 18 7 19 3 20 4 21 86 22 5 23
REMARK SMILES IDX 6 24 2 25 1 26 20 27 21 28 22 29 23 30 24 31 25 32 26 33
REMARK SMILES IDX 27 34 28 35 80 36 29 37 79 38 30 39 31 40 32 41 73 42 33 43
REMARK SMILES IDX 78 44 72 45 74 46 34 47 77 48 71 49 70 50 35 52 61 53 44 54
REMARK SMILES IDX 60 55 45 56 48 57 59 58 75 59 46 60 47 61 58 63 76 64 49 65
REMARK SMILES IDX 36 66 37 67 42 68 38 69 39 70 41 71 43 72 40 73 62 74 63 75
REMARK SMILES IDX 68 76 64 77 65 78 67 79 69 80 66 81 50 82 51 83 56 84 52 85
REMARK SMILES IDX 53 86 55 87 57 88 54 89
REMARK H PARENT 8 17 74 51 48 62
REMARK Flexibility Score: inf
ROOT
ATOM      1  C   UNL A   1      34.568  31.679  27.875  1.00  0.00     0.188 C 
ENDROOT
BRANCH   1   2
ATOM      2  O   UNL A   1      33.269  31.193  27.564  1.00  0.00    -0.376 OA
BRANCH   2   3
ATOM      3  C   UNL A   1      33.228  30.015  26.760  1.00  0.00     0.202 C 
BRANCH   3   4
ATOM      4  C   UNL A   1      32.160  30.037  25.664  1.00  0.00     0.261 C 
BRANCH   4   5
ATOM      5  O   UNL A   1      31.538  28.750  25.523  1.00  0.00    -0.463 OA
BRANCH   5   6
ATOM      6  C   UNL A   1      30.826  28.504  24.394  1.00  0.00     0.310 C 
ATOM      7  O   UNL A   1      30.521  29.354  23.574  1.00  0.00    -0.252 OA
BRANCH   6   8
ATOM      8  C   UNL A   1      30.544  27.010  24.312  1.00  0.00     0.119 C 
ATOM      9  C   UNL A   1      31.473  26.079  25.159  1.00  0.00     0.100 C 
ATOM     10  C   UNL A   1      32.122  25.201  24.043  1.00  0.00     0.025 C 
ATOM     11  C   UNL A   1      30.787  26.529  22.851  1.00  0.00     0.027 C 
ATOM     12  C   UNL A   1      33.012  26.095  23.204  1.00  0.00    -0.027 C 
ATOM     13  C   UNL A   1      30.965  25.029  23.046  1.00  0.00     0.017 C 
ATOM     14  C   UNL A   1      32.209  26.874  22.467  1.00  0.00    -0.027 C 
BRANCH   9  15
ATOM     15  C   UNL A   1      30.686  25.186  26.125  1.00  0.00     0.228 C 
ATOM     16  N   UNL A   1      31.152  24.033  26.676  1.00  0.00    -0.326 N 
ATOM     17  H   UNL A   1      30.533  23.670  27.350  1.00  0.00     0.169 HD
ATOM     18  O   UNL A   1      29.549  25.512  26.495  1.00  0.00    -0.274 OA
BRANCH  16  19
ATOM     19  C   UNL A   1      32.293  23.231  26.526  1.00  0.00     0.044 A 
ATOM     20  C   UNL A   1      33.204  21.116  25.769  1.00  0.00     0.120 A 
ATOM     21  C   UNL A   1      34.463  21.451  26.245  1.00  0.00     0.046 A 
ATOM     22  C   UNL A   1      32.114  21.972  25.939  1.00  0.00     0.072 A 
ATOM     23  C   UNL A   1      34.656  22.714  26.781  1.00  0.00     0.006 A 
ATOM     24  C   UNL A   1      33.583  23.607  26.874  1.00  0.00     0.026 A 
BRANCH  20  25
ATOM     25  O   UNL A   1      33.056  19.922  25.124  1.00  0.00    -0.497 OA
ATOM     26  C   UNL A   1      32.444  20.146  23.851  1.00  0.00     0.278 C 
ENDBRANCH  20  25
ENDBRANCH  16  19
ENDBRANCH   9  15
ENDBRANCH   6   8
ENDBRANCH   5   6
ENDBRANCH   4   5
ENDBRANCH   3   4
ENDBRANCH   2   3
ENDBRANCH   1   2
BRANCH   1  27
ATOM     27  C   UNL A   1      34.648  33.183  28.232  1.00  0.00     0.188 C 
BRANCH  27  28
ATOM     28  O   UNL A   1      33.867  33.721  29.288  1.00  0.00    -0.376 OA
BRANCH  28  29
ATOM     29  C   UNL A   1      34.519  34.174  30.466  1.00  0.00     0.202 C 
BRANCH  29  30
ATOM     30  C   UNL A   1      34.091  33.591  31.822  1.00  0.00     0.261 C 
BRANCH  30  31
ATOM     31  O   UNL A   1      34.658  32.305  32.130  1.00  0.00    -0.460 OA
BRANCH  31  32
ATOM     32  C   UNL A   1      35.864  32.335  32.744  1.00  0.00     0.338 C 
ATOM     33  O   UNL A   1      36.136  32.829  33.828  1.00  0.00    -0.246 OA
BRANCH  32  34
ATOM     34  C   UNL A   1      36.835  31.514  31.993  1.00  0.00     0.060 A 
ATOM     35  C   UNL A   1      37.729  30.713  32.717  1.00  0.00     0.016 A 
ATOM     36  C   UNL A   1      36.926  31.594  30.603  1.00  0.00     0.016 A 
ATOM     37  C   UNL A   1      38.735  30.007  32.056  1.00  0.00     0.010 A 
ATOM     38  C   UNL A   1      37.954  30.909  29.944  1.00  0.00     0.010 A 
ATOM     39  C   UNL A   1      38.882  30.138  30.670  1.00  0.00    -0.014 A 
BRANCH  39  40
ATOM     40  C   UNL A   1      40.108  29.626  30.011  1.00  0.00     0.031 A 
ATOM     41  C   UNL A   1      41.266  30.564  29.807  1.00  0.00     0.074 A 
ATOM     42  C   UNL A   1      40.208  28.348  29.605  1.00  0.00     0.049 A 
ATOM     43  N   UNL A   1      42.406  30.355  29.200  1.00  0.00    -0.248 NA
ATOM     44  C   UNL A   1      41.113  31.919  30.358  1.00  0.00     0.031 C 
ATOM     45  C   UNL A   1      39.177  27.326  29.761  1.00  0.00     0.029 A 
ATOM     46  N   UNL A   1      41.234  27.702  28.960  1.00  0.00    -0.354 N 
ATOM     47  C   UNL A   1      43.101  31.555  29.283  1.00  0.00     0.074 A 
ATOM     48  C   UNL A   1      42.248  32.491  29.984  1.00  0.00     0.031 C 
ATOM     49  C   UNL A   1      39.619  26.185  29.203  1.00  0.00     0.029 A 
ATOM     50  C   UNL A   1      40.943  26.399  28.636  1.00  0.00     0.049 A 
ATOM     51  H   UNL A   1      42.095  28.130  28.750  1.00  0.00     0.167 HD
ATOM     52  C   UNL A   1      44.337  31.851  28.819  1.00  0.00     0.037 A 
ATOM     53  C   UNL A   1      41.650  25.492  27.938  1.00  0.00     0.037 A 
ATOM     54  C   UNL A   1      45.190  30.927  28.118  1.00  0.00     0.049 A 
ATOM     55  C   UNL A   1      42.997  25.859  27.385  1.00  0.00     0.074 A 
ATOM     56  C   UNL A   1      46.469  31.134  27.631  1.00  0.00     0.029 A 
ATOM     57  N   UNL A   1      44.846  29.624  27.794  1.00  0.00    -0.354 N 
ATOM     58  N   UNL A   1      43.649  26.990  27.480  1.00  0.00    -0.248 NA
ATOM     59  C   UNL A   1      43.705  24.817  26.624  1.00  0.00     0.031 C 
ATOM     60  C   UNL A   1      46.882  29.971  26.971  1.00  0.00     0.029 A 
ATOM     61  C   UNL A   1      45.879  29.024  27.092  1.00  0.00     0.049 A 
ATOM     62  H   UNL A   1      43.994  29.189  28.029  1.00  0.00     0.167 HD
ATOM     63  C   UNL A   1      44.845  26.795  26.804  1.00  0.00     0.074 A 
ATOM     64  C   UNL A   1      44.839  25.432  26.319  1.00  0.00     0.031 C 
ATOM     65  C   UNL A   1      45.859  27.670  26.603  1.00  0.00     0.037 A 
BRANCH  52  66
ATOM     66  C   UNL A   1      44.832  33.250  29.027  1.00  0.00     0.057 A 
ATOM     67  C   UNL A   1      44.513  34.287  28.142  1.00  0.00     0.134 A 
ATOM     68  C   UNL A   1      45.614  33.568  30.145  1.00  0.00     0.134 A 
ATOM     69  F   UNL A   1      43.781  34.044  27.045  1.00  0.00    -0.206 F 
ATOM     70  C   UNL A   1      44.972  35.589  28.351  1.00  0.00     0.040 A 
ATOM     71  C   UNL A   1      46.057  34.869  30.378  1.00  0.00     0.040 A 
ATOM     72  F   UNL A   1      45.952  32.619  31.031  1.00  0.00    -0.206 F 
ATOM     73  C   UNL A   1      45.740  35.884  29.476  1.00  0.00     0.006 A 
ENDBRANCH  52  66
BRANCH  53  74
ATOM     74  C   UNL A   1      41.096  24.142  27.669  1.00  0.00     0.057 A 
ATOM     75  C   UNL A   1      41.595  23.012  28.326  1.00  0.00     0.134 A 
ATOM     76  C   UNL A   1      40.121  23.946  26.685  1.00  0.00     0.134 A 
ATOM     77  F   UNL A   1      42.556  23.139  29.252  1.00  0.00    -0.206 F 
ATOM     78  C   UNL A   1      41.156  21.727  28.001  1.00  0.00     0.040 A 
ATOM     79  C   UNL A   1      39.669  22.667  26.356  1.00  0.00     0.040 A 
ATOM     80  F   UNL A   1      39.608  24.990  26.023  1.00  0.00    -0.206 F 
ATOM     81  C   UNL A   1      40.190  21.553  27.012  1.00  0.00     0.006 A 
ENDBRANCH  53  74
BRANCH  65  82
ATOM     82  C   UNL A   1      47.052  27.172  25.844  1.00  0.00     0.057 A 
ATOM     83  C   UNL A   1      47.207  27.412  24.472  1.00  0.00     0.134 A 
ATOM     84  C   UNL A   1      48.066  26.462  26.497  1.00  0.00     0.134 A 
ATOM     85  F   UNL A   1      46.262  28.070  23.786  1.00  0.00    -0.206 F 
ATOM     86  C   UNL A   1      48.322  26.943  23.773  1.00  0.00     0.040 A 
ATOM     87  C   UNL A   1      49.196  26.010  25.814  1.00  0.00     0.040 A 
ATOM     88  F   UNL A   1      47.979  26.201  27.810  1.00  0.00    -0.206 F 
ATOM     89  C   UNL A   1      49.323  26.246  24.447  1.00  0.00     0.006 A 
ENDBRANCH  65  82
ENDBRANCH  39  40
ENDBRANCH  32  34
ENDBRANCH  31  32
ENDBRANCH  30  31
ENDBRANCH  29  30
ENDBRANCH  28  29
ENDBRANCH  27  28
ENDBRANCH   1  27
TORSDOF 20
ENDMDL
MODEL 3
REMARK VINA RESULT:     -11.0      1.998      4.027
REMARK SMILES COc1cccc(NC(=O)[C@@H]2[C@@H](C(=O)OCCOCCOCCOC(=O)c3ccc(-c4c5nc(c(-c6c(F)cccc6F)c6ccc([nH]6)c(-c6c(F)cccc6F)c6nc(c(-c7c(F)cccc7F)c7ccc4[nH]7)C=C6)C=C5)cc3)[C@H]3C=C[C@@H]2C3)c1
REMARK SMILES IDX 19 1 18 2 17 3 16 4 15 5 13 6 14 7 12 8 11 9 84 10 81 11
REMARK SMILES IDX 83 12 85 13 82 14 9 15 8 16 10 18 7 19 3 20 4 21 86 22 5 23
REMARK SMILES IDX 6 24 2 25 1 26 20 27 21 28 22 29 23 30 24 31 25 32 26 33
REMARK SMILES IDX 27 34 28 35 80 36 29 37 79 38 30 39 31 40 32 41 73 42 33 43
REMARK SMILES IDX 78 44 72 45 74 46 34 47 77 48 71 49 70 50 35 52 61 53 44 54
REMARK SMILES IDX 60 55 45 56 48 57 59 58 75 59 46 60 47 61 58 63 76 64 49 65
REMARK SMILES IDX 36 66 37 67 42 68 38 69 39 70 41 71 43 72 40 73 62 74 63 75
REMARK SMILES IDX 68 76 64 77 65 78 67 79 69 80 66 81 50 82 51 83 56 84 52 85
REMARK SMILES IDX 53 86 55 87 57 88 54 89
REMARK H PARENT 8 17 74 51 48 62
REMARK Flexibility Score: inf
ROOT
ATOM      1  C   UNL A   1      39.770  20.913  25.854  1.00  0.00     0.188 C 
ENDROOT
BRANCH   1   2
ATOM      2  O   UNL A   1      38.486  21.505  25.704  1.00  0.00    -0.376 OA
BRANCH   2   3
ATOM      3  C   UNL A   1      38.368  22.847  26.175  1.00  0.00     0.202 C 
BRANCH   3   4
ATOM      4  C   UNL A   1      37.415  23.721  25.357  1.00  0.00     0.261 C 
BRANCH   4   5
ATOM      5  O   UNL A   1      36.262  22.975  24.938  1.00  0.00    -0.463 OA
BRANCH   5   6
ATOM      6  C   UNL A   1      35.043  23.562  25.056  1.00  0.00     0.310 C 
ATOM      7  O   UNL A   1      34.712  24.279  25.985  1.00  0.00    -0.252 OA
BRANCH   6   8
ATOM      8  C   UNL A   1      34.217  23.222  23.822  1.00  0.00     0.119 C 
ATOM      9  C   UNL A   1      32.937  24.090  23.581  1.00  0.00     0.100 C 
ATOM     10  C   UNL A   1      31.818  23.002  23.640  1.00  0.00     0.025 C 
ATOM     11  C   UNL A   1      33.652  21.779  23.972  1.00  0.00     0.027 C 
ATOM     12  C   UNL A   1      31.754  22.473  25.058  1.00  0.00    -0.027 C 
ATOM     13  C   UNL A   1      32.500  21.794  22.976  1.00  0.00     0.017 C 
ATOM     14  C   UNL A   1      32.843  21.715  25.249  1.00  0.00    -0.027 C 
BRANCH   9  15
ATOM     15  C   UNL A   1      32.933  24.761  22.203  1.00  0.00     0.228 C 
ATOM     16  N   UNL A   1      32.576  26.051  21.965  1.00  0.00    -0.326 N 
ATOM     17  H   UNL A   1      32.746  26.315  21.032  1.00  0.00     0.169 HD
ATOM     18  O   UNL A   1      33.310  24.136  21.201  1.00  0.00    -0.274 OA
BRANCH  16  19
ATOM     19  C   UNL A   1      32.027  27.102  22.716  1.00  0.00     0.044 A 
ATOM     20  C   UNL A   1      30.101  28.514  23.127  1.00  0.00     0.120 A 
ATOM     21  C   UNL A   1      30.807  29.262  24.058  1.00  0.00     0.046 A 
ATOM     22  C   UNL A   1      30.707  27.468  22.427  1.00  0.00     0.072 A 
ATOM     23  C   UNL A   1      32.096  28.873  24.382  1.00  0.00     0.006 A 
ATOM     24  C   UNL A   1      32.676  27.771  23.744  1.00  0.00     0.026 A 
BRANCH  20  25
ATOM     25  O   UNL A   1      28.789  28.825  22.912  1.00  0.00    -0.497 OA
ATOM     26  C   UNL A   1      28.707  29.880  21.948  1.00  0.00     0.278 C 
ENDBRANCH  20  25
ENDBRANCH  16  19
ENDBRANCH   9  15
ENDBRANCH   6   8
ENDBRANCH   5   6
ENDBRANCH   4   5
ENDBRANCH   3   4
ENDBRANCH   2   3
ENDBRANCH   1   2
BRANCH   1  27
ATOM     27  C   UNL A   1      40.519  21.271  27.160  1.00  0.00     0.188 C 
BRANCH  27  28
ATOM     28  O   UNL A   1      41.924  21.097  27.262  1.00  0.00    -0.376 OA
BRANCH  28  29
ATOM     29  C   UNL A   1      42.638  20.589  26.144  1.00  0.00     0.202 C 
BRANCH  29  30
ATOM     30  C   UNL A   1      43.598  21.523  25.390  1.00  0.00     0.261 C 
BRANCH  30  31
ATOM     31  O   UNL A   1      44.090  22.631  26.164  1.00  0.00    -0.460 OA
BRANCH  31  32
ATOM     32  C   UNL A   1      44.084  23.829  25.532  1.00  0.00     0.338 C 
ATOM     33  O   UNL A   1      44.481  24.078  24.404  1.00  0.00    -0.246 OA
BRANCH  32  34
ATOM     34  C   UNL A   1      43.354  24.825  26.342  1.00  0.00     0.060 A 
ATOM     35  C   UNL A   1      43.860  26.131  26.404  1.00  0.00     0.016 A 
ATOM     36  C   UNL A   1      42.238  24.463  27.099  1.00  0.00     0.016 A 
ATOM     37  C   UNL A   1      43.268  27.075  27.243  1.00  0.00     0.010 A 
ATOM     38  C   UNL A   1      41.663  25.404  27.962  1.00  0.00     0.010 A 
ATOM     39  C   UNL A   1      42.194  26.703  28.062  1.00  0.00    -0.014 A 
BRANCH  39  40
ATOM     40  C   UNL A   1      41.753  27.611  29.150  1.00  0.00     0.031 A 
ATOM     41  C   UNL A   1      42.473  27.562  30.469  1.00  0.00     0.074 A 
ATOM     42  C   UNL A   1      40.738  28.475  28.977  1.00  0.00     0.049 A 
ATOM     43  N   UNL A   1      42.221  28.212  31.576  1.00  0.00    -0.248 NA
ATOM     44  C   UNL A   1      43.628  26.655  30.550  1.00  0.00     0.031 C 
ATOM     45  C   UNL A   1      39.970  28.646  27.747  1.00  0.00     0.029 A 
ATOM     46  N   UNL A   1      40.173  29.364  29.859  1.00  0.00    -0.354 N 
ATOM     47  C   UNL A   1      43.176  27.783  32.489  1.00  0.00     0.074 A 
ATOM     48  C   UNL A   1      44.001  26.806  31.812  1.00  0.00     0.031 C 
ATOM     49  C   UNL A   1      39.017  29.570  27.964  1.00  0.00     0.029 A 
ATOM     50  C   UNL A   1      39.092  30.035  29.342  1.00  0.00     0.049 A 
ATOM     51  H   UNL A   1      40.508  29.505  30.773  1.00  0.00     0.167 HD
ATOM     52  C   UNL A   1      43.350  28.168  33.775  1.00  0.00     0.037 A 
ATOM     53  C   UNL A   1      38.242  30.904  29.920  1.00  0.00     0.037 A 
ATOM     54  C   UNL A   1      42.532  29.137  34.457  1.00  0.00     0.049 A 
ATOM     55  C   UNL A   1      38.423  31.276  31.364  1.00  0.00     0.074 A 
ATOM     56  C   UNL A   1      42.651  29.605  35.754  1.00  0.00     0.029 A 
ATOM     57  N   UNL A   1      41.436  29.777  33.900  1.00  0.00    -0.354 N 
ATOM     58  N   UNL A   1      39.335  30.875  32.213  1.00  0.00    -0.248 NA
ATOM     59  C   UNL A   1      37.449  32.224  31.928  1.00  0.00     0.031 C 
ATOM     60  C   UNL A   1      41.599  30.495  35.998  1.00  0.00     0.029 A 
ATOM     61  C   UNL A   1      40.855  30.617  34.837  1.00  0.00     0.049 A 
ATOM     62  H   UNL A   1      41.118  29.653  32.977  1.00  0.00     0.167 HD
ATOM     63  C   UNL A   1      39.054  31.527  33.406  1.00  0.00     0.074 A 
ATOM     64  C   UNL A   1      37.898  32.365  33.167  1.00  0.00     0.031 C 
ATOM     65  C   UNL A   1      39.698  31.439  34.594  1.00  0.00     0.037 A 
BRANCH  52  66
ATOM     66  C   UNL A   1      44.458  27.513  34.544  1.00  0.00     0.057 A 
ATOM     67  C   UNL A   1      44.270  26.305  35.228  1.00  0.00     0.134 A 
ATOM     68  C   UNL A   1      45.736  28.083  34.574  1.00  0.00     0.134 A 
ATOM     69  F   UNL A   1      43.064  25.717  35.250  1.00  0.00    -0.206 F 
ATOM     70  C   UNL A   1      45.310  25.698  35.933  1.00  0.00     0.040 A 
ATOM     71  C   UNL A   1      46.790  27.474  35.254  1.00  0.00     0.040 A 
ATOM     72  F   UNL A   1      45.981  29.238  33.937  1.00  0.00    -0.206 F 
ATOM     73  C   UNL A   1      46.577  26.280  35.941  1.00  0.00     0.006 A 
ENDBRANCH  52  66
BRANCH  53  74
ATOM     74  C   UNL A   1      37.101  31.469  29.161  1.00  0.00     0.057 A 
ATOM     75  C   UNL A   1      37.122  32.790  28.699  1.00  0.00     0.134 A 
ATOM     76  C   UNL A   1      35.931  30.728  28.960  1.00  0.00     0.134 A 
ATOM     77  F   UNL A   1      38.203  33.557  28.897  1.00  0.00    -0.206 F 
ATOM     78  C   UNL A   1      36.010  33.363  28.080  1.00  0.00     0.040 A 
ATOM     79  C   UNL A   1      34.815  31.287  28.335  1.00  0.00     0.040 A 
ATOM     80  F   UNL A   1      35.853  29.459  29.381  1.00  0.00    -0.206 F 
ATOM     81  C   UNL A   1      34.851  32.610  27.897  1.00  0.00     0.006 A 
ENDBRANCH  53  74
BRANCH  65  82
ATOM     82  C   UNL A   1      39.179  32.284  35.718  1.00  0.00     0.057 A 
ATOM     83  C   UNL A   1      39.578  33.616  35.886  1.00  0.00     0.134 A 
ATOM     84  C   UNL A   1      38.254  31.764  36.632  1.00  0.00     0.134 A 
ATOM     85  F   UNL A   1      40.476  34.166  35.055  1.00  0.00    -0.206 F 
ATOM     86  C   UNL A   1      39.090  34.395  36.936  1.00  0.00     0.040 A 
ATOM     87  C   UNL A   1      37.740  32.540  37.671  1.00  0.00     0.040 A 
ATOM     88  F   UNL A   1      37.830  30.496  36.525  1.00  0.00    -0.206 F 
ATOM     89  C   UNL A   1      38.162  33.859  37.828  1.00  0.00     0.006 A 
ENDBRANCH  65  82
ENDBRANCH  39  40
ENDBRANCH  32  34
ENDBRANCH  31  32
ENDBRANCH  30  31
ENDBRANCH  29  30
ENDBRANCH  28  29
ENDBRANCH  27  28
ENDBRANCH   1  27
TORSDOF 20
ENDMDL
