MODEL 1
REMARK VINA RESULT:      -9.7      0.000      0.000
REMARK SMILES Cc1cc(Br)c(C)c([C@@H]2[NH2+][C@H](C(=O)OCCOCCOCCOC(=O)c3ccc(-c4c5nc(c(-c6c(F)cccc6F)c6ccc([nH]6)c(-c6c(F)cccc6F)c6nc(c(-c7c(F)cccc7F)c7ccc4[nH]7)C=C6)C=C5)cc3)CS2)c1O
REMARK SMILES IDX 18 1 17 2 16 3 15 4 14 5 12 6 13 7 11 8 9 9 10 10 81 11
REMARK SMILES IDX 80 14 8 15 1 16 2 17 3 18 82 19 4 20 5 21 6 22 7 23 83 24
REMARK SMILES IDX 19 26 20 27 21 28 22 29 23 30 24 31 25 32 26 33 27 34 79 35
REMARK SMILES IDX 28 36 78 37 29 38 30 39 31 40 72 41 32 42 77 43 71 44 73 45
REMARK SMILES IDX 33 46 76 47 70 48 69 49 34 51 60 52 43 53 59 54 44 55 47 56
REMARK SMILES IDX 58 57 74 58 45 59 46 60 57 62 75 63 48 64 35 65 36 66 41 67
REMARK SMILES IDX 37 68 38 69 40 70 42 71 39 72 61 73 62 74 67 75 63 76 64 77
REMARK SMILES IDX 66 78 68 79 65 80 49 81 50 82 55 83 51 84 52 85 54 86 56 87
REMARK SMILES IDX 53 88
REMARK H PARENT 10 12 10 13 83 25 73 50 47 61
REMARK Flexibility Score: inf
ROOT
ATOM      1  C   UNL A   1      32.554  35.986  30.580  1.00  0.00     0.188 C 
ENDROOT
BRANCH   1   2
ATOM      2  O   UNL A   1      32.570  37.097  31.472  1.00  0.00    -0.376 OA
BRANCH   2   3
ATOM      3  C   UNL A   1      32.474  36.823  32.867  1.00  0.00     0.202 C 
BRANCH   3   4
ATOM      4  C   UNL A   1      33.734  37.115  33.682  1.00  0.00     0.261 C 
BRANCH   4   5
ATOM      5  O   UNL A   1      34.907  36.519  33.100  1.00  0.00    -0.459 OA
BRANCH   5   6
ATOM      6  C   UNL A   1      35.103  35.201  33.371  1.00  0.00     0.365 C 
ATOM      7  O   UNL A   1      35.052  34.735  34.509  1.00  0.00    -0.245 OA
BRANCH   6   8
ATOM      8  C   UNL A   1      35.228  34.310  32.118  1.00  0.00     0.304 C 
ATOM      9  C   UNL A   1      37.279  33.048  32.118  1.00  0.00     0.278 C 
ATOM     10  N   UNL A   1      36.579  34.185  31.496  1.00  0.00    -0.319 N 
ATOM     11  S   UNL A   1      36.051  31.773  32.453  1.00  0.00    -0.087 SA
ATOM     12  H   UNL A   1      36.482  34.021  30.494  1.00  0.00     0.348 HD
ATOM     13  H   UNL A   1      37.110  35.043  31.641  1.00  0.00     0.348 HD
ATOM     14  C   UNL A   1      34.649  32.917  32.356  1.00  0.00     0.153 C 
BRANCH   9  15
ATOM     15  C   UNL A   1      38.242  33.492  33.218  1.00  0.00     0.066 A 
ATOM     16  C   UNL A   1      38.277  33.900  37.059  1.00  0.00     0.048 C 
ATOM     17  C   UNL A   1      38.676  33.948  35.612  1.00  0.00    -0.008 A 
ATOM     18  C   UNL A   1      39.862  34.593  35.265  1.00  0.00     0.023 A 
ATOM     19  C   UNL A   1      37.911  33.363  34.591  1.00  0.00     0.128 A 
ATOM     20  C   UNL A   1      40.259  34.687  33.932  1.00  0.00     0.021 A 
ATOM     21  Br  UNL A   1      41.933  35.550  33.622  1.00  0.00    -0.051 Br
ATOM     22  C   UNL A   1      39.457  34.176  32.888  1.00  0.00    -0.023 A 
ATOM     23  C   UNL A   1      39.952  34.332  31.465  1.00  0.00     0.046 C 
BRANCH  19  24
ATOM     24  O   UNL A   1      36.783  32.663  34.925  1.00  0.00    -0.507 OA
ATOM     25  H   UNL A   1      36.005  32.758  34.412  1.00  0.00     0.293 HD
ENDBRANCH  19  24
ENDBRANCH   9  15
ENDBRANCH   6   8
ENDBRANCH   5   6
ENDBRANCH   4   5
ENDBRANCH   3   4
ENDBRANCH   2   3
ENDBRANCH   1   2
BRANCH   1  26
ATOM     26  C   UNL A   1      32.892  36.223  29.095  1.00  0.00     0.188 C 
BRANCH  26  27
ATOM     27  O   UNL A   1      32.971  35.026  28.337  1.00  0.00    -0.376 OA
BRANCH  27  28
ATOM     28  C   UNL A   1      34.282  34.621  27.983  1.00  0.00     0.202 C 
BRANCH  28  29
ATOM     29  C   UNL A   1      34.617  33.232  28.536  1.00  0.00     0.261 C 
BRANCH  29  30
ATOM     30  O   UNL A   1      35.049  32.284  27.543  1.00  0.00    -0.460 OA
BRANCH  30  31
ATOM     31  C   UNL A   1      34.783  30.979  27.770  1.00  0.00     0.338 C 
ATOM     32  O   UNL A   1      33.757  30.381  27.491  1.00  0.00    -0.246 OA
BRANCH  31  33
ATOM     33  C   UNL A   1      36.044  30.336  28.212  1.00  0.00     0.060 A 
ATOM     34  C   UNL A   1      37.184  30.355  27.402  1.00  0.00     0.016 A 
ATOM     35  C   UNL A   1      36.059  29.636  29.428  1.00  0.00     0.016 A 
ATOM     36  C   UNL A   1      38.347  29.703  27.822  1.00  0.00     0.010 A 
ATOM     37  C   UNL A   1      37.217  28.968  29.839  1.00  0.00     0.010 A 
ATOM     38  C   UNL A   1      38.378  29.021  29.052  1.00  0.00    -0.014 A 
BRANCH  38  39
ATOM     39  C   UNL A   1      39.682  28.591  29.612  1.00  0.00     0.031 A 
ATOM     40  C   UNL A   1      40.300  29.217  30.822  1.00  0.00     0.074 A 
ATOM     41  C   UNL A   1      40.305  27.573  28.986  1.00  0.00     0.049 A 
ATOM     42  N   UNL A   1      41.377  28.848  31.472  1.00  0.00    -0.248 NA
ATOM     43  C   UNL A   1      39.641  30.407  31.373  1.00  0.00     0.031 C 
ATOM     44  C   UNL A   1      39.803  26.902  27.786  1.00  0.00     0.029 A 
ATOM     45  N   UNL A   1      41.475  26.920  29.273  1.00  0.00    -0.354 N 
ATOM     46  C   UNL A   1      41.512  29.740  32.528  1.00  0.00     0.074 A 
ATOM     47  C   UNL A   1      40.431  30.698  32.401  1.00  0.00     0.031 C 
ATOM     48  C   UNL A   1      40.646  25.915  27.453  1.00  0.00     0.029 A 
ATOM     49  C   UNL A   1      41.750  25.893  28.406  1.00  0.00     0.049 A 
ATOM     50  H   UNL A   1      42.060  27.165  30.026  1.00  0.00     0.167 HD
ATOM     51  C   UNL A   1      42.442  29.739  33.515  1.00  0.00     0.037 A 
ATOM     52  C   UNL A   1      42.768  25.012  28.388  1.00  0.00     0.037 A 
ATOM     53  C   UNL A   1      43.527  28.792  33.618  1.00  0.00     0.049 A 
ATOM     54  C   UNL A   1      43.803  25.060  29.470  1.00  0.00     0.074 A 
ATOM     55  C   UNL A   1      44.492  28.693  34.608  1.00  0.00     0.029 A 
ATOM     56  N   UNL A   1      43.801  27.790  32.699  1.00  0.00    -0.354 N 
ATOM     57  N   UNL A   1      43.875  25.860  30.505  1.00  0.00    -0.248 NA
ATOM     58  C   UNL A   1      44.891  24.078  29.389  1.00  0.00     0.031 C 
ATOM     59  C   UNL A   1      45.376  27.666  34.261  1.00  0.00     0.029 A 
ATOM     60  C   UNL A   1      44.935  27.090  33.082  1.00  0.00     0.049 A 
ATOM     61  H   UNL A   1      43.268  27.605  31.891  1.00  0.00     0.167 HD
ATOM     62  C   UNL A   1      45.000  25.464  31.213  1.00  0.00     0.074 A 
ATOM     63  C   UNL A   1      45.575  24.345  30.494  1.00  0.00     0.031 C 
ATOM     64  C   UNL A   1      45.508  25.982  32.357  1.00  0.00     0.037 A 
BRANCH  51  65
ATOM     65  C   UNL A   1      42.331  30.785  34.586  1.00  0.00     0.057 A 
ATOM     66  C   UNL A   1      41.513  30.596  35.708  1.00  0.00     0.134 A 
ATOM     67  C   UNL A   1      43.123  31.940  34.555  1.00  0.00     0.134 A 
ATOM     68  F   UNL A   1      40.730  29.510  35.803  1.00  0.00    -0.206 F 
ATOM     69  C   UNL A   1      41.479  31.521  36.754  1.00  0.00     0.040 A 
ATOM     70  C   UNL A   1      43.115  32.861  35.604  1.00  0.00     0.040 A 
ATOM     71  F   UNL A   1      43.942  32.176  33.519  1.00  0.00    -0.206 F 
ATOM     72  C   UNL A   1      42.290  32.653  36.708  1.00  0.00     0.006 A 
ENDBRANCH  51  65
BRANCH  52  73
ATOM     73  C   UNL A   1      42.806  23.976  27.330  1.00  0.00     0.057 A 
ATOM     74  C   UNL A   1      43.428  24.228  26.103  1.00  0.00     0.134 A 
ATOM     75  C   UNL A   1      42.275  22.698  27.541  1.00  0.00     0.134 A 
ATOM     76  F   UNL A   1      43.946  25.437  25.844  1.00  0.00    -0.206 F 
ATOM     77  C   UNL A   1      43.518  23.243  25.119  1.00  0.00     0.040 A 
ATOM     78  C   UNL A   1      42.378  21.699  26.574  1.00  0.00     0.040 A 
ATOM     79  F   UNL A   1      41.680  22.396  28.704  1.00  0.00    -0.206 F 
ATOM     80  C   UNL A   1      43.000  21.972  25.357  1.00  0.00     0.006 A 
ENDBRANCH  52  73
BRANCH  64  81
ATOM     81  C   UNL A   1      46.744  25.340  32.913  1.00  0.00     0.057 A 
ATOM     82  C   UNL A   1      48.024  25.719  32.490  1.00  0.00     0.134 A 
ATOM     83  C   UNL A   1      46.657  24.363  33.913  1.00  0.00     0.134 A 
ATOM     84  F   UNL A   1      48.177  26.640  31.526  1.00  0.00    -0.206 F 
ATOM     85  C   UNL A   1      49.173  25.139  33.032  1.00  0.00     0.040 A 
ATOM     86  C   UNL A   1      47.798  23.793  34.478  1.00  0.00     0.040 A 
ATOM     87  F   UNL A   1      45.461  23.958  34.367  1.00  0.00    -0.206 F 
ATOM     88  C   UNL A   1      49.061  24.178  34.034  1.00  0.00     0.006 A 
ENDBRANCH  64  81
ENDBRANCH  38  39
ENDBRANCH  31  33
ENDBRANCH  30  31
ENDBRANCH  29  30
ENDBRANCH  28  29
ENDBRANCH  27  28
ENDBRANCH  26  27
ENDBRANCH   1  26
TORSDOF 19
ENDMDL
MODEL 2
REMARK VINA RESULT:      -9.5      2.010      2.625
REMARK SMILES Cc1cc(Br)c(C)c([C@@H]2[NH2+][C@H](C(=O)OCCOCCOCCOC(=O)c3ccc(-c4c5nc(c(-c6c(F)cccc6F)c6ccc([nH]6)c(-c6c(F)cccc6F)c6nc(c(-c7c(F)cccc7F)c7ccc4[nH]7)C=C6)C=C5)cc3)CS2)c1O
REMARK SMILES IDX 18 1 17 2 16 3 15 4 14 5 12 6 13 7 11 8 9 9 10 10 81 11
REMARK SMILES IDX 80 14 8 15 1 16 2 17 3 18 82 19 4 20 5 21 6 22 7 23 83 24
REMARK SMILES IDX 19 26 20 27 21 28 22 29 23 30 24 31 25 32 26 33 27 34 79 35
REMARK SMILES IDX 28 36 78 37 29 38 30 39 31 40 72 41 32 42 77 43 71 44 73 45
REMARK SMILES IDX 33 46 76 47 70 48 69 49 34 51 60 52 43 53 59 54 44 55 47 56
REMARK SMILES IDX 58 57 74 58 45 59 46 60 57 62 75 63 48 64 35 65 36 66 41 67
REMARK SMILES IDX 37 68 38 69 40 70 42 71 39 72 61 73 62 74 67 75 63 76 64 77
REMARK SMILES IDX 66 78 68 79 65 80 49 81 50 82 55 83 51 84 52 85 54 86 56 87
REMARK SMILES IDX 53 88
REMARK H PARENT 10 12 10 13 83 25 73 50 47 61
REMARK Flexibility Score: inf
ROOT
ATOM      1  C   UNL A   1      33.152  36.207  30.256  1.00  0.00     0.188 C 
ENDROOT
BRANCH   1   2
ATOM      2  O   UNL A   1      32.929  37.467  30.883  1.00  0.00    -0.376 OA
BRANCH   2   3
ATOM      3  C   UNL A   1      33.395  37.627  32.220  1.00  0.00     0.202 C 
BRANCH   3   4
ATOM      4  C   UNL A   1      33.826  36.340  32.924  1.00  0.00     0.261 C 
BRANCH   4   5
ATOM      5  O   UNL A   1      35.237  36.320  33.199  1.00  0.00    -0.459 OA
BRANCH   5   6
ATOM      6  C   UNL A   1      35.809  35.090  33.290  1.00  0.00     0.365 C 
ATOM      7  O   UNL A   1      36.688  34.817  34.107  1.00  0.00    -0.245 OA
BRANCH   6   8
ATOM      8  C   UNL A   1      35.148  34.018  32.399  1.00  0.00     0.304 C 
ATOM      9  C   UNL A   1      36.785  32.664  31.263  1.00  0.00     0.278 C 
ATOM     10  N   UNL A   1      35.786  33.732  31.080  1.00  0.00    -0.319 N 
ATOM     11  S   UNL A   1      36.133  31.518  32.491  1.00  0.00    -0.087 SA
ATOM     12  H   UNL A   1      35.077  33.427  30.414  1.00  0.00     0.348 HD
ATOM     13  H   UNL A   1      36.238  34.573  30.722  1.00  0.00     0.348 HD
ATOM     14  C   UNL A   1      34.937  32.708  33.154  1.00  0.00     0.153 C 
BRANCH   9  15
ATOM     15  C   UNL A   1      38.204  33.215  31.405  1.00  0.00     0.066 A 
ATOM     16  C   UNL A   1      40.751  33.998  34.201  1.00  0.00     0.048 C 
ATOM     17  C   UNL A   1      40.084  33.903  32.859  1.00  0.00    -0.008 A 
ATOM     18  C   UNL A   1      40.696  34.512  31.764  1.00  0.00     0.023 A 
ATOM     19  C   UNL A   1      38.876  33.221  32.654  1.00  0.00     0.128 A 
ATOM     20  C   UNL A   1      40.102  34.476  30.503  1.00  0.00     0.021 A 
ATOM     21  Br  UNL A   1      41.087  35.304  29.094  1.00  0.00    -0.051 Br
ATOM     22  C   UNL A   1      38.844  33.864  30.300  1.00  0.00    -0.023 A 
ATOM     23  C   UNL A   1      38.259  33.879  28.903  1.00  0.00     0.046 C 
BRANCH  19  24
ATOM     24  O   UNL A   1      38.302  32.556  33.705  1.00  0.00    -0.507 OA
ATOM     25  H   UNL A   1      37.372  32.564  33.811  1.00  0.00     0.293 HD
ENDBRANCH  19  24
ENDBRANCH   9  15
ENDBRANCH   6   8
ENDBRANCH   5   6
ENDBRANCH   4   5
ENDBRANCH   3   4
ENDBRANCH   2   3
ENDBRANCH   1   2
BRANCH   1  26
ATOM     26  C   UNL A   1      32.854  36.066  28.750  1.00  0.00     0.188 C 
BRANCH  26  27
ATOM     27  O   UNL A   1      32.774  34.718  28.315  1.00  0.00    -0.376 OA
BRANCH  27  28
ATOM     28  C   UNL A   1      34.020  34.064  28.145  1.00  0.00     0.202 C 
BRANCH  28  29
ATOM     29  C   UNL A   1      33.852  32.549  28.002  1.00  0.00     0.261 C 
BRANCH  29  30
ATOM     30  O   UNL A   1      34.953  31.776  28.513  1.00  0.00    -0.460 OA
BRANCH  30  31
ATOM     31  C   UNL A   1      34.942  30.445  28.281  1.00  0.00     0.338 C 
ATOM     32  O   UNL A   1      34.003  29.781  27.876  1.00  0.00    -0.246 OA
BRANCH  31  33
ATOM     33  C   UNL A   1      36.340  29.960  28.386  1.00  0.00     0.060 A 
ATOM     34  C   UNL A   1      37.209  30.029  27.292  1.00  0.00     0.016 A 
ATOM     35  C   UNL A   1      36.760  29.355  29.580  1.00  0.00     0.016 A 
ATOM     36  C   UNL A   1      38.508  29.525  27.403  1.00  0.00     0.010 A 
ATOM     37  C   UNL A   1      38.054  28.834  29.684  1.00  0.00     0.010 A 
ATOM     38  C   UNL A   1      38.945  28.941  28.606  1.00  0.00    -0.014 A 
BRANCH  38  39
ATOM     39  C   UNL A   1      40.393  28.680  28.802  1.00  0.00     0.031 A 
ATOM     40  C   UNL A   1      41.317  29.653  29.463  1.00  0.00     0.074 A 
ATOM     41  C   UNL A   1      40.860  27.494  28.368  1.00  0.00     0.049 A 
ATOM     42  N   UNL A   1      42.574  29.487  29.796  1.00  0.00    -0.248 NA
ATOM     43  C   UNL A   1      40.777  30.979  29.789  1.00  0.00     0.031 C 
ATOM     44  C   UNL A   1      40.051  26.478  27.691  1.00  0.00     0.029 A 
ATOM     45  N   UNL A   1      42.110  26.937  28.439  1.00  0.00    -0.354 N 
ATOM     46  C   UNL A   1      42.971  30.674  30.397  1.00  0.00     0.074 A 
ATOM     47  C   UNL A   1      41.833  31.569  30.339  1.00  0.00     0.031 C 
ATOM     48  C   UNL A   1      40.819  25.410  27.431  1.00  0.00     0.029 A 
ATOM     49  C   UNL A   1      42.172  25.672  27.911  1.00  0.00     0.049 A 
ATOM     50  H   UNL A   1      42.886  27.399  28.830  1.00  0.00     0.167 HD
ATOM     51  C   UNL A   1      44.169  30.972  30.959  1.00  0.00     0.037 A 
ATOM     52  C   UNL A   1      43.197  24.804  27.838  1.00  0.00     0.037 A 
ATOM     53  C   UNL A   1      45.304  30.079  30.992  1.00  0.00     0.049 A 
ATOM     54  C   UNL A   1      44.521  25.176  28.433  1.00  0.00     0.074 A 
ATOM     55  C   UNL A   1      46.544  30.284  31.575  1.00  0.00     0.029 A 
ATOM     56  N   UNL A   1      45.346  28.821  30.409  1.00  0.00    -0.354 N 
ATOM     57  N   UNL A   1      44.860  26.271  29.066  1.00  0.00    -0.248 NA
ATOM     58  C   UNL A   1      45.601  24.188  28.313  1.00  0.00     0.031 C 
ATOM     59  C   UNL A   1      47.349  29.173  31.303  1.00  0.00     0.029 A 
ATOM     60  C   UNL A   1      46.597  28.252  30.594  1.00  0.00     0.049 A 
ATOM     61  H   UNL A   1      44.596  28.395  29.933  1.00  0.00     0.167 HD
ATOM     62  C   UNL A   1      46.184  26.097  29.443  1.00  0.00     0.074 A 
ATOM     63  C   UNL A   1      46.584  24.785  28.975  1.00  0.00     0.031 C 
ATOM     64  C   UNL A   1      46.992  26.950  30.117  1.00  0.00     0.037 A 
BRANCH  51  65
ATOM     65  C   UNL A   1      44.327  32.317  31.607  1.00  0.00     0.057 A 
ATOM     66  C   UNL A   1      44.046  32.509  32.966  1.00  0.00     0.134 A 
ATOM     67  C   UNL A   1      44.863  33.402  30.900  1.00  0.00     0.134 A 
ATOM     68  F   UNL A   1      43.534  31.511  33.702  1.00  0.00    -0.206 F 
ATOM     69  C   UNL A   1      44.283  33.733  33.597  1.00  0.00     0.040 A 
ATOM     70  C   UNL A   1      45.125  34.623  31.524  1.00  0.00     0.040 A 
ATOM     71  F   UNL A   1      45.171  33.283  29.600  1.00  0.00    -0.206 F 
ATOM     72  C   UNL A   1      44.834  34.792  32.877  1.00  0.00     0.006 A 
ENDBRANCH  51  65
BRANCH  52  73
ATOM     73  C   UNL A   1      42.974  23.475  27.223  1.00  0.00     0.057 A 
ATOM     74  C   UNL A   1      42.466  22.412  27.977  1.00  0.00     0.134 A 
ATOM     75  C   UNL A   1      43.208  23.253  25.861  1.00  0.00     0.134 A 
ATOM     76  F   UNL A   1      42.232  22.567  29.288  1.00  0.00    -0.206 F 
ATOM     77  C   UNL A   1      42.201  21.171  27.398  1.00  0.00     0.040 A 
ATOM     78  C   UNL A   1      42.926  22.024  25.265  1.00  0.00     0.040 A 
ATOM     79  F   UNL A   1      43.680  24.240  25.085  1.00  0.00    -0.206 F 
ATOM     80  C   UNL A   1      42.423  20.978  26.036  1.00  0.00     0.006 A 
ENDBRANCH  52  73
BRANCH  64  81
ATOM     81  C   UNL A   1      48.392  26.490  30.401  1.00  0.00     0.057 A 
ATOM     82  C   UNL A   1      49.454  26.791  29.540  1.00  0.00     0.134 A 
ATOM     83  C   UNL A   1      48.688  25.776  31.570  1.00  0.00     0.134 A 
ATOM     84  F   UNL A   1      49.235  27.460  28.398  1.00  0.00    -0.206 F 
ATOM     85  C   UNL A   1      50.760  26.386  29.824  1.00  0.00     0.040 A 
ATOM     86  C   UNL A   1      49.993  25.386  31.875  1.00  0.00     0.040 A 
ATOM     87  F   UNL A   1      47.717  25.459  32.440  1.00  0.00    -0.206 F 
ATOM     88  C   UNL A   1      51.033  25.688  30.998  1.00  0.00     0.006 A 
ENDBRANCH  64  81
ENDBRANCH  38  39
ENDBRANCH  31  33
ENDBRANCH  30  31
ENDBRANCH  29  30
ENDBRANCH  28  29
ENDBRANCH  27  28
ENDBRANCH  26  27
ENDBRANCH   1  26
TORSDOF 19
ENDMDL
MODEL 3
REMARK VINA RESULT:      -9.4      5.518     11.232
REMARK SMILES Cc1cc(Br)c(C)c([C@@H]2[NH2+][C@H](C(=O)OCCOCCOCCOC(=O)c3ccc(-c4c5nc(c(-c6c(F)cccc6F)c6ccc([nH]6)c(-c6c(F)cccc6F)c6nc(c(-c7c(F)cccc7F)c7ccc4[nH]7)C=C6)C=C5)cc3)CS2)c1O
REMARK SMILES IDX 18 1 17 2 16 3 15 4 14 5 12 6 13 7 11 8 9 9 10 10 81 11
REMARK SMILES IDX 80 14 8 15 1 16 2 17 3 18 82 19 4 20 5 21 6 22 7 23 83 24
REMARK SMILES IDX 19 26 20 27 21 28 22 29 23 30 24 31 25 32 26 33 27 34 79 35
REMARK SMILES IDX 28 36 78 37 29 38 30 39 31 40 72 41 32 42 77 43 71 44 73 45
REMARK SMILES IDX 33 46 76 47 70 48 69 49 34 51 60 52 43 53 59 54 44 55 47 56
REMARK SMILES IDX 58 57 74 58 45 59 46 60 57 62 75 63 48 64 35 65 36 66 41 67
REMARK SMILES IDX 37 68 38 69 40 70 42 71 39 72 61 73 62 74 67 75 63 76 64 77
REMARK SMILES IDX 66 78 68 79 65 80 49 81 50 82 55 83 51 84 52 85 54 86 56 87
REMARK SMILES IDX 53 88
REMARK H PARENT 10 12 10 13 83 25 73 50 47 61
REMARK Flexibility Score: inf
ROOT
ATOM      1  C   UNL A   1      39.951  20.745  26.082  1.00  0.00     0.188 C 
ENDROOT
BRANCH   1   2
ATOM      2  O   UNL A   1      38.743  21.439  25.783  1.00  0.00    -0.376 OA
BRANCH   2   3
ATOM      3  C   UNL A   1      38.568  22.732  26.355  1.00  0.00     0.202 C 
BRANCH   3   4
ATOM      4  C   UNL A   1      37.381  23.533  25.819  1.00  0.00     0.261 C 
BRANCH   4   5
ATOM      5  O   UNL A   1      36.120  22.961  26.212  1.00  0.00    -0.459 OA
BRANCH   5   6
ATOM      6  C   UNL A   1      35.442  22.289  25.244  1.00  0.00     0.365 C 
ATOM      7  O   UNL A   1      35.711  22.385  24.047  1.00  0.00    -0.245 OA
BRANCH   6   8
ATOM      8  C   UNL A   1      34.419  21.268  25.782  1.00  0.00     0.304 C 
ATOM      9  C   UNL A   1      32.153  22.014  25.456  1.00  0.00     0.278 C 
ATOM     10  N   UNL A   1      33.206  21.805  26.465  1.00  0.00    -0.319 N 
ATOM     11  S   UNL A   1      32.290  20.687  24.246  1.00  0.00    -0.087 SA
ATOM     12  H   UNL A   1      32.882  21.138  27.166  1.00  0.00     0.348 HD
ATOM     13  H   UNL A   1      33.427  22.688  26.925  1.00  0.00     0.348 HD
ATOM     14  C   UNL A   1      33.994  20.273  24.704  1.00  0.00     0.153 C 
BRANCH   9  15
ATOM     15  C   UNL A   1      32.074  23.469  24.993  1.00  0.00     0.066 A 
ATOM     16  C   UNL A   1      30.980  26.904  26.379  1.00  0.00     0.048 C 
ATOM     17  C   UNL A   1      31.444  25.818  25.452  1.00  0.00    -0.008 A 
ATOM     18  C   UNL A   1      31.611  26.117  24.100  1.00  0.00     0.023 A 
ATOM     19  C   UNL A   1      31.727  24.515  25.886  1.00  0.00     0.128 A 
ATOM     20  C   UNL A   1      32.013  25.135  23.196  1.00  0.00     0.021 A 
ATOM     21  Br  UNL A   1      32.251  25.711  21.393  1.00  0.00    -0.051 Br
ATOM     22  C   UNL A   1      32.220  23.799  23.606  1.00  0.00    -0.023 A 
ATOM     23  C   UNL A   1      32.642  22.787  22.561  1.00  0.00     0.046 C 
BRANCH  19  24
ATOM     24  O   UNL A   1      31.639  24.226  27.222  1.00  0.00    -0.507 OA
ATOM     25  H   UNL A   1      32.393  23.920  27.685  1.00  0.00     0.293 HD
ENDBRANCH  19  24
ENDBRANCH   9  15
ENDBRANCH   6   8
ENDBRANCH   5   6
ENDBRANCH   4   5
ENDBRANCH   3   4
ENDBRANCH   2   3
ENDBRANCH   1   2
BRANCH   1  26
ATOM     26  C   UNL A   1      41.205  21.565  26.446  1.00  0.00     0.188 C 
BRANCH  26  27
ATOM     27  O   UNL A   1      42.085  21.764  25.351  1.00  0.00    -0.376 OA
BRANCH  27  28
ATOM     28  C   UNL A   1      43.465  21.699  25.667  1.00  0.00     0.202 C 
BRANCH  28  29
ATOM     29  C   UNL A   1      44.301  22.598  24.752  1.00  0.00     0.261 C 
BRANCH  29  30
ATOM     30  O   UNL A   1      43.851  23.963  24.684  1.00  0.00    -0.460 OA
BRANCH  30  31
ATOM     31  C   UNL A   1      44.685  24.919  25.151  1.00  0.00     0.338 C 
ATOM     32  O   UNL A   1      45.751  25.260  24.667  1.00  0.00    -0.246 OA
BRANCH  31  33
ATOM     33  C   UNL A   1      43.972  25.646  26.230  1.00  0.00     0.060 A 
ATOM     34  C   UNL A   1      42.906  25.053  26.914  1.00  0.00     0.016 A 
ATOM     35  C   UNL A   1      44.332  26.973  26.505  1.00  0.00     0.016 A 
ATOM     36  C   UNL A   1      42.222  25.776  27.896  1.00  0.00     0.010 A 
ATOM     37  C   UNL A   1      43.635  27.702  27.474  1.00  0.00     0.010 A 
ATOM     38  C   UNL A   1      42.594  27.099  28.196  1.00  0.00    -0.014 A 
BRANCH  38  39
ATOM     39  C   UNL A   1      42.062  27.743  29.422  1.00  0.00     0.031 A 
ATOM     40  C   UNL A   1      42.718  27.621  30.761  1.00  0.00     0.074 A 
ATOM     41  C   UNL A   1      40.942  28.478  29.283  1.00  0.00     0.049 A 
ATOM     42  N   UNL A   1      42.411  28.234  31.878  1.00  0.00    -0.248 NA
ATOM     43  C   UNL A   1      43.853  26.697  30.872  1.00  0.00     0.031 C 
ATOM     44  C   UNL A   1      40.208  28.648  28.028  1.00  0.00     0.029 A 
ATOM     45  N   UNL A   1      40.236  29.225  30.190  1.00  0.00    -0.354 N 
ATOM     46  C   UNL A   1      43.331  27.796  32.821  1.00  0.00     0.074 A 
ATOM     47  C   UNL A   1      44.178  26.826  32.154  1.00  0.00     0.031 C 
ATOM     48  C   UNL A   1      39.169  29.469  28.238  1.00  0.00     0.029 A 
ATOM     49  C   UNL A   1      39.158  29.872  29.640  1.00  0.00     0.049 A 
ATOM     50  H   UNL A   1      40.479  29.291  31.142  1.00  0.00     0.167 HD
ATOM     51  C   UNL A   1      43.461  28.185  34.114  1.00  0.00     0.037 A 
ATOM     52  C   UNL A   1      38.267  30.714  30.194  1.00  0.00     0.037 A 
ATOM     53  C   UNL A   1      42.598  29.136  34.774  1.00  0.00     0.049 A 
ATOM     54  C   UNL A   1      38.412  31.096  31.636  1.00  0.00     0.074 A 
ATOM     55  C   UNL A   1      42.680  29.619  36.070  1.00  0.00     0.029 A 
ATOM     56  N   UNL A   1      41.489  29.739  34.199  1.00  0.00    -0.354 N 
ATOM     57  N   UNL A   1      39.333  30.734  32.494  1.00  0.00    -0.248 NA
ATOM     58  C   UNL A   1      37.404  32.013  32.182  1.00  0.00     0.031 C 
ATOM     59  C   UNL A   1      41.596  30.474  36.294  1.00  0.00     0.029 A 
ATOM     60  C   UNL A   1      40.864  30.565  35.121  1.00  0.00     0.049 A 
ATOM     61  H   UNL A   1      41.189  29.600  33.271  1.00  0.00     0.167 HD
ATOM     62  C   UNL A   1      39.030  31.394  33.676  1.00  0.00     0.074 A 
ATOM     63  C   UNL A   1      37.846  32.189  33.420  1.00  0.00     0.031 C 
ATOM     64  C   UNL A   1      39.679  31.346  34.864  1.00  0.00     0.037 A 
BRANCH  51  65
ATOM     65  C   UNL A   1      44.589  27.601  34.915  1.00  0.00     0.057 A 
ATOM     66  C   UNL A   1      44.447  26.384  35.594  1.00  0.00     0.134 A 
ATOM     67  C   UNL A   1      45.856  28.199  34.923  1.00  0.00     0.134 A 
ATOM     68  F   UNL A   1      43.261  25.757  35.624  1.00  0.00    -0.206 F 
ATOM     69  C   UNL A   1      45.520  25.788  36.260  1.00  0.00     0.040 A 
ATOM     70  C   UNL A   1      46.942  27.602  35.566  1.00  0.00     0.040 A 
ATOM     71  F   UNL A   1      46.067  29.356  34.278  1.00  0.00    -0.206 F 
ATOM     72  C   UNL A   1      46.775  26.393  36.239  1.00  0.00     0.006 A 
ENDBRANCH  51  65
BRANCH  52  73
ATOM     73  C   UNL A   1      37.198  31.291  29.347  1.00  0.00     0.057 A 
ATOM     74  C   UNL A   1      36.035  30.566  29.068  1.00  0.00     0.134 A 
ATOM     75  C   UNL A   1      37.287  32.596  28.848  1.00  0.00     0.134 A 
ATOM     76  F   UNL A   1      35.900  29.309  29.514  1.00  0.00    -0.206 F 
ATOM     77  C   UNL A   1      34.997  31.118  28.317  1.00  0.00     0.040 A 
ATOM     78  C   UNL A   1      36.247  33.167  28.115  1.00  0.00     0.040 A 
ATOM     79  F   UNL A   1      38.372  33.343  29.097  1.00  0.00    -0.206 F 
ATOM     80  C   UNL A   1      35.099  32.426  27.845  1.00  0.00     0.006 A 
ENDBRANCH  52  73
BRANCH  64  81
ATOM     81  C   UNL A   1      39.131  32.183  35.981  1.00  0.00     0.057 A 
ATOM     82  C   UNL A   1      39.494  33.526  36.141  1.00  0.00     0.134 A 
ATOM     83  C   UNL A   1      38.196  31.655  36.882  1.00  0.00     0.134 A 
ATOM     84  F   UNL A   1      40.395  34.088  35.320  1.00  0.00    -0.206 F 
ATOM     85  C   UNL A   1      38.959  34.310  37.165  1.00  0.00     0.040 A 
ATOM     86  C   UNL A   1      37.638  32.435  37.895  1.00  0.00     0.040 A 
ATOM     87  F   UNL A   1      37.801  30.377  36.782  1.00  0.00    -0.206 F 
ATOM     88  C   UNL A   1      38.023  33.767  38.040  1.00  0.00     0.006 A 
ENDBRANCH  64  81
ENDBRANCH  38  39
ENDBRANCH  31  33
ENDBRANCH  30  31
ENDBRANCH  29  30
ENDBRANCH  28  29
ENDBRANCH  27  28
ENDBRANCH  26  27
ENDBRANCH   1  26
TORSDOF 19
ENDMDL
