MODEL 1
REMARK VINA RESULT:      -9.8      0.000      0.000
REMARK SMILES CCCc1ccc(C(=O)C[C@H](C)CC(=O)OCCOCCOCCOC(=O)c2ccc(-c3c4nc(c(-c5c(F)cccc5F)c5ccc([nH]5)c(-c5c(F)cccc5F)c5nc(c(-c6c(F)cccc6F)c6ccc3[nH]6)C=C5)C=C4)cc2)cc1
REMARK SMILES IDX 18 1 17 2 16 3 14 4 15 5 13 6 11 7 12 8 10 9 8 10 9 11 7 12
REMARK SMILES IDX 4 13 5 14 83 15 6 16 82 17 3 18 2 19 1 20 19 21 20 22 21 23
REMARK SMILES IDX 22 24 23 25 24 26 25 27 26 28 27 29 28 30 29 31 81 32 30 33
REMARK SMILES IDX 80 34 31 35 32 36 33 37 74 38 34 39 79 40 73 41 75 42 35 43
REMARK SMILES IDX 78 44 72 45 71 46 36 48 62 49 45 50 61 51 46 52 49 53 60 54
REMARK SMILES IDX 76 55 47 56 48 57 59 59 77 60 50 61 37 62 38 63 43 64 39 65
REMARK SMILES IDX 40 66 42 67 44 68 41 69 63 70 64 71 69 72 65 73 66 74 68 75
REMARK SMILES IDX 70 76 67 77 51 78 52 79 57 80 53 81 54 82 56 83 58 84 55 85
REMARK H PARENT 75 47 49 58
REMARK Flexibility Score: inf
ROOT
ATOM      1  C   UNL A   1      38.173  23.061  26.027  1.00  0.00     0.202 C 
ENDROOT
BRANCH   1   2
ATOM      2  C   UNL A   1      37.482  22.054  25.092  1.00  0.00     0.261 C 
BRANCH   2   3
ATOM      3  O   UNL A   1      36.138  22.437  24.721  1.00  0.00    -0.463 OA
BRANCH   3   4
ATOM      4  C   UNL A   1      35.146  21.783  25.374  1.00  0.00     0.306 C 
ATOM      5  O   UNL A   1      35.198  21.454  26.557  1.00  0.00    -0.252 OA
BRANCH   4   6
ATOM      6  C   UNL A   1      33.854  21.623  24.586  1.00  0.00     0.126 C 
BRANCH   6   7
ATOM      7  C   UNL A   1      32.918  22.783  24.178  1.00  0.00     0.005 C 
ATOM      8  C   UNL A   1      32.633  22.966  22.680  1.00  0.00     0.009 C 
BRANCH   7   9
ATOM      9  C   UNL A   1      31.617  22.863  25.052  1.00  0.00     0.085 C 
BRANCH   9  10
ATOM     10  C   UNL A   1      31.457  23.990  26.086  1.00  0.00     0.163 C 
ATOM     11  O   UNL A   1      31.149  23.751  27.251  1.00  0.00    -0.294 OA
BRANCH  10  12
ATOM     12  C   UNL A   1      31.636  25.399  25.655  1.00  0.00     0.018 A 
ATOM     13  C   UNL A   1      31.556  28.182  25.326  1.00  0.00    -0.048 A 
ATOM     14  C   UNL A   1      32.584  27.585  26.074  1.00  0.00     0.004 A 
ATOM     15  C   UNL A   1      30.601  27.354  24.734  1.00  0.00     0.004 A 
ATOM     16  C   UNL A   1      32.616  26.196  26.254  1.00  0.00     0.012 A 
ATOM     17  C   UNL A   1      30.693  25.975  24.819  1.00  0.00     0.012 A 
BRANCH  13  18
ATOM     18  C   UNL A   1      31.445  29.683  25.204  1.00  0.00     0.035 C 
BRANCH  18  19
ATOM     19  C   UNL A   1      31.855  30.470  26.461  1.00  0.00     0.001 C 
ATOM     20  C   UNL A   1      31.388  31.922  26.508  1.00  0.00     0.004 C 
ENDBRANCH  18  19
ENDBRANCH  13  18
ENDBRANCH  10  12
ENDBRANCH   9  10
ENDBRANCH   7   9
ENDBRANCH   6   7
ENDBRANCH   4   6
ENDBRANCH   3   4
ENDBRANCH   2   3
ENDBRANCH   1   2
BRANCH   1  21
ATOM     21  O   UNL A   1      39.335  22.598  26.717  1.00  0.00    -0.376 OA
BRANCH  21  22
ATOM     22  C   UNL A   1      39.895  21.371  26.268  1.00  0.00     0.188 C 
BRANCH  22  23
ATOM     23  C   UNL A   1      40.786  20.616  27.258  1.00  0.00     0.188 C 
BRANCH  23  24
ATOM     24  O   UNL A   1      42.144  20.430  26.884  1.00  0.00    -0.376 OA
BRANCH  24  25
ATOM     25  C   UNL A   1      42.593  21.183  25.752  1.00  0.00     0.202 C 
BRANCH  25  26
ATOM     26  C   UNL A   1      44.106  21.479  25.680  1.00  0.00     0.261 C 
BRANCH  26  27
ATOM     27  O   UNL A   1      44.536  22.725  26.275  1.00  0.00    -0.460 OA
BRANCH  27  28
ATOM     28  C   UNL A   1      44.281  23.875  25.608  1.00  0.00     0.338 C 
ATOM     29  O   UNL A   1      44.406  24.059  24.408  1.00  0.00    -0.246 OA
BRANCH  28  30
ATOM     30  C   UNL A   1      43.557  24.807  26.520  1.00  0.00     0.060 A 
ATOM     31  C   UNL A   1      43.950  26.155  26.537  1.00  0.00     0.016 A 
ATOM     32  C   UNL A   1      42.463  24.400  27.289  1.00  0.00     0.016 A 
ATOM     33  C   UNL A   1      43.291  27.079  27.356  1.00  0.00     0.010 A 
ATOM     34  C   UNL A   1      41.809  25.324  28.117  1.00  0.00     0.010 A 
ATOM     35  C   UNL A   1      42.242  26.661  28.186  1.00  0.00    -0.014 A 
BRANCH  35  36
ATOM     36  C   UNL A   1      41.744  27.552  29.268  1.00  0.00     0.031 A 
ATOM     37  C   UNL A   1      42.451  27.516  30.600  1.00  0.00     0.074 A 
ATOM     38  C   UNL A   1      40.713  28.399  29.092  1.00  0.00     0.049 A 
ATOM     39  N   UNL A   1      42.174  28.151  31.710  1.00  0.00    -0.248 NA
ATOM     40  C   UNL A   1      43.631  26.641  30.686  1.00  0.00     0.031 C 
ATOM     41  C   UNL A   1      39.968  28.585  27.850  1.00  0.00     0.029 A 
ATOM     42  N   UNL A   1      40.111  29.262  29.979  1.00  0.00    -0.354 N 
ATOM     43  C   UNL A   1      43.140  27.750  32.625  1.00  0.00     0.074 A 
ATOM     44  C   UNL A   1      43.988  26.791  31.951  1.00  0.00     0.031 C 
ATOM     45  C   UNL A   1      39.002  29.500  28.055  1.00  0.00     0.029 A 
ATOM     46  C   UNL A   1      39.038  29.939  29.451  1.00  0.00     0.049 A 
ATOM     47  H   UNL A   1      40.421  29.384  30.905  1.00  0.00     0.167 HD
ATOM     48  C   UNL A   1      43.319  28.150  33.906  1.00  0.00     0.037 A 
ATOM     49  C   UNL A   1      38.172  30.795  30.032  1.00  0.00     0.037 A 
ATOM     50  C   UNL A   1      42.480  29.099  34.589  1.00  0.00     0.049 A 
ATOM     51  C   UNL A   1      38.330  31.152  31.490  1.00  0.00     0.074 A 
ATOM     52  C   UNL A   1      42.586  29.563  35.888  1.00  0.00     0.029 A 
ATOM     53  N   UNL A   1      41.376  29.724  34.032  1.00  0.00    -0.354 N 
ATOM     54  N   UNL A   1      39.251  30.773  32.342  1.00  0.00    -0.248 NA
ATOM     55  C   UNL A   1      37.323  32.057  32.066  1.00  0.00     0.031 C 
ATOM     56  C   UNL A   1      41.516  30.429  36.135  1.00  0.00     0.029 A 
ATOM     57  C   UNL A   1      40.778  30.550  34.969  1.00  0.00     0.049 A 
ATOM     58  H   UNL A   1      41.062  29.599  33.107  1.00  0.00     0.167 HD
ATOM     59  C   UNL A   1      38.957  31.420  33.539  1.00  0.00     0.074 A 
ATOM     60  C   UNL A   1      37.777  32.222  33.301  1.00  0.00     0.031 C 
ATOM     61  C   UNL A   1      39.609  31.356  34.725  1.00  0.00     0.037 A 
BRANCH  48  62
ATOM     62  C   UNL A   1      44.459  27.536  34.665  1.00  0.00     0.057 A 
ATOM     63  C   UNL A   1      45.683  28.197  34.825  1.00  0.00     0.134 A 
ATOM     64  C   UNL A   1      44.320  26.279  35.267  1.00  0.00     0.134 A 
ATOM     65  F   UNL A   1      45.888  29.397  34.259  1.00  0.00    -0.206 F 
ATOM     66  C   UNL A   1      46.737  27.620  35.536  1.00  0.00     0.040 A 
ATOM     67  C   UNL A   1      45.355  25.705  36.004  1.00  0.00     0.040 A 
ATOM     68  F   UNL A   1      43.172  25.593  35.156  1.00  0.00    -0.206 F 
ATOM     69  C   UNL A   1      46.571  26.372  36.135  1.00  0.00     0.006 A 
ENDBRANCH  48  62
BRANCH  49  70
ATOM     70  C   UNL A   1      37.052  31.376  29.245  1.00  0.00     0.057 A 
ATOM     71  C   UNL A   1      35.927  30.612  28.909  1.00  0.00     0.134 A 
ATOM     72  C   UNL A   1      37.098  32.693  28.772  1.00  0.00     0.134 A 
ATOM     73  F   UNL A   1      35.839  29.332  29.302  1.00  0.00    -0.206 F 
ATOM     74  C   UNL A   1      34.899  31.130  28.118  1.00  0.00     0.040 A 
ATOM     75  C   UNL A   1      36.064  33.232  28.003  1.00  0.00     0.040 A 
ATOM     76  F   UNL A   1      38.151  33.476  29.049  1.00  0.00    -0.206 F 
ATOM     77  C   UNL A   1      34.965  32.447  27.667  1.00  0.00     0.006 A 
ENDBRANCH  49  70
BRANCH  61  78
ATOM     78  C   UNL A   1      39.098  32.211  35.852  1.00  0.00     0.057 A 
ATOM     79  C   UNL A   1      38.219  31.716  36.824  1.00  0.00     0.134 A 
ATOM     80  C   UNL A   1      39.533  33.537  35.994  1.00  0.00     0.134 A 
ATOM     81  F   UNL A   1      37.757  30.459  36.745  1.00  0.00    -0.206 F 
ATOM     82  C   UNL A   1      37.773  32.514  37.881  1.00  0.00     0.040 A 
ATOM     83  C   UNL A   1      39.117  34.334  37.061  1.00  0.00     0.040 A 
ATOM     84  F   UNL A   1      40.385  34.072  35.107  1.00  0.00    -0.206 F 
ATOM     85  C   UNL A   1      38.229  33.825  38.005  1.00  0.00     0.006 A 
ENDBRANCH  61  78
ENDBRANCH  35  36
ENDBRANCH  28  30
ENDBRANCH  27  28
ENDBRANCH  26  27
ENDBRANCH  25  26
ENDBRANCH  24  25
ENDBRANCH  23  24
ENDBRANCH  22  23
ENDBRANCH  21  22
ENDBRANCH   1  21
TORSDOF 23
ENDMDL
MODEL 2
REMARK VINA RESULT:      -9.5      4.607     10.098
REMARK SMILES CCCc1ccc(C(=O)C[C@H](C)CC(=O)OCCOCCOCCOC(=O)c2ccc(-c3c4nc(c(-c5c(F)cccc5F)c5ccc([nH]5)c(-c5c(F)cccc5F)c5nc(c(-c6c(F)cccc6F)c6ccc3[nH]6)C=C5)C=C4)cc2)cc1
REMARK SMILES IDX 18 1 17 2 16 3 14 4 15 5 13 6 11 7 12 8 10 9 8 10 9 11 7 12
REMARK SMILES IDX 4 13 5 14 83 15 6 16 82 17 3 18 2 19 1 20 19 21 20 22 21 23
REMARK SMILES IDX 22 24 23 25 24 26 25 27 26 28 27 29 28 30 29 31 81 32 30 33
REMARK SMILES IDX 80 34 31 35 32 36 33 37 74 38 34 39 79 40 73 41 75 42 35 43
REMARK SMILES IDX 78 44 72 45 71 46 36 48 62 49 45 50 61 51 46 52 49 53 60 54
REMARK SMILES IDX 76 55 47 56 48 57 59 59 77 60 50 61 37 62 38 63 43 64 39 65
REMARK SMILES IDX 40 66 42 67 44 68 41 69 63 70 64 71 69 72 65 73 66 74 68 75
REMARK SMILES IDX 70 76 67 77 51 78 52 79 57 80 53 81 54 82 56 83 58 84 55 85
REMARK H PARENT 75 47 49 58
REMARK Flexibility Score: inf
ROOT
ATOM      1  C   UNL A   1      34.731  30.068  27.630  1.00  0.00     0.202 C 
ENDROOT
BRANCH   1   2
ATOM      2  C   UNL A   1      33.507  30.137  26.700  1.00  0.00     0.261 C 
BRANCH   2   3
ATOM      3  O   UNL A   1      32.363  29.404  27.195  1.00  0.00    -0.463 OA
BRANCH   3   4
ATOM      4  C   UNL A   1      32.127  28.216  26.587  1.00  0.00     0.306 C 
ATOM      5  O   UNL A   1      31.281  27.406  26.960  1.00  0.00    -0.252 OA
BRANCH   4   6
ATOM      6  C   UNL A   1      32.869  28.006  25.275  1.00  0.00     0.126 C 
BRANCH   6   7
ATOM      7  C   UNL A   1      33.482  26.664  24.812  1.00  0.00     0.005 C 
ATOM      8  C   UNL A   1      33.936  25.682  25.903  1.00  0.00     0.009 C 
BRANCH   7   9
ATOM      9  C   UNL A   1      32.652  25.964  23.680  1.00  0.00     0.085 C 
BRANCH   9  10
ATOM     10  C   UNL A   1      33.343  24.983  22.718  1.00  0.00     0.163 C 
ATOM     11  O   UNL A   1      33.813  25.359  21.647  1.00  0.00    -0.294 OA
BRANCH  10  12
ATOM     12  C   UNL A   1      33.406  23.544  23.074  1.00  0.00     0.018 A 
ATOM     13  C   UNL A   1      33.457  21.049  24.354  1.00  0.00    -0.048 A 
ATOM     14  C   UNL A   1      32.261  21.543  23.808  1.00  0.00     0.004 A 
ATOM     15  C   UNL A   1      34.614  21.818  24.218  1.00  0.00     0.004 A 
ATOM     16  C   UNL A   1      32.230  22.795  23.182  1.00  0.00     0.012 A 
ATOM     17  C   UNL A   1      34.608  23.006  23.506  1.00  0.00     0.012 A 
BRANCH  13  18
ATOM     18  C   UNL A   1      33.492  19.749  25.121  1.00  0.00     0.035 C 
BRANCH  18  19
ATOM     19  C   UNL A   1      33.540  18.481  24.250  1.00  0.00     0.001 C 
ATOM     20  C   UNL A   1      34.865  17.724  24.266  1.00  0.00     0.004 C 
ENDBRANCH  18  19
ENDBRANCH  13  18
ENDBRANCH  10  12
ENDBRANCH   9  10
ENDBRANCH   7   9
ENDBRANCH   6   7
ENDBRANCH   4   6
ENDBRANCH   3   4
ENDBRANCH   2   3
ENDBRANCH   1   2
BRANCH   1  21
ATOM     21  O   UNL A   1      35.327  31.314  27.993  1.00  0.00    -0.376 OA
BRANCH  21  22
ATOM     22  C   UNL A   1      34.463  32.441  28.047  1.00  0.00     0.188 C 
BRANCH  22  23
ATOM     23  C   UNL A   1      34.155  33.009  29.435  1.00  0.00     0.188 C 
BRANCH  23  24
ATOM     24  O   UNL A   1      35.028  34.018  29.923  1.00  0.00    -0.376 OA
BRANCH  24  25
ATOM     25  C   UNL A   1      34.697  34.572  31.201  1.00  0.00     0.202 C 
BRANCH  25  26
ATOM     26  C   UNL A   1      34.231  33.573  32.282  1.00  0.00     0.261 C 
BRANCH  26  27
ATOM     27  O   UNL A   1      35.051  32.392  32.446  1.00  0.00    -0.460 OA
BRANCH  27  28
ATOM     28  C   UNL A   1      36.262  32.529  33.034  1.00  0.00     0.338 C 
ATOM     29  O   UNL A   1      36.481  32.984  34.144  1.00  0.00    -0.246 OA
BRANCH  28  30
ATOM     30  C   UNL A   1      37.272  31.783  32.229  1.00  0.00     0.060 A 
ATOM     31  C   UNL A   1      38.210  30.992  32.912  1.00  0.00     0.016 A 
ATOM     32  C   UNL A   1      37.264  31.787  30.830  1.00  0.00     0.016 A 
ATOM     33  C   UNL A   1      39.166  30.252  32.207  1.00  0.00     0.010 A 
ATOM     34  C   UNL A   1      38.229  31.053  30.125  1.00  0.00     0.010 A 
ATOM     35  C   UNL A   1      39.210  30.310  30.808  1.00  0.00    -0.014 A 
BRANCH  35  36
ATOM     36  C   UNL A   1      40.391  29.782  30.074  1.00  0.00     0.031 A 
ATOM     37  C   UNL A   1      41.556  30.711  29.839  1.00  0.00     0.074 A 
ATOM     38  C   UNL A   1      40.466  28.510  29.641  1.00  0.00     0.049 A 
ATOM     39  N   UNL A   1      42.669  30.506  29.181  1.00  0.00    -0.248 NA
ATOM     40  C   UNL A   1      41.445  32.054  30.429  1.00  0.00     0.031 C 
ATOM     41  C   UNL A   1      39.446  27.484  29.839  1.00  0.00     0.029 A 
ATOM     42  N   UNL A   1      41.455  27.870  28.931  1.00  0.00    -0.354 N 
ATOM     43  C   UNL A   1      43.386  31.693  29.274  1.00  0.00     0.074 A 
ATOM     44  C   UNL A   1      42.568  32.624  30.021  1.00  0.00     0.031 C 
ATOM     45  C   UNL A   1      39.859  26.342  29.258  1.00  0.00     0.029 A 
ATOM     46  C   UNL A   1      41.155  26.566  28.616  1.00  0.00     0.049 A 
ATOM     47  H   UNL A   1      42.300  28.305  28.673  1.00  0.00     0.167 HD
ATOM     48  C   UNL A   1      44.618  31.983  28.797  1.00  0.00     0.037 A 
ATOM     49  C   UNL A   1      41.838  25.665  27.879  1.00  0.00     0.037 A 
ATOM     50  C   UNL A   1      45.440  31.069  28.049  1.00  0.00     0.049 A 
ATOM     51  C   UNL A   1      43.167  26.042  27.270  1.00  0.00     0.074 A 
ATOM     52  C   UNL A   1      46.703  31.278  27.524  1.00  0.00     0.029 A 
ATOM     53  N   UNL A   1      45.078  29.774  27.712  1.00  0.00    -0.354 N 
ATOM     54  N   UNL A   1      43.838  27.163  27.372  1.00  0.00    -0.248 NA
ATOM     55  C   UNL A   1      43.831  25.024  26.442  1.00  0.00     0.031 C 
ATOM     56  C   UNL A   1      47.085  30.128  26.824  1.00  0.00     0.029 A 
ATOM     57  C   UNL A   1      46.084  29.182  26.965  1.00  0.00     0.049 A 
ATOM     58  H   UNL A   1      44.231  29.340  27.965  1.00  0.00     0.167 HD
ATOM     59  C   UNL A   1      45.015  26.972  26.655  1.00  0.00     0.074 A 
ATOM     60  C   UNL A   1      44.971  25.625  26.130  1.00  0.00     0.031 C 
ATOM     61  C   UNL A   1      46.041  27.836  26.454  1.00  0.00     0.037 A 
BRANCH  48  62
ATOM     62  C   UNL A   1      45.145  33.366  29.048  1.00  0.00     0.057 A 
ATOM     63  C   UNL A   1      45.907  33.673  30.182  1.00  0.00     0.134 A 
ATOM     64  C   UNL A   1      44.910  34.397  28.129  1.00  0.00     0.134 A 
ATOM     65  F   UNL A   1      46.155  32.736  31.110  1.00  0.00    -0.206 F 
ATOM     66  C   UNL A   1      46.396  34.961  30.407  1.00  0.00     0.040 A 
ATOM     67  C   UNL A   1      45.417  35.681  28.328  1.00  0.00     0.040 A 
ATOM     68  F   UNL A   1      44.190  34.170  27.019  1.00  0.00    -0.206 F 
ATOM     69  C   UNL A   1      46.157  35.968  29.473  1.00  0.00     0.006 A 
ENDBRANCH  48  62
BRANCH  49  70
ATOM     70  C   UNL A   1      41.277  24.307  27.648  1.00  0.00     0.057 A 
ATOM     71  C   UNL A   1      41.763  23.193  28.343  1.00  0.00     0.134 A 
ATOM     72  C   UNL A   1      40.274  24.083  26.697  1.00  0.00     0.134 A 
ATOM     73  F   UNL A   1      42.749  23.335  29.242  1.00  0.00    -0.206 F 
ATOM     74  C   UNL A   1      41.287  21.905  28.088  1.00  0.00     0.040 A 
ATOM     75  C   UNL A   1      39.769  22.805  26.452  1.00  0.00     0.040 A 
ATOM     76  F   UNL A   1      39.770  25.106  25.990  1.00  0.00    -0.206 F 
ATOM     77  C   UNL A   1      40.281  21.710  27.143  1.00  0.00     0.006 A 
ENDBRANCH  49  70
BRANCH  61  78
ATOM     78  C   UNL A   1      47.228  27.344  25.673  1.00  0.00     0.057 A 
ATOM     79  C   UNL A   1      48.287  26.657  26.281  1.00  0.00     0.134 A 
ATOM     80  C   UNL A   1      47.288  27.518  24.283  1.00  0.00     0.134 A 
ATOM     81  F   UNL A   1      48.299  26.463  27.608  1.00  0.00    -0.206 F 
ATOM     82  C   UNL A   1      49.372  26.182  25.539  1.00  0.00     0.040 A 
ATOM     83  C   UNL A   1      48.351  27.022  23.527  1.00  0.00     0.040 A 
ATOM     84  F   UNL A   1      46.302  28.155  23.634  1.00  0.00    -0.206 F 
ATOM     85  C   UNL A   1      49.401  26.358  24.156  1.00  0.00     0.006 A 
ENDBRANCH  61  78
ENDBRANCH  35  36
ENDBRANCH  28  30
ENDBRANCH  27  28
ENDBRANCH  26  27
ENDBRANCH  25  26
ENDBRANCH  24  25
ENDBRANCH  23  24
ENDBRANCH  22  23
ENDBRANCH  21  22
ENDBRANCH   1  21
TORSDOF 23
ENDMDL
MODEL 3
REMARK VINA RESULT:      -9.3      1.271      6.207
REMARK SMILES CCCc1ccc(C(=O)C[C@H](C)CC(=O)OCCOCCOCCOC(=O)c2ccc(-c3c4nc(c(-c5c(F)cccc5F)c5ccc([nH]5)c(-c5c(F)cccc5F)c5nc(c(-c6c(F)cccc6F)c6ccc3[nH]6)C=C5)C=C4)cc2)cc1
REMARK SMILES IDX 18 1 17 2 16 3 14 4 15 5 13 6 11 7 12 8 10 9 8 10 9 11 7 12
REMARK SMILES IDX 4 13 5 14 83 15 6 16 82 17 3 18 2 19 1 20 19 21 20 22 21 23
REMARK SMILES IDX 22 24 23 25 24 26 25 27 26 28 27 29 28 30 29 31 81 32 30 33
REMARK SMILES IDX 80 34 31 35 32 36 33 37 74 38 34 39 79 40 73 41 75 42 35 43
REMARK SMILES IDX 78 44 72 45 71 46 36 48 62 49 45 50 61 51 46 52 49 53 60 54
REMARK SMILES IDX 76 55 47 56 48 57 59 59 77 60 50 61 37 62 38 63 43 64 39 65
REMARK SMILES IDX 40 66 42 67 44 68 41 69 63 70 64 71 69 72 65 73 66 74 68 75
REMARK SMILES IDX 70 76 67 77 51 78 52 79 57 80 53 81 54 82 56 83 58 84 55 85
REMARK H PARENT 75 47 49 58
REMARK Flexibility Score: inf
ROOT
ATOM      1  C   UNL A   1      38.117  24.010  26.306  1.00  0.00     0.202 C 
ENDROOT
BRANCH   1   2
ATOM      2  C   UNL A   1      37.023  23.128  25.679  1.00  0.00     0.261 C 
BRANCH   2   3
ATOM      3  O   UNL A   1      35.874  22.935  26.534  1.00  0.00    -0.463 OA
BRANCH   3   4
ATOM      4  C   UNL A   1      34.751  22.502  25.911  1.00  0.00     0.306 C 
ATOM      5  O   UNL A   1      34.705  21.515  25.181  1.00  0.00    -0.252 OA
BRANCH   4   6
ATOM      6  C   UNL A   1      33.474  23.227  26.310  1.00  0.00     0.126 C 
BRANCH   6   7
ATOM      7  C   UNL A   1      33.258  24.754  26.214  1.00  0.00     0.005 C 
ATOM      8  C   UNL A   1      34.002  25.504  25.099  1.00  0.00     0.009 C 
BRANCH   7   9
ATOM      9  C   UNL A   1      31.748  25.172  26.314  1.00  0.00     0.085 C 
BRANCH   9  10
ATOM     10  C   UNL A   1      30.882  25.223  25.045  1.00  0.00     0.163 C 
ATOM     11  O   UNL A   1      30.667  24.217  24.374  1.00  0.00    -0.294 OA
BRANCH  10  12
ATOM     12  C   UNL A   1      30.328  26.526  24.599  1.00  0.00     0.018 A 
ATOM     13  C   UNL A   1      29.587  28.840  23.199  1.00  0.00    -0.048 A 
ATOM     14  C   UNL A   1      28.715  27.741  23.267  1.00  0.00     0.004 A 
ATOM     15  C   UNL A   1      30.811  28.756  23.865  1.00  0.00     0.004 A 
ATOM     16  C   UNL A   1      29.090  26.578  23.952  1.00  0.00     0.012 A 
ATOM     17  C   UNL A   1      31.137  27.651  24.633  1.00  0.00     0.012 A 
BRANCH  13  18
ATOM     18  C   UNL A   1      29.245  30.063  22.382  1.00  0.00     0.035 C 
BRANCH  18  19
ATOM     19  C   UNL A   1      28.916  31.323  23.201  1.00  0.00     0.001 C 
ATOM     20  C   UNL A   1      27.465  31.450  23.656  1.00  0.00     0.004 C 
ENDBRANCH  18  19
ENDBRANCH  13  18
ENDBRANCH  10  12
ENDBRANCH   9  10
ENDBRANCH   7   9
ENDBRANCH   6   7
ENDBRANCH   4   6
ENDBRANCH   3   4
ENDBRANCH   2   3
ENDBRANCH   1   2
BRANCH   1  21
ATOM     21  O   UNL A   1      39.365  23.376  26.587  1.00  0.00    -0.376 OA
BRANCH  21  22
ATOM     22  C   UNL A   1      39.501  22.024  26.168  1.00  0.00     0.188 C 
BRANCH  22  23
ATOM     23  C   UNL A   1      40.683  21.239  26.743  1.00  0.00     0.188 C 
BRANCH  23  24
ATOM     24  O   UNL A   1      41.785  21.015  25.875  1.00  0.00    -0.376 OA
BRANCH  24  25
ATOM     25  C   UNL A   1      42.465  22.186  25.407  1.00  0.00     0.202 C 
BRANCH  25  26
ATOM     26  C   UNL A   1      43.999  22.204  25.582  1.00  0.00     0.261 C 
BRANCH  26  27
ATOM     27  O   UNL A   1      44.539  23.336  26.302  1.00  0.00    -0.460 OA
BRANCH  27  28
ATOM     28  C   UNL A   1      44.343  24.574  25.791  1.00  0.00     0.338 C 
ATOM     29  O   UNL A   1      44.479  24.905  24.624  1.00  0.00    -0.246 OA
BRANCH  28  30
ATOM     30  C   UNL A   1      43.666  25.416  26.819  1.00  0.00     0.060 A 
ATOM     31  C   UNL A   1      44.099  26.742  26.979  1.00  0.00     0.016 A 
ATOM     32  C   UNL A   1      42.578  24.954  27.565  1.00  0.00     0.016 A 
ATOM     33  C   UNL A   1      43.486  27.584  27.912  1.00  0.00     0.010 A 
ATOM     34  C   UNL A   1      41.969  25.795  28.508  1.00  0.00     0.010 A 
ATOM     35  C   UNL A   1      42.443  27.104  28.715  1.00  0.00    -0.014 A 
BRANCH  35  36
ATOM     36  C   UNL A   1      41.995  27.880  29.903  1.00  0.00     0.031 A 
ATOM     37  C   UNL A   1      40.778  28.758  29.762  1.00  0.00     0.074 A 
ATOM     38  C   UNL A   1      42.616  27.803  31.095  1.00  0.00     0.049 A 
ATOM     39  N   UNL A   1      40.227  29.569  30.629  1.00  0.00    -0.248 NA
ATOM     40  C   UNL A   1      40.092  28.713  28.460  1.00  0.00     0.031 C 
ATOM     41  C   UNL A   1      43.769  26.959  31.399  1.00  0.00     0.029 A 
ATOM     42  N   UNL A   1      42.359  28.461  32.275  1.00  0.00    -0.354 N 
ATOM     43  C   UNL A   1      39.135  30.133  29.977  1.00  0.00     0.074 A 
ATOM     44  C   UNL A   1      39.123  29.598  28.633  1.00  0.00     0.031 C 
ATOM     45  C   UNL A   1      44.124  27.156  32.682  1.00  0.00     0.029 A 
ATOM     46  C   UNL A   1      43.249  28.164  33.280  1.00  0.00     0.049 A 
ATOM     47  H   UNL A   1      41.607  29.086  32.389  1.00  0.00     0.167 HD
ATOM     48  C   UNL A   1      38.216  31.004  30.454  1.00  0.00     0.037 A 
ATOM     49  C   UNL A   1      43.356  28.664  34.528  1.00  0.00     0.037 A 
ATOM     50  C   UNL A   1      38.220  31.547  31.787  1.00  0.00     0.049 A 
ATOM     51  C   UNL A   1      42.379  29.711  35.007  1.00  0.00     0.074 A 
ATOM     52  C   UNL A   1      37.327  32.438  32.356  1.00  0.00     0.029 A 
ATOM     53  N   UNL A   1      39.166  31.256  32.757  1.00  0.00    -0.354 N 
ATOM     54  N   UNL A   1      41.348  30.230  34.386  1.00  0.00    -0.248 NA
ATOM     55  C   UNL A   1      42.586  30.242  36.363  1.00  0.00     0.031 C 
ATOM     56  C   UNL A   1      37.763  32.728  33.654  1.00  0.00     0.029 A 
ATOM     57  C   UNL A   1      38.892  31.970  33.912  1.00  0.00     0.049 A 
ATOM     58  H   UNL A   1      39.921  30.635  32.642  1.00  0.00     0.167 HD
ATOM     59  C   UNL A   1      40.764  31.116  35.286  1.00  0.00     0.074 A 
ATOM     60  C   UNL A   1      41.551  31.059  36.499  1.00  0.00     0.031 C 
ATOM     61  C   UNL A   1      39.672  31.902  35.122  1.00  0.00     0.037 A 
BRANCH  48  62
ATOM     62  C   UNL A   1      37.137  31.449  29.511  1.00  0.00     0.057 A 
ATOM     63  C   UNL A   1      37.165  32.706  28.893  1.00  0.00     0.134 A 
ATOM     64  C   UNL A   1      36.069  30.599  29.196  1.00  0.00     0.134 A 
ATOM     65  F   UNL A   1      38.151  33.576  29.165  1.00  0.00    -0.206 F 
ATOM     66  C   UNL A   1      36.159  33.111  28.015  1.00  0.00     0.040 A 
ATOM     67  C   UNL A   1      35.073  30.981  28.298  1.00  0.00     0.040 A 
ATOM     68  F   UNL A   1      35.983  29.379  29.749  1.00  0.00    -0.206 F 
ATOM     69  C   UNL A   1      35.112  32.243  27.709  1.00  0.00     0.006 A 
ENDBRANCH  48  62
BRANCH  49  70
ATOM     70  C   UNL A   1      44.445  28.201  35.429  1.00  0.00     0.057 A 
ATOM     71  C   UNL A   1      44.196  27.282  36.456  1.00  0.00     0.134 A 
ATOM     72  C   UNL A   1      45.748  28.699  35.315  1.00  0.00     0.134 A 
ATOM     73  F   UNL A   1      42.960  26.794  36.641  1.00  0.00    -0.206 F 
ATOM     74  C   UNL A   1      45.198  26.889  37.347  1.00  0.00     0.040 A 
ATOM     75  C   UNL A   1      46.766  28.294  36.181  1.00  0.00     0.040 A 
ATOM     76  F   UNL A   1      46.052  29.589  34.359  1.00  0.00    -0.206 F 
ATOM     77  C   UNL A   1      46.490  27.392  37.206  1.00  0.00     0.006 A 
ENDBRANCH  49  70
BRANCH  61  78
ATOM     78  C   UNL A   1      39.225  32.734  36.292  1.00  0.00     0.057 A 
ATOM     79  C   UNL A   1      38.374  32.229  37.284  1.00  0.00     0.134 A 
ATOM     80  C   UNL A   1      39.692  34.046  36.453  1.00  0.00     0.134 A 
ATOM     81  F   UNL A   1      37.882  30.984  37.189  1.00  0.00    -0.206 F 
ATOM     82  C   UNL A   1      37.988  33.004  38.380  1.00  0.00     0.040 A 
ATOM     83  C   UNL A   1      39.337  34.820  37.559  1.00  0.00     0.040 A 
ATOM     84  F   UNL A   1      40.520  34.589  35.548  1.00  0.00    -0.206 F 
ATOM     85  C   UNL A   1      38.477  34.302  38.523  1.00  0.00     0.006 A 
ENDBRANCH  61  78
ENDBRANCH  35  36
ENDBRANCH  28  30
ENDBRANCH  27  28
ENDBRANCH  26  27
ENDBRANCH  25  26
ENDBRANCH  24  25
ENDBRANCH  23  24
ENDBRANCH  22  23
ENDBRANCH  21  22
ENDBRANCH   1  21
TORSDOF 23
ENDMDL
