MODEL 1
REMARK VINA RESULT:      -9.8      0.000      0.000
REMARK SMILES O=C(CC1CCN(S(=O)(=O)c2cc[nH]c2)CC1)OCCOCCOCCOC(=O)c1ccc(-c2c3nc(c(-c4c(F)cccc4F)c4ccc([nH]4)c(-c4c(F)cccc4F)c4nc(c(-c5c(F)cccc5F)c5ccc2[nH]5)C=C4)C=C3)cc1
REMARK SMILES IDX 22 1 21 2 20 3 19 4 18 5 2 6 1 7 3 8 4 9 5 10 17 11 6 12
REMARK SMILES IDX 16 13 7 14 8 15 9 16 10 17 11 18 12 19 15 20 13 21 14 22
REMARK SMILES IDX 23 24 24 25 25 26 26 27 27 28 28 29 29 30 30 31 31 32 83 33
REMARK SMILES IDX 32 34 82 35 33 36 34 37 35 38 76 39 36 40 81 41 75 42 77 43
REMARK SMILES IDX 37 44 80 45 74 46 73 47 38 49 64 50 47 51 63 52 48 53 51 54
REMARK SMILES IDX 62 55 78 56 49 57 50 58 61 60 79 61 52 62 39 63 40 64 45 65
REMARK SMILES IDX 41 66 42 67 44 68 46 69 43 70 65 71 66 72 71 73 67 74 68 75
REMARK SMILES IDX 70 76 72 77 69 78 53 79 54 80 59 81 55 82 56 83 58 84 60 85
REMARK SMILES IDX 57 86
REMARK H PARENT 14 23 77 48 51 59
REMARK Flexibility Score: inf
ROOT
ATOM      1  C   UNL A   1      34.233  33.224  28.009  1.00  0.00     0.188 C 
ENDROOT
BRANCH   1   2
ATOM      2  O   UNL A   1      33.770  31.921  28.356  1.00  0.00    -0.376 OA
BRANCH   2   3
ATOM      3  C   UNL A   1      33.597  31.028  27.267  1.00  0.00     0.202 C 
BRANCH   3   4
ATOM      4  C   UNL A   1      32.139  30.703  26.976  1.00  0.00     0.261 C 
BRANCH   4   5
ATOM      5  O   UNL A   1      31.902  29.314  26.723  1.00  0.00    -0.463 OA
BRANCH   5   6
ATOM      6  C   UNL A   1      31.578  28.950  25.455  1.00  0.00     0.306 C 
ATOM      7  O   UNL A   1      31.074  29.753  24.677  1.00  0.00    -0.252 OA
BRANCH   6   8
ATOM      8  C   UNL A   1      31.675  27.469  25.126  1.00  0.00     0.126 C 
BRANCH   8   9
ATOM      9  C   UNL A   1      32.430  26.614  26.164  1.00  0.00     0.003 C 
ATOM     10  C   UNL A   1      33.883  26.350  25.720  1.00  0.00     0.021 C 
ATOM     11  C   UNL A   1      31.806  25.240  26.437  1.00  0.00     0.021 C 
ATOM     12  C   UNL A   1      33.982  25.385  24.536  1.00  0.00     0.103 C 
ATOM     13  C   UNL A   1      31.864  24.310  25.226  1.00  0.00     0.103 C 
ATOM     14  N   UNL A   1      33.275  24.097  24.823  1.00  0.00    -0.198 NA
BRANCH  14  15
ATOM     15  S   UNL A   1      33.487  22.974  23.533  1.00  0.00     0.244 S 
ATOM     16  O   UNL A   1      32.192  22.811  22.877  1.00  0.00    -0.207 OA
ATOM     17  O   UNL A   1      34.657  23.351  22.794  1.00  0.00    -0.207 OA
BRANCH  15  18
ATOM     18  C   UNL A   1      33.826  21.400  24.170  1.00  0.00     0.100 A 
ATOM     19  C   UNL A   1      32.923  20.300  24.181  1.00  0.00     0.041 A 
ATOM     20  C   UNL A   1      35.005  20.964  24.747  1.00  0.00     0.104 A 
ATOM     21  C   UNL A   1      33.569  19.243  24.779  1.00  0.00     0.083 A 
ATOM     22  N   UNL A   1      34.840  19.651  25.105  1.00  0.00    -0.366 N 
ATOM     23  H   UNL A   1      35.526  19.088  25.530  1.00  0.00     0.165 HD
ENDBRANCH  15  18
ENDBRANCH  14  15
ENDBRANCH   8   9
ENDBRANCH   6   8
ENDBRANCH   5   6
ENDBRANCH   4   5
ENDBRANCH   3   4
ENDBRANCH   2   3
ENDBRANCH   1   2
BRANCH   1  24
ATOM     24  C   UNL A   1      33.462  34.407  28.613  1.00  0.00     0.188 C 
BRANCH  24  25
ATOM     25  O   UNL A   1      33.937  35.056  29.791  1.00  0.00    -0.376 OA
BRANCH  25  26
ATOM     26  C   UNL A   1      34.187  34.333  30.989  1.00  0.00     0.202 C 
BRANCH  26  27
ATOM     27  C   UNL A   1      35.642  34.131  31.358  1.00  0.00     0.261 C 
BRANCH  27  28
ATOM     28  O   UNL A   1      36.099  32.870  30.885  1.00  0.00    -0.460 OA
BRANCH  28  29
ATOM     29  C   UNL A   1      36.044  31.894  31.810  1.00  0.00     0.338 C 
ATOM     30  O   UNL A   1      35.921  32.018  33.017  1.00  0.00    -0.246 OA
BRANCH  29  31
ATOM     31  C   UNL A   1      36.400  30.613  31.192  1.00  0.00     0.060 A 
ATOM     32  C   UNL A   1      37.105  29.765  32.048  1.00  0.00     0.016 A 
ATOM     33  C   UNL A   1      36.643  30.673  29.813  1.00  0.00     0.016 A 
ATOM     34  C   UNL A   1      38.282  29.232  31.582  1.00  0.00     0.010 A 
ATOM     35  C   UNL A   1      37.846  30.189  29.363  1.00  0.00     0.010 A 
ATOM     36  C   UNL A   1      38.681  29.535  30.276  1.00  0.00    -0.014 A 
BRANCH  36  37
ATOM     37  C   UNL A   1      39.983  29.031  29.846  1.00  0.00     0.031 A 
ATOM     38  C   UNL A   1      40.993  30.163  29.806  1.00  0.00     0.074 A 
ATOM     39  C   UNL A   1      40.027  27.714  29.492  1.00  0.00     0.049 A 
ATOM     40  N   UNL A   1      42.041  30.310  29.062  1.00  0.00    -0.248 NA
ATOM     41  C   UNL A   1      40.755  31.363  30.662  1.00  0.00     0.031 C 
ATOM     42  C   UNL A   1      38.895  26.768  29.619  1.00  0.00     0.029 A 
ATOM     43  N   UNL A   1      41.000  26.905  28.948  1.00  0.00    -0.354 N 
ATOM     44  C   UNL A   1      42.684  31.479  29.499  1.00  0.00     0.074 A 
ATOM     45  C   UNL A   1      41.783  32.157  30.376  1.00  0.00     0.031 C 
ATOM     46  C   UNL A   1      39.219  25.562  29.108  1.00  0.00     0.029 A 
ATOM     47  C   UNL A   1      40.580  25.592  28.608  1.00  0.00     0.049 A 
ATOM     48  H   UNL A   1      41.923  27.216  28.805  1.00  0.00     0.167 HD
ATOM     49  C   UNL A   1      43.987  31.755  29.237  1.00  0.00     0.037 A 
ATOM     50  C   UNL A   1      41.269  24.618  27.935  1.00  0.00     0.037 A 
ATOM     51  C   UNL A   1      44.560  30.757  28.400  1.00  0.00     0.049 A 
ATOM     52  C   UNL A   1      42.619  25.170  27.738  1.00  0.00     0.074 A 
ATOM     53  C   UNL A   1      44.419  30.481  27.066  1.00  0.00     0.029 A 
ATOM     54  N   UNL A   1      45.122  29.668  29.023  1.00  0.00    -0.354 N 
ATOM     55  N   UNL A   1      43.502  25.307  28.679  1.00  0.00    -0.248 NA
ATOM     56  C   UNL A   1      42.992  25.684  26.415  1.00  0.00     0.031 C 
ATOM     57  C   UNL A   1      44.551  29.078  26.981  1.00  0.00     0.029 A 
ATOM     58  C   UNL A   1      44.874  28.563  28.241  1.00  0.00     0.049 A 
ATOM     59  H   UNL A   1      45.614  29.677  29.875  1.00  0.00     0.167 HD
ATOM     60  C   UNL A   1      44.377  26.223  28.141  1.00  0.00     0.074 A 
ATOM     61  C   UNL A   1      44.195  26.170  26.709  1.00  0.00     0.031 C 
ATOM     62  C   UNL A   1      44.794  27.273  28.894  1.00  0.00     0.037 A 
BRANCH  49  63
ATOM     63  C   UNL A   1      44.880  32.778  29.854  1.00  0.00     0.057 A 
ATOM     64  C   UNL A   1      45.329  33.849  29.057  1.00  0.00     0.134 A 
ATOM     65  C   UNL A   1      45.535  32.602  31.080  1.00  0.00     0.134 A 
ATOM     66  F   UNL A   1      44.751  34.116  27.875  1.00  0.00    -0.206 F 
ATOM     67  C   UNL A   1      46.419  34.641  29.417  1.00  0.00     0.040 A 
ATOM     68  C   UNL A   1      46.602  33.419  31.470  1.00  0.00     0.040 A 
ATOM     69  F   UNL A   1      45.228  31.587  31.899  1.00  0.00    -0.206 F 
ATOM     70  C   UNL A   1      47.068  34.418  30.623  1.00  0.00     0.006 A 
ENDBRANCH  49  63
BRANCH  50  71
ATOM     71  C   UNL A   1      41.009  23.257  27.324  1.00  0.00     0.057 A 
ATOM     72  C   UNL A   1      41.789  22.110  27.488  1.00  0.00     0.134 A 
ATOM     73  C   UNL A   1      39.827  23.035  26.560  1.00  0.00     0.134 A 
ATOM     74  F   UNL A   1      42.978  22.147  28.094  1.00  0.00    -0.206 F 
ATOM     75  C   UNL A   1      41.384  20.840  27.021  1.00  0.00     0.040 A 
ATOM     76  C   UNL A   1      39.395  21.778  26.125  1.00  0.00     0.040 A 
ATOM     77  F   UNL A   1      39.016  24.040  26.201  1.00  0.00    -0.206 F 
ATOM     78  C   UNL A   1      40.170  20.664  26.370  1.00  0.00     0.006 A 
ENDBRANCH  50  71
BRANCH  62  79
ATOM     79  C   UNL A   1      44.678  27.020  30.388  1.00  0.00     0.057 A 
ATOM     80  C   UNL A   1      45.489  26.062  31.011  1.00  0.00     0.134 A 
ATOM     81  C   UNL A   1      43.677  27.577  31.198  1.00  0.00     0.134 A 
ATOM     82  F   UNL A   1      46.486  25.477  30.329  1.00  0.00    -0.206 F 
ATOM     83  C   UNL A   1      45.287  25.660  32.339  1.00  0.00     0.040 A 
ATOM     84  C   UNL A   1      43.465  27.195  32.529  1.00  0.00     0.040 A 
ATOM     85  F   UNL A   1      42.858  28.511  30.724  1.00  0.00    -0.206 F 
ATOM     86  C   UNL A   1      44.266  26.219  33.101  1.00  0.00     0.006 A 
ENDBRANCH  62  79
ENDBRANCH  36  37
ENDBRANCH  29  31
ENDBRANCH  28  29
ENDBRANCH  27  28
ENDBRANCH  26  27
ENDBRANCH  25  26
ENDBRANCH  24  25
ENDBRANCH   1  24
TORSDOF 20
ENDMDL
MODEL 2
REMARK VINA RESULT:      -9.7      3.610      8.511
REMARK SMILES O=C(CC1CCN(S(=O)(=O)c2cc[nH]c2)CC1)OCCOCCOCCOC(=O)c1ccc(-c2c3nc(c(-c4c(F)cccc4F)c4ccc([nH]4)c(-c4c(F)cccc4F)c4nc(c(-c5c(F)cccc5F)c5ccc2[nH]5)C=C4)C=C3)cc1
REMARK SMILES IDX 22 1 21 2 20 3 19 4 18 5 2 6 1 7 3 8 4 9 5 10 17 11 6 12
REMARK SMILES IDX 16 13 7 14 8 15 9 16 10 17 11 18 12 19 15 20 13 21 14 22
REMARK SMILES IDX 23 24 24 25 25 26 26 27 27 28 28 29 29 30 30 31 31 32 83 33
REMARK SMILES IDX 32 34 82 35 33 36 34 37 35 38 76 39 36 40 81 41 75 42 77 43
REMARK SMILES IDX 37 44 80 45 74 46 73 47 38 49 64 50 47 51 63 52 48 53 51 54
REMARK SMILES IDX 62 55 78 56 49 57 50 58 61 60 79 61 52 62 39 63 40 64 45 65
REMARK SMILES IDX 41 66 42 67 44 68 46 69 43 70 65 71 66 72 71 73 67 74 68 75
REMARK SMILES IDX 70 76 72 77 69 78 53 79 54 80 59 81 55 82 56 83 58 84 60 85
REMARK SMILES IDX 57 86
REMARK H PARENT 14 23 77 48 51 59
REMARK Flexibility Score: inf
ROOT
ATOM      1  C   UNL A   1      42.330  19.016  26.765  1.00  0.00     0.188 C 
ENDROOT
BRANCH   1   2
ATOM      2  O   UNL A   1      41.234  19.780  27.264  1.00  0.00    -0.376 OA
BRANCH   2   3
ATOM      3  C   UNL A   1      40.291  20.197  26.290  1.00  0.00     0.202 C 
BRANCH   3   4
ATOM      4  C   UNL A   1      39.875  21.654  26.433  1.00  0.00     0.261 C 
BRANCH   4   5
ATOM      5  O   UNL A   1      38.542  21.916  25.983  1.00  0.00    -0.463 OA
BRANCH   5   6
ATOM      6  C   UNL A   1      38.050  23.169  26.164  1.00  0.00     0.306 C 
ATOM      7  O   UNL A   1      38.785  24.094  26.497  1.00  0.00    -0.252 OA
BRANCH   6   8
ATOM      8  C   UNL A   1      36.537  23.317  26.141  1.00  0.00     0.126 C 
BRANCH   8   9
ATOM      9  C   UNL A   1      35.991  24.310  25.095  1.00  0.00     0.003 C 
ATOM     10  C   UNL A   1      34.584  24.808  25.480  1.00  0.00     0.021 C 
ATOM     11  C   UNL A   1      35.875  23.744  23.674  1.00  0.00     0.021 C 
ATOM     12  C   UNL A   1      33.506  23.731  25.334  1.00  0.00     0.103 C 
ATOM     13  C   UNL A   1      34.834  22.631  23.562  1.00  0.00     0.103 C 
ATOM     14  N   UNL A   1      33.501  23.148  23.956  1.00  0.00    -0.198 NA
BRANCH  14  15
ATOM     15  S   UNL A   1      32.214  22.018  23.766  1.00  0.00     0.244 S 
ATOM     16  O   UNL A   1      31.033  22.587  24.411  1.00  0.00    -0.207 OA
ATOM     17  O   UNL A   1      32.185  21.593  22.396  1.00  0.00    -0.207 OA
BRANCH  15  18
ATOM     18  C   UNL A   1      32.540  20.591  24.690  1.00  0.00     0.100 A 
ATOM     19  C   UNL A   1      32.376  19.253  24.232  1.00  0.00     0.041 A 
ATOM     20  C   UNL A   1      33.012  20.521  25.988  1.00  0.00     0.104 A 
ATOM     21  C   UNL A   1      32.732  18.418  25.266  1.00  0.00     0.083 A 
ATOM     22  N   UNL A   1      33.133  19.197  26.324  1.00  0.00    -0.366 N 
ATOM     23  H   UNL A   1      33.458  18.858  27.189  1.00  0.00     0.165 HD
ENDBRANCH  15  18
ENDBRANCH  14  15
ENDBRANCH   8   9
ENDBRANCH   6   8
ENDBRANCH   5   6
ENDBRANCH   4   5
ENDBRANCH   3   4
ENDBRANCH   2   3
ENDBRANCH   1   2
BRANCH   1  24
ATOM     24  C   UNL A   1      43.191  19.683  25.682  1.00  0.00     0.188 C 
BRANCH  24  25
ATOM     25  O   UNL A   1      43.612  21.038  25.824  1.00  0.00    -0.376 OA
BRANCH  25  26
ATOM     26  C   UNL A   1      44.380  21.688  24.821  1.00  0.00     0.202 C 
BRANCH  26  27
ATOM     27  C   UNL A   1      43.959  23.098  24.463  1.00  0.00     0.261 C 
BRANCH  27  28
ATOM     28  O   UNL A   1      42.792  23.462  25.190  1.00  0.00    -0.460 OA
BRANCH  28  29
ATOM     29  C   UNL A   1      42.683  24.784  25.411  1.00  0.00     0.338 C 
ATOM     30  O   UNL A   1      42.490  25.664  24.589  1.00  0.00    -0.246 OA
BRANCH  29  31
ATOM     31  C   UNL A   1      43.075  25.083  26.792  1.00  0.00     0.060 A 
ATOM     32  C   UNL A   1      42.099  24.741  27.729  1.00  0.00     0.016 A 
ATOM     33  C   UNL A   1      43.909  26.200  26.938  1.00  0.00     0.016 A 
ATOM     34  C   UNL A   1      41.724  25.704  28.633  1.00  0.00     0.010 A 
ATOM     35  C   UNL A   1      43.498  27.185  27.802  1.00  0.00     0.010 A 
ATOM     36  C   UNL A   1      42.366  26.948  28.589  1.00  0.00    -0.014 A 
BRANCH  36  37
ATOM     37  C   UNL A   1      41.878  27.980  29.500  1.00  0.00     0.031 A 
ATOM     38  C   UNL A   1      42.631  27.912  30.816  1.00  0.00     0.074 A 
ATOM     39  C   UNL A   1      40.824  28.722  29.051  1.00  0.00     0.049 A 
ATOM     40  N   UNL A   1      42.244  28.238  32.007  1.00  0.00    -0.248 NA
ATOM     41  C   UNL A   1      43.993  27.303  30.828  1.00  0.00     0.031 C 
ATOM     42  C   UNL A   1      40.238  28.622  27.697  1.00  0.00     0.029 A 
ATOM     43  N   UNL A   1      40.027  29.687  29.625  1.00  0.00    -0.354 N 
ATOM     44  C   UNL A   1      43.357  28.080  32.848  1.00  0.00     0.074 A 
ATOM     45  C   UNL A   1      44.352  27.371  32.107  1.00  0.00     0.031 C 
ATOM     46  C   UNL A   1      39.157  29.421  27.582  1.00  0.00     0.029 A 
ATOM     47  C   UNL A   1      38.933  30.123  28.831  1.00  0.00     0.049 A 
ATOM     48  H   UNL A   1      40.203  30.051  30.522  1.00  0.00     0.167 HD
ATOM     49  C   UNL A   1      43.462  28.675  34.064  1.00  0.00     0.037 A 
ATOM     50  C   UNL A   1      37.902  30.957  29.175  1.00  0.00     0.037 A 
ATOM     51  C   UNL A   1      42.272  29.386  34.387  1.00  0.00     0.049 A 
ATOM     52  C   UNL A   1      38.227  31.430  30.530  1.00  0.00     0.074 A 
ATOM     53  C   UNL A   1      41.026  28.968  34.772  1.00  0.00     0.029 A 
ATOM     54  N   UNL A   1      42.195  30.694  33.974  1.00  0.00    -0.354 N 
ATOM     55  N   UNL A   1      39.164  32.285  30.806  1.00  0.00    -0.248 NA
ATOM     56  C   UNL A   1      37.515  30.853  31.676  1.00  0.00     0.031 C 
ATOM     57  C   UNL A   1      40.147  29.925  34.221  1.00  0.00     0.029 A 
ATOM     58  C   UNL A   1      40.890  30.945  33.616  1.00  0.00     0.049 A 
ATOM     59  H   UNL A   1      42.940  31.337  33.941  1.00  0.00     0.167 HD
ATOM     60  C   UNL A   1      39.375  32.079  32.150  1.00  0.00     0.074 A 
ATOM     61  C   UNL A   1      38.176  31.454  32.661  1.00  0.00     0.031 C 
ATOM     62  C   UNL A   1      40.644  31.966  32.618  1.00  0.00     0.037 A 
BRANCH  49  63
ATOM     63  C   UNL A   1      44.662  28.846  34.932  1.00  0.00     0.057 A 
ATOM     64  C   UNL A   1      45.735  29.623  34.454  1.00  0.00     0.134 A 
ATOM     65  C   UNL A   1      44.923  28.061  36.063  1.00  0.00     0.134 A 
ATOM     66  F   UNL A   1      45.581  30.427  33.389  1.00  0.00    -0.206 F 
ATOM     67  C   UNL A   1      47.012  29.557  35.011  1.00  0.00     0.040 A 
ATOM     68  C   UNL A   1      46.190  28.021  36.657  1.00  0.00     0.040 A 
ATOM     69  F   UNL A   1      43.994  27.244  36.578  1.00  0.00    -0.206 F 
ATOM     70  C   UNL A   1      47.245  28.742  36.110  1.00  0.00     0.006 A 
ENDBRANCH  49  63
BRANCH  50  71
ATOM     71  C   UNL A   1      36.582  31.428  28.602  1.00  0.00     0.057 A 
ATOM     72  C   UNL A   1      35.499  30.624  28.238  1.00  0.00     0.134 A 
ATOM     73  C   UNL A   1      36.323  32.822  28.467  1.00  0.00     0.134 A 
ATOM     74  F   UNL A   1      35.589  29.292  28.209  1.00  0.00    -0.206 F 
ATOM     75  C   UNL A   1      34.244  31.156  27.870  1.00  0.00     0.040 A 
ATOM     76  C   UNL A   1      35.076  33.365  28.141  1.00  0.00     0.040 A 
ATOM     77  F   UNL A   1      37.279  33.743  28.658  1.00  0.00    -0.206 F 
ATOM     78  C   UNL A   1      34.018  32.527  27.854  1.00  0.00     0.006 A 
ENDBRANCH  50  71
BRANCH  62  79
ATOM     79  C   UNL A   1      41.676  32.611  31.710  1.00  0.00     0.057 A 
ATOM     80  C   UNL A   1      41.720  34.004  31.562  1.00  0.00     0.134 A 
ATOM     81  C   UNL A   1      42.520  31.891  30.851  1.00  0.00     0.134 A 
ATOM     82  F   UNL A   1      40.962  34.788  32.344  1.00  0.00    -0.206 F 
ATOM     83  C   UNL A   1      42.522  34.630  30.596  1.00  0.00     0.040 A 
ATOM     84  C   UNL A   1      43.333  32.497  29.886  1.00  0.00     0.040 A 
ATOM     85  F   UNL A   1      42.579  30.563  30.911  1.00  0.00    -0.206 F 
ATOM     86  C   UNL A   1      43.326  33.876  29.747  1.00  0.00     0.006 A 
ENDBRANCH  62  79
ENDBRANCH  36  37
ENDBRANCH  29  31
ENDBRANCH  28  29
ENDBRANCH  27  28
ENDBRANCH  26  27
ENDBRANCH  25  26
ENDBRANCH  24  25
ENDBRANCH   1  24
TORSDOF 20
ENDMDL
MODEL 3
REMARK VINA RESULT:      -9.6      1.457      2.449
REMARK SMILES O=C(CC1CCN(S(=O)(=O)c2cc[nH]c2)CC1)OCCOCCOCCOC(=O)c1ccc(-c2c3nc(c(-c4c(F)cccc4F)c4ccc([nH]4)c(-c4c(F)cccc4F)c4nc(c(-c5c(F)cccc5F)c5ccc2[nH]5)C=C4)C=C3)cc1
REMARK SMILES IDX 22 1 21 2 20 3 19 4 18 5 2 6 1 7 3 8 4 9 5 10 17 11 6 12
REMARK SMILES IDX 16 13 7 14 8 15 9 16 10 17 11 18 12 19 15 20 13 21 14 22
REMARK SMILES IDX 23 24 24 25 25 26 26 27 27 28 28 29 29 30 30 31 31 32 83 33
REMARK SMILES IDX 32 34 82 35 33 36 34 37 35 38 76 39 36 40 81 41 75 42 77 43
REMARK SMILES IDX 37 44 80 45 74 46 73 47 38 49 64 50 47 51 63 52 48 53 51 54
REMARK SMILES IDX 62 55 78 56 49 57 50 58 61 60 79 61 52 62 39 63 40 64 45 65
REMARK SMILES IDX 41 66 42 67 44 68 46 69 43 70 65 71 66 72 71 73 67 74 68 75
REMARK SMILES IDX 70 76 72 77 69 78 53 79 54 80 59 81 55 82 56 83 58 84 60 85
REMARK SMILES IDX 57 86
REMARK H PARENT 14 23 77 48 51 59
REMARK Flexibility Score: inf
ROOT
ATOM      1  C   UNL A   1      34.213  34.479  30.158  1.00  0.00     0.188 C 
ENDROOT
BRANCH   1   2
ATOM      2  O   UNL A   1      33.070  34.344  29.315  1.00  0.00    -0.376 OA
BRANCH   2   3
ATOM      3  C   UNL A   1      33.326  33.809  28.027  1.00  0.00     0.202 C 
BRANCH   3   4
ATOM      4  C   UNL A   1      34.352  32.685  28.030  1.00  0.00     0.261 C 
BRANCH   4   5
ATOM      5  O   UNL A   1      33.769  31.378  27.996  1.00  0.00    -0.463 OA
BRANCH   5   6
ATOM      6  C   UNL A   1      34.580  30.334  27.684  1.00  0.00     0.306 C 
ATOM      7  O   UNL A   1      35.768  30.510  27.432  1.00  0.00    -0.252 OA
BRANCH   6   8
ATOM      8  C   UNL A   1      33.904  28.991  27.460  1.00  0.00     0.126 C 
BRANCH   8   9
ATOM      9  C   UNL A   1      32.455  29.063  26.941  1.00  0.00     0.003 C 
ATOM     10  C   UNL A   1      31.725  27.719  27.129  1.00  0.00     0.021 C 
ATOM     11  C   UNL A   1      32.324  29.420  25.455  1.00  0.00     0.021 C 
ATOM     12  C   UNL A   1      32.234  26.624  26.188  1.00  0.00     0.103 C 
ATOM     13  C   UNL A   1      32.889  28.341  24.533  1.00  0.00     0.103 C 
ATOM     14  N   UNL A   1      32.172  27.062  24.759  1.00  0.00    -0.198 NA
BRANCH  14  15
ATOM     15  S   UNL A   1      32.639  25.786  23.699  1.00  0.00     0.244 S 
ATOM     16  O   UNL A   1      31.426  25.070  23.314  1.00  0.00    -0.207 OA
ATOM     17  O   UNL A   1      33.535  26.321  22.715  1.00  0.00    -0.207 OA
BRANCH  15  18
ATOM     18  C   UNL A   1      33.556  24.602  24.569  1.00  0.00     0.100 A 
ATOM     19  C   UNL A   1      34.800  24.835  25.221  1.00  0.00     0.041 A 
ATOM     20  C   UNL A   1      33.230  23.275  24.777  1.00  0.00     0.104 A 
ATOM     21  C   UNL A   1      35.199  23.644  25.783  1.00  0.00     0.083 A 
ATOM     22  N   UNL A   1      34.230  22.705  25.523  1.00  0.00    -0.366 N 
ATOM     23  H   UNL A   1      34.251  21.769  25.824  1.00  0.00     0.165 HD
ENDBRANCH  15  18
ENDBRANCH  14  15
ENDBRANCH   8   9
ENDBRANCH   6   8
ENDBRANCH   5   6
ENDBRANCH   4   5
ENDBRANCH   3   4
ENDBRANCH   2   3
ENDBRANCH   1   2
BRANCH   1  24
ATOM     24  C   UNL A   1      34.038  35.346  31.414  1.00  0.00     0.188 C 
BRANCH  24  25
ATOM     25  O   UNL A   1      33.829  34.740  32.688  1.00  0.00    -0.376 OA
BRANCH  25  26
ATOM     26  C   UNL A   1      34.749  34.920  33.757  1.00  0.00     0.202 C 
BRANCH  26  27
ATOM     27  C   UNL A   1      36.208  34.682  33.431  1.00  0.00     0.261 C 
BRANCH  27  28
ATOM     28  O   UNL A   1      36.386  33.380  32.888  1.00  0.00    -0.460 OA
BRANCH  28  29
ATOM     29  C   UNL A   1      37.312  33.321  31.915  1.00  0.00     0.338 C 
ATOM     30  O   UNL A   1      37.882  34.253  31.371  1.00  0.00    -0.246 OA
BRANCH  29  31
ATOM     31  C   UNL A   1      37.392  31.952  31.397  1.00  0.00     0.060 A 
ATOM     32  C   UNL A   1      38.037  31.070  32.266  1.00  0.00     0.016 A 
ATOM     33  C   UNL A   1      37.496  31.856  30.003  1.00  0.00     0.016 A 
ATOM     34  C   UNL A   1      39.058  30.309  31.752  1.00  0.00     0.010 A 
ATOM     35  C   UNL A   1      38.553  31.141  29.497  1.00  0.00     0.010 A 
ATOM     36  C   UNL A   1      39.363  30.432  30.391  1.00  0.00    -0.014 A 
BRANCH  36  37
ATOM     37  C   UNL A   1      40.515  29.681  29.898  1.00  0.00     0.031 A 
ATOM     38  C   UNL A   1      41.716  30.600  29.763  1.00  0.00     0.074 A 
ATOM     39  C   UNL A   1      40.286  28.374  29.582  1.00  0.00     0.049 A 
ATOM     40  N   UNL A   1      42.722  30.531  28.952  1.00  0.00    -0.248 NA
ATOM     41  C   UNL A   1      41.765  31.838  30.595  1.00  0.00     0.031 C 
ATOM     42  C   UNL A   1      39.007  27.664  29.807  1.00  0.00     0.029 A 
ATOM     43  N   UNL A   1      41.051  27.385  29.005  1.00  0.00    -0.354 N 
ATOM     44  C   UNL A   1      43.601  31.564  29.314  1.00  0.00     0.074 A 
ATOM     45  C   UNL A   1      42.903  32.417  30.223  1.00  0.00     0.031 C 
ATOM     46  C   UNL A   1      39.063  26.409  29.314  1.00  0.00     0.029 A 
ATOM     47  C   UNL A   1      40.370  26.170  28.732  1.00  0.00     0.049 A 
ATOM     48  H   UNL A   1      42.005  27.511  28.797  1.00  0.00     0.167 HD
ATOM     49  C   UNL A   1      44.913  31.582  28.965  1.00  0.00     0.037 A 
ATOM     50  C   UNL A   1      40.817  25.070  28.047  1.00  0.00     0.037 A 
ATOM     51  C   UNL A   1      45.231  30.477  28.126  1.00  0.00     0.049 A 
ATOM     52  C   UNL A   1      42.231  25.351  27.753  1.00  0.00     0.074 A 
ATOM     53  C   UNL A   1      44.954  30.209  26.812  1.00  0.00     0.029 A 
ATOM     54  N   UNL A   1      45.617  29.313  28.746  1.00  0.00    -0.354 N 
ATOM     55  N   UNL A   1      43.184  25.335  28.634  1.00  0.00    -0.248 NA
ATOM     56  C   UNL A   1      42.607  25.761  26.394  1.00  0.00     0.031 C 
ATOM     57  C   UNL A   1      44.812  28.805  26.762  1.00  0.00     0.029 A 
ATOM     58  C   UNL A   1      45.114  28.261  28.015  1.00  0.00     0.049 A 
ATOM     59  H   UNL A   1      46.157  29.244  29.566  1.00  0.00     0.167 HD
ATOM     60  C   UNL A   1      44.179  26.057  28.016  1.00  0.00     0.074 A 
ATOM     61  C   UNL A   1      43.897  26.014  26.599  1.00  0.00     0.031 C 
ATOM     62  C   UNL A   1      44.835  27.022  28.710  1.00  0.00     0.037 A 
BRANCH  49  63
ATOM     63  C   UNL A   1      46.021  32.427  29.496  1.00  0.00     0.057 A 
ATOM     64  C   UNL A   1      46.475  32.195  30.809  1.00  0.00     0.134 A 
ATOM     65  C   UNL A   1      46.450  33.618  28.894  1.00  0.00     0.134 A 
ATOM     66  F   UNL A   1      46.140  31.072  31.465  1.00  0.00    -0.206 F 
ATOM     67  C   UNL A   1      47.235  33.130  31.511  1.00  0.00     0.040 A 
ATOM     68  C   UNL A   1      47.249  34.543  29.575  1.00  0.00     0.040 A 
ATOM     69  F   UNL A   1      46.041  33.968  27.667  1.00  0.00    -0.206 F 
ATOM     70  C   UNL A   1      47.614  34.316  30.898  1.00  0.00     0.006 A 
ENDBRANCH  49  63
BRANCH  50  71
ATOM     71  C   UNL A   1      40.265  23.773  27.496  1.00  0.00     0.057 A 
ATOM     72  C   UNL A   1      39.171  23.633  26.638  1.00  0.00     0.134 A 
ATOM     73  C   UNL A   1      40.925  22.543  27.777  1.00  0.00     0.134 A 
ATOM     74  F   UNL A   1      38.375  24.662  26.338  1.00  0.00    -0.206 F 
ATOM     75  C   UNL A   1      38.826  22.403  26.037  1.00  0.00     0.040 A 
ATOM     76  C   UNL A   1      40.619  21.325  27.160  1.00  0.00     0.040 A 
ATOM     77  F   UNL A   1      41.922  22.461  28.669  1.00  0.00    -0.206 F 
ATOM     78  C   UNL A   1      39.570  21.253  26.268  1.00  0.00     0.006 A 
ENDBRANCH  50  71
BRANCH  62  79
ATOM     79  C   UNL A   1      44.771  26.824  30.215  1.00  0.00     0.057 A 
ATOM     80  C   UNL A   1      45.447  25.755  30.820  1.00  0.00     0.134 A 
ATOM     81  C   UNL A   1      43.930  27.558  31.065  1.00  0.00     0.134 A 
ATOM     82  F   UNL A   1      46.287  24.996  30.099  1.00  0.00    -0.206 F 
ATOM     83  C   UNL A   1      45.263  25.421  32.169  1.00  0.00     0.040 A 
ATOM     84  C   UNL A   1      43.739  27.245  32.416  1.00  0.00     0.040 A 
ATOM     85  F   UNL A   1      43.251  28.607  30.609  1.00  0.00    -0.206 F 
ATOM     86  C   UNL A   1      44.400  26.160  32.971  1.00  0.00     0.006 A 
ENDBRANCH  62  79
ENDBRANCH  36  37
ENDBRANCH  29  31
ENDBRANCH  28  29
ENDBRANCH  27  28
ENDBRANCH  26  27
ENDBRANCH  25  26
ENDBRANCH  24  25
ENDBRANCH   1  24
TORSDOF 20
ENDMDL
