MODEL 1
REMARK VINA RESULT:     -10.6      0.000      0.000
REMARK SMILES O=C(OCCOCCOCCOC(=O)c1cncc(Nc2cccnc2)n1)c1ccc(-c2c3nc(c(-c4c(F)cccc4F)c4ccc([nH]4)c(-c4c(F)cccc4F)c4nc(c(-c5c(F)cccc5F)c5ccc2[nH]5)C=C4)C=C3)cc1
REMARK SMILES IDX 7 1 6 2 5 3 4 4 3 5 2 6 1 7 28 8 29 9 81 10 30 11 80 12
REMARK SMILES IDX 31 13 32 14 33 15 74 16 34 17 79 18 73 19 75 20 35 21 78 22
REMARK SMILES IDX 72 23 71 24 36 26 62 27 45 28 61 29 46 30 49 31 60 32 76 33
REMARK SMILES IDX 47 34 48 35 59 37 77 38 50 39 37 40 38 41 43 42 39 43 40 44
REMARK SMILES IDX 42 45 44 46 41 47 63 48 64 49 69 50 65 51 66 52 68 53 70 54
REMARK SMILES IDX 67 55 51 56 52 57 57 58 53 59 54 60 56 61 58 62 55 63 8 64
REMARK SMILES IDX 9 65 10 66 11 67 12 68 13 69 14 70 15 71 16 72 27 73 17 74
REMARK SMILES IDX 19 75 18 76 20 77 21 79 22 80 26 81 23 82 25 83 24 84
REMARK H PARENT 75 25 49 36 20 78
REMARK Flexibility Score: inf
ROOT
ATOM      1  C   UNL A   1      33.116  29.617  27.024  1.00  0.00     0.188 C 
ENDROOT
BRANCH   1   2
ATOM      2  O   UNL A   1      32.522  30.520  26.080  1.00  0.00    -0.376 OA
BRANCH   2   3
ATOM      3  C   UNL A   1      31.520  31.368  26.651  1.00  0.00     0.202 C 
BRANCH   3   4
ATOM      4  C   UNL A   1      31.804  32.871  26.510  1.00  0.00     0.261 C 
BRANCH   4   5
ATOM      5  O   UNL A   1      32.064  33.498  27.777  1.00  0.00    -0.460 OA
BRANCH   5   6
ATOM      6  C   UNL A   1      33.202  34.110  28.192  1.00  0.00     0.338 C 
ATOM      7  O   UNL A   1      33.235  35.339  28.219  1.00  0.00    -0.246 OA
BRANCH   6   8
ATOM      8  C   UNL A   1      34.416  33.376  28.665  1.00  0.00     0.060 A 
ATOM      9  C   UNL A   1      34.429  32.050  29.094  1.00  0.00     0.016 A 
ATOM     10  C   UNL A   1      35.644  34.064  28.626  1.00  0.00     0.016 A 
ATOM     11  C   UNL A   1      35.582  31.467  29.601  1.00  0.00     0.010 A 
ATOM     12  C   UNL A   1      36.828  33.456  29.060  1.00  0.00     0.010 A 
ATOM     13  C   UNL A   1      36.790  32.163  29.589  1.00  0.00    -0.014 A 
BRANCH  13  14
ATOM     14  C   UNL A   1      37.964  31.518  30.217  1.00  0.00     0.031 A 
ATOM     15  C   UNL A   1      38.252  31.780  31.664  1.00  0.00     0.074 A 
ATOM     16  C   UNL A   1      38.650  30.585  29.533  1.00  0.00     0.049 A 
ATOM     17  N   UNL A   1      39.185  31.271  32.423  1.00  0.00    -0.248 NA
ATOM     18  C   UNL A   1      37.353  32.717  32.358  1.00  0.00     0.031 C 
ATOM     19  C   UNL A   1      38.368  30.181  28.156  1.00  0.00     0.029 A 
ATOM     20  N   UNL A   1      39.690  29.777  29.908  1.00  0.00    -0.354 N 
ATOM     21  C   UNL A   1      38.985  31.820  33.681  1.00  0.00     0.074 A 
ATOM     22  C   UNL A   1      37.860  32.724  33.581  1.00  0.00     0.031 C 
ATOM     23  C   UNL A   1      39.201  29.191  27.806  1.00  0.00     0.029 A 
ATOM     24  C   UNL A   1      40.106  28.923  28.914  1.00  0.00     0.049 A 
ATOM     25  H   UNL A   1      40.101  29.805  30.802  1.00  0.00     0.167 HD
ATOM     26  C   UNL A   1      39.677  31.583  34.819  1.00  0.00     0.037 A 
ATOM     27  C   UNL A   1      41.117  28.037  28.897  1.00  0.00     0.037 A 
ATOM     28  C   UNL A   1      40.803  30.694  34.898  1.00  0.00     0.049 A 
ATOM     29  C   UNL A   1      41.935  27.871  30.144  1.00  0.00     0.074 A 
ATOM     30  C   UNL A   1      41.633  30.440  35.974  1.00  0.00     0.029 A 
ATOM     31  N   UNL A   1      41.254  29.907  33.846  1.00  0.00    -0.354 N 
ATOM     32  N   UNL A   1      41.775  28.442  31.315  1.00  0.00    -0.248 NA
ATOM     33  C   UNL A   1      43.074  26.948  30.074  1.00  0.00     0.031 C 
ATOM     34  C   UNL A   1      42.607  29.521  35.563  1.00  0.00     0.029 A 
ATOM     35  C   UNL A   1      42.358  29.174  34.244  1.00  0.00     0.049 A 
ATOM     36  H   UNL A   1      40.847  29.875  32.950  1.00  0.00     0.167 HD
ATOM     37  C   UNL A   1      42.786  27.944  32.122  1.00  0.00     0.074 A 
ATOM     38  C   UNL A   1      43.535  27.001  31.315  1.00  0.00     0.031 C 
ATOM     39  C   UNL A   1      43.078  28.246  33.411  1.00  0.00     0.037 A 
BRANCH  26  40
ATOM     40  C   UNL A   1      39.249  32.337  36.040  1.00  0.00     0.057 A 
ATOM     41  C   UNL A   1      38.307  31.816  36.938  1.00  0.00     0.134 A 
ATOM     42  C   UNL A   1      39.762  33.612  36.308  1.00  0.00     0.134 A 
ATOM     43  F   UNL A   1      37.756  30.612  36.721  1.00  0.00    -0.206 F 
ATOM     44  C   UNL A   1      37.878  32.545  38.048  1.00  0.00     0.040 A 
ATOM     45  C   UNL A   1      39.354  34.342  37.424  1.00  0.00     0.040 A 
ATOM     46  F   UNL A   1      40.659  34.170  35.482  1.00  0.00    -0.206 F 
ATOM     47  C   UNL A   1      38.405  33.812  38.295  1.00  0.00     0.006 A 
ENDBRANCH  26  40
BRANCH  27  48
ATOM     48  C   UNL A   1      41.434  27.280  27.657  1.00  0.00     0.057 A 
ATOM     49  C   UNL A   1      40.949  25.986  27.441  1.00  0.00     0.134 A 
ATOM     50  C   UNL A   1      42.252  27.834  26.662  1.00  0.00     0.134 A 
ATOM     51  F   UNL A   1      40.176  25.392  28.361  1.00  0.00    -0.206 F 
ATOM     52  C   UNL A   1      41.284  25.261  26.294  1.00  0.00     0.040 A 
ATOM     53  C   UNL A   1      42.570  27.134  25.498  1.00  0.00     0.040 A 
ATOM     54  F   UNL A   1      42.752  29.071  26.808  1.00  0.00    -0.206 F 
ATOM     55  C   UNL A   1      42.092  25.837  25.316  1.00  0.00     0.006 A 
ENDBRANCH  27  48
BRANCH  39  56
ATOM     56  C   UNL A   1      44.250  27.534  34.013  1.00  0.00     0.057 A 
ATOM     57  C   UNL A   1      45.536  28.087  33.981  1.00  0.00     0.134 A 
ATOM     58  C   UNL A   1      44.086  26.297  34.645  1.00  0.00     0.134 A 
ATOM     59  F   UNL A   1      45.757  29.262  33.374  1.00  0.00    -0.206 F 
ATOM     60  C   UNL A   1      46.626  27.419  34.539  1.00  0.00     0.040 A 
ATOM     61  C   UNL A   1      45.164  25.631  35.227  1.00  0.00     0.040 A 
ATOM     62  F   UNL A   1      42.876  25.720  34.712  1.00  0.00    -0.206 F 
ATOM     63  C   UNL A   1      46.440  26.190  35.168  1.00  0.00     0.006 A 
ENDBRANCH  39  56
ENDBRANCH  13  14
ENDBRANCH   6   8
ENDBRANCH   5   6
ENDBRANCH   4   5
ENDBRANCH   3   4
ENDBRANCH   2   3
ENDBRANCH   1   2
BRANCH   1  64
ATOM     64  C   UNL A   1      33.307  28.224  26.417  1.00  0.00     0.188 C 
BRANCH  64  65
ATOM     65  O   UNL A   1      32.260  27.792  25.543  1.00  0.00    -0.376 OA
BRANCH  65  66
ATOM     66  C   UNL A   1      31.079  27.285  26.157  1.00  0.00     0.202 C 
BRANCH  66  67
ATOM     67  C   UNL A   1      30.800  25.793  25.958  1.00  0.00     0.261 C 
BRANCH  67  68
ATOM     68  O   UNL A   1      31.523  24.918  26.842  1.00  0.00    -0.458 OA
BRANCH  68  69
ATOM     69  C   UNL A   1      31.139  23.615  26.778  1.00  0.00     0.358 C 
ATOM     70  O   UNL A   1      30.265  23.075  27.440  1.00  0.00    -0.244 OA
BRANCH  69  71
ATOM     71  C   UNL A   1      32.057  22.824  25.940  1.00  0.00     0.169 A 
ATOM     72  C   UNL A   1      33.375  23.250  25.932  1.00  0.00     0.147 A 
ATOM     73  N   UNL A   1      31.636  21.667  25.347  1.00  0.00    -0.220 NA
ATOM     74  N   UNL A   1      34.352  22.557  25.315  1.00  0.00    -0.258 NA
ATOM     75  C   UNL A   1      32.615  20.925  24.769  1.00  0.00     0.149 A 
ATOM     76  C   UNL A   1      33.939  21.395  24.746  1.00  0.00     0.158 A 
BRANCH  75  77
ATOM     77  N   UNL A   1      32.261  19.701  24.185  1.00  0.00    -0.338 N 
ATOM     78  H   UNL A   1      31.525  19.747  23.532  1.00  0.00     0.168 HD
BRANCH  77  79
ATOM     79  C   UNL A   1      32.795  18.420  24.388  1.00  0.00     0.058 A 
ATOM     80  C   UNL A   1      33.465  17.715  23.381  1.00  0.00     0.029 A 
ATOM     81  C   UNL A   1      32.617  17.744  25.594  1.00  0.00     0.137 A 
ATOM     82  C   UNL A   1      33.883  16.402  23.593  1.00  0.00     0.022 A 
ATOM     83  N   UNL A   1      33.013  16.468  25.835  1.00  0.00    -0.263 NA
ATOM     84  C   UNL A   1      33.627  15.823  24.822  1.00  0.00     0.111 A 
ENDBRANCH  77  79
ENDBRANCH  75  77
ENDBRANCH  69  71
ENDBRANCH  68  69
ENDBRANCH  67  68
ENDBRANCH  66  67
ENDBRANCH  65  66
ENDBRANCH  64  65
ENDBRANCH   1  64
TORSDOF 19
ENDMDL
MODEL 2
REMARK VINA RESULT:     -10.4      1.215      1.651
REMARK SMILES O=C(OCCOCCOCCOC(=O)c1cncc(Nc2cccnc2)n1)c1ccc(-c2c3nc(c(-c4c(F)cccc4F)c4ccc([nH]4)c(-c4c(F)cccc4F)c4nc(c(-c5c(F)cccc5F)c5ccc2[nH]5)C=C4)C=C3)cc1
REMARK SMILES IDX 7 1 6 2 5 3 4 4 3 5 2 6 1 7 28 8 29 9 81 10 30 11 80 12
REMARK SMILES IDX 31 13 32 14 33 15 74 16 34 17 79 18 73 19 75 20 35 21 78 22
REMARK SMILES IDX 72 23 71 24 36 26 62 27 45 28 61 29 46 30 49 31 60 32 76 33
REMARK SMILES IDX 47 34 48 35 59 37 77 38 50 39 37 40 38 41 43 42 39 43 40 44
REMARK SMILES IDX 42 45 44 46 41 47 63 48 64 49 69 50 65 51 66 52 68 53 70 54
REMARK SMILES IDX 67 55 51 56 52 57 57 58 53 59 54 60 56 61 58 62 55 63 8 64
REMARK SMILES IDX 9 65 10 66 11 67 12 68 13 69 14 70 15 71 16 72 27 73 17 74
REMARK SMILES IDX 19 75 18 76 20 77 21 79 22 80 26 81 23 82 25 83 24 84
REMARK H PARENT 75 25 49 36 20 78
REMARK Flexibility Score: inf
ROOT
ATOM      1  C   UNL A   1      31.615  29.078  25.606  1.00  0.00     0.188 C 
ENDROOT
BRANCH   1   2
ATOM      2  O   UNL A   1      31.389  30.490  25.493  1.00  0.00    -0.376 OA
BRANCH   2   3
ATOM      3  C   UNL A   1      31.665  31.213  26.696  1.00  0.00     0.202 C 
BRANCH   3   4
ATOM      4  C   UNL A   1      31.713  32.738  26.523  1.00  0.00     0.261 C 
BRANCH   4   5
ATOM      5  O   UNL A   1      32.026  33.416  27.752  1.00  0.00    -0.460 OA
BRANCH   5   6
ATOM      6  C   UNL A   1      33.186  34.028  28.100  1.00  0.00     0.338 C 
ATOM      7  O   UNL A   1      33.244  35.256  28.052  1.00  0.00    -0.246 OA
BRANCH   6   8
ATOM      8  C   UNL A   1      34.398  33.298  28.586  1.00  0.00     0.060 A 
ATOM      9  C   UNL A   1      34.402  31.992  29.069  1.00  0.00     0.016 A 
ATOM     10  C   UNL A   1      35.634  33.969  28.500  1.00  0.00     0.016 A 
ATOM     11  C   UNL A   1      35.555  31.415  29.582  1.00  0.00     0.010 A 
ATOM     12  C   UNL A   1      36.817  33.364  28.941  1.00  0.00     0.010 A 
ATOM     13  C   UNL A   1      36.772  32.094  29.524  1.00  0.00    -0.014 A 
BRANCH  13  14
ATOM     14  C   UNL A   1      37.946  31.461  30.160  1.00  0.00     0.031 A 
ATOM     15  C   UNL A   1      38.220  31.723  31.610  1.00  0.00     0.074 A 
ATOM     16  C   UNL A   1      38.648  30.535  29.481  1.00  0.00     0.049 A 
ATOM     17  N   UNL A   1      39.152  31.223  32.376  1.00  0.00    -0.248 NA
ATOM     18  C   UNL A   1      37.306  32.650  32.297  1.00  0.00     0.031 C 
ATOM     19  C   UNL A   1      38.381  30.131  28.101  1.00  0.00     0.029 A 
ATOM     20  N   UNL A   1      39.693  29.738  29.863  1.00  0.00    -0.354 N 
ATOM     21  C   UNL A   1      38.937  31.769  33.633  1.00  0.00     0.074 A 
ATOM     22  C   UNL A   1      37.803  32.660  33.525  1.00  0.00     0.031 C 
ATOM     23  C   UNL A   1      39.227  29.150  27.756  1.00  0.00     0.029 A 
ATOM     24  C   UNL A   1      40.126  28.889  28.872  1.00  0.00     0.049 A 
ATOM     25  H   UNL A   1      40.096  29.769  30.761  1.00  0.00     0.167 HD
ATOM     26  C   UNL A   1      39.621  31.537  34.776  1.00  0.00     0.037 A 
ATOM     27  C   UNL A   1      41.146  28.014  28.861  1.00  0.00     0.037 A 
ATOM     28  C   UNL A   1      40.756  30.659  34.864  1.00  0.00     0.049 A 
ATOM     29  C   UNL A   1      41.956  27.855  30.116  1.00  0.00     0.074 A 
ATOM     30  C   UNL A   1      41.580  30.413  35.945  1.00  0.00     0.029 A 
ATOM     31  N   UNL A   1      41.223  29.879  33.814  1.00  0.00    -0.354 N 
ATOM     32  N   UNL A   1      41.780  28.423  31.285  1.00  0.00    -0.248 NA
ATOM     33  C   UNL A   1      43.105  26.944  30.053  1.00  0.00     0.031 C 
ATOM     34  C   UNL A   1      42.566  29.504  35.542  1.00  0.00     0.029 A 
ATOM     35  C   UNL A   1      42.332  29.157  34.220  1.00  0.00     0.049 A 
ATOM     36  H   UNL A   1      40.824  29.844  32.915  1.00  0.00     0.167 HD
ATOM     37  C   UNL A   1      42.789  27.934  32.100  1.00  0.00     0.074 A 
ATOM     38  C   UNL A   1      43.555  27.000  31.298  1.00  0.00     0.031 C 
ATOM     39  C   UNL A   1      43.068  28.237  33.392  1.00  0.00     0.037 A 
BRANCH  26  40
ATOM     40  C   UNL A   1      39.176  32.285  35.995  1.00  0.00     0.057 A 
ATOM     41  C   UNL A   1      39.663  33.565  36.294  1.00  0.00     0.134 A 
ATOM     42  C   UNL A   1      38.271  31.710  36.895  1.00  0.00     0.134 A 
ATOM     43  F   UNL A   1      40.555  34.159  35.486  1.00  0.00    -0.206 F 
ATOM     44  C   UNL A   1      39.279  34.237  37.456  1.00  0.00     0.040 A 
ATOM     45  C   UNL A   1      37.868  32.379  38.050  1.00  0.00     0.040 A 
ATOM     46  F   UNL A   1      37.777  30.484  36.670  1.00  0.00    -0.206 F 
ATOM     47  C   UNL A   1      38.376  33.644  38.337  1.00  0.00     0.006 A 
ENDBRANCH  26  40
BRANCH  27  48
ATOM     48  C   UNL A   1      41.481  27.262  27.623  1.00  0.00     0.057 A 
ATOM     49  C   UNL A   1      41.009  25.964  27.401  1.00  0.00     0.134 A 
ATOM     50  C   UNL A   1      42.303  27.825  26.637  1.00  0.00     0.134 A 
ATOM     51  F   UNL A   1      40.233  25.361  28.313  1.00  0.00    -0.206 F 
ATOM     52  C   UNL A   1      41.361  25.244  26.256  1.00  0.00     0.040 A 
ATOM     53  C   UNL A   1      42.637  27.129  25.475  1.00  0.00     0.040 A 
ATOM     54  F   UNL A   1      42.790  29.066  26.789  1.00  0.00    -0.206 F 
ATOM     55  C   UNL A   1      42.173  25.829  25.287  1.00  0.00     0.006 A 
ENDBRANCH  27  48
BRANCH  39  56
ATOM     56  C   UNL A   1      44.242  27.537  34.002  1.00  0.00     0.057 A 
ATOM     57  C   UNL A   1      45.522  28.106  33.988  1.00  0.00     0.134 A 
ATOM     58  C   UNL A   1      44.087  26.294  34.625  1.00  0.00     0.134 A 
ATOM     59  F   UNL A   1      45.734  29.288  33.391  1.00  0.00    -0.206 F 
ATOM     60  C   UNL A   1      46.614  27.449  34.554  1.00  0.00     0.040 A 
ATOM     61  C   UNL A   1      45.168  25.638  35.214  1.00  0.00     0.040 A 
ATOM     62  F   UNL A   1      42.885  25.701  34.675  1.00  0.00    -0.206 F 
ATOM     63  C   UNL A   1      46.437  26.213  35.174  1.00  0.00     0.006 A 
ENDBRANCH  39  56
ENDBRANCH  13  14
ENDBRANCH   6   8
ENDBRANCH   5   6
ENDBRANCH   4   5
ENDBRANCH   3   4
ENDBRANCH   2   3
ENDBRANCH   1   2
BRANCH   1  64
ATOM     64  C   UNL A   1      32.071  28.477  24.273  1.00  0.00     0.188 C 
BRANCH  64  65
ATOM     65  O   UNL A   1      33.211  27.618  24.351  1.00  0.00    -0.376 OA
BRANCH  65  66
ATOM     66  C   UNL A   1      33.954  27.424  23.151  1.00  0.00     0.202 C 
BRANCH  66  67
ATOM     67  C   UNL A   1      33.226  26.706  22.012  1.00  0.00     0.261 C 
BRANCH  67  68
ATOM     68  O   UNL A   1      33.469  25.290  21.935  1.00  0.00    -0.458 OA
BRANCH  68  69
ATOM     69  C   UNL A   1      32.518  24.525  22.534  1.00  0.00     0.358 C 
ATOM     70  O   UNL A   1      31.349  24.825  22.724  1.00  0.00    -0.244 OA
BRANCH  69  71
ATOM     71  C   UNL A   1      33.103  23.321  23.150  1.00  0.00     0.169 A 
ATOM     72  C   UNL A   1      34.284  23.521  23.848  1.00  0.00     0.147 A 
ATOM     73  N   UNL A   1      32.424  22.135  23.143  1.00  0.00    -0.220 NA
ATOM     74  N   UNL A   1      34.869  22.543  24.567  1.00  0.00    -0.258 NA
ATOM     75  C   UNL A   1      32.968  21.154  23.908  1.00  0.00     0.149 A 
ATOM     76  C   UNL A   1      34.183  21.372  24.580  1.00  0.00     0.158 A 
BRANCH  75  77
ATOM     77  N   UNL A   1      32.296  19.927  23.986  1.00  0.00    -0.338 N 
ATOM     78  H   UNL A   1      31.323  19.973  23.843  1.00  0.00     0.168 HD
BRANCH  77  79
ATOM     79  C   UNL A   1      32.798  18.641  24.239  1.00  0.00     0.058 A 
ATOM     80  C   UNL A   1      33.349  17.838  23.233  1.00  0.00     0.029 A 
ATOM     81  C   UNL A   1      32.704  18.062  25.503  1.00  0.00     0.137 A 
ATOM     82  C   UNL A   1      33.736  16.526  23.506  1.00  0.00     0.022 A 
ATOM     83  N   UNL A   1      33.072  16.791  25.804  1.00  0.00    -0.263 NA
ATOM     84  C   UNL A   1      33.569  16.049  24.793  1.00  0.00     0.111 A 
ENDBRANCH  77  79
ENDBRANCH  75  77
ENDBRANCH  69  71
ENDBRANCH  68  69
ENDBRANCH  67  68
ENDBRANCH  66  67
ENDBRANCH  65  66
ENDBRANCH  64  65
ENDBRANCH   1  64
TORSDOF 19
ENDMDL
MODEL 3
REMARK VINA RESULT:     -10.1      4.298      9.214
REMARK SMILES O=C(OCCOCCOCCOC(=O)c1cncc(Nc2cccnc2)n1)c1ccc(-c2c3nc(c(-c4c(F)cccc4F)c4ccc([nH]4)c(-c4c(F)cccc4F)c4nc(c(-c5c(F)cccc5F)c5ccc2[nH]5)C=C4)C=C3)cc1
REMARK SMILES IDX 7 1 6 2 5 3 4 4 3 5 2 6 1 7 28 8 29 9 81 10 30 11 80 12
REMARK SMILES IDX 31 13 32 14 33 15 74 16 34 17 79 18 73 19 75 20 35 21 78 22
REMARK SMILES IDX 72 23 71 24 36 26 62 27 45 28 61 29 46 30 49 31 60 32 76 33
REMARK SMILES IDX 47 34 48 35 59 37 77 38 50 39 37 40 38 41 43 42 39 43 40 44
REMARK SMILES IDX 42 45 44 46 41 47 63 48 64 49 69 50 65 51 66 52 68 53 70 54
REMARK SMILES IDX 67 55 51 56 52 57 57 58 53 59 54 60 56 61 58 62 55 63 8 64
REMARK SMILES IDX 9 65 10 66 11 67 12 68 13 69 14 70 15 71 16 72 27 73 17 74
REMARK SMILES IDX 19 75 18 76 20 77 21 79 22 80 26 81 23 82 25 83 24 84
REMARK H PARENT 75 25 49 36 20 78
REMARK Flexibility Score: inf
ROOT
ATOM      1  C   UNL A   1      36.144  22.520  23.859  1.00  0.00     0.188 C 
ENDROOT
BRANCH   1   2
ATOM      2  O   UNL A   1      37.359  21.772  24.006  1.00  0.00    -0.376 OA
BRANCH   2   3
ATOM      3  C   UNL A   1      37.346  20.870  25.116  1.00  0.00     0.202 C 
BRANCH   3   4
ATOM      4  C   UNL A   1      38.263  19.649  24.952  1.00  0.00     0.261 C 
BRANCH   4   5
ATOM      5  O   UNL A   1      39.161  19.488  26.064  1.00  0.00    -0.460 OA
BRANCH   5   6
ATOM      6  C   UNL A   1      40.429  19.956  26.191  1.00  0.00     0.338 C 
ATOM      7  O   UNL A   1      41.365  19.207  25.919  1.00  0.00    -0.246 OA
BRANCH   6   8
ATOM      8  C   UNL A   1      40.762  21.355  26.604  1.00  0.00     0.060 A 
ATOM      9  C   UNL A   1      40.346  22.504  25.936  1.00  0.00     0.016 A 
ATOM     10  C   UNL A   1      41.509  21.519  27.786  1.00  0.00     0.016 A 
ATOM     11  C   UNL A   1      40.769  23.764  26.334  1.00  0.00     0.010 A 
ATOM     12  C   UNL A   1      41.874  22.792  28.241  1.00  0.00     0.010 A 
ATOM     13  C   UNL A   1      41.536  23.921  27.488  1.00  0.00    -0.014 A 
BRANCH  13  14
ATOM     14  C   UNL A   1      42.024  25.277  27.813  1.00  0.00     0.031 A 
ATOM     15  C   UNL A   1      43.361  25.715  27.297  1.00  0.00     0.074 A 
ATOM     16  C   UNL A   1      41.198  26.150  28.419  1.00  0.00     0.049 A 
ATOM     17  N   UNL A   1      43.948  26.877  27.409  1.00  0.00    -0.248 NA
ATOM     18  C   UNL A   1      44.128  24.724  26.525  1.00  0.00     0.031 C 
ATOM     19  C   UNL A   1      39.836  25.846  28.856  1.00  0.00     0.029 A 
ATOM     20  N   UNL A   1      41.359  27.472  28.735  1.00  0.00    -0.354 N 
ATOM     21  C   UNL A   1      45.147  26.758  26.723  1.00  0.00     0.074 A 
ATOM     22  C   UNL A   1      45.221  25.405  26.218  1.00  0.00     0.031 C 
ATOM     23  C   UNL A   1      39.278  26.952  29.366  1.00  0.00     0.029 A 
ATOM     24  C   UNL A   1      40.256  28.030  29.337  1.00  0.00     0.049 A 
ATOM     25  H   UNL A   1      42.185  27.976  28.548  1.00  0.00     0.167 HD
ATOM     26  C   UNL A   1      46.097  27.701  26.525  1.00  0.00     0.037 A 
ATOM     27  C   UNL A   1      40.066  29.268  29.827  1.00  0.00     0.037 A 
ATOM     28  C   UNL A   1      46.016  29.038  27.047  1.00  0.00     0.049 A 
ATOM     29  C   UNL A   1      41.181  30.263  29.687  1.00  0.00     0.074 A 
ATOM     30  C   UNL A   1      46.954  30.051  26.985  1.00  0.00     0.029 A 
ATOM     31  N   UNL A   1      44.918  29.545  27.731  1.00  0.00    -0.354 N 
ATOM     32  N   UNL A   1      42.339  30.122  29.087  1.00  0.00    -0.248 NA
ATOM     33  C   UNL A   1      40.971  31.584  30.292  1.00  0.00     0.031 C 
ATOM     34  C   UNL A   1      46.436  31.164  27.659  1.00  0.00     0.029 A 
ATOM     35  C   UNL A   1      45.159  30.855  28.106  1.00  0.00     0.049 A 
ATOM     36  H   UNL A   1      44.091  29.046  27.919  1.00  0.00     0.167 HD
ATOM     37  C   UNL A   1      42.993  31.335  29.235  1.00  0.00     0.074 A 
ATOM     38  C   UNL A   1      42.089  32.210  29.955  1.00  0.00     0.031 C 
ATOM     39  C   UNL A   1      44.235  31.693  28.824  1.00  0.00     0.037 A 
BRANCH  26  40
ATOM     40  C   UNL A   1      47.311  27.286  25.753  1.00  0.00     0.057 A 
ATOM     41  C   UNL A   1      48.416  26.691  26.378  1.00  0.00     0.134 A 
ATOM     42  C   UNL A   1      47.390  27.510  24.373  1.00  0.00     0.134 A 
ATOM     43  F   UNL A   1      48.414  26.478  27.702  1.00  0.00    -0.206 F 
ATOM     44  C   UNL A   1      49.563  26.351  25.659  1.00  0.00     0.040 A 
ATOM     45  C   UNL A   1      48.525  27.158  23.642  1.00  0.00     0.040 A 
ATOM     46  F   UNL A   1      46.371  28.085  23.719  1.00  0.00    -0.206 F 
ATOM     47  C   UNL A   1      49.618  26.581  24.285  1.00  0.00     0.006 A 
ENDBRANCH  26  40
BRANCH  27  48
ATOM     48  C   UNL A   1      38.801  29.615  30.526  1.00  0.00     0.057 A 
ATOM     49  C   UNL A   1      37.729  30.211  29.852  1.00  0.00     0.134 A 
ATOM     50  C   UNL A   1      38.643  29.373  31.897  1.00  0.00     0.134 A 
ATOM     51  F   UNL A   1      37.821  30.484  28.543  1.00  0.00    -0.206 F 
ATOM     52  C   UNL A   1      36.557  30.575  30.520  1.00  0.00     0.040 A 
ATOM     53  C   UNL A   1      37.468  29.705  32.571  1.00  0.00     0.040 A 
ATOM     54  F   UNL A   1      39.634  28.807  32.603  1.00  0.00    -0.206 F 
ATOM     55  C   UNL A   1      36.422  30.317  31.883  1.00  0.00     0.006 A 
ENDBRANCH  27  48
BRANCH  39  56
ATOM     56  C   UNL A   1      44.665  33.092  29.141  1.00  0.00     0.057 A 
ATOM     57  C   UNL A   1      44.337  34.166  28.304  1.00  0.00     0.134 A 
ATOM     58  C   UNL A   1      45.395  33.368  30.301  1.00  0.00     0.134 A 
ATOM     59  F   UNL A   1      43.652  33.959  27.169  1.00  0.00    -0.206 F 
ATOM     60  C   UNL A   1      44.743  35.466  28.600  1.00  0.00     0.040 A 
ATOM     61  C   UNL A   1      45.787  34.668  30.620  1.00  0.00     0.040 A 
ATOM     62  F   UNL A   1      45.735  32.381  31.145  1.00  0.00    -0.206 F 
ATOM     63  C   UNL A   1      45.466  35.720  29.764  1.00  0.00     0.006 A 
ENDBRANCH  39  56
ENDBRANCH  13  14
ENDBRANCH   6   8
ENDBRANCH   5   6
ENDBRANCH   4   5
ENDBRANCH   3   4
ENDBRANCH   2   3
ENDBRANCH   1   2
BRANCH   1  64
ATOM     64  C   UNL A   1      35.837  23.337  25.118  1.00  0.00     0.188 C 
BRANCH  64  65
ATOM     65  O   UNL A   1      35.158  24.575  24.889  1.00  0.00    -0.376 OA
BRANCH  65  66
ATOM     66  C   UNL A   1      34.451  25.134  25.991  1.00  0.00     0.202 C 
BRANCH  66  67
ATOM     67  C   UNL A   1      32.933  24.940  25.992  1.00  0.00     0.261 C 
BRANCH  67  68
ATOM     68  O   UNL A   1      32.428  24.107  27.051  1.00  0.00    -0.458 OA
BRANCH  68  69
ATOM     69  C   UNL A   1      31.376  23.323  26.693  1.00  0.00     0.358 C 
ATOM     70  O   UNL A   1      30.329  23.178  27.306  1.00  0.00    -0.244 OA
BRANCH  69  71
ATOM     71  C   UNL A   1      31.712  22.462  25.546  1.00  0.00     0.169 A 
ATOM     72  C   UNL A   1      31.194  22.865  24.325  1.00  0.00     0.147 A 
ATOM     73  N   UNL A   1      32.599  21.432  25.684  1.00  0.00    -0.220 NA
ATOM     74  N   UNL A   1      31.515  22.252  23.170  1.00  0.00    -0.258 NA
ATOM     75  C   UNL A   1      32.980  20.838  24.524  1.00  0.00     0.149 A 
ATOM     76  C   UNL A   1      32.415  21.243  23.303  1.00  0.00     0.158 A 
BRANCH  75  77
ATOM     77  N   UNL A   1      33.926  19.806  24.588  1.00  0.00    -0.338 N 
ATOM     78  H   UNL A   1      34.865  20.095  24.515  1.00  0.00     0.168 HD
BRANCH  77  79
ATOM     79  C   UNL A   1      33.741  18.424  24.740  1.00  0.00     0.058 A 
ATOM     80  C   UNL A   1      32.593  17.879  25.327  1.00  0.00     0.029 A 
ATOM     81  C   UNL A   1      34.735  17.516  24.380  1.00  0.00     0.137 A 
ATOM     82  C   UNL A   1      32.498  16.507  25.557  1.00  0.00     0.022 A 
ATOM     83  N   UNL A   1      34.675  16.176  24.588  1.00  0.00    -0.263 NA
ATOM     84  C   UNL A   1      33.560  15.705  25.183  1.00  0.00     0.111 A 
ENDBRANCH  77  79
ENDBRANCH  75  77
ENDBRANCH  69  71
ENDBRANCH  68  69
ENDBRANCH  67  68
ENDBRANCH  66  67
ENDBRANCH  65  66
ENDBRANCH  64  65
ENDBRANCH   1  64
TORSDOF 19
ENDMDL
