MODEL 1
REMARK VINA RESULT:     -10.0      0.000      0.000
REMARK SMILES COc1ccc(OCc2cccs2)c(C(=O)OCCOCCOCCOC(=O)c2ccc(-c3c4nc(c(-c5c(F)cccc5F)c5ccc([nH]5)c(-c5c(F)cccc5F)c5nc(c(-c6c(F)cccc6F)c6ccc3[nH]6)C=C5)C=C4)cc2)c1
REMARK SMILES IDX 21 1 20 2 19 3 18 4 17 5 15 6 16 7 14 8 3 9 4 10 83 11 5 12
REMARK SMILES IDX 6 13 2 14 1 15 7 16 8 17 9 18 10 19 13 20 11 21 12 22 22 23
REMARK SMILES IDX 23 24 24 25 25 26 26 27 27 28 28 29 29 30 30 31 82 32 31 33
REMARK SMILES IDX 81 34 32 35 33 36 34 37 75 38 35 39 80 40 74 41 76 42 36 43
REMARK SMILES IDX 79 44 73 45 72 46 37 48 63 49 46 50 62 51 47 52 50 53 61 54
REMARK SMILES IDX 77 55 48 56 49 57 60 59 78 60 51 61 38 62 39 63 44 64 40 65
REMARK SMILES IDX 41 66 43 67 45 68 42 69 64 70 65 71 70 72 66 73 67 74 69 75
REMARK SMILES IDX 71 76 68 77 52 78 53 79 58 80 54 81 55 82 57 83 59 84 56 85
REMARK H PARENT 76 47 50 58
REMARK Flexibility Score: inf
ROOT
ATOM      1  C   UNL A   1      32.941  28.979  25.416  1.00  0.00     0.188 C 
ENDROOT
BRANCH   1   2
ATOM      2  O   UNL A   1      33.050  29.243  24.024  1.00  0.00    -0.376 OA
BRANCH   2   3
ATOM      3  C   UNL A   1      34.258  28.832  23.390  1.00  0.00     0.202 C 
BRANCH   3   4
ATOM      4  C   UNL A   1      34.048  28.207  22.010  1.00  0.00     0.261 C 
BRANCH   4   5
ATOM      5  O   UNL A   1      34.079  26.772  22.071  1.00  0.00    -0.460 OA
BRANCH   5   6
ATOM      6  C   UNL A   1      32.985  26.118  21.607  1.00  0.00     0.342 C 
ATOM      7  O   UNL A   1      32.905  25.610  20.509  1.00  0.00    -0.246 OA
BRANCH   6   8
ATOM      8  C   UNL A   1      31.966  26.139  22.688  1.00  0.00     0.105 A 
ATOM      9  C   UNL A   1      29.852  27.210  23.329  1.00  0.00     0.119 A 
ATOM     10  C   UNL A   1      29.930  26.589  24.565  1.00  0.00     0.050 A 
ATOM     11  C   UNL A   1      30.870  26.995  22.406  1.00  0.00     0.066 A 
ATOM     12  C   UNL A   1      30.984  25.716  24.841  1.00  0.00     0.051 A 
ATOM     13  C   UNL A   1      32.012  25.457  23.913  1.00  0.00     0.134 A 
BRANCH   9  14
ATOM     14  O   UNL A   1      28.769  28.019  23.143  1.00  0.00    -0.497 OA
ATOM     15  C   UNL A   1      29.014  29.239  22.451  1.00  0.00     0.278 C 
ENDBRANCH   9  14
BRANCH  13  16
ATOM     16  O   UNL A   1      32.862  24.534  24.441  1.00  0.00    -0.487 OA
BRANCH  16  17
ATOM     17  C   UNL A   1      32.542  23.573  25.436  1.00  0.00     0.276 C 
BRANCH  17  18
ATOM     18  C   UNL A   1      32.906  22.176  25.039  1.00  0.00     0.042 A 
ATOM     19  C   UNL A   1      32.036  21.099  25.004  1.00  0.00     0.019 A 
ATOM     20  S   UNL A   1      34.503  21.686  24.652  1.00  0.00    -0.145 S 
ATOM     21  C   UNL A   1      32.722  19.857  24.887  1.00  0.00     0.012 A 
ATOM     22  C   UNL A   1      34.078  20.033  24.743  1.00  0.00     0.065 A 
ENDBRANCH  17  18
ENDBRANCH  16  17
ENDBRANCH  13  16
ENDBRANCH   6   8
ENDBRANCH   5   6
ENDBRANCH   4   5
ENDBRANCH   3   4
ENDBRANCH   2   3
ENDBRANCH   1   2
BRANCH   1  23
ATOM     23  C   UNL A   1      33.062  30.201  26.352  1.00  0.00     0.188 C 
BRANCH  23  24
ATOM     24  O   UNL A   1      31.913  30.711  27.012  1.00  0.00    -0.376 OA
BRANCH  24  25
ATOM     25  C   UNL A   1      31.295  31.887  26.511  1.00  0.00     0.202 C 
BRANCH  25  26
ATOM     26  C   UNL A   1      32.002  33.225  26.751  1.00  0.00     0.261 C 
BRANCH  26  27
ATOM     27  O   UNL A   1      32.190  33.549  28.140  1.00  0.00    -0.460 OA
BRANCH  27  28
ATOM     28  C   UNL A   1      33.256  34.342  28.407  1.00  0.00     0.338 C 
ATOM     29  O   UNL A   1      33.252  35.548  28.592  1.00  0.00    -0.246 OA
BRANCH  28  30
ATOM     30  C   UNL A   1      34.470  33.526  28.613  1.00  0.00     0.060 A 
ATOM     31  C   UNL A   1      34.311  32.247  29.163  1.00  0.00     0.016 A 
ATOM     32  C   UNL A   1      35.749  34.035  28.375  1.00  0.00     0.016 A 
ATOM     33  C   UNL A   1      35.426  31.495  29.525  1.00  0.00     0.010 A 
ATOM     34  C   UNL A   1      36.869  33.286  28.757  1.00  0.00     0.010 A 
ATOM     35  C   UNL A   1      36.712  32.030  29.371  1.00  0.00    -0.014 A 
BRANCH  35  36
ATOM     36  C   UNL A   1      37.858  31.344  30.018  1.00  0.00     0.031 A 
ATOM     37  C   UNL A   1      38.164  31.642  31.463  1.00  0.00     0.074 A 
ATOM     38  C   UNL A   1      38.585  30.426  29.357  1.00  0.00     0.049 A 
ATOM     39  N   UNL A   1      39.083  31.128  32.242  1.00  0.00    -0.248 NA
ATOM     40  C   UNL A   1      37.315  32.650  32.119  1.00  0.00     0.031 C 
ATOM     41  C   UNL A   1      38.374  30.015  27.971  1.00  0.00     0.029 A 
ATOM     42  N   UNL A   1      39.651  29.668  29.775  1.00  0.00    -0.354 N 
ATOM     43  C   UNL A   1      38.922  31.746  33.476  1.00  0.00     0.074 A 
ATOM     44  C   UNL A   1      37.837  32.694  33.336  1.00  0.00     0.031 C 
ATOM     45  C   UNL A   1      39.286  29.080  27.651  1.00  0.00     0.029 A 
ATOM     46  C   UNL A   1      40.154  28.840  28.803  1.00  0.00     0.049 A 
ATOM     47  H   UNL A   1      40.021  29.715  30.686  1.00  0.00     0.167 HD
ATOM     48  C   UNL A   1      39.606  31.538  34.626  1.00  0.00     0.037 A 
ATOM     49  C   UNL A   1      41.198  27.989  28.840  1.00  0.00     0.037 A 
ATOM     50  C   UNL A   1      40.682  30.594  34.776  1.00  0.00     0.049 A 
ATOM     51  C   UNL A   1      41.988  27.828  30.113  1.00  0.00     0.074 A 
ATOM     52  C   UNL A   1      41.407  30.287  35.914  1.00  0.00     0.029 A 
ATOM     53  N   UNL A   1      41.193  29.812  33.754  1.00  0.00    -0.354 N 
ATOM     54  N   UNL A   1      41.795  28.383  31.284  1.00  0.00    -0.248 NA
ATOM     55  C   UNL A   1      43.142  26.917  30.064  1.00  0.00     0.031 C 
ATOM     56  C   UNL A   1      42.390  29.353  35.569  1.00  0.00     0.029 A 
ATOM     57  C   UNL A   1      42.247  29.046  34.226  1.00  0.00     0.049 A 
ATOM     58  H   UNL A   1      40.859  29.801  32.828  1.00  0.00     0.167 HD
ATOM     59  C   UNL A   1      42.781  27.866  32.118  1.00  0.00     0.074 A 
ATOM     60  C   UNL A   1      43.563  26.945  31.321  1.00  0.00     0.031 C 
ATOM     61  C   UNL A   1      43.016  28.129  33.426  1.00  0.00     0.037 A 
BRANCH  48  62
ATOM     62  C   UNL A   1      39.222  32.363  35.816  1.00  0.00     0.057 A 
ATOM     63  C   UNL A   1      39.716  33.659  36.008  1.00  0.00     0.134 A 
ATOM     64  C   UNL A   1      38.313  31.869  36.761  1.00  0.00     0.134 A 
ATOM     65  F   UNL A   1      40.600  34.183  35.145  1.00  0.00    -0.206 F 
ATOM     66  C   UNL A   1      39.331  34.431  37.104  1.00  0.00     0.040 A 
ATOM     67  C   UNL A   1      37.904  32.639  37.850  1.00  0.00     0.040 A 
ATOM     68  F   UNL A   1      37.801  30.636  36.632  1.00  0.00    -0.206 F 
ATOM     69  C   UNL A   1      38.416  33.922  38.026  1.00  0.00     0.006 A 
ENDBRANCH  48  62
BRANCH  49  70
ATOM     70  C   UNL A   1      41.575  27.215  27.630  1.00  0.00     0.057 A 
ATOM     71  C   UNL A   1      42.371  27.781  26.627  1.00  0.00     0.134 A 
ATOM     72  C   UNL A   1      41.103  25.913  27.424  1.00  0.00     0.134 A 
ATOM     73  F   UNL A   1      42.827  29.035  26.755  1.00  0.00    -0.206 F 
ATOM     74  C   UNL A   1      42.669  27.086  25.454  1.00  0.00     0.040 A 
ATOM     75  C   UNL A   1      41.412  25.199  26.266  1.00  0.00     0.040 A 
ATOM     76  F   UNL A   1      40.332  25.319  28.346  1.00  0.00    -0.206 F 
ATOM     77  C   UNL A   1      42.191  25.790  25.272  1.00  0.00     0.006 A 
ENDBRANCH  49  70
BRANCH  61  78
ATOM     78  C   UNL A   1      44.144  27.389  34.085  1.00  0.00     0.057 A 
ATOM     79  C   UNL A   1      43.958  26.135  34.679  1.00  0.00     0.134 A 
ATOM     80  C   UNL A   1      45.437  27.927  34.102  1.00  0.00     0.134 A 
ATOM     81  F   UNL A   1      42.741  25.570  34.707  1.00  0.00    -0.206 F 
ATOM     82  C   UNL A   1      45.012  25.454  35.291  1.00  0.00     0.040 A 
ATOM     83  C   UNL A   1      46.504  27.245  34.689  1.00  0.00     0.040 A 
ATOM     84  F   UNL A   1      45.687  29.121  33.542  1.00  0.00    -0.206 F 
ATOM     85  C   UNL A   1      46.291  26.007  35.292  1.00  0.00     0.006 A 
ENDBRANCH  61  78
ENDBRANCH  35  36
ENDBRANCH  28  30
ENDBRANCH  27  28
ENDBRANCH  26  27
ENDBRANCH  25  26
ENDBRANCH  24  25
ENDBRANCH  23  24
ENDBRANCH   1  23
TORSDOF 21
ENDMDL
MODEL 2
REMARK VINA RESULT:      -9.7      3.715      5.961
REMARK SMILES COc1ccc(OCc2cccs2)c(C(=O)OCCOCCOCCOC(=O)c2ccc(-c3c4nc(c(-c5c(F)cccc5F)c5ccc([nH]5)c(-c5c(F)cccc5F)c5nc(c(-c6c(F)cccc6F)c6ccc3[nH]6)C=C5)C=C4)cc2)c1
REMARK SMILES IDX 21 1 20 2 19 3 18 4 17 5 15 6 16 7 14 8 3 9 4 10 83 11 5 12
REMARK SMILES IDX 6 13 2 14 1 15 7 16 8 17 9 18 10 19 13 20 11 21 12 22 22 23
REMARK SMILES IDX 23 24 24 25 25 26 26 27 27 28 28 29 29 30 30 31 82 32 31 33
REMARK SMILES IDX 81 34 32 35 33 36 34 37 75 38 35 39 80 40 74 41 76 42 36 43
REMARK SMILES IDX 79 44 73 45 72 46 37 48 63 49 46 50 62 51 47 52 50 53 61 54
REMARK SMILES IDX 77 55 48 56 49 57 60 59 78 60 51 61 38 62 39 63 44 64 40 65
REMARK SMILES IDX 41 66 43 67 45 68 42 69 64 70 65 71 70 72 66 73 67 74 69 75
REMARK SMILES IDX 71 76 68 77 52 78 53 79 58 80 54 81 55 82 57 83 59 84 56 85
REMARK H PARENT 76 47 50 58
REMARK Flexibility Score: inf
ROOT
ATOM      1  C   UNL A   1      33.609  30.890  27.754  1.00  0.00     0.188 C 
ENDROOT
BRANCH   1   2
ATOM      2  O   UNL A   1      32.773  30.612  26.638  1.00  0.00    -0.376 OA
BRANCH   2   3
ATOM      3  C   UNL A   1      32.852  29.297  26.096  1.00  0.00     0.202 C 
BRANCH   3   4
ATOM      4  C   UNL A   1      33.342  29.256  24.648  1.00  0.00     0.261 C 
BRANCH   4   5
ATOM      5  O   UNL A   1      32.247  29.270  23.719  1.00  0.00    -0.460 OA
BRANCH   5   6
ATOM      6  C   UNL A   1      31.901  28.081  23.166  1.00  0.00     0.342 C 
ATOM      7  O   UNL A   1      32.694  27.249  22.778  1.00  0.00    -0.246 OA
BRANCH   6   8
ATOM      8  C   UNL A   1      30.418  28.011  23.159  1.00  0.00     0.105 A 
ATOM      9  C   UNL A   1      28.427  29.278  22.483  1.00  0.00     0.119 A 
ATOM     10  C   UNL A   1      27.631  28.332  23.107  1.00  0.00     0.050 A 
ATOM     11  C   UNL A   1      29.809  29.123  22.522  1.00  0.00     0.066 A 
ATOM     12  C   UNL A   1      28.215  27.214  23.706  1.00  0.00     0.051 A 
ATOM     13  C   UNL A   1      29.611  27.017  23.733  1.00  0.00     0.134 A 
BRANCH   9  14
ATOM     14  O   UNL A   1      27.760  30.317  21.898  1.00  0.00    -0.497 OA
ATOM     15  C   UNL A   1      28.569  31.394  21.438  1.00  0.00     0.278 C 
ENDBRANCH   9  14
BRANCH  13  16
ATOM     16  O   UNL A   1      29.876  25.825  24.335  1.00  0.00    -0.487 OA
BRANCH  16  17
ATOM     17  C   UNL A   1      30.024  25.605  25.730  1.00  0.00     0.276 C 
BRANCH  17  18
ATOM     18  C   UNL A   1      31.353  25.021  26.094  1.00  0.00     0.042 A 
ATOM     19  C   UNL A   1      32.583  25.600  25.834  1.00  0.00     0.019 A 
ATOM     20  S   UNL A   1      31.543  23.479  26.820  1.00  0.00    -0.145 S 
ATOM     21  C   UNL A   1      33.658  24.686  26.017  1.00  0.00     0.012 A 
ATOM     22  C   UNL A   1      33.223  23.475  26.501  1.00  0.00     0.065 A 
ENDBRANCH  17  18
ENDBRANCH  16  17
ENDBRANCH  13  16
ENDBRANCH   6   8
ENDBRANCH   5   6
ENDBRANCH   4   5
ENDBRANCH   3   4
ENDBRANCH   2   3
ENDBRANCH   1   2
BRANCH   1  23
ATOM     23  C   UNL A   1      33.955  32.376  27.991  1.00  0.00     0.188 C 
BRANCH  23  24
ATOM     24  O   UNL A   1      34.930  32.735  28.959  1.00  0.00    -0.376 OA
BRANCH  24  25
ATOM     25  C   UNL A   1      34.719  33.893  29.754  1.00  0.00     0.202 C 
BRANCH  25  26
ATOM     26  C   UNL A   1      34.383  33.691  31.236  1.00  0.00     0.261 C 
BRANCH  26  27
ATOM     27  O   UNL A   1      34.564  32.342  31.700  1.00  0.00    -0.460 OA
BRANCH  27  28
ATOM     28  C   UNL A   1      35.604  32.159  32.550  1.00  0.00     0.338 C 
ATOM     29  O   UNL A   1      35.681  32.520  33.712  1.00  0.00    -0.246 OA
BRANCH  28  30
ATOM     30  C   UNL A   1      36.632  31.297  31.931  1.00  0.00     0.060 A 
ATOM     31  C   UNL A   1      37.845  31.136  32.614  1.00  0.00     0.016 A 
ATOM     32  C   UNL A   1      36.459  30.741  30.661  1.00  0.00     0.016 A 
ATOM     33  C   UNL A   1      38.907  30.466  32.010  1.00  0.00     0.010 A 
ATOM     34  C   UNL A   1      37.534  30.084  30.047  1.00  0.00     0.010 A 
ATOM     35  C   UNL A   1      38.775  29.979  30.703  1.00  0.00    -0.014 A 
BRANCH  35  36
ATOM     36  C   UNL A   1      39.989  29.529  29.977  1.00  0.00     0.031 A 
ATOM     37  C   UNL A   1      41.129  30.497  29.795  1.00  0.00     0.074 A 
ATOM     38  C   UNL A   1      40.109  28.265  29.535  1.00  0.00     0.049 A 
ATOM     39  N   UNL A   1      42.299  30.308  29.238  1.00  0.00    -0.248 NA
ATOM     40  C   UNL A   1      40.924  31.857  30.317  1.00  0.00     0.031 C 
ATOM     41  C   UNL A   1      39.100  27.217  29.678  1.00  0.00     0.029 A 
ATOM     42  N   UNL A   1      41.144  27.648  28.877  1.00  0.00    -0.354 N 
ATOM     43  C   UNL A   1      42.969  31.521  29.344  1.00  0.00     0.074 A 
ATOM     44  C   UNL A   1      42.065  32.447  29.992  1.00  0.00     0.031 C 
ATOM     45  C   UNL A   1      39.566  26.086  29.120  1.00  0.00     0.029 A 
ATOM     46  C   UNL A   1      40.896  26.334  28.566  1.00  0.00     0.049 A 
ATOM     47  H   UNL A   1      41.985  28.106  28.648  1.00  0.00     0.167 HD
ATOM     48  C   UNL A   1      44.225  31.835  28.948  1.00  0.00     0.037 A 
ATOM     49  C   UNL A   1      41.656  25.438  27.907  1.00  0.00     0.037 A 
ATOM     50  C   UNL A   1      45.132  30.919  28.308  1.00  0.00     0.049 A 
ATOM     51  C   UNL A   1      43.024  25.834  27.414  1.00  0.00     0.074 A 
ATOM     52  C   UNL A   1      46.439  31.139  27.908  1.00  0.00     0.029 A 
ATOM     53  N   UNL A   1      44.824  29.613  27.967  1.00  0.00    -0.354 N 
ATOM     54  N   UNL A   1      43.662  26.969  27.563  1.00  0.00    -0.248 NA
ATOM     55  C   UNL A   1      43.776  24.818  26.663  1.00  0.00     0.031 C 
ATOM     56  C   UNL A   1      46.906  29.978  27.281  1.00  0.00     0.029 A 
ATOM     57  C   UNL A   1      45.904  29.023  27.330  1.00  0.00     0.049 A 
ATOM     58  H   UNL A   1      43.965  29.168  28.148  1.00  0.00     0.167 HD
ATOM     59  C   UNL A   1      44.899  26.794  26.954  1.00  0.00     0.074 A 
ATOM     60  C   UNL A   1      44.926  25.439  26.443  1.00  0.00     0.031 C 
ATOM     61  C   UNL A   1      45.922  27.674  26.830  1.00  0.00     0.037 A 
BRANCH  48  62
ATOM     62  C   UNL A   1      44.691  33.240  29.181  1.00  0.00     0.057 A 
ATOM     63  C   UNL A   1      45.390  33.605  30.338  1.00  0.00     0.134 A 
ATOM     64  C   UNL A   1      44.475  34.231  28.214  1.00  0.00     0.134 A 
ATOM     65  F   UNL A   1      45.616  32.705  31.307  1.00  0.00    -0.206 F 
ATOM     66  C   UNL A   1      45.845  34.909  30.534  1.00  0.00     0.040 A 
ATOM     67  C   UNL A   1      44.943  35.534  28.389  1.00  0.00     0.040 A 
ATOM     68  F   UNL A   1      43.816  33.944  27.082  1.00  0.00    -0.206 F 
ATOM     69  C   UNL A   1      45.627  35.877  29.553  1.00  0.00     0.006 A 
ENDBRANCH  48  62
BRANCH  49  70
ATOM     70  C   UNL A   1      41.148  24.065  27.660  1.00  0.00     0.057 A 
ATOM     71  C   UNL A   1      41.661  22.967  28.359  1.00  0.00     0.134 A 
ATOM     72  C   UNL A   1      40.177  23.814  26.683  1.00  0.00     0.134 A 
ATOM     73  F   UNL A   1      42.614  23.142  29.286  1.00  0.00    -0.206 F 
ATOM     74  C   UNL A   1      41.241  21.664  28.082  1.00  0.00     0.040 A 
ATOM     75  C   UNL A   1      39.732  22.520  26.410  1.00  0.00     0.040 A 
ATOM     76  F   UNL A   1      39.651  24.825  25.975  1.00  0.00    -0.206 F 
ATOM     77  C   UNL A   1      40.272  21.439  27.107  1.00  0.00     0.006 A 
ENDBRANCH  49  70
BRANCH  61  78
ATOM     78  C   UNL A   1      47.166  27.191  26.142  1.00  0.00     0.057 A 
ATOM     79  C   UNL A   1      48.176  26.511  26.833  1.00  0.00     0.134 A 
ATOM     80  C   UNL A   1      47.343  27.385  24.766  1.00  0.00     0.134 A 
ATOM     81  F   UNL A   1      48.074  26.303  28.155  1.00  0.00    -0.206 F 
ATOM     82  C   UNL A   1      49.331  26.066  26.187  1.00  0.00     0.040 A 
ATOM     83  C   UNL A   1      48.481  26.923  24.103  1.00  0.00     0.040 A 
ATOM     84  F   UNL A   1      46.409  28.020  24.041  1.00  0.00    -0.206 F 
ATOM     85  C   UNL A   1      49.483  26.268  24.816  1.00  0.00     0.006 A 
ENDBRANCH  61  78
ENDBRANCH  35  36
ENDBRANCH  28  30
ENDBRANCH  27  28
ENDBRANCH  26  27
ENDBRANCH  25  26
ENDBRANCH  24  25
ENDBRANCH  23  24
ENDBRANCH   1  23
TORSDOF 21
ENDMDL
MODEL 3
REMARK VINA RESULT:      -9.7      1.645      3.417
REMARK SMILES COc1ccc(OCc2cccs2)c(C(=O)OCCOCCOCCOC(=O)c2ccc(-c3c4nc(c(-c5c(F)cccc5F)c5ccc([nH]5)c(-c5c(F)cccc5F)c5nc(c(-c6c(F)cccc6F)c6ccc3[nH]6)C=C5)C=C4)cc2)c1
REMARK SMILES IDX 21 1 20 2 19 3 18 4 17 5 15 6 16 7 14 8 3 9 4 10 83 11 5 12
REMARK SMILES IDX 6 13 2 14 1 15 7 16 8 17 9 18 10 19 13 20 11 21 12 22 22 23
REMARK SMILES IDX 23 24 24 25 25 26 26 27 27 28 28 29 29 30 30 31 82 32 31 33
REMARK SMILES IDX 81 34 32 35 33 36 34 37 75 38 35 39 80 40 74 41 76 42 36 43
REMARK SMILES IDX 79 44 73 45 72 46 37 48 63 49 46 50 62 51 47 52 50 53 61 54
REMARK SMILES IDX 77 55 48 56 49 57 60 59 78 60 51 61 38 62 39 63 44 64 40 65
REMARK SMILES IDX 41 66 43 67 45 68 42 69 64 70 65 71 70 72 66 73 67 74 69 75
REMARK SMILES IDX 71 76 68 77 52 78 53 79 58 80 54 81 55 82 57 83 59 84 56 85
REMARK H PARENT 76 47 50 58
REMARK Flexibility Score: inf
ROOT
ATOM      1  C   UNL A   1      31.330  27.812  24.787  1.00  0.00     0.188 C 
ENDROOT
BRANCH   1   2
ATOM      2  O   UNL A   1      30.483  26.747  25.197  1.00  0.00    -0.376 OA
BRANCH   2   3
ATOM      3  C   UNL A   1      30.296  25.687  24.263  1.00  0.00     0.202 C 
BRANCH   3   4
ATOM      4  C   UNL A   1      30.660  24.308  24.816  1.00  0.00     0.261 C 
BRANCH   4   5
ATOM      5  O   UNL A   1      31.980  24.299  25.382  1.00  0.00    -0.460 OA
BRANCH   5   6
ATOM      6  C   UNL A   1      32.177  23.496  26.457  1.00  0.00     0.342 C 
ATOM      7  O   UNL A   1      31.392  23.372  27.373  1.00  0.00    -0.246 OA
BRANCH   6   8
ATOM      8  C   UNL A   1      33.486  22.818  26.270  1.00  0.00     0.105 A 
ATOM      9  C   UNL A   1      35.898  23.265  26.185  1.00  0.00     0.119 A 
ATOM     10  C   UNL A   1      36.113  21.951  25.803  1.00  0.00     0.050 A 
ATOM     11  C   UNL A   1      34.593  23.695  26.404  1.00  0.00     0.066 A 
ATOM     12  C   UNL A   1      35.035  21.069  25.702  1.00  0.00     0.051 A 
ATOM     13  C   UNL A   1      33.706  21.471  25.947  1.00  0.00     0.134 A 
BRANCH   9  14
ATOM     14  O   UNL A   1      37.018  24.040  26.286  1.00  0.00    -0.497 OA
ATOM     15  C   UNL A   1      38.214  23.476  25.760  1.00  0.00     0.278 C 
ENDBRANCH   9  14
BRANCH  13  16
ATOM     16  O   UNL A   1      32.888  20.390  25.823  1.00  0.00    -0.487 OA
BRANCH  16  17
ATOM     17  C   UNL A   1      32.539  19.739  24.610  1.00  0.00     0.276 C 
BRANCH  17  18
ATOM     18  C   UNL A   1      33.049  18.334  24.530  1.00  0.00     0.042 A 
ATOM     19  C   UNL A   1      33.726  17.787  23.453  1.00  0.00     0.019 A 
ATOM     20  S   UNL A   1      32.783  17.158  25.749  1.00  0.00    -0.145 S 
ATOM     21  C   UNL A   1      33.814  16.368  23.538  1.00  0.00     0.012 A 
ATOM     22  C   UNL A   1      33.289  15.893  24.717  1.00  0.00     0.065 A 
ENDBRANCH  17  18
ENDBRANCH  16  17
ENDBRANCH  13  16
ENDBRANCH   6   8
ENDBRANCH   5   6
ENDBRANCH   4   5
ENDBRANCH   3   4
ENDBRANCH   2   3
ENDBRANCH   1   2
BRANCH   1  23
ATOM     23  C   UNL A   1      31.605  28.907  25.839  1.00  0.00     0.188 C 
BRANCH  23  24
ATOM     24  O   UNL A   1      31.935  30.226  25.428  1.00  0.00    -0.376 OA
BRANCH  24  25
ATOM     25  C   UNL A   1      31.013  31.277  25.677  1.00  0.00     0.202 C 
BRANCH  25  26
ATOM     26  C   UNL A   1      31.432  32.378  26.657  1.00  0.00     0.261 C 
BRANCH  26  27
ATOM     27  O   UNL A   1      32.525  32.014  27.518  1.00  0.00    -0.460 OA
BRANCH  27  28
ATOM     28  C   UNL A   1      33.439  32.991  27.733  1.00  0.00     0.338 C 
ATOM     29  O   UNL A   1      33.236  34.192  27.800  1.00  0.00    -0.246 OA
BRANCH  28  30
ATOM     30  C   UNL A   1      34.759  32.405  28.046  1.00  0.00     0.060 A 
ATOM     31  C   UNL A   1      34.831  31.017  28.222  1.00  0.00     0.016 A 
ATOM     32  C   UNL A   1      35.885  33.202  28.268  1.00  0.00     0.016 A 
ATOM     33  C   UNL A   1      36.010  30.427  28.671  1.00  0.00     0.010 A 
ATOM     34  C   UNL A   1      37.064  32.610  28.738  1.00  0.00     0.010 A 
ATOM     35  C   UNL A   1      37.120  31.225  28.980  1.00  0.00    -0.014 A 
BRANCH  35  36
ATOM     36  C   UNL A   1      38.256  30.621  29.720  1.00  0.00     0.031 A 
ATOM     37  C   UNL A   1      38.457  30.983  31.168  1.00  0.00     0.074 A 
ATOM     38  C   UNL A   1      39.067  29.720  29.138  1.00  0.00     0.049 A 
ATOM     39  N   UNL A   1      39.350  30.544  32.019  1.00  0.00    -0.248 NA
ATOM     40  C   UNL A   1      37.521  31.969  31.734  1.00  0.00     0.031 C 
ATOM     41  C   UNL A   1      38.962  29.252  27.758  1.00  0.00     0.029 A 
ATOM     42  N   UNL A   1      40.141  29.032  29.647  1.00  0.00    -0.354 N 
ATOM     43  C   UNL A   1      39.084  31.195  33.218  1.00  0.00     0.074 A 
ATOM     44  C   UNL A   1      37.964  32.081  32.978  1.00  0.00     0.031 C 
ATOM     45  C   UNL A   1      39.937  28.354  27.529  1.00  0.00     0.029 A 
ATOM     46  C   UNL A   1      40.743  28.198  28.739  1.00  0.00     0.049 A 
ATOM     47  H   UNL A   1      40.451  29.129  30.576  1.00  0.00     0.167 HD
ATOM     48  C   UNL A   1      39.705  31.062  34.413  1.00  0.00     0.037 A 
ATOM     49  C   UNL A   1      41.823  27.404  28.869  1.00  0.00     0.037 A 
ATOM     50  C   UNL A   1      40.815  30.180  34.662  1.00  0.00     0.049 A 
ATOM     51  C   UNL A   1      42.540  27.327  30.192  1.00  0.00     0.074 A 
ATOM     52  C   UNL A   1      41.482  29.950  35.853  1.00  0.00     0.029 A 
ATOM     53  N   UNL A   1      41.426  29.391  33.703  1.00  0.00    -0.354 N 
ATOM     54  N   UNL A   1      42.248  27.911  31.328  1.00  0.00    -0.248 NA
ATOM     55  C   UNL A   1      43.738  26.475  30.248  1.00  0.00     0.031 C 
ATOM     56  C   UNL A   1      42.529  29.056  35.603  1.00  0.00     0.029 A 
ATOM     57  C   UNL A   1      42.484  28.696  34.266  1.00  0.00     0.049 A 
ATOM     58  H   UNL A   1      41.149  29.331  32.760  1.00  0.00     0.167 HD
ATOM     59  C   UNL A   1      43.204  27.474  32.239  1.00  0.00     0.074 A 
ATOM     60  C   UNL A   1      44.079  26.567  31.525  1.00  0.00     0.031 C 
ATOM     61  C   UNL A   1      43.345  27.793  33.548  1.00  0.00     0.037 A 
BRANCH  48  62
ATOM     62  C   UNL A   1      39.208  31.906  35.547  1.00  0.00     0.057 A 
ATOM     63  C   UNL A   1      38.287  31.420  36.483  1.00  0.00     0.134 A 
ATOM     64  C   UNL A   1      39.691  33.209  35.730  1.00  0.00     0.134 A 
ATOM     65  F   UNL A   1      37.777  30.186  36.355  1.00  0.00    -0.206 F 
ATOM     66  C   UNL A   1      37.851  32.204  37.551  1.00  0.00     0.040 A 
ATOM     67  C   UNL A   1      39.280  33.995  36.806  1.00  0.00     0.040 A 
ATOM     68  F   UNL A   1      40.579  33.731  34.870  1.00  0.00    -0.206 F 
ATOM     69  C   UNL A   1      38.354  33.494  37.719  1.00  0.00     0.006 A 
ENDBRANCH  48  62
BRANCH  49  70
ATOM     70  C   UNL A   1      42.311  26.609  27.714  1.00  0.00     0.057 A 
ATOM     71  C   UNL A   1      43.161  27.172  26.755  1.00  0.00     0.134 A 
ATOM     72  C   UNL A   1      41.896  25.287  27.514  1.00  0.00     0.134 A 
ATOM     73  F   UNL A   1      43.568  28.444  26.878  1.00  0.00    -0.206 F 
ATOM     74  C   UNL A   1      43.566  26.455  25.628  1.00  0.00     0.040 A 
ATOM     75  C   UNL A   1      42.311  24.551  26.403  1.00  0.00     0.040 A 
ATOM     76  F   UNL A   1      41.078  24.693  28.395  1.00  0.00    -0.206 F 
ATOM     77  C   UNL A   1      43.143  25.140  25.451  1.00  0.00     0.006 A 
ENDBRANCH  49  70
BRANCH  61  78
ATOM     78  C   UNL A   1      44.465  27.135  34.300  1.00  0.00     0.057 A 
ATOM     79  C   UNL A   1      45.722  27.739  34.431  1.00  0.00     0.134 A 
ATOM     80  C   UNL A   1      44.277  25.895  34.923  1.00  0.00     0.134 A 
ATOM     81  F   UNL A   1      45.972  28.921  33.848  1.00  0.00    -0.206 F 
ATOM     82  C   UNL A   1      46.760  27.120  35.130  1.00  0.00     0.040 A 
ATOM     83  C   UNL A   1      45.298  25.277  35.646  1.00  0.00     0.040 A 
ATOM     84  F   UNL A   1      43.093  25.266  34.846  1.00  0.00    -0.206 F 
ATOM     85  C   UNL A   1      46.547  25.887  35.744  1.00  0.00     0.006 A 
ENDBRANCH  61  78
ENDBRANCH  35  36
ENDBRANCH  28  30
ENDBRANCH  27  28
ENDBRANCH  26  27
ENDBRANCH  25  26
ENDBRANCH  24  25
ENDBRANCH  23  24
ENDBRANCH   1  23
TORSDOF 21
ENDMDL
