MODEL 1
REMARK VINA RESULT:     -11.0      0.000      0.000
REMARK SMILES CCOc1cnc(C(=O)c2[nH]c3cc(Cl)ccc3c2CC(=O)OCCOCCOCCOC(=O)c2ccc(-c3c4nc(c(-c5c(F)cccc5F)c5ccc([nH]5)c(-c5c(F)cccc5F)c5nc(c(-c6c(F)cccc6F)c6ccc3[nH]6)C=C5)C=C4)cc2)cc1CC
REMARK SMILES IDX 26 1 25 2 24 3 23 4 21 5 22 6 20 7 19 8 10 9 11 10 12 11
REMARK SMILES IDX 18 13 13 14 17 15 14 16 16 17 15 18 8 19 9 20 7 21 4 22 5 23
REMARK SMILES IDX 90 24 6 25 89 26 3 27 2 28 1 29 91 30 92 31 27 32 28 33
REMARK SMILES IDX 29 34 30 35 31 36 32 37 33 38 34 39 35 40 36 41 88 42 37 43
REMARK SMILES IDX 87 44 38 45 39 46 40 47 81 48 41 49 86 50 80 51 82 52 42 53
REMARK SMILES IDX 85 54 79 55 78 56 43 58 69 59 52 60 68 61 53 62 56 63 67 64
REMARK SMILES IDX 83 65 54 66 55 67 66 69 84 70 57 71 44 72 45 73 50 74 46 75
REMARK SMILES IDX 47 76 49 77 51 78 48 79 70 80 71 81 76 82 72 83 73 84 75 85
REMARK SMILES IDX 77 86 74 87 58 88 59 89 64 90 60 91 61 92 63 93 65 94 62 95
REMARK H PARENT 11 12 82 57 56 68
REMARK Flexibility Score: inf
ROOT
ATOM      1  O   UNL A   1      31.022  27.312  21.841  1.00  0.00    -0.376 OA
ENDROOT
BRANCH   1   2
ATOM      2  C   UNL A   1      31.394  25.946  21.950  1.00  0.00     0.202 C 
BRANCH   2   3
ATOM      3  C   UNL A   1      32.897  25.676  22.030  1.00  0.00     0.261 C 
BRANCH   3   4
ATOM      4  O   UNL A   1      33.265  24.365  21.538  1.00  0.00    -0.463 OA
BRANCH   4   5
ATOM      5  C   UNL A   1      33.763  23.506  22.466  1.00  0.00     0.310 C 
ATOM      6  O   UNL A   1      34.953  23.201  22.533  1.00  0.00    -0.252 OA
BRANCH   5   7
ATOM      7  C   UNL A   1      32.761  22.864  23.403  1.00  0.00     0.161 C 
BRANCH   7   8
ATOM      8  C   UNL A   1      33.158  21.728  24.318  1.00  0.00     0.000 A 
ATOM      9  C   UNL A   1      34.041  21.777  25.404  1.00  0.00     0.093 A 
ATOM     10  N   UNL A   1      34.077  20.513  25.951  1.00  0.00    -0.351 N 
ATOM     11  C   UNL A   1      33.576  19.603  25.058  1.00  0.00     0.048 A 
ATOM     12  H   UNL A   1      34.412  20.297  26.851  1.00  0.00     0.167 HD
ATOM     13  C   UNL A   1      32.951  20.331  24.047  1.00  0.00     0.004 A 
ATOM     14  C   UNL A   1      33.655  18.206  25.067  1.00  0.00     0.047 A 
ATOM     15  C   UNL A   1      32.362  19.618  22.982  1.00  0.00     0.012 A 
ATOM     16  C   UNL A   1      33.114  17.533  23.971  1.00  0.00     0.043 A 
ATOM     17  C   UNL A   1      32.472  18.221  22.944  1.00  0.00     0.021 A 
ATOM     18  Cl  UNL A   1      33.277  15.821  23.876  1.00  0.00    -0.084 Cl
BRANCH   9  19
ATOM     19  C   UNL A   1      34.787  22.910  25.921  1.00  0.00     0.227 C 
ATOM     20  O   UNL A   1      34.220  23.897  26.388  1.00  0.00    -0.285 OA
BRANCH  19  21
ATOM     21  C   UNL A   1      36.288  22.905  25.864  1.00  0.00     0.113 A 
ATOM     22  C   UNL A   1      38.996  22.538  26.039  1.00  0.00     0.140 A 
ATOM     23  C   UNL A   1      38.163  21.639  25.403  1.00  0.00     0.158 A 
ATOM     24  C   UNL A   1      38.462  23.758  26.450  1.00  0.00    -0.002 A 
ATOM     25  N   UNL A   1      36.830  21.807  25.296  1.00  0.00    -0.249 NA
ATOM     26  C   UNL A   1      37.065  23.922  26.410  1.00  0.00     0.040 A 
BRANCH  22  27
ATOM     27  O   UNL A   1      40.310  22.230  26.242  1.00  0.00    -0.492 OA
BRANCH  27  28
ATOM     28  C   UNL A   1      40.490  21.613  27.535  1.00  0.00     0.226 C 
ATOM     29  C   UNL A   1      41.236  20.297  27.401  1.00  0.00     0.049 C 
ENDBRANCH  27  28
ENDBRANCH  22  27
BRANCH  24  30
ATOM     30  C   UNL A   1      39.354  24.902  26.856  1.00  0.00     0.036 C 
ATOM     31  C   UNL A   1      39.070  25.309  28.295  1.00  0.00     0.009 C 
ENDBRANCH  24  30
ENDBRANCH  19  21
ENDBRANCH   9  19
ENDBRANCH   7   8
ENDBRANCH   5   7
ENDBRANCH   4   5
ENDBRANCH   3   4
ENDBRANCH   2   3
ENDBRANCH   1   2
BRANCH   1  32
ATOM     32  C   UNL A   1      30.057  27.812  22.759  1.00  0.00     0.188 C 
BRANCH  32  33
ATOM     33  C   UNL A   1      30.539  28.294  24.141  1.00  0.00     0.188 C 
BRANCH  33  34
ATOM     34  O   UNL A   1      31.490  29.350  24.205  1.00  0.00    -0.376 OA
BRANCH  34  35
ATOM     35  C   UNL A   1      31.539  30.107  25.409  1.00  0.00     0.202 C 
BRANCH  35  36
ATOM     36  C   UNL A   1      32.938  30.222  26.002  1.00  0.00     0.261 C 
BRANCH  36  37
ATOM     37  O   UNL A   1      32.863  30.683  27.363  1.00  0.00    -0.460 OA
BRANCH  37  38
ATOM     38  C   UNL A   1      33.657  31.741  27.634  1.00  0.00     0.338 C 
ATOM     39  O   UNL A   1      33.326  32.914  27.675  1.00  0.00    -0.246 OA
BRANCH  38  40
ATOM     40  C   UNL A   1      35.044  31.309  27.887  1.00  0.00     0.060 A 
ATOM     41  C   UNL A   1      35.318  29.981  28.190  1.00  0.00     0.016 A 
ATOM     42  C   UNL A   1      36.026  32.278  28.076  1.00  0.00     0.016 A 
ATOM     43  C   UNL A   1      36.503  29.645  28.851  1.00  0.00     0.010 A 
ATOM     44  C   UNL A   1      37.255  31.920  28.640  1.00  0.00     0.010 A 
ATOM     45  C   UNL A   1      37.478  30.615  29.115  1.00  0.00    -0.014 A 
BRANCH  45  46
ATOM     46  C   UNL A   1      38.668  30.308  29.964  1.00  0.00     0.031 A 
ATOM     47  C   UNL A   1      39.759  29.392  29.447  1.00  0.00     0.074 A 
ATOM     48  C   UNL A   1      38.810  30.859  31.185  1.00  0.00     0.049 A 
ATOM     49  N   UNL A   1      40.785  28.878  30.081  1.00  0.00    -0.248 NA
ATOM     50  C   UNL A   1      39.698  29.017  28.025  1.00  0.00     0.031 C 
ATOM     51  C   UNL A   1      37.906  31.840  31.788  1.00  0.00     0.029 A 
ATOM     52  N   UNL A   1      39.769  30.658  32.151  1.00  0.00    -0.354 N 
ATOM     53  C   UNL A   1      41.470  28.108  29.147  1.00  0.00     0.074 A 
ATOM     54  C   UNL A   1      40.743  28.211  27.902  1.00  0.00     0.031 C 
ATOM     55  C   UNL A   1      38.352  32.158  33.010  1.00  0.00     0.029 A 
ATOM     56  C   UNL A   1      39.508  31.327  33.323  1.00  0.00     0.049 A 
ATOM     57  H   UNL A   1      40.563  30.092  32.016  1.00  0.00     0.167 HD
ATOM     58  C   UNL A   1      42.597  27.373  29.309  1.00  0.00     0.037 A 
ATOM     59  C   UNL A   1      40.078  31.231  34.539  1.00  0.00     0.037 A 
ATOM     60  C   UNL A   1      43.298  27.228  30.556  1.00  0.00     0.049 A 
ATOM     61  C   UNL A   1      41.204  30.262  34.749  1.00  0.00     0.074 A 
ATOM     62  C   UNL A   1      44.417  26.462  30.835  1.00  0.00     0.029 A 
ATOM     63  N   UNL A   1      42.931  27.846  31.742  1.00  0.00    -0.354 N 
ATOM     64  N   UNL A   1      41.815  29.504  33.872  1.00  0.00    -0.248 NA
ATOM     65  C   UNL A   1      41.699  30.112  36.124  1.00  0.00     0.031 C 
ATOM     66  C   UNL A   1      44.689  26.568  32.205  1.00  0.00     0.029 A 
ATOM     67  C   UNL A   1      43.775  27.445  32.765  1.00  0.00     0.049 A 
ATOM     68  H   UNL A   1      42.182  28.477  31.841  1.00  0.00     0.167 HD
ATOM     69  C   UNL A   1      42.777  28.799  34.585  1.00  0.00     0.074 A 
ATOM     70  C   UNL A   1      42.676  29.231  35.963  1.00  0.00     0.031 C 
ATOM     71  C   UNL A   1      43.663  27.877  34.134  1.00  0.00     0.037 A 
BRANCH  58  72
ATOM     72  C   UNL A   1      43.102  26.614  28.117  1.00  0.00     0.057 A 
ATOM     73  C   UNL A   1      43.904  27.213  27.138  1.00  0.00     0.134 A 
ATOM     74  C   UNL A   1      42.796  25.256  27.959  1.00  0.00     0.134 A 
ATOM     75  F   UNL A   1      44.228  28.513  27.225  1.00  0.00    -0.206 F 
ATOM     76  C   UNL A   1      44.366  26.494  26.032  1.00  0.00     0.040 A 
ATOM     77  C   UNL A   1      43.268  24.522  26.871  1.00  0.00     0.040 A 
ATOM     78  F   UNL A   1      42.037  24.621  28.864  1.00  0.00    -0.206 F 
ATOM     79  C   UNL A   1      44.051  25.143  25.899  1.00  0.00     0.006 A 
ENDBRANCH  58  72
BRANCH  59  80
ATOM     80  C   UNL A   1      39.524  32.016  35.673  1.00  0.00     0.057 A 
ATOM     81  C   UNL A   1      38.442  31.547  36.424  1.00  0.00     0.134 A 
ATOM     82  C   UNL A   1      40.076  33.252  36.038  1.00  0.00     0.134 A 
ATOM     83  F   UNL A   1      37.850  30.387  36.104  1.00  0.00    -0.206 F 
ATOM     84  C   UNL A   1      37.931  32.275  37.500  1.00  0.00     0.040 A 
ATOM     85  C   UNL A   1      39.596  33.975  37.130  1.00  0.00     0.040 A 
ATOM     86  F   UNL A   1      41.110  33.762  35.353  1.00  0.00    -0.206 F 
ATOM     87  C   UNL A   1      38.517  33.487  37.863  1.00  0.00     0.006 A 
ENDBRANCH  59  80
BRANCH  71  88
ATOM     88  C   UNL A   1      44.612  27.295  35.138  1.00  0.00     0.057 A 
ATOM     89  C   UNL A   1      44.299  26.144  35.871  1.00  0.00     0.134 A 
ATOM     90  C   UNL A   1      45.865  27.881  35.355  1.00  0.00     0.134 A 
ATOM     91  F   UNL A   1      43.109  25.544  35.719  1.00  0.00    -0.206 F 
ATOM     92  C   UNL A   1      45.191  25.608  36.801  1.00  0.00     0.040 A 
ATOM     93  C   UNL A   1      46.776  27.340  36.264  1.00  0.00     0.040 A 
ATOM     94  F   UNL A   1      46.229  28.981  34.680  1.00  0.00    -0.206 F 
ATOM     95  C   UNL A   1      46.436  26.203  36.995  1.00  0.00     0.006 A 
ENDBRANCH  71  88
ENDBRANCH  45  46
ENDBRANCH  38  40
ENDBRANCH  37  38
ENDBRANCH  36  37
ENDBRANCH  35  36
ENDBRANCH  34  35
ENDBRANCH  33  34
ENDBRANCH  32  33
ENDBRANCH   1  32
TORSDOF 23
ENDMDL
MODEL 2
REMARK VINA RESULT:     -10.7      2.720      8.101
REMARK SMILES CCOc1cnc(C(=O)c2[nH]c3cc(Cl)ccc3c2CC(=O)OCCOCCOCCOC(=O)c2ccc(-c3c4nc(c(-c5c(F)cccc5F)c5ccc([nH]5)c(-c5c(F)cccc5F)c5nc(c(-c6c(F)cccc6F)c6ccc3[nH]6)C=C5)C=C4)cc2)cc1CC
REMARK SMILES IDX 26 1 25 2 24 3 23 4 21 5 22 6 20 7 19 8 10 9 11 10 12 11
REMARK SMILES IDX 18 13 13 14 17 15 14 16 16 17 15 18 8 19 9 20 7 21 4 22 5 23
REMARK SMILES IDX 90 24 6 25 89 26 3 27 2 28 1 29 91 30 92 31 27 32 28 33
REMARK SMILES IDX 29 34 30 35 31 36 32 37 33 38 34 39 35 40 36 41 88 42 37 43
REMARK SMILES IDX 87 44 38 45 39 46 40 47 81 48 41 49 86 50 80 51 82 52 42 53
REMARK SMILES IDX 85 54 79 55 78 56 43 58 69 59 52 60 68 61 53 62 56 63 67 64
REMARK SMILES IDX 83 65 54 66 55 67 66 69 84 70 57 71 44 72 45 73 50 74 46 75
REMARK SMILES IDX 47 76 49 77 51 78 48 79 70 80 71 81 76 82 72 83 73 84 75 85
REMARK SMILES IDX 77 86 74 87 58 88 59 89 64 90 60 91 61 92 63 93 65 94 62 95
REMARK H PARENT 11 12 82 57 56 68
REMARK Flexibility Score: inf
ROOT
ATOM      1  O   UNL A   1      36.108  22.544  26.054  1.00  0.00    -0.376 OA
ENDROOT
BRANCH   1   2
ATOM      2  C   UNL A   1      35.128  23.301  25.356  1.00  0.00     0.202 C 
BRANCH   2   3
ATOM      3  C   UNL A   1      34.566  24.506  26.110  1.00  0.00     0.261 C 
BRANCH   3   4
ATOM      4  O   UNL A   1      34.530  25.712  25.309  1.00  0.00    -0.463 OA
BRANCH   4   5
ATOM      5  C   UNL A   1      33.571  26.613  25.643  1.00  0.00     0.310 C 
ATOM      6  O   UNL A   1      32.893  26.528  26.666  1.00  0.00    -0.252 OA
BRANCH   5   7
ATOM      7  C   UNL A   1      33.308  27.725  24.648  1.00  0.00     0.161 C 
BRANCH   7   8
ATOM      8  C   UNL A   1      32.033  27.768  23.837  1.00  0.00     0.000 A 
ATOM      9  C   UNL A   1      31.705  26.988  22.721  1.00  0.00     0.093 A 
ATOM     10  N   UNL A   1      30.438  27.357  22.330  1.00  0.00    -0.351 N 
ATOM     11  C   UNL A   1      30.111  28.565  22.886  1.00  0.00     0.048 A 
ATOM     12  H   UNL A   1      29.854  26.831  21.738  1.00  0.00     0.167 HD
ATOM     13  C   UNL A   1      31.063  28.829  23.869  1.00  0.00     0.004 A 
ATOM     14  C   UNL A   1      29.064  29.439  22.573  1.00  0.00     0.047 A 
ATOM     15  C   UNL A   1      30.958  30.038  24.588  1.00  0.00     0.012 A 
ATOM     16  C   UNL A   1      29.021  30.652  23.261  1.00  0.00     0.043 A 
ATOM     17  C   UNL A   1      29.947  30.951  24.257  1.00  0.00     0.021 A 
ATOM     18  Cl  UNL A   1      27.819  31.811  22.841  1.00  0.00    -0.084 Cl
BRANCH   9  19
ATOM     19  C   UNL A   1      32.492  25.957  22.068  1.00  0.00     0.227 C 
ATOM     20  O   UNL A   1      33.132  26.185  21.043  1.00  0.00    -0.285 OA
BRANCH  19  21
ATOM     21  C   UNL A   1      32.512  24.564  22.631  1.00  0.00     0.113 A 
ATOM     22  C   UNL A   1      32.338  21.907  23.270  1.00  0.00     0.140 A 
ATOM     23  C   UNL A   1      33.146  22.376  22.253  1.00  0.00     0.158 A 
ATOM     24  C   UNL A   1      31.727  22.835  24.111  1.00  0.00    -0.002 A 
ATOM     25  N   UNL A   1      33.255  23.681  21.931  1.00  0.00    -0.249 NA
ATOM     26  C   UNL A   1      31.772  24.194  23.750  1.00  0.00     0.040 A 
BRANCH  22  27
ATOM     27  O   UNL A   1      32.161  20.564  23.441  1.00  0.00    -0.492 OA
BRANCH  27  28
ATOM     28  C   UNL A   1      33.175  20.031  24.318  1.00  0.00     0.226 C 
ATOM     29  C   UNL A   1      32.772  18.658  24.830  1.00  0.00     0.049 C 
ENDBRANCH  27  28
ENDBRANCH  22  27
BRANCH  24  30
ATOM     30  C   UNL A   1      31.100  22.412  25.414  1.00  0.00     0.036 C 
ATOM     31  C   UNL A   1      30.686  23.633  26.223  1.00  0.00     0.009 C 
ENDBRANCH  24  30
ENDBRANCH  19  21
ENDBRANCH   9  19
ENDBRANCH   7   8
ENDBRANCH   5   7
ENDBRANCH   4   5
ENDBRANCH   3   4
ENDBRANCH   2   3
ENDBRANCH   1   2
BRANCH   1  32
ATOM     32  C   UNL A   1      37.460  22.657  25.627  1.00  0.00     0.188 C 
BRANCH  32  33
ATOM     33  C   UNL A   1      38.371  21.419  25.737  1.00  0.00     0.188 C 
BRANCH  33  34
ATOM     34  O   UNL A   1      39.782  21.603  25.720  1.00  0.00    -0.376 OA
BRANCH  34  35
ATOM     35  C   UNL A   1      40.572  20.628  26.390  1.00  0.00     0.202 C 
BRANCH  35  36
ATOM     36  C   UNL A   1      42.066  20.761  26.120  1.00  0.00     0.261 C 
BRANCH  36  37
ATOM     37  O   UNL A   1      42.559  21.999  26.662  1.00  0.00    -0.460 OA
BRANCH  37  38
ATOM     38  C   UNL A   1      42.638  23.005  25.764  1.00  0.00     0.338 C 
ATOM     39  O   UNL A   1      43.097  22.945  24.636  1.00  0.00    -0.246 OA
BRANCH  38  40
ATOM     40  C   UNL A   1      42.086  24.253  26.321  1.00  0.00     0.060 A 
ATOM     41  C   UNL A   1      42.788  25.446  26.194  1.00  0.00     0.016 A 
ATOM     42  C   UNL A   1      41.001  24.179  27.190  1.00  0.00     0.016 A 
ATOM     43  C   UNL A   1      42.524  26.507  27.064  1.00  0.00     0.010 A 
ATOM     44  C   UNL A   1      40.671  25.282  27.984  1.00  0.00     0.010 A 
ATOM     45  C   UNL A   1      41.481  26.432  27.995  1.00  0.00    -0.014 A 
BRANCH  45  46
ATOM     46  C   UNL A   1      41.294  27.484  29.039  1.00  0.00     0.031 A 
ATOM     47  C   UNL A   1      42.175  27.503  30.271  1.00  0.00     0.074 A 
ATOM     48  C   UNL A   1      40.365  28.449  28.892  1.00  0.00     0.049 A 
ATOM     49  N   UNL A   1      42.071  28.229  31.358  1.00  0.00    -0.248 NA
ATOM     50  C   UNL A   1      43.336  26.599  30.276  1.00  0.00     0.031 C 
ATOM     51  C   UNL A   1      39.507  28.635  27.720  1.00  0.00     0.029 A 
ATOM     52  N   UNL A   1      39.975  29.452  29.748  1.00  0.00    -0.354 N 
ATOM     53  C   UNL A   1      43.132  27.852  32.176  1.00  0.00     0.074 A 
ATOM     54  C   UNL A   1      43.866  26.828  31.469  1.00  0.00     0.031 C 
ATOM     55  C   UNL A   1      38.701  29.685  27.926  1.00  0.00     0.029 A 
ATOM     56  C   UNL A   1      38.905  30.178  29.282  1.00  0.00     0.049 A 
ATOM     57  H   UNL A   1      40.418  29.632  30.609  1.00  0.00     0.167 HD
ATOM     58  C   UNL A   1      43.463  28.309  33.408  1.00  0.00     0.037 A 
ATOM     59  C   UNL A   1      38.119  31.084  29.896  1.00  0.00     0.037 A 
ATOM     60  C   UNL A   1      42.708  29.293  34.137  1.00  0.00     0.049 A 
ATOM     61  C   UNL A   1      38.383  31.434  31.332  1.00  0.00     0.074 A 
ATOM     62  C   UNL A   1      42.931  29.781  35.414  1.00  0.00     0.029 A 
ATOM     63  N   UNL A   1      41.569  29.924  33.661  1.00  0.00    -0.354 N 
ATOM     64  N   UNL A   1      39.359  31.038  32.112  1.00  0.00    -0.248 NA
ATOM     65  C   UNL A   1      37.418  32.331  31.981  1.00  0.00     0.031 C 
ATOM     66  C   UNL A   1      41.889  30.661  35.733  1.00  0.00     0.029 A 
ATOM     67  C   UNL A   1      41.052  30.763  34.634  1.00  0.00     0.049 A 
ATOM     68  H   UNL A   1      41.186  29.794  32.764  1.00  0.00     0.167 HD
ATOM     69  C   UNL A   1      39.135  31.651  33.338  1.00  0.00     0.074 A 
ATOM     70  C   UNL A   1      37.939  32.453  33.193  1.00  0.00     0.031 C 
ATOM     71  C   UNL A   1      39.858  31.554  34.481  1.00  0.00     0.037 A 
BRANCH  58  72
ATOM     72  C   UNL A   1      44.659  27.694  34.073  1.00  0.00     0.057 A 
ATOM     73  C   UNL A   1      45.926  28.290  34.024  1.00  0.00     0.134 A 
ATOM     74  C   UNL A   1      44.535  26.497  34.790  1.00  0.00     0.134 A 
ATOM     75  F   UNL A   1      46.114  29.434  33.348  1.00  0.00    -0.206 F 
ATOM     76  C   UNL A   1      47.031  27.705  34.647  1.00  0.00     0.040 A 
ATOM     77  C   UNL A   1      45.628  25.913  35.433  1.00  0.00     0.040 A 
ATOM     78  F   UNL A   1      43.349  25.878  34.880  1.00  0.00    -0.206 F 
ATOM     79  C   UNL A   1      46.882  26.516  35.357  1.00  0.00     0.006 A 
ENDBRANCH  58  72
BRANCH  59  80
ATOM     80  C   UNL A   1      36.952  31.652  29.173  1.00  0.00     0.057 A 
ATOM     81  C   UNL A   1      35.778  30.915  28.994  1.00  0.00     0.134 A 
ATOM     82  C   UNL A   1      36.982  32.954  28.655  1.00  0.00     0.134 A 
ATOM     83  F   UNL A   1      35.698  29.652  29.439  1.00  0.00    -0.206 F 
ATOM     84  C   UNL A   1      34.673  31.453  28.330  1.00  0.00     0.040 A 
ATOM     85  C   UNL A   1      35.876  33.515  28.017  1.00  0.00     0.040 A 
ATOM     86  F   UNL A   1      38.082  33.711  28.786  1.00  0.00    -0.206 F 
ATOM     87  C   UNL A   1      34.717  32.761  27.850  1.00  0.00     0.006 A 
ENDBRANCH  59  80
BRANCH  71  88
ATOM     88  C   UNL A   1      39.389  32.359  35.656  1.00  0.00     0.057 A 
ATOM     89  C   UNL A   1      39.812  33.677  35.865  1.00  0.00     0.134 A 
ATOM     90  C   UNL A   1      38.485  31.815  36.577  1.00  0.00     0.134 A 
ATOM     91  F   UNL A   1      40.690  34.251  35.027  1.00  0.00    -0.206 F 
ATOM     92  C   UNL A   1      39.369  34.420  36.960  1.00  0.00     0.040 A 
ATOM     93  C   UNL A   1      38.015  32.556  37.662  1.00  0.00     0.040 A 
ATOM     94  F   UNL A   1      38.036  30.560  36.429  1.00  0.00    -0.206 F 
ATOM     95  C   UNL A   1      38.462  33.860  37.859  1.00  0.00     0.006 A 
ENDBRANCH  71  88
ENDBRANCH  45  46
ENDBRANCH  38  40
ENDBRANCH  37  38
ENDBRANCH  36  37
ENDBRANCH  35  36
ENDBRANCH  34  35
ENDBRANCH  33  34
ENDBRANCH  32  33
ENDBRANCH   1  32
TORSDOF 23
ENDMDL
MODEL 3
REMARK VINA RESULT:     -10.4      1.603      2.312
REMARK SMILES CCOc1cnc(C(=O)c2[nH]c3cc(Cl)ccc3c2CC(=O)OCCOCCOCCOC(=O)c2ccc(-c3c4nc(c(-c5c(F)cccc5F)c5ccc([nH]5)c(-c5c(F)cccc5F)c5nc(c(-c6c(F)cccc6F)c6ccc3[nH]6)C=C5)C=C4)cc2)cc1CC
REMARK SMILES IDX 26 1 25 2 24 3 23 4 21 5 22 6 20 7 19 8 10 9 11 10 12 11
REMARK SMILES IDX 18 13 13 14 17 15 14 16 16 17 15 18 8 19 9 20 7 21 4 22 5 23
REMARK SMILES IDX 90 24 6 25 89 26 3 27 2 28 1 29 91 30 92 31 27 32 28 33
REMARK SMILES IDX 29 34 30 35 31 36 32 37 33 38 34 39 35 40 36 41 88 42 37 43
REMARK SMILES IDX 87 44 38 45 39 46 40 47 81 48 41 49 86 50 80 51 82 52 42 53
REMARK SMILES IDX 85 54 79 55 78 56 43 58 69 59 52 60 68 61 53 62 56 63 67 64
REMARK SMILES IDX 83 65 54 66 55 67 66 69 84 70 57 71 44 72 45 73 50 74 46 75
REMARK SMILES IDX 47 76 49 77 51 78 48 79 70 80 71 81 76 82 72 83 73 84 75 85
REMARK SMILES IDX 77 86 74 87 58 88 59 89 64 90 60 91 61 92 63 93 65 94 62 95
REMARK H PARENT 11 12 82 57 56 68
REMARK Flexibility Score: inf
ROOT
ATOM      1  O   UNL A   1      32.663  28.749  24.066  1.00  0.00    -0.376 OA
ENDROOT
BRANCH   1   2
ATOM      2  C   UNL A   1      32.361  27.361  24.034  1.00  0.00     0.202 C 
BRANCH   2   3
ATOM      3  C   UNL A   1      33.474  26.456  23.505  1.00  0.00     0.261 C 
BRANCH   3   4
ATOM      4  O   UNL A   1      33.122  25.051  23.526  1.00  0.00    -0.463 OA
BRANCH   4   5
ATOM      5  C   UNL A   1      34.158  24.186  23.673  1.00  0.00     0.310 C 
ATOM      6  O   UNL A   1      34.910  23.873  22.750  1.00  0.00    -0.252 OA
BRANCH   5   7
ATOM      7  C   UNL A   1      34.322  23.547  25.037  1.00  0.00     0.161 C 
BRANCH   7   8
ATOM      8  C   UNL A   1      34.831  22.131  25.183  1.00  0.00     0.000 A 
ATOM      9  C   UNL A   1      36.153  21.717  25.392  1.00  0.00     0.093 A 
ATOM     10  N   UNL A   1      36.135  20.344  25.486  1.00  0.00    -0.351 N 
ATOM     11  C   UNL A   1      34.962  19.856  24.975  1.00  0.00     0.048 A 
ATOM     12  H   UNL A   1      36.859  19.795  25.864  1.00  0.00     0.167 HD
ATOM     13  C   UNL A   1      34.105  20.944  24.820  1.00  0.00     0.004 A 
ATOM     14  C   UNL A   1      34.615  18.546  24.625  1.00  0.00     0.047 A 
ATOM     15  C   UNL A   1      32.820  20.708  24.288  1.00  0.00     0.012 A 
ATOM     16  C   UNL A   1      33.360  18.355  24.048  1.00  0.00     0.043 A 
ATOM     17  C   UNL A   1      32.470  19.413  23.883  1.00  0.00     0.021 A 
ATOM     18  Cl  UNL A   1      32.923  16.782  23.498  1.00  0.00    -0.084 Cl
BRANCH   9  19
ATOM     19  C   UNL A   1      37.351  22.528  25.518  1.00  0.00     0.227 C 
ATOM     20  O   UNL A   1      37.334  23.741  25.316  1.00  0.00    -0.285 OA
BRANCH  19  21
ATOM     21  C   UNL A   1      38.658  21.879  25.875  1.00  0.00     0.113 A 
ATOM     22  C   UNL A   1      40.783  20.378  26.730  1.00  0.00     0.140 A 
ATOM     23  C   UNL A   1      39.903  19.937  25.762  1.00  0.00     0.158 A 
ATOM     24  C   UNL A   1      40.688  21.701  27.157  1.00  0.00    -0.002 A 
ATOM     25  N   UNL A   1      38.858  20.665  25.319  1.00  0.00    -0.249 NA
ATOM     26  C   UNL A   1      39.566  22.451  26.760  1.00  0.00     0.040 A 
BRANCH  22  27
ATOM     27  O   UNL A   1      41.726  19.531  27.237  1.00  0.00    -0.492 OA
BRANCH  27  28
ATOM     28  C   UNL A   1      42.365  18.794  26.173  1.00  0.00     0.226 C 
ATOM     29  C   UNL A   1      43.597  18.070  26.689  1.00  0.00     0.049 C 
ENDBRANCH  27  28
ENDBRANCH  22  27
BRANCH  24  30
ATOM     30  C   UNL A   1      41.791  22.342  27.959  1.00  0.00     0.036 C 
ATOM     31  C   UNL A   1      42.796  23.014  27.034  1.00  0.00     0.009 C 
ENDBRANCH  24  30
ENDBRANCH  19  21
ENDBRANCH   9  19
ENDBRANCH   7   8
ENDBRANCH   5   7
ENDBRANCH   4   5
ENDBRANCH   3   4
ENDBRANCH   2   3
ENDBRANCH   1   2
BRANCH   1  32
ATOM     32  C   UNL A   1      33.417  29.237  25.170  1.00  0.00     0.188 C 
BRANCH  32  33
ATOM     33  C   UNL A   1      32.851  29.041  26.590  1.00  0.00     0.188 C 
BRANCH  33  34
ATOM     34  O   UNL A   1      32.254  30.151  27.249  1.00  0.00    -0.376 OA
BRANCH  34  35
ATOM     35  C   UNL A   1      31.613  31.123  26.430  1.00  0.00     0.202 C 
BRANCH  35  36
ATOM     36  C   UNL A   1      31.867  32.559  26.874  1.00  0.00     0.261 C 
BRANCH  36  37
ATOM     37  O   UNL A   1      33.109  32.642  27.596  1.00  0.00    -0.460 OA
BRANCH  37  38
ATOM     38  C   UNL A   1      33.255  33.774  28.319  1.00  0.00     0.338 C 
ATOM     39  O   UNL A   1      32.566  34.778  28.256  1.00  0.00    -0.246 OA
BRANCH  38  40
ATOM     40  C   UNL A   1      34.399  33.665  29.243  1.00  0.00     0.060 A 
ATOM     41  C   UNL A   1      35.629  34.211  28.899  1.00  0.00     0.016 A 
ATOM     42  C   UNL A   1      34.307  32.796  30.327  1.00  0.00     0.016 A 
ATOM     43  C   UNL A   1      36.795  33.751  29.518  1.00  0.00     0.010 A 
ATOM     44  C   UNL A   1      35.464  32.421  31.016  1.00  0.00     0.010 A 
ATOM     45  C   UNL A   1      36.735  32.825  30.566  1.00  0.00    -0.014 A 
BRANCH  45  46
ATOM     46  C   UNL A   1      37.972  32.200  31.123  1.00  0.00     0.031 A 
ATOM     47  C   UNL A   1      38.707  31.132  30.341  1.00  0.00     0.074 A 
ATOM     48  C   UNL A   1      38.474  32.594  32.311  1.00  0.00     0.049 A 
ATOM     49  N   UNL A   1      39.700  30.360  30.714  1.00  0.00    -0.248 NA
ATOM     50  C   UNL A   1      38.282  30.911  28.949  1.00  0.00     0.031 C 
ATOM     51  C   UNL A   1      37.948  33.680  33.139  1.00  0.00     0.029 A 
ATOM     52  N   UNL A   1      39.537  32.111  33.036  1.00  0.00    -0.354 N 
ATOM     53  C   UNL A   1      39.996  29.555  29.619  1.00  0.00     0.074 A 
ATOM     54  C   UNL A   1      39.077  29.922  28.566  1.00  0.00     0.031 C 
ATOM     55  C   UNL A   1      38.689  33.784  34.251  1.00  0.00     0.029 A 
ATOM     56  C   UNL A   1      39.670  32.707  34.268  1.00  0.00     0.049 A 
ATOM     57  H   UNL A   1      40.143  31.408  32.707  1.00  0.00     0.167 HD
ATOM     58  C   UNL A   1      40.942  28.592  29.499  1.00  0.00     0.037 A 
ATOM     59  C   UNL A   1      40.436  32.383  35.327  1.00  0.00     0.037 A 
ATOM     60  C   UNL A   1      41.827  28.190  30.559  1.00  0.00     0.049 A 
ATOM     61  C   UNL A   1      41.339  31.187  35.243  1.00  0.00     0.074 A 
ATOM     62  C   UNL A   1      42.782  27.186  30.553  1.00  0.00     0.029 A 
ATOM     63  N   UNL A   1      41.851  28.757  31.823  1.00  0.00    -0.354 N 
ATOM     64  N   UNL A   1      41.579  30.404  34.220  1.00  0.00    -0.248 NA
ATOM     65  C   UNL A   1      42.053  30.811  36.470  1.00  0.00     0.031 C 
ATOM     66  C   UNL A   1      43.339  27.106  31.835  1.00  0.00     0.029 A 
ATOM     67  C   UNL A   1      42.772  28.096  32.620  1.00  0.00     0.049 A 
ATOM     68  H   UNL A   1      41.296  29.517  32.111  1.00  0.00     0.167 HD
ATOM     69  C   UNL A   1      42.483  29.452  34.675  1.00  0.00     0.074 A 
ATOM     70  C   UNL A   1      42.758  29.766  36.061  1.00  0.00     0.031 C 
ATOM     71  C   UNL A   1      43.034  28.413  34.001  1.00  0.00     0.037 A 
BRANCH  58  72
ATOM     72  C   UNL A   1      41.017  27.859  28.192  1.00  0.00     0.057 A 
ATOM     73  C   UNL A   1      41.776  28.335  27.115  1.00  0.00     0.134 A 
ATOM     74  C   UNL A   1      40.335  26.648  28.017  1.00  0.00     0.134 A 
ATOM     75  F   UNL A   1      42.447  29.492  27.214  1.00  0.00    -0.206 F 
ATOM     76  C   UNL A   1      41.836  27.642  25.903  1.00  0.00     0.040 A 
ATOM     77  C   UNL A   1      40.403  25.936  26.819  1.00  0.00     0.040 A 
ATOM     78  F   UNL A   1      39.595  26.135  29.011  1.00  0.00    -0.206 F 
ATOM     79  C   UNL A   1      41.151  26.438  25.754  1.00  0.00     0.006 A 
ENDBRANCH  58  72
BRANCH  59  80
ATOM     80  C   UNL A   1      40.308  33.156  36.589  1.00  0.00     0.057 A 
ATOM     81  C   UNL A   1      39.351  32.825  37.552  1.00  0.00     0.134 A 
ATOM     82  C   UNL A   1      41.153  34.240  36.865  1.00  0.00     0.134 A 
ATOM     83  F   UNL A   1      38.492  31.818  37.333  1.00  0.00    -0.206 F 
ATOM     84  C   UNL A   1      39.240  33.539  38.747  1.00  0.00     0.040 A 
ATOM     85  C   UNL A   1      41.074  34.944  38.067  1.00  0.00     0.040 A 
ATOM     86  F   UNL A   1      42.087  34.615  35.978  1.00  0.00    -0.206 F 
ATOM     87  C   UNL A   1      40.111  34.594  39.011  1.00  0.00     0.006 A 
ENDBRANCH  59  80
BRANCH  71  88
ATOM     88  C   UNL A   1      44.012  27.556  34.748  1.00  0.00     0.057 A 
ATOM     89  C   UNL A   1      43.632  26.347  35.341  1.00  0.00     0.134 A 
ATOM     90  C   UNL A   1      45.356  27.937  34.853  1.00  0.00     0.134 A 
ATOM     91  F   UNL A   1      42.357  25.934  35.288  1.00  0.00    -0.206 F 
ATOM     92  C   UNL A   1      44.551  25.555  36.032  1.00  0.00     0.040 A 
ATOM     93  C   UNL A   1      46.289  27.141  35.519  1.00  0.00     0.040 A 
ATOM     94  F   UNL A   1      45.785  29.081  34.300  1.00  0.00    -0.206 F 
ATOM     95  C   UNL A   1      45.885  25.949  36.117  1.00  0.00     0.006 A 
ENDBRANCH  71  88
ENDBRANCH  45  46
ENDBRANCH  38  40
ENDBRANCH  37  38
ENDBRANCH  36  37
ENDBRANCH  35  36
ENDBRANCH  34  35
ENDBRANCH  33  34
ENDBRANCH  32  33
ENDBRANCH   1  32
TORSDOF 23
ENDMDL
