MODEL 1
REMARK VINA RESULT:     -12.6      0.000      0.000
REMARK SMILES CC1(C)O[C@@H]2C[C@H]3[C@H]4CCC5=CC(=O)C=C[C@@]5(C)[C@]4(F)[C@H](O)C[C@]3(C)[C@]2(C(=O)OCCOCCOCCOC(=O)c2ccc(-c3c4nc(c(-c5c(F)cccc5F)c5ccc([nH]5)c(-c5c(F)cccc5F)c5nc(c(-c6c(F)cccc6F)c6ccc3[nH]6)C=C5)C=C4)cc2)O1
REMARK SMILES IDX 34 1 33 2 32 3 31 4 30 5 29 6 27 7 28 8 26 9 1 10 2 11 4 12
REMARK SMILES IDX 95 13 3 14 5 15 6 16 24 17 7 18 23 19 25 20 8 21 21 22 9 23
REMARK SMILES IDX 19 24 10 25 17 26 20 27 11 28 16 29 18 30 12 31 15 32 13 33
REMARK SMILES IDX 14 34 22 35 35 37 36 38 37 39 38 40 39 41 40 42 41 43 42 44
REMARK SMILES IDX 94 45 43 46 93 47 44 48 45 49 46 50 87 51 47 52 92 53 86 54
REMARK SMILES IDX 88 55 48 56 91 57 85 58 84 59 49 61 75 62 58 63 74 64 59 65
REMARK SMILES IDX 62 66 73 67 89 68 60 69 61 70 72 72 90 73 63 74 50 75 51 76
REMARK SMILES IDX 56 77 52 78 53 79 55 80 57 81 54 82 76 83 77 84 82 85 78 86
REMARK SMILES IDX 79 87 81 88 83 89 80 90 64 91 65 92 70 93 66 94 67 95 69 96
REMARK SMILES IDX 71 97 68 98
REMARK H PARENT 22 36 88 60 62 71
REMARK Flexibility Score: inf
ROOT
ATOM      1  C   UNL A   1      42.109  19.313  26.205  1.00  0.00     0.188 C 
ENDROOT
BRANCH   1   2
ATOM      2  C   UNL A   1      41.693  20.061  27.470  1.00  0.00     0.188 C 
BRANCH   2   3
ATOM      3  O   UNL A   1      40.424  20.672  27.336  1.00  0.00    -0.376 OA
BRANCH   3   4
ATOM      4  C   UNL A   1      39.880  20.751  26.030  1.00  0.00     0.202 C 
BRANCH   4   5
ATOM      5  C   UNL A   1      38.645  21.656  25.790  1.00  0.00     0.261 C 
BRANCH   5   6
ATOM      6  O   UNL A   1      37.378  21.056  25.416  1.00  0.00    -0.461 OA
BRANCH   6   7
ATOM      7  C   UNL A   1      36.591  21.791  24.604  1.00  0.00     0.341 C 
ATOM      8  O   UNL A   1      36.967  22.125  23.484  1.00  0.00    -0.249 OA
BRANCH   7   9
ATOM      9  C   UNL A   1      35.165  22.089  25.133  1.00  0.00     0.200 C 
ATOM     10  C   UNL A   1      33.003  19.221  24.623  1.00  0.00     0.075 C 
ATOM     11  C   UNL A   1      33.241  20.642  25.140  1.00  0.00     0.165 C 
ATOM     12  O   UNL A   1      33.836  20.544  26.431  1.00  0.00    -0.344 OA
ATOM     13  O   UNL A   1      34.132  21.440  24.290  1.00  0.00    -0.329 OA
ATOM     14  C   UNL A   1      31.796  21.218  25.222  1.00  0.00     0.075 C 
ATOM     15  C   UNL A   1      34.711  21.669  26.570  1.00  0.00     0.166 C 
ATOM     16  C   UNL A   1      33.850  22.875  27.154  1.00  0.00     0.040 C 
ATOM     17  C   UNL A   1      35.087  23.720  25.282  1.00  0.00     0.016 C 
ATOM     18  C   UNL A   1      33.693  23.770  25.917  1.00  0.00     0.008 C 
ATOM     19  C   UNL A   1      35.224  24.688  24.086  1.00  0.00     0.046 C 
ATOM     20  C   UNL A   1      36.228  24.173  26.269  1.00  0.00     0.015 C 
ATOM     21  C   UNL A   1      32.524  24.643  25.422  1.00  0.00     0.035 C 
ATOM     22  C   UNL A   1      33.949  25.019  23.339  1.00  0.00     0.154 C 
ATOM     23  C   UNL A   1      31.564  25.221  26.447  1.00  0.00     0.012 C 
ATOM     24  C   UNL A   1      32.889  25.635  24.305  1.00  0.00     0.152 C 
ATOM     25  C   UNL A   1      30.243  25.539  25.727  1.00  0.00     0.032 C 
ATOM     26  C   UNL A   1      31.587  26.148  23.572  1.00  0.00     0.044 C 
ATOM     27  F   UNL A   1      33.481  26.711  24.927  1.00  0.00    -0.239 F 
ATOM     28  C   UNL A   1      30.417  26.429  24.523  1.00  0.00    -0.053 C 
ATOM     29  C   UNL A   1      31.882  27.432  22.802  1.00  0.00    -0.009 C 
ATOM     30  C   UNL A   1      31.077  25.112  22.513  1.00  0.00     0.024 C 
ATOM     31  C   UNL A   1      29.508  27.382  24.235  1.00  0.00     0.052 C 
ATOM     32  C   UNL A   1      30.887  28.132  22.238  1.00  0.00     0.048 C 
ATOM     33  C   UNL A   1      29.597  28.165  22.972  1.00  0.00     0.178 C 
ATOM     34  O   UNL A   1      28.686  28.903  22.618  1.00  0.00    -0.290 OA
BRANCH  22  35
ATOM     35  O   UNL A   1      33.528  23.824  22.687  1.00  0.00    -0.390 OA
ATOM     36  H   UNL A   1      32.576  23.698  22.826  1.00  0.00     0.211 HD
ENDBRANCH  22  35
ENDBRANCH   7   9
ENDBRANCH   6   7
ENDBRANCH   5   6
ENDBRANCH   4   5
ENDBRANCH   3   4
ENDBRANCH   2   3
ENDBRANCH   1   2
BRANCH   1  37
ATOM     37  O   UNL A   1      43.168  19.822  25.408  1.00  0.00    -0.376 OA
BRANCH  37  38
ATOM     38  C   UNL A   1      43.643  21.127  25.700  1.00  0.00     0.202 C 
BRANCH  38  39
ATOM     39  C   UNL A   1      43.996  22.010  24.502  1.00  0.00     0.261 C 
BRANCH  39  40
ATOM     40  O   UNL A   1      43.720  23.412  24.708  1.00  0.00    -0.460 OA
BRANCH  40  41
ATOM     41  C   UNL A   1      44.384  23.998  25.723  1.00  0.00     0.338 C 
ATOM     42  O   UNL A   1      45.588  23.871  26.001  1.00  0.00    -0.246 OA
BRANCH  41  43
ATOM     43  C   UNL A   1      43.538  24.963  26.435  1.00  0.00     0.060 A 
ATOM     44  C   UNL A   1      43.776  26.334  26.260  1.00  0.00     0.016 A 
ATOM     45  C   UNL A   1      42.626  24.530  27.395  1.00  0.00     0.016 A 
ATOM     46  C   UNL A   1      43.161  27.276  27.082  1.00  0.00     0.010 A 
ATOM     47  C   UNL A   1      42.010  25.475  28.223  1.00  0.00     0.010 A 
ATOM     48  C   UNL A   1      42.310  26.846  28.102  1.00  0.00    -0.014 A 
BRANCH  48  49
ATOM     49  C   UNL A   1      41.879  27.790  29.161  1.00  0.00     0.031 A 
ATOM     50  C   UNL A   1      42.635  27.805  30.461  1.00  0.00     0.074 A 
ATOM     51  C   UNL A   1      40.844  28.628  28.976  1.00  0.00     0.049 A 
ATOM     52  N   UNL A   1      42.334  28.386  31.593  1.00  0.00    -0.248 NA
ATOM     53  C   UNL A   1      43.903  27.056  30.486  1.00  0.00     0.031 C 
ATOM     54  C   UNL A   1      40.089  28.784  27.735  1.00  0.00     0.029 A 
ATOM     55  N   UNL A   1      40.239  29.492  29.853  1.00  0.00    -0.354 N 
ATOM     56  C   UNL A   1      43.352  28.041  32.475  1.00  0.00     0.074 A 
ATOM     57  C   UNL A   1      44.275  27.196  31.749  1.00  0.00     0.031 C 
ATOM     58  C   UNL A   1      39.099  29.670  27.938  1.00  0.00     0.029 A 
ATOM     59  C   UNL A   1      39.121  30.100  29.335  1.00  0.00     0.049 A 
ATOM     60  H   UNL A   1      40.573  29.661  30.763  1.00  0.00     0.167 HD
ATOM     61  C   UNL A   1      43.500  28.396  33.773  1.00  0.00     0.037 A 
ATOM     62  C   UNL A   1      38.197  30.873  29.935  1.00  0.00     0.037 A 
ATOM     63  C   UNL A   1      42.591  29.256  34.483  1.00  0.00     0.049 A 
ATOM     64  C   UNL A   1      38.333  31.187  31.403  1.00  0.00     0.074 A 
ATOM     65  C   UNL A   1      42.650  29.676  35.800  1.00  0.00     0.029 A 
ATOM     66  N   UNL A   1      41.457  29.832  33.929  1.00  0.00    -0.354 N 
ATOM     67  N   UNL A   1      39.271  30.825  32.245  1.00  0.00    -0.248 NA
ATOM     68  C   UNL A   1      37.275  32.011  32.006  1.00  0.00     0.031 C 
ATOM     69  C   UNL A   1      41.528  30.472  36.055  1.00  0.00     0.029 A 
ATOM     70  C   UNL A   1      40.799  30.589  34.882  1.00  0.00     0.049 A 
ATOM     71  H   UNL A   1      41.165  29.718  32.996  1.00  0.00     0.167 HD
ATOM     72  C   UNL A   1      38.936  31.404  33.463  1.00  0.00     0.074 A 
ATOM     73  C   UNL A   1      37.709  32.142  33.251  1.00  0.00     0.031 C 
ATOM     74  C   UNL A   1      39.588  31.333  34.650  1.00  0.00     0.037 A 
BRANCH  61  75
ATOM     75  C   UNL A   1      44.666  27.820  34.519  1.00  0.00     0.057 A 
ATOM     76  C   UNL A   1      44.586  26.603  35.205  1.00  0.00     0.134 A 
ATOM     77  C   UNL A   1      45.899  28.488  34.530  1.00  0.00     0.134 A 
ATOM     78  F   UNL A   1      43.431  25.921  35.247  1.00  0.00    -0.206 F 
ATOM     79  C   UNL A   1      45.681  26.080  35.895  1.00  0.00     0.040 A 
ATOM     80  C   UNL A   1      47.007  27.963  35.195  1.00  0.00     0.040 A 
ATOM     81  F   UNL A   1      46.045  29.658  33.891  1.00  0.00    -0.206 F 
ATOM     82  C   UNL A   1      46.899  26.758  35.886  1.00  0.00     0.006 A 
ENDBRANCH  61  75
BRANCH  62  83
ATOM     83  C   UNL A   1      37.032  31.375  29.163  1.00  0.00     0.057 A 
ATOM     84  C   UNL A   1      36.995  32.687  28.680  1.00  0.00     0.134 A 
ATOM     85  C   UNL A   1      35.920  30.562  28.910  1.00  0.00     0.134 A 
ATOM     86  F   UNL A   1      38.020  33.520  28.912  1.00  0.00    -0.206 F 
ATOM     87  C   UNL A   1      35.888  33.180  27.989  1.00  0.00     0.040 A 
ATOM     88  C   UNL A   1      34.818  31.033  28.197  1.00  0.00     0.040 A 
ATOM     89  F   UNL A   1      35.894  29.293  29.344  1.00  0.00    -0.206 F 
ATOM     90  C   UNL A   1      34.796  32.351  27.742  1.00  0.00     0.006 A 
ENDBRANCH  62  83
BRANCH  74  91
ATOM     91  C   UNL A   1      39.022  32.116  35.799  1.00  0.00     0.057 A 
ATOM     92  C   UNL A   1      38.188  31.530  36.757  1.00  0.00     0.134 A 
ATOM     93  C   UNL A   1      39.366  33.462  35.976  1.00  0.00     0.134 A 
ATOM     94  F   UNL A   1      37.812  30.247  36.640  1.00  0.00    -0.206 F 
ATOM     95  C   UNL A   1      37.701  32.260  37.844  1.00  0.00     0.040 A 
ATOM     96  C   UNL A   1      38.907  34.196  37.070  1.00  0.00     0.040 A 
ATOM     97  F   UNL A   1      40.172  34.080  35.098  1.00  0.00    -0.206 F 
ATOM     98  C   UNL A   1      38.068  33.596  38.005  1.00  0.00     0.006 A 
ENDBRANCH  74  91
ENDBRANCH  48  49
ENDBRANCH  41  43
ENDBRANCH  40  41
ENDBRANCH  39  40
ENDBRANCH  38  39
ENDBRANCH  37  38
ENDBRANCH   1  37
TORSDOF 18
ENDMDL
MODEL 2
REMARK VINA RESULT:     -12.4      1.488      2.107
REMARK SMILES CC1(C)O[C@@H]2C[C@H]3[C@H]4CCC5=CC(=O)C=C[C@@]5(C)[C@]4(F)[C@H](O)C[C@]3(C)[C@]2(C(=O)OCCOCCOCCOC(=O)c2ccc(-c3c4nc(c(-c5c(F)cccc5F)c5ccc([nH]5)c(-c5c(F)cccc5F)c5nc(c(-c6c(F)cccc6F)c6ccc3[nH]6)C=C5)C=C4)cc2)O1
REMARK SMILES IDX 34 1 33 2 32 3 31 4 30 5 29 6 27 7 28 8 26 9 1 10 2 11 4 12
REMARK SMILES IDX 95 13 3 14 5 15 6 16 24 17 7 18 23 19 25 20 8 21 21 22 9 23
REMARK SMILES IDX 19 24 10 25 17 26 20 27 11 28 16 29 18 30 12 31 15 32 13 33
REMARK SMILES IDX 14 34 22 35 35 37 36 38 37 39 38 40 39 41 40 42 41 43 42 44
REMARK SMILES IDX 94 45 43 46 93 47 44 48 45 49 46 50 87 51 47 52 92 53 86 54
REMARK SMILES IDX 88 55 48 56 91 57 85 58 84 59 49 61 75 62 58 63 74 64 59 65
REMARK SMILES IDX 62 66 73 67 89 68 60 69 61 70 72 72 90 73 63 74 50 75 51 76
REMARK SMILES IDX 56 77 52 78 53 79 55 80 57 81 54 82 76 83 77 84 82 85 78 86
REMARK SMILES IDX 79 87 81 88 83 89 80 90 64 91 65 92 70 93 66 94 67 95 69 96
REMARK SMILES IDX 71 97 68 98
REMARK H PARENT 22 36 88 60 62 71
REMARK Flexibility Score: inf
ROOT
ATOM      1  C   UNL A   1      41.644  20.461  27.421  1.00  0.00     0.188 C 
ENDROOT
BRANCH   1   2
ATOM      2  C   UNL A   1      41.838  19.404  26.335  1.00  0.00     0.188 C 
BRANCH   2   3
ATOM      3  O   UNL A   1      40.645  19.148  25.619  1.00  0.00    -0.376 OA
BRANCH   3   4
ATOM      4  C   UNL A   1      39.579  20.065  25.792  1.00  0.00     0.202 C 
BRANCH   4   5
ATOM      5  C   UNL A   1      38.292  19.880  24.948  1.00  0.00     0.261 C 
BRANCH   5   6
ATOM      6  O   UNL A   1      37.028  20.387  25.447  1.00  0.00    -0.461 OA
BRANCH   6   7
ATOM      7  C   UNL A   1      36.469  21.387  24.735  1.00  0.00     0.341 C 
ATOM      8  O   UNL A   1      37.008  21.827  23.723  1.00  0.00    -0.249 OA
BRANCH   7   9
ATOM      9  C   UNL A   1      35.074  21.860  25.214  1.00  0.00     0.200 C 
ATOM     10  C   UNL A   1      32.569  19.333  24.503  1.00  0.00     0.075 C 
ATOM     11  C   UNL A   1      32.973  20.691  25.085  1.00  0.00     0.165 C 
ATOM     12  O   UNL A   1      33.488  20.471  26.395  1.00  0.00    -0.344 OA
ATOM     13  O   UNL A   1      34.003  21.387  24.304  1.00  0.00    -0.329 OA
ATOM     14  C   UNL A   1      31.617  21.457  25.128  1.00  0.00     0.075 C 
ATOM     15  C   UNL A   1      34.500  21.460  26.613  1.00  0.00     0.166 C 
ATOM     16  C   UNL A   1      33.783  22.753  27.206  1.00  0.00     0.040 C 
ATOM     17  C   UNL A   1      35.210  23.481  25.422  1.00  0.00     0.016 C 
ATOM     18  C   UNL A   1      33.807  23.701  25.999  1.00  0.00     0.008 C 
ATOM     19  C   UNL A   1      35.533  24.459  24.271  1.00  0.00     0.046 C 
ATOM     20  C   UNL A   1      36.354  23.742  26.473  1.00  0.00     0.015 C 
ATOM     21  C   UNL A   1      32.792  24.741  25.489  1.00  0.00     0.035 C 
ATOM     22  C   UNL A   1      34.351  24.986  23.484  1.00  0.00     0.154 C 
ATOM     23  C   UNL A   1      31.872  25.412  26.495  1.00  0.00     0.012 C 
ATOM     24  C   UNL A   1      33.340  25.710  24.429  1.00  0.00     0.152 C 
ATOM     25  C   UNL A   1      30.641  25.931  25.733  1.00  0.00     0.032 C 
ATOM     26  C   UNL A   1      32.155  26.420  23.661  1.00  0.00     0.044 C 
ATOM     27  F   UNL A   1      34.042  26.674  25.115  1.00  0.00    -0.239 F 
ATOM     28  C   UNL A   1      30.991  26.827  24.573  1.00  0.00    -0.053 C 
ATOM     29  C   UNL A   1      32.656  27.675  22.954  1.00  0.00    -0.009 C 
ATOM     30  C   UNL A   1      31.560  25.498  22.542  1.00  0.00     0.024 C 
ATOM     31  C   UNL A   1      30.233  27.904  24.283  1.00  0.00     0.052 C 
ATOM     32  C   UNL A   1      31.793  28.522  22.377  1.00  0.00     0.048 C 
ATOM     33  C   UNL A   1      30.487  28.708  23.056  1.00  0.00     0.178 C 
ATOM     34  O   UNL A   1      29.702  29.575  22.694  1.00  0.00    -0.290 OA
BRANCH  22  35
ATOM     35  O   UNL A   1      33.803  23.881  22.770  1.00  0.00    -0.390 OA
ATOM     36  H   UNL A   1      33.597  24.154  21.861  1.00  0.00     0.211 HD
ENDBRANCH  22  35
ENDBRANCH   7   9
ENDBRANCH   6   7
ENDBRANCH   5   6
ENDBRANCH   4   5
ENDBRANCH   3   4
ENDBRANCH   2   3
ENDBRANCH   1   2
BRANCH   1  37
ATOM     37  O   UNL A   1      42.570  21.530  27.531  1.00  0.00    -0.376 OA
BRANCH  37  38
ATOM     38  C   UNL A   1      43.226  21.957  26.348  1.00  0.00     0.202 C 
BRANCH  38  39
ATOM     39  C   UNL A   1      42.503  23.013  25.508  1.00  0.00     0.261 C 
BRANCH  39  40
ATOM     40  O   UNL A   1      42.006  24.129  26.276  1.00  0.00    -0.460 OA
BRANCH  40  41
ATOM     41  C   UNL A   1      40.679  24.144  26.499  1.00  0.00     0.338 C 
ATOM     42  O   UNL A   1      39.872  23.225  26.276  1.00  0.00    -0.246 OA
BRANCH  41  43
ATOM     43  C   UNL A   1      40.262  25.367  27.195  1.00  0.00     0.060 A 
ATOM     44  C   UNL A   1      40.900  26.577  26.884  1.00  0.00     0.016 A 
ATOM     45  C   UNL A   1      39.370  25.303  28.264  1.00  0.00     0.016 A 
ATOM     46  C   UNL A   1      40.707  27.709  27.672  1.00  0.00     0.010 A 
ATOM     47  C   UNL A   1      39.177  26.439  29.057  1.00  0.00     0.010 A 
ATOM     48  C   UNL A   1      39.879  27.632  28.794  1.00  0.00    -0.014 A 
BRANCH  48  49
ATOM     49  C   UNL A   1      39.886  28.720  29.801  1.00  0.00     0.031 A 
ATOM     50  C   UNL A   1      40.868  28.641  30.937  1.00  0.00     0.074 A 
ATOM     51  C   UNL A   1      39.046  29.765  29.711  1.00  0.00     0.049 A 
ATOM     52  N   UNL A   1      40.933  29.352  32.033  1.00  0.00    -0.248 NA
ATOM     53  C   UNL A   1      41.919  27.617  30.821  1.00  0.00     0.031 C 
ATOM     54  C   UNL A   1      38.113  30.013  28.614  1.00  0.00     0.029 A 
ATOM     55  N   UNL A   1      38.832  30.806  30.579  1.00  0.00    -0.354 N 
ATOM     56  C   UNL A   1      42.003  28.835  32.754  1.00  0.00     0.074 A 
ATOM     57  C   UNL A   1      42.555  27.748  31.974  1.00  0.00     0.031 C 
ATOM     58  C   UNL A   1      37.403  31.121  28.889  1.00  0.00     0.029 A 
ATOM     59  C   UNL A   1      37.796  31.626  30.204  1.00  0.00     0.049 A 
ATOM     60  H   UNL A   1      39.367  30.950  31.392  1.00  0.00     0.167 HD
ATOM     61  C   UNL A   1      42.480  29.231  33.957  1.00  0.00     0.037 A 
ATOM     62  C   UNL A   1      37.202  32.634  30.869  1.00  0.00     0.037 A 
ATOM     63  C   UNL A   1      41.942  30.327  34.718  1.00  0.00     0.049 A 
ATOM     64  C   UNL A   1      37.692  33.005  32.245  1.00  0.00     0.074 A 
ATOM     65  C   UNL A   1      42.352  30.808  35.949  1.00  0.00     0.029 A 
ATOM     66  N   UNL A   1      40.877  31.117  34.313  1.00  0.00    -0.354 N 
ATOM     67  N   UNL A   1      38.674  32.487  32.942  1.00  0.00    -0.248 NA
ATOM     68  C   UNL A   1      36.982  34.095  32.930  1.00  0.00     0.031 C 
ATOM     69  C   UNL A   1      41.506  31.863  36.308  1.00  0.00     0.029 A 
ATOM     70  C   UNL A   1      40.603  32.071  35.278  1.00  0.00     0.049 A 
ATOM     71  H   UNL A   1      40.387  31.015  33.464  1.00  0.00     0.167 HD
ATOM     72  C   UNL A   1      38.723  33.209  34.128  1.00  0.00     0.074 A 
ATOM     73  C   UNL A   1      37.673  34.202  34.057  1.00  0.00     0.031 C 
ATOM     74  C   UNL A   1      39.565  33.065  35.182  1.00  0.00     0.037 A 
BRANCH  61  75
ATOM     75  C   UNL A   1      43.614  28.445  34.545  1.00  0.00     0.057 A 
ATOM     76  C   UNL A   1      44.952  28.818  34.367  1.00  0.00     0.134 A 
ATOM     77  C   UNL A   1      43.359  27.305  35.320  1.00  0.00     0.134 A 
ATOM     78  F   UNL A   1      45.265  29.889  33.623  1.00  0.00    -0.206 F 
ATOM     79  C   UNL A   1      45.996  28.075  34.920  1.00  0.00     0.040 A 
ATOM     80  C   UNL A   1      44.393  26.569  35.898  1.00  0.00     0.040 A 
ATOM     81  F   UNL A   1      42.100  26.893  35.531  1.00  0.00    -0.206 F 
ATOM     82  C   UNL A   1      45.718  26.950  35.694  1.00  0.00     0.006 A 
ENDBRANCH  61  75
BRANCH  62  83
ATOM     83  C   UNL A   1      36.048  33.346  30.264  1.00  0.00     0.057 A 
ATOM     84  C   UNL A   1      36.228  34.266  29.226  1.00  0.00     0.134 A 
ATOM     85  C   UNL A   1      34.742  33.140  30.724  1.00  0.00     0.134 A 
ATOM     86  F   UNL A   1      37.458  34.523  28.758  1.00  0.00    -0.206 F 
ATOM     87  C   UNL A   1      35.154  34.971  28.679  1.00  0.00     0.040 A 
ATOM     88  C   UNL A   1      33.655  33.817  30.169  1.00  0.00     0.040 A 
ATOM     89  F   UNL A   1      34.501  32.269  31.716  1.00  0.00    -0.206 F 
ATOM     90  C   UNL A   1      33.862  34.743  29.148  1.00  0.00     0.006 A 
ENDBRANCH  62  83
BRANCH  74  91
ATOM     91  C   UNL A   1      39.425  34.035  36.319  1.00  0.00     0.057 A 
ATOM     92  C   UNL A   1      38.736  33.709  37.492  1.00  0.00     0.134 A 
ATOM     93  C   UNL A   1      40.038  35.292  36.256  1.00  0.00     0.134 A 
ATOM     94  F   UNL A   1      38.117  32.524  37.611  1.00  0.00    -0.206 F 
ATOM     95  C   UNL A   1      38.648  34.606  38.559  1.00  0.00     0.040 A 
ATOM     96  C   UNL A   1      39.979  36.188  37.325  1.00  0.00     0.040 A 
ATOM     97  F   UNL A   1      40.724  35.662  35.164  1.00  0.00    -0.206 F 
ATOM     98  C   UNL A   1      39.278  35.847  38.478  1.00  0.00     0.006 A 
ENDBRANCH  74  91
ENDBRANCH  48  49
ENDBRANCH  41  43
ENDBRANCH  40  41
ENDBRANCH  39  40
ENDBRANCH  38  39
ENDBRANCH  37  38
ENDBRANCH   1  37
TORSDOF 18
ENDMDL
MODEL 3
REMARK VINA RESULT:     -12.4      0.712      5.797
REMARK SMILES CC1(C)O[C@@H]2C[C@H]3[C@H]4CCC5=CC(=O)C=C[C@@]5(C)[C@]4(F)[C@H](O)C[C@]3(C)[C@]2(C(=O)OCCOCCOCCOC(=O)c2ccc(-c3c4nc(c(-c5c(F)cccc5F)c5ccc([nH]5)c(-c5c(F)cccc5F)c5nc(c(-c6c(F)cccc6F)c6ccc3[nH]6)C=C5)C=C4)cc2)O1
REMARK SMILES IDX 34 1 33 2 32 3 31 4 30 5 29 6 27 7 28 8 26 9 1 10 2 11 4 12
REMARK SMILES IDX 95 13 3 14 5 15 6 16 24 17 7 18 23 19 25 20 8 21 21 22 9 23
REMARK SMILES IDX 19 24 10 25 17 26 20 27 11 28 16 29 18 30 12 31 15 32 13 33
REMARK SMILES IDX 14 34 22 35 35 37 36 38 37 39 38 40 39 41 40 42 41 43 42 44
REMARK SMILES IDX 94 45 43 46 93 47 44 48 45 49 46 50 87 51 47 52 92 53 86 54
REMARK SMILES IDX 88 55 48 56 91 57 85 58 84 59 49 61 75 62 58 63 74 64 59 65
REMARK SMILES IDX 62 66 73 67 89 68 60 69 61 70 72 72 90 73 63 74 50 75 51 76
REMARK SMILES IDX 56 77 52 78 53 79 55 80 57 81 54 82 76 83 77 84 82 85 78 86
REMARK SMILES IDX 79 87 81 88 83 89 80 90 64 91 65 92 70 93 66 94 67 95 69 96
REMARK SMILES IDX 71 97 68 98
REMARK H PARENT 22 36 88 60 62 71
REMARK Flexibility Score: inf
ROOT
ATOM      1  C   UNL A   1      41.837  21.180  26.535  1.00  0.00     0.188 C 
ENDROOT
BRANCH   1   2
ATOM      2  C   UNL A   1      41.930  19.699  26.173  1.00  0.00     0.188 C 
BRANCH   2   3
ATOM      3  O   UNL A   1      40.726  19.210  25.611  1.00  0.00    -0.376 OA
BRANCH   3   4
ATOM      4  C   UNL A   1      39.523  19.832  26.024  1.00  0.00     0.202 C 
BRANCH   4   5
ATOM      5  C   UNL A   1      38.370  19.981  24.998  1.00  0.00     0.261 C 
BRANCH   5   6
ATOM      6  O   UNL A   1      37.063  20.422  25.447  1.00  0.00    -0.461 OA
BRANCH   6   7
ATOM      7  C   UNL A   1      36.486  21.400  24.718  1.00  0.00     0.341 C 
ATOM      8  O   UNL A   1      37.013  21.826  23.694  1.00  0.00    -0.249 OA
BRANCH   7   9
ATOM      9  C   UNL A   1      35.087  21.863  25.196  1.00  0.00     0.200 C 
ATOM     10  C   UNL A   1      32.599  19.324  24.471  1.00  0.00     0.075 C 
ATOM     11  C   UNL A   1      32.993  20.681  25.058  1.00  0.00     0.165 C 
ATOM     12  O   UNL A   1      33.507  20.460  26.368  1.00  0.00    -0.344 OA
ATOM     13  O   UNL A   1      34.021  21.387  24.282  1.00  0.00    -0.329 OA
ATOM     14  C   UNL A   1      31.633  21.440  25.101  1.00  0.00     0.075 C 
ATOM     15  C   UNL A   1      34.512  21.455  26.593  1.00  0.00     0.166 C 
ATOM     16  C   UNL A   1      33.787  22.741  27.188  1.00  0.00     0.040 C 
ATOM     17  C   UNL A   1      35.213  23.484  25.410  1.00  0.00     0.016 C 
ATOM     18  C   UNL A   1      33.808  23.693  25.985  1.00  0.00     0.008 C 
ATOM     19  C   UNL A   1      35.533  24.468  24.263  1.00  0.00     0.046 C 
ATOM     20  C   UNL A   1      36.354  23.747  26.464  1.00  0.00     0.015 C 
ATOM     21  C   UNL A   1      32.788  24.730  25.476  1.00  0.00     0.035 C 
ATOM     22  C   UNL A   1      34.349  24.990  23.475  1.00  0.00     0.154 C 
ATOM     23  C   UNL A   1      31.861  25.391  26.483  1.00  0.00     0.012 C 
ATOM     24  C   UNL A   1      33.332  25.705  24.420  1.00  0.00     0.152 C 
ATOM     25  C   UNL A   1      30.629  25.905  25.720  1.00  0.00     0.032 C 
ATOM     26  C   UNL A   1      32.144  26.411  23.653  1.00  0.00     0.044 C 
ATOM     27  F   UNL A   1      34.027  26.670  25.112  1.00  0.00    -0.239 F 
ATOM     28  C   UNL A   1      30.976  26.808  24.563  1.00  0.00    -0.053 C 
ATOM     29  C   UNL A   1      32.640  27.671  22.951  1.00  0.00    -0.009 C 
ATOM     30  C   UNL A   1      31.557  25.489  22.529  1.00  0.00     0.024 C 
ATOM     31  C   UNL A   1      30.213  27.882  24.276  1.00  0.00     0.052 C 
ATOM     32  C   UNL A   1      31.773  28.516  22.375  1.00  0.00     0.048 C 
ATOM     33  C   UNL A   1      30.464  28.691  23.052  1.00  0.00     0.178 C 
ATOM     34  O   UNL A   1      29.675  29.555  22.691  1.00  0.00    -0.290 OA
BRANCH  22  35
ATOM     35  O   UNL A   1      33.809  23.885  22.756  1.00  0.00    -0.390 OA
ATOM     36  H   UNL A   1      33.303  23.321  23.362  1.00  0.00     0.211 HD
ENDBRANCH  22  35
ENDBRANCH   7   9
ENDBRANCH   6   7
ENDBRANCH   5   6
ENDBRANCH   4   5
ENDBRANCH   3   4
ENDBRANCH   2   3
ENDBRANCH   1   2
BRANCH   1  37
ATOM     37  O   UNL A   1      42.969  22.017  26.350  1.00  0.00    -0.376 OA
BRANCH  37  38
ATOM     38  C   UNL A   1      43.865  21.690  25.300  1.00  0.00     0.202 C 
BRANCH  38  39
ATOM     39  C   UNL A   1      44.349  22.850  24.427  1.00  0.00     0.261 C 
BRANCH  39  40
ATOM     40  O   UNL A   1      43.613  24.076  24.625  1.00  0.00    -0.460 OA
BRANCH  40  41
ATOM     41  C   UNL A   1      44.301  25.091  25.181  1.00  0.00     0.338 C 
ATOM     42  O   UNL A   1      45.470  25.430  24.928  1.00  0.00    -0.246 OA
BRANCH  41  43
ATOM     43  C   UNL A   1      43.453  25.894  26.070  1.00  0.00     0.060 A 
ATOM     44  C   UNL A   1      43.880  27.177  26.441  1.00  0.00     0.016 A 
ATOM     45  C   UNL A   1      42.329  25.332  26.671  1.00  0.00     0.016 A 
ATOM     46  C   UNL A   1      43.234  27.879  27.455  1.00  0.00     0.010 A 
ATOM     47  C   UNL A   1      41.680  26.035  27.692  1.00  0.00     0.010 A 
ATOM     48  C   UNL A   1      42.157  27.290  28.120  1.00  0.00    -0.014 A 
BRANCH  48  49
ATOM     49  C   UNL A   1      41.645  27.882  29.380  1.00  0.00     0.031 A 
ATOM     50  C   UNL A   1      40.406  28.733  29.321  1.00  0.00     0.074 A 
ATOM     51  C   UNL A   1      42.256  27.665  30.557  1.00  0.00     0.049 A 
ATOM     52  N   UNL A   1      39.886  29.511  30.235  1.00  0.00    -0.248 NA
ATOM     53  C   UNL A   1      39.655  28.705  28.056  1.00  0.00     0.031 C 
ATOM     54  C   UNL A   1      43.404  26.786  30.768  1.00  0.00     0.029 A 
ATOM     55  N   UNL A   1      42.001  28.193  31.797  1.00  0.00    -0.354 N 
ATOM     56  C   UNL A   1      38.773  30.094  29.643  1.00  0.00     0.074 A 
ATOM     57  C   UNL A   1      38.694  29.585  28.291  1.00  0.00     0.031 C 
ATOM     58  C   UNL A   1      43.774  26.858  32.058  1.00  0.00     0.029 A 
ATOM     59  C   UNL A   1      42.923  27.827  32.747  1.00  0.00     0.049 A 
ATOM     60  H   UNL A   1      41.232  28.778  31.987  1.00  0.00     0.167 HD
ATOM     61  C   UNL A   1      37.896  30.975  30.180  1.00  0.00     0.037 A 
ATOM     62  C   UNL A   1      43.088  28.263  34.009  1.00  0.00     0.037 A 
ATOM     63  C   UNL A   1      37.965  31.459  31.533  1.00  0.00     0.049 A 
ATOM     64  C   UNL A   1      42.154  29.309  34.561  1.00  0.00     0.074 A 
ATOM     65  C   UNL A   1      37.126  32.354  32.174  1.00  0.00     0.029 A 
ATOM     66  N   UNL A   1      38.928  31.082  32.456  1.00  0.00    -0.354 N 
ATOM     67  N   UNL A   1      41.129  29.890  33.986  1.00  0.00    -0.248 NA
ATOM     68  C   UNL A   1      42.406  29.764  35.936  1.00  0.00     0.031 C 
ATOM     69  C   UNL A   1      37.608  32.551  33.472  1.00  0.00     0.029 A 
ATOM     70  C   UNL A   1      38.717  31.739  33.655  1.00  0.00     0.049 A 
ATOM     71  H   UNL A   1      39.656  30.440  32.283  1.00  0.00     0.167 HD
ATOM     72  C   UNL A   1      40.595  30.751  34.938  1.00  0.00     0.074 A 
ATOM     73  C   UNL A   1      41.408  30.615  36.128  1.00  0.00     0.031 C 
ATOM     74  C   UNL A   1      39.525  31.579  34.836  1.00  0.00     0.037 A 
BRANCH  61  75
ATOM     75  C   UNL A   1      36.813  31.503  29.287  1.00  0.00     0.057 A 
ATOM     76  C   UNL A   1      35.686  30.744  28.951  1.00  0.00     0.134 A 
ATOM     77  C   UNL A   1      36.891  32.806  28.774  1.00  0.00     0.134 A 
ATOM     78  F   UNL A   1      35.557  29.485  29.395  1.00  0.00    -0.206 F 
ATOM     79  C   UNL A   1      34.687  31.251  28.118  1.00  0.00     0.040 A 
ATOM     80  C   UNL A   1      35.887  33.332  27.962  1.00  0.00     0.040 A 
ATOM     81  F   UNL A   1      37.943  33.587  29.059  1.00  0.00    -0.206 F 
ATOM     82  C   UNL A   1      34.782  32.552  27.626  1.00  0.00     0.006 A 
ENDBRANCH  61  75
BRANCH  62  83
ATOM     83  C   UNL A   1      44.210  27.746  34.833  1.00  0.00     0.057 A 
ATOM     84  C   UNL A   1      44.059  26.602  35.625  1.00  0.00     0.134 A 
ATOM     85  C   UNL A   1      45.450  28.394  34.867  1.00  0.00     0.134 A 
ATOM     86  F   UNL A   1      42.887  25.951  35.652  1.00  0.00    -0.206 F 
ATOM     87  C   UNL A   1      45.094  26.132  36.434  1.00  0.00     0.040 A 
ATOM     88  C   UNL A   1      46.502  27.920  35.651  1.00  0.00     0.040 A 
ATOM     89  F   UNL A   1      45.660  29.495  34.130  1.00  0.00    -0.206 F 
ATOM     90  C   UNL A   1      46.322  26.789  36.445  1.00  0.00     0.006 A 
ENDBRANCH  62  83
BRANCH  74  91
ATOM     91  C   UNL A   1      39.135  32.359  36.057  1.00  0.00     0.057 A 
ATOM     92  C   UNL A   1      39.587  33.665  36.279  1.00  0.00     0.134 A 
ATOM     93  C   UNL A   1      38.248  31.813  36.993  1.00  0.00     0.134 A 
ATOM     94  F   UNL A   1      40.447  34.242  35.425  1.00  0.00    -0.206 F 
ATOM     95  C   UNL A   1      39.184  34.395  37.399  1.00  0.00     0.040 A 
ATOM     96  C   UNL A   1      37.817  32.542  38.103  1.00  0.00     0.040 A 
ATOM     97  F   UNL A   1      37.768  30.570  36.833  1.00  0.00    -0.206 F 
ATOM     98  C   UNL A   1      38.290  33.835  38.310  1.00  0.00     0.006 A 
ENDBRANCH  74  91
ENDBRANCH  48  49
ENDBRANCH  41  43
ENDBRANCH  40  41
ENDBRANCH  39  40
ENDBRANCH  38  39
ENDBRANCH  37  38
ENDBRANCH   1  37
TORSDOF 18
ENDMDL
