MODEL 1
REMARK VINA RESULT:     -10.1      0.000      0.000
REMARK SMILES O=C(CNC(=O)c1ccco1)Nc1cccc(C(=O)OCCOCCOCCOC(=O)c2ccc(-c3c4nc(c(-c5c(F)cccc5F)c5ccc([nH]5)c(-c5c(F)cccc5F)c5nc(c(-c6c(F)cccc6F)c6ccc3[nH]6)C=C5)C=C4)cc2)c1
REMARK SMILES IDX 24 1 23 2 22 3 21 4 20 5 18 6 19 7 17 8 13 9 14 10 86 11
REMARK SMILES IDX 15 12 16 13 12 14 1 15 2 16 3 18 4 19 5 20 6 22 7 23 8 24
REMARK SMILES IDX 11 25 9 26 10 27 25 28 26 29 27 30 28 31 29 32 30 33 31 34
REMARK SMILES IDX 32 35 33 36 85 37 34 38 84 39 35 40 36 41 37 42 78 43 38 44
REMARK SMILES IDX 83 45 77 46 79 47 39 48 82 49 76 50 75 51 40 53 66 54 49 55
REMARK SMILES IDX 65 56 50 57 53 58 64 59 80 60 51 61 52 62 63 64 81 65 54 66
REMARK SMILES IDX 41 67 42 68 47 69 43 70 44 71 46 72 48 73 45 74 67 75 68 76
REMARK SMILES IDX 73 77 69 78 70 79 72 80 74 81 71 82 55 83 56 84 61 85 57 86
REMARK SMILES IDX 58 87 60 88 62 89 59 90
REMARK H PARENT 12 17 4 21 79 52 53 63
REMARK Flexibility Score: inf
ROOT
ATOM      1  C   UNL A   1      32.776  24.668  23.954  1.00  0.00     0.188 C 
ENDROOT
BRANCH   1   2
ATOM      2  O   UNL A   1      32.036  25.571  24.747  1.00  0.00    -0.376 OA
BRANCH   2   3
ATOM      3  C   UNL A   1      32.607  26.791  25.190  1.00  0.00     0.202 C 
BRANCH   3   4
ATOM      4  C   UNL A   1      32.346  27.379  26.580  1.00  0.00     0.261 C 
BRANCH   4   5
ATOM      5  O   UNL A   1      33.301  28.347  27.020  1.00  0.00    -0.460 OA
BRANCH   5   6
ATOM      6  C   UNL A   1      32.878  29.638  26.997  1.00  0.00     0.338 C 
ATOM      7  O   UNL A   1      31.758  30.043  26.739  1.00  0.00    -0.246 OA
BRANCH   6   8
ATOM      8  C   UNL A   1      33.948  30.498  27.539  1.00  0.00     0.062 A 
ATOM      9  C   UNL A   1      34.686  32.609  28.468  1.00  0.00     0.042 A 
ATOM     10  C   UNL A   1      36.008  32.143  28.418  1.00  0.00     0.026 A 
ATOM     11  C   UNL A   1      33.663  31.789  27.988  1.00  0.00     0.041 A 
ATOM     12  C   UNL A   1      36.292  30.849  27.970  1.00  0.00     0.003 A 
ATOM     13  C   UNL A   1      35.258  30.014  27.551  1.00  0.00     0.016 A 
BRANCH   9  14
ATOM     14  N   UNL A   1      34.450  33.893  29.002  1.00  0.00    -0.325 N 
ATOM     15  O   UNL A   1      32.361  34.374  28.080  1.00  0.00    -0.273 OA
ATOM     16  C   UNL A   1      33.331  34.678  28.769  1.00  0.00     0.243 C 
ATOM     17  H   UNL A   1      35.144  34.265  29.595  1.00  0.00     0.169 HD
BRANCH  16  18
ATOM     18  C   UNL A   1      33.457  36.099  29.310  1.00  0.00     0.216 C 
BRANCH  18  19
ATOM     19  N   UNL A   1      32.439  36.422  30.298  1.00  0.00    -0.340 N 
ATOM     20  C   UNL A   1      32.405  36.128  31.639  1.00  0.00     0.287 C 
ATOM     21  H   UNL A   1      31.665  36.922  29.955  1.00  0.00     0.164 HD
ATOM     22  O   UNL A   1      31.367  36.405  32.240  1.00  0.00    -0.266 OA
BRANCH  20  23
ATOM     23  C   UNL A   1      33.544  35.486  32.254  1.00  0.00     0.191 A 
ATOM     24  C   UNL A   1      34.648  35.958  32.943  1.00  0.00     0.056 A 
ATOM     25  O   UNL A   1      33.615  34.119  32.182  1.00  0.00    -0.459 OA
ATOM     26  C   UNL A   1      35.453  34.834  33.252  1.00  0.00     0.043 A 
ATOM     27  C   UNL A   1      34.775  33.739  32.775  1.00  0.00     0.196 A 
ENDBRANCH  20  23
ENDBRANCH  18  19
ENDBRANCH  16  18
ENDBRANCH   9  14
ENDBRANCH   6   8
ENDBRANCH   5   6
ENDBRANCH   4   5
ENDBRANCH   3   4
ENDBRANCH   2   3
ENDBRANCH   1   2
BRANCH   1  28
ATOM     28  C   UNL A   1      32.624  23.141  24.123  1.00  0.00     0.188 C 
BRANCH  28  29
ATOM     29  O   UNL A   1      33.645  22.248  23.729  1.00  0.00    -0.376 OA
BRANCH  29  30
ATOM     30  C   UNL A   1      35.004  22.646  23.776  1.00  0.00     0.202 C 
BRANCH  30  31
ATOM     31  C   UNL A   1      36.062  21.863  24.560  1.00  0.00     0.261 C 
BRANCH  31  32
ATOM     32  O   UNL A   1      37.316  22.532  24.732  1.00  0.00    -0.460 OA
BRANCH  32  33
ATOM     33  C   UNL A   1      38.189  21.903  25.562  1.00  0.00     0.338 C 
ATOM     34  O   UNL A   1      38.434  20.719  25.627  1.00  0.00    -0.246 OA
BRANCH  33  35
ATOM     35  C   UNL A   1      38.945  22.921  26.313  1.00  0.00     0.060 A 
ATOM     36  C   UNL A   1      38.575  24.266  26.180  1.00  0.00     0.016 A 
ATOM     37  C   UNL A   1      40.041  22.552  27.092  1.00  0.00     0.016 A 
ATOM     38  C   UNL A   1      39.318  25.257  26.820  1.00  0.00     0.010 A 
ATOM     39  C   UNL A   1      40.798  23.548  27.712  1.00  0.00     0.010 A 
ATOM     40  C   UNL A   1      40.454  24.903  27.559  1.00  0.00    -0.014 A 
BRANCH  40  41
ATOM     41  C   UNL A   1      41.391  25.943  28.041  1.00  0.00     0.031 A 
ATOM     42  C   UNL A   1      40.877  26.982  28.996  1.00  0.00     0.074 A 
ATOM     43  C   UNL A   1      42.662  25.988  27.608  1.00  0.00     0.049 A 
ATOM     44  N   UNL A   1      41.459  28.068  29.435  1.00  0.00    -0.248 NA
ATOM     45  C   UNL A   1      39.517  26.770  29.518  1.00  0.00     0.031 C 
ATOM     46  C   UNL A   1      43.288  25.013  26.718  1.00  0.00     0.029 A 
ATOM     47  N   UNL A   1      43.646  26.914  27.844  1.00  0.00    -0.354 N 
ATOM     48  C   UNL A   1      40.532  28.678  30.270  1.00  0.00     0.074 A 
ATOM     49  C   UNL A   1      39.343  27.851  30.262  1.00  0.00     0.031 C 
ATOM     50  C   UNL A   1      44.547  25.409  26.458  1.00  0.00     0.029 A 
ATOM     51  C   UNL A   1      44.797  26.683  27.130  1.00  0.00     0.049 A 
ATOM     52  H   UNL A   1      43.538  27.671  28.463  1.00  0.00     0.167 HD
ATOM     53  C   UNL A   1      40.660  29.823  30.979  1.00  0.00     0.037 A 
ATOM     54  C   UNL A   1      45.907  27.436  27.006  1.00  0.00     0.037 A 
ATOM     55  C   UNL A   1      41.841  30.645  30.977  1.00  0.00     0.049 A 
ATOM     56  C   UNL A   1      45.998  28.749  27.742  1.00  0.00     0.074 A 
ATOM     57  C   UNL A   1      42.076  31.819  31.670  1.00  0.00     0.029 A 
ATOM     58  N   UNL A   1      42.983  30.383  30.235  1.00  0.00    -0.354 N 
ATOM     59  N   UNL A   1      45.126  29.313  28.541  1.00  0.00    -0.248 NA
ATOM     60  C   UNL A   1      47.230  29.530  27.555  1.00  0.00     0.031 C 
ATOM     61  C   UNL A   1      43.342  32.293  31.310  1.00  0.00     0.029 A 
ATOM     62  C   UNL A   1      43.917  31.385  30.437  1.00  0.00     0.049 A 
ATOM     63  H   UNL A   1      43.111  29.600  29.652  1.00  0.00     0.167 HD
ATOM     64  C   UNL A   1      45.716  30.492  28.983  1.00  0.00     0.074 A 
ATOM     65  C   UNL A   1      47.022  30.561  28.362  1.00  0.00     0.031 C 
ATOM     66  C   UNL A   1      45.223  31.429  29.828  1.00  0.00     0.037 A 
BRANCH  53  67
ATOM     67  C   UNL A   1      39.478  30.271  31.786  1.00  0.00     0.057 A 
ATOM     68  C   UNL A   1      39.239  29.791  33.081  1.00  0.00     0.134 A 
ATOM     69  C   UNL A   1      38.579  31.212  31.270  1.00  0.00     0.134 A 
ATOM     70  F   UNL A   1      40.053  28.875  33.628  1.00  0.00    -0.206 F 
ATOM     71  C   UNL A   1      38.135  30.214  33.822  1.00  0.00     0.040 A 
ATOM     72  C   UNL A   1      37.487  31.664  32.012  1.00  0.00     0.040 A 
ATOM     73  F   UNL A   1      38.752  31.714  30.038  1.00  0.00    -0.206 F 
ATOM     74  C   UNL A   1      37.258  31.158  33.291  1.00  0.00     0.006 A 
ENDBRANCH  53  67
BRANCH  54  75
ATOM     75  C   UNL A   1      47.019  26.984  26.132  1.00  0.00     0.057 A 
ATOM     76  C   UNL A   1      47.074  27.352  24.783  1.00  0.00     0.134 A 
ATOM     77  C   UNL A   1      48.041  26.158  26.617  1.00  0.00     0.134 A 
ATOM     78  F   UNL A   1      46.110  28.120  24.254  1.00  0.00    -0.206 F 
ATOM     79  C   UNL A   1      48.093  26.901  23.943  1.00  0.00     0.040 A 
ATOM     80  C   UNL A   1      49.079  25.721  25.796  1.00  0.00     0.040 A 
ATOM     81  F   UNL A   1      48.045  25.769  27.901  1.00  0.00    -0.206 F 
ATOM     82  C   UNL A   1      49.104  26.087  24.451  1.00  0.00     0.006 A 
ENDBRANCH  54  75
BRANCH  66  83
ATOM     83  C   UNL A   1      46.116  32.582  30.186  1.00  0.00     0.057 A 
ATOM     84  C   UNL A   1      46.046  33.813  29.524  1.00  0.00     0.134 A 
ATOM     85  C   UNL A   1      47.020  32.471  31.252  1.00  0.00     0.134 A 
ATOM     86  F   UNL A   1      45.210  33.982  28.488  1.00  0.00    -0.206 F 
ATOM     87  C   UNL A   1      46.854  34.889  29.897  1.00  0.00     0.040 A 
ATOM     88  C   UNL A   1      47.814  33.547  31.652  1.00  0.00     0.040 A 
ATOM     89  F   UNL A   1      47.129  31.323  31.936  1.00  0.00    -0.206 F 
ATOM     90  C   UNL A   1      47.735  34.760  30.970  1.00  0.00     0.006 A 
ENDBRANCH  66  83
ENDBRANCH  40  41
ENDBRANCH  33  35
ENDBRANCH  32  33
ENDBRANCH  31  32
ENDBRANCH  30  31
ENDBRANCH  29  30
ENDBRANCH  28  29
ENDBRANCH   1  28
TORSDOF 21
ENDMDL
MODEL 2
REMARK VINA RESULT:     -10.0      4.195      8.758
REMARK SMILES O=C(CNC(=O)c1ccco1)Nc1cccc(C(=O)OCCOCCOCCOC(=O)c2ccc(-c3c4nc(c(-c5c(F)cccc5F)c5ccc([nH]5)c(-c5c(F)cccc5F)c5nc(c(-c6c(F)cccc6F)c6ccc3[nH]6)C=C5)C=C4)cc2)c1
REMARK SMILES IDX 24 1 23 2 22 3 21 4 20 5 18 6 19 7 17 8 13 9 14 10 86 11
REMARK SMILES IDX 15 12 16 13 12 14 1 15 2 16 3 18 4 19 5 20 6 22 7 23 8 24
REMARK SMILES IDX 11 25 9 26 10 27 25 28 26 29 27 30 28 31 29 32 30 33 31 34
REMARK SMILES IDX 32 35 33 36 85 37 34 38 84 39 35 40 36 41 37 42 78 43 38 44
REMARK SMILES IDX 83 45 77 46 79 47 39 48 82 49 76 50 75 51 40 53 66 54 49 55
REMARK SMILES IDX 65 56 50 57 53 58 64 59 80 60 51 61 52 62 63 64 81 65 54 66
REMARK SMILES IDX 41 67 42 68 47 69 43 70 44 71 46 72 48 73 45 74 67 75 68 76
REMARK SMILES IDX 73 77 69 78 70 79 72 80 74 81 71 82 55 83 56 84 61 85 57 86
REMARK SMILES IDX 58 87 60 88 62 89 59 90
REMARK H PARENT 12 17 4 21 79 52 53 63
REMARK Flexibility Score: inf
ROOT
ATOM      1  C   UNL A   1      39.052  22.348  26.180  1.00  0.00     0.188 C 
ENDROOT
BRANCH   1   2
ATOM      2  O   UNL A   1      38.185  21.764  25.232  1.00  0.00    -0.376 OA
BRANCH   2   3
ATOM      3  C   UNL A   1      36.982  22.409  24.847  1.00  0.00     0.202 C 
BRANCH   3   4
ATOM      4  C   UNL A   1      35.672  21.653  24.602  1.00  0.00     0.261 C 
BRANCH   4   5
ATOM      5  O   UNL A   1      34.553  22.473  24.256  1.00  0.00    -0.460 OA
BRANCH   5   6
ATOM      6  C   UNL A   1      33.354  21.837  24.213  1.00  0.00     0.338 C 
ATOM      7  O   UNL A   1      33.138  20.690  23.864  1.00  0.00    -0.246 OA
BRANCH   6   8
ATOM      8  C   UNL A   1      32.339  22.693  24.860  1.00  0.00     0.062 A 
ATOM      9  C   UNL A   1      31.367  24.875  25.255  1.00  0.00     0.042 A 
ATOM     10  C   UNL A   1      30.511  24.298  26.203  1.00  0.00     0.026 A 
ATOM     11  C   UNL A   1      32.308  24.067  24.614  1.00  0.00     0.041 A 
ATOM     12  C   UNL A   1      30.542  22.920  26.447  1.00  0.00     0.003 A 
ATOM     13  C   UNL A   1      31.442  22.111  25.758  1.00  0.00     0.016 A 
BRANCH   9  14
ATOM     14  N   UNL A   1      31.239  26.255  24.992  1.00  0.00    -0.325 N 
ATOM     15  O   UNL A   1      32.817  27.131  26.473  1.00  0.00    -0.273 OA
ATOM     16  C   UNL A   1      31.950  27.271  25.613  1.00  0.00     0.243 C 
ATOM     17  H   UNL A   1      30.584  26.521  24.305  1.00  0.00     0.169 HD
BRANCH  16  18
ATOM     18  C   UNL A   1      31.444  28.669  25.273  1.00  0.00     0.216 C 
BRANCH  18  19
ATOM     19  N   UNL A   1      31.776  29.079  23.918  1.00  0.00    -0.340 N 
ATOM     20  C   UNL A   1      30.948  29.269  22.838  1.00  0.00     0.287 C 
ATOM     21  H   UNL A   1      32.732  29.242  23.751  1.00  0.00     0.164 HD
ATOM     22  O   UNL A   1      31.491  29.497  21.757  1.00  0.00    -0.266 OA
BRANCH  20  23
ATOM     23  C   UNL A   1      29.519  29.151  23.012  1.00  0.00     0.191 A 
ATOM     24  C   UNL A   1      28.657  28.073  23.128  1.00  0.00     0.056 A 
ATOM     25  O   UNL A   1      28.792  30.310  23.088  1.00  0.00    -0.459 OA
ATOM     26  C   UNL A   1      27.347  28.600  23.221  1.00  0.00     0.043 A 
ATOM     27  C   UNL A   1      27.485  29.966  23.201  1.00  0.00     0.196 A 
ENDBRANCH  20  23
ENDBRANCH  18  19
ENDBRANCH  16  18
ENDBRANCH   9  14
ENDBRANCH   6   8
ENDBRANCH   5   6
ENDBRANCH   4   5
ENDBRANCH   3   4
ENDBRANCH   2   3
ENDBRANCH   1   2
BRANCH   1  28
ATOM     28  C   UNL A   1      40.154  21.521  26.876  1.00  0.00     0.188 C 
BRANCH  28  29
ATOM     29  O   UNL A   1      41.049  20.713  26.139  1.00  0.00    -0.376 OA
BRANCH  29  30
ATOM     30  C   UNL A   1      42.448  20.839  26.327  1.00  0.00     0.202 C 
BRANCH  30  31
ATOM     31  C   UNL A   1      43.294  21.849  25.545  1.00  0.00     0.261 C 
BRANCH  31  32
ATOM     32  O   UNL A   1      42.661  23.106  25.284  1.00  0.00    -0.460 OA
BRANCH  32  33
ATOM     33  C   UNL A   1      43.497  24.177  25.288  1.00  0.00     0.338 C 
ATOM     34  O   UNL A   1      44.257  24.532  24.416  1.00  0.00    -0.246 OA
BRANCH  33  35
ATOM     35  C   UNL A   1      43.237  24.976  26.499  1.00  0.00     0.060 A 
ATOM     36  C   UNL A   1      42.096  24.689  27.261  1.00  0.00     0.016 A 
ATOM     37  C   UNL A   1      44.082  26.031  26.842  1.00  0.00     0.016 A 
ATOM     38  C   UNL A   1      41.785  25.475  28.369  1.00  0.00     0.010 A 
ATOM     39  C   UNL A   1      43.755  26.832  27.938  1.00  0.00     0.010 A 
ATOM     40  C   UNL A   1      42.595  26.572  28.690  1.00  0.00    -0.014 A 
BRANCH  40  41
ATOM     41  C   UNL A   1      42.158  27.559  29.703  1.00  0.00     0.031 A 
ATOM     42  C   UNL A   1      42.842  27.562  31.041  1.00  0.00     0.074 A 
ATOM     43  C   UNL A   1      41.146  28.407  29.456  1.00  0.00     0.049 A 
ATOM     44  N   UNL A   1      42.539  28.222  32.128  1.00  0.00    -0.248 NA
ATOM     45  C   UNL A   1      44.024  26.694  31.168  1.00  0.00     0.031 C 
ATOM     46  C   UNL A   1      40.435  28.530  28.186  1.00  0.00     0.029 A 
ATOM     47  N   UNL A   1      40.527  29.311  30.281  1.00  0.00    -0.354 N 
ATOM     48  C   UNL A   1      43.480  27.836  33.074  1.00  0.00     0.074 A 
ATOM     49  C   UNL A   1      44.354  26.873  32.438  1.00  0.00     0.031 C 
ATOM     50  C   UNL A   1      39.453  29.438  28.325  1.00  0.00     0.029 A 
ATOM     51  C   UNL A   1      39.444  29.928  29.703  1.00  0.00     0.049 A 
ATOM     52  H   UNL A   1      40.828  29.500  31.200  1.00  0.00     0.167 HD
ATOM     53  C   UNL A   1      43.604  28.250  34.356  1.00  0.00     0.037 A 
ATOM     54  C   UNL A   1      38.530  30.759  30.239  1.00  0.00     0.037 A 
ATOM     55  C   UNL A   1      42.729  29.202  34.986  1.00  0.00     0.049 A 
ATOM     56  C   UNL A   1      38.641  31.145  31.692  1.00  0.00     0.074 A 
ATOM     57  C   UNL A   1      42.777  29.696  36.278  1.00  0.00     0.029 A 
ATOM     58  N   UNL A   1      41.639  29.797  34.370  1.00  0.00    -0.354 N 
ATOM     59  N   UNL A   1      39.540  30.791  32.577  1.00  0.00    -0.248 NA
ATOM     60  C   UNL A   1      37.605  32.046  32.220  1.00  0.00     0.031 C 
ATOM     61  C   UNL A   1      41.687  30.552  36.459  1.00  0.00     0.029 A 
ATOM     62  C   UNL A   1      40.993  30.637  35.262  1.00  0.00     0.049 A 
ATOM     63  H   UNL A   1      41.364  29.647  33.437  1.00  0.00     0.167 HD
ATOM     64  C   UNL A   1      39.204  31.453  33.752  1.00  0.00     0.074 A 
ATOM     65  C   UNL A   1      38.018  32.232  33.466  1.00  0.00     0.031 C 
ATOM     66  C   UNL A   1      39.824  31.422  34.957  1.00  0.00     0.037 A 
BRANCH  53  67
ATOM     67  C   UNL A   1      44.707  27.644  35.172  1.00  0.00     0.057 A 
ATOM     68  C   UNL A   1      44.528  26.459  35.899  1.00  0.00     0.134 A 
ATOM     69  C   UNL A   1      45.974  28.241  35.213  1.00  0.00     0.134 A 
ATOM     70  F   UNL A   1      43.335  25.846  35.916  1.00  0.00    -0.206 F 
ATOM     71  C   UNL A   1      45.561  25.906  36.657  1.00  0.00     0.040 A 
ATOM     72  C   UNL A   1      47.022  27.682  35.944  1.00  0.00     0.040 A 
ATOM     73  F   UNL A   1      46.213  29.375  34.537  1.00  0.00    -0.206 F 
ATOM     74  C   UNL A   1      46.815  26.513  36.675  1.00  0.00     0.006 A 
ENDBRANCH  53  67
BRANCH  54  75
ATOM     75  C   UNL A   1      37.412  31.271  29.407  1.00  0.00     0.057 A 
ATOM     76  C   UNL A   1      37.441  32.563  28.871  1.00  0.00     0.134 A 
ATOM     77  C   UNL A   1      36.277  30.491  29.147  1.00  0.00     0.134 A 
ATOM     78  F   UNL A   1      38.488  33.367  29.107  1.00  0.00    -0.206 F 
ATOM     79  C   UNL A   1      36.378  33.068  28.121  1.00  0.00     0.040 A 
ATOM     80  C   UNL A   1      35.219  30.974  28.378  1.00  0.00     0.040 A 
ATOM     81  F   UNL A   1      36.187  29.245  29.635  1.00  0.00    -0.206 F 
ATOM     82  C   UNL A   1      35.264  32.270  27.868  1.00  0.00     0.006 A 
ENDBRANCH  54  75
BRANCH  66  83
ATOM     83  C   UNL A   1      39.274  32.300  36.044  1.00  0.00     0.057 A 
ATOM     84  C   UNL A   1      39.707  33.618  36.230  1.00  0.00     0.134 A 
ATOM     85  C   UNL A   1      38.250  31.831  36.880  1.00  0.00     0.134 A 
ATOM     86  F   UNL A   1      40.690  34.124  35.471  1.00  0.00    -0.206 F 
ATOM     87  C   UNL A   1      39.154  34.434  37.219  1.00  0.00     0.040 A 
ATOM     88  C   UNL A   1      37.672  32.646  37.855  1.00  0.00     0.040 A 
ATOM     89  F   UNL A   1      37.781  30.582  36.748  1.00  0.00    -0.206 F 
ATOM     90  C   UNL A   1      38.128  33.951  38.029  1.00  0.00     0.006 A 
ENDBRANCH  66  83
ENDBRANCH  40  41
ENDBRANCH  33  35
ENDBRANCH  32  33
ENDBRANCH  31  32
ENDBRANCH  30  31
ENDBRANCH  29  30
ENDBRANCH  28  29
ENDBRANCH   1  28
TORSDOF 21
ENDMDL
MODEL 3
REMARK VINA RESULT:      -9.9      3.945      8.546
REMARK SMILES O=C(CNC(=O)c1ccco1)Nc1cccc(C(=O)OCCOCCOCCOC(=O)c2ccc(-c3c4nc(c(-c5c(F)cccc5F)c5ccc([nH]5)c(-c5c(F)cccc5F)c5nc(c(-c6c(F)cccc6F)c6ccc3[nH]6)C=C5)C=C4)cc2)c1
REMARK SMILES IDX 24 1 23 2 22 3 21 4 20 5 18 6 19 7 17 8 13 9 14 10 86 11
REMARK SMILES IDX 15 12 16 13 12 14 1 15 2 16 3 18 4 19 5 20 6 22 7 23 8 24
REMARK SMILES IDX 11 25 9 26 10 27 25 28 26 29 27 30 28 31 29 32 30 33 31 34
REMARK SMILES IDX 32 35 33 36 85 37 34 38 84 39 35 40 36 41 37 42 78 43 38 44
REMARK SMILES IDX 83 45 77 46 79 47 39 48 82 49 76 50 75 51 40 53 66 54 49 55
REMARK SMILES IDX 65 56 50 57 53 58 64 59 80 60 51 61 52 62 63 64 81 65 54 66
REMARK SMILES IDX 41 67 42 68 47 69 43 70 44 71 46 72 48 73 45 74 67 75 68 76
REMARK SMILES IDX 73 77 69 78 70 79 72 80 74 81 71 82 55 83 56 84 61 85 57 86
REMARK SMILES IDX 58 87 60 88 62 89 59 90
REMARK H PARENT 12 17 4 21 79 52 53 63
REMARK Flexibility Score: inf
ROOT
ATOM      1  C   UNL A   1      39.547  22.289  26.509  1.00  0.00     0.188 C 
ENDROOT
BRANCH   1   2
ATOM      2  O   UNL A   1      38.571  21.803  25.614  1.00  0.00    -0.376 OA
BRANCH   2   3
ATOM      3  C   UNL A   1      37.510  22.633  25.169  1.00  0.00     0.202 C 
BRANCH   3   4
ATOM      4  C   UNL A   1      36.354  23.068  26.076  1.00  0.00     0.261 C 
BRANCH   4   5
ATOM      5  O   UNL A   1      35.145  22.321  25.920  1.00  0.00    -0.460 OA
BRANCH   5   6
ATOM      6  C   UNL A   1      34.149  22.633  26.790  1.00  0.00     0.338 C 
ATOM      7  O   UNL A   1      34.159  22.505  28.001  1.00  0.00    -0.246 OA
BRANCH   6   8
ATOM      8  C   UNL A   1      33.091  23.359  26.059  1.00  0.00     0.062 A 
ATOM      9  C   UNL A   1      32.066  25.435  25.350  1.00  0.00     0.042 A 
ATOM     10  C   UNL A   1      31.008  24.699  24.799  1.00  0.00     0.026 A 
ATOM     11  C   UNL A   1      33.088  24.755  26.015  1.00  0.00     0.041 A 
ATOM     12  C   UNL A   1      31.013  23.300  24.842  1.00  0.00     0.003 A 
ATOM     13  C   UNL A   1      32.068  22.626  25.453  1.00  0.00     0.016 A 
BRANCH   9  14
ATOM     14  N   UNL A   1      32.047  26.838  25.209  1.00  0.00    -0.325 N 
ATOM     15  O   UNL A   1      31.032  27.467  27.215  1.00  0.00    -0.273 OA
ATOM     16  C   UNL A   1      31.532  27.742  26.128  1.00  0.00     0.243 C 
ATOM     17  H   UNL A   1      32.435  27.210  24.383  1.00  0.00     0.169 HD
BRANCH  16  18
ATOM     18  C   UNL A   1      31.462  29.173  25.604  1.00  0.00     0.216 C 
BRANCH  18  19
ATOM     19  N   UNL A   1      31.937  29.301  24.236  1.00  0.00    -0.340 N 
ATOM     20  C   UNL A   1      31.224  29.281  23.062  1.00  0.00     0.287 C 
ATOM     21  H   UNL A   1      32.909  29.417  24.138  1.00  0.00     0.164 HD
ATOM     22  O   UNL A   1      31.877  29.283  22.018  1.00  0.00    -0.266 OA
BRANCH  20  23
ATOM     23  C   UNL A   1      29.782  29.216  23.109  1.00  0.00     0.191 A 
ATOM     24  C   UNL A   1      28.874  28.170  23.138  1.00  0.00     0.056 A 
ATOM     25  O   UNL A   1      29.095  30.401  23.135  1.00  0.00    -0.459 OA
ATOM     26  C   UNL A   1      27.581  28.745  23.122  1.00  0.00     0.043 A 
ATOM     27  C   UNL A   1      27.771  30.106  23.130  1.00  0.00     0.196 A 
ENDBRANCH  20  23
ENDBRANCH  18  19
ENDBRANCH  16  18
ENDBRANCH   9  14
ENDBRANCH   6   8
ENDBRANCH   5   6
ENDBRANCH   4   5
ENDBRANCH   3   4
ENDBRANCH   2   3
ENDBRANCH   1   2
BRANCH   1  28
ATOM     28  C   UNL A   1      40.713  21.397  26.986  1.00  0.00     0.188 C 
BRANCH  28  29
ATOM     29  O   UNL A   1      40.982  20.148  26.385  1.00  0.00    -0.376 OA
BRANCH  29  30
ATOM     30  C   UNL A   1      42.058  19.349  26.842  1.00  0.00     0.202 C 
BRANCH  30  31
ATOM     31  C   UNL A   1      43.040  18.665  25.885  1.00  0.00     0.261 C 
BRANCH  31  32
ATOM     32  O   UNL A   1      43.259  19.345  24.644  1.00  0.00    -0.460 OA
BRANCH  32  33
ATOM     33  C   UNL A   1      44.566  19.527  24.318  1.00  0.00     0.338 C 
ATOM     34  O   UNL A   1      45.312  18.749  23.768  1.00  0.00    -0.246 OA
BRANCH  33  35
ATOM     35  C   UNL A   1      44.935  20.925  24.606  1.00  0.00     0.060 A 
ATOM     36  C   UNL A   1      45.516  21.224  25.845  1.00  0.00     0.016 A 
ATOM     37  C   UNL A   1      44.657  21.931  23.682  1.00  0.00     0.016 A 
ATOM     38  C   UNL A   1      45.807  22.547  26.175  1.00  0.00     0.010 A 
ATOM     39  C   UNL A   1      44.927  23.257  24.024  1.00  0.00     0.010 A 
ATOM     40  C   UNL A   1      45.481  23.572  25.278  1.00  0.00    -0.014 A 
BRANCH  40  41
ATOM     41  C   UNL A   1      45.554  24.989  25.698  1.00  0.00     0.031 A 
ATOM     42  C   UNL A   1      46.888  25.680  25.656  1.00  0.00     0.074 A 
ATOM     43  C   UNL A   1      44.467  25.639  26.147  1.00  0.00     0.049 A 
ATOM     44  N   UNL A   1      47.228  26.858  26.109  1.00  0.00    -0.248 NA
ATOM     45  C   UNL A   1      47.987  24.934  25.022  1.00  0.00     0.031 C 
ATOM     46  C   UNL A   1      43.113  25.091  26.193  1.00  0.00     0.029 A 
ATOM     47  N   UNL A   1      44.343  26.899  26.674  1.00  0.00    -0.354 N 
ATOM     48  C   UNL A   1      48.583  26.988  25.834  1.00  0.00     0.074 A 
ATOM     49  C   UNL A   1      49.006  25.763  25.189  1.00  0.00     0.031 C 
ATOM     50  C   UNL A   1      42.296  26.003  26.750  1.00  0.00     0.029 A 
ATOM     51  C   UNL A   1      43.078  27.177  27.134  1.00  0.00     0.049 A 
ATOM     52  H   UNL A   1      45.087  27.541  26.721  1.00  0.00     0.167 HD
ATOM     53  C   UNL A   1      49.400  28.034  26.094  1.00  0.00     0.037 A 
ATOM     54  C   UNL A   1      42.619  28.241  27.820  1.00  0.00     0.037 A 
ATOM     55  C   UNL A   1      48.977  29.247  26.742  1.00  0.00     0.049 A 
ATOM     56  C   UNL A   1      43.565  29.361  28.171  1.00  0.00     0.074 A 
ATOM     57  C   UNL A   1      49.725  30.372  27.042  1.00  0.00     0.029 A 
ATOM     58  N   UNL A   1      47.691  29.488  27.201  1.00  0.00    -0.354 N 
ATOM     59  N   UNL A   1      44.841  29.487  27.894  1.00  0.00    -0.248 NA
ATOM     60  C   UNL A   1      43.006  30.490  28.931  1.00  0.00     0.031 C 
ATOM     61  C   UNL A   1      48.903  31.273  27.726  1.00  0.00     0.029 A 
ATOM     62  C   UNL A   1      47.629  30.734  27.801  1.00  0.00     0.049 A 
ATOM     63  H   UNL A   1      46.933  28.866  27.112  1.00  0.00     0.167 HD
ATOM     64  C   UNL A   1      45.226  30.718  28.411  1.00  0.00     0.074 A 
ATOM     65  C   UNL A   1      44.049  31.303  29.016  1.00  0.00     0.031 C 
ATOM     66  C   UNL A   1      46.444  31.312  28.381  1.00  0.00     0.037 A 
BRANCH  53  67
ATOM     67  C   UNL A   1      50.843  27.895  25.709  1.00  0.00     0.057 A 
ATOM     68  C   UNL A   1      51.823  27.502  26.631  1.00  0.00     0.134 A 
ATOM     69  C   UNL A   1      51.255  28.136  24.393  1.00  0.00     0.134 A 
ATOM     70  F   UNL A   1      51.497  27.272  27.912  1.00  0.00    -0.206 F 
ATOM     71  C   UNL A   1      53.163  27.378  26.261  1.00  0.00     0.040 A 
ATOM     72  C   UNL A   1      52.587  27.988  24.005  1.00  0.00     0.040 A 
ATOM     73  F   UNL A   1      50.367  28.513  23.460  1.00  0.00    -0.206 F 
ATOM     74  C   UNL A   1      53.547  27.614  24.943  1.00  0.00     0.006 A 
ENDBRANCH  53  67
BRANCH  54  75
ATOM     75  C   UNL A   1      41.198  28.296  28.246  1.00  0.00     0.057 A 
ATOM     76  C   UNL A   1      40.808  27.872  29.521  1.00  0.00     0.134 A 
ATOM     77  C   UNL A   1      40.193  28.750  27.383  1.00  0.00     0.134 A 
ATOM     78  F   UNL A   1      41.722  27.402  30.384  1.00  0.00    -0.206 F 
ATOM     79  C   UNL A   1      39.470  27.882  29.919  1.00  0.00     0.040 A 
ATOM     80  C   UNL A   1      38.855  28.790  27.775  1.00  0.00     0.040 A 
ATOM     81  F   UNL A   1      40.500  29.168  26.146  1.00  0.00    -0.206 F 
ATOM     82  C   UNL A   1      38.489  28.347  29.045  1.00  0.00     0.006 A 
ENDBRANCH  54  75
BRANCH  66  83
ATOM     83  C   UNL A   1      46.559  32.691  28.965  1.00  0.00     0.057 A 
ATOM     84  C   UNL A   1      46.308  33.844  28.212  1.00  0.00     0.134 A 
ATOM     85  C   UNL A   1      46.867  32.860  30.323  1.00  0.00     0.134 A 
ATOM     86  F   UNL A   1      46.018  33.752  26.906  1.00  0.00    -0.206 F 
ATOM     87  C   UNL A   1      46.378  35.117  28.782  1.00  0.00     0.040 A 
ATOM     88  C   UNL A   1      46.914  34.125  30.910  1.00  0.00     0.040 A 
ATOM     89  F   UNL A   1      47.107  31.797  31.104  1.00  0.00    -0.206 F 
ATOM     90  C   UNL A   1      46.673  35.259  30.137  1.00  0.00     0.006 A 
ENDBRANCH  66  83
ENDBRANCH  40  41
ENDBRANCH  33  35
ENDBRANCH  32  33
ENDBRANCH  31  32
ENDBRANCH  30  31
ENDBRANCH  29  30
ENDBRANCH  28  29
ENDBRANCH   1  28
TORSDOF 21
ENDMDL
