MODEL 1
REMARK VINA RESULT:     -11.0      0.000      0.000
REMARK SMILES C[C@@H]1[C@H](C)CCC[C@H]1NC(=O)C[N@@H+]1CCC[C@@H]1C(=O)OCCOCCOCCOC(=O)c1ccc(-c2c3nc(c(-c4c(F)cccc4F)c4ccc([nH]4)c(-c4c(F)cccc4F)c4nc(c(-c5c(F)cccc5F)c5ccc2[nH]5)C=C4)C=C3)cc1
REMARK SMILES IDX 24 1 23 2 22 3 21 4 20 5 18 6 19 7 17 8 13 9 14 10 15 12
REMARK SMILES IDX 16 13 12 14 10 15 9 16 11 18 8 19 1 20 2 21 3 22 4 23 5 24
REMARK SMILES IDX 7 25 6 26 25 27 26 28 27 29 28 30 29 31 30 32 31 33 32 34
REMARK SMILES IDX 33 35 85 36 34 37 84 38 35 39 36 40 37 41 78 42 38 43 83 44
REMARK SMILES IDX 77 45 79 46 39 47 82 48 76 49 75 50 40 52 66 53 49 54 65 55
REMARK SMILES IDX 50 56 53 57 64 58 80 59 51 60 52 61 63 63 81 64 54 65 41 66
REMARK SMILES IDX 42 67 47 68 43 69 44 70 46 71 48 72 45 73 67 74 68 75 73 76
REMARK SMILES IDX 69 77 70 78 72 79 74 80 71 81 55 82 56 83 61 84 57 85 58 86
REMARK SMILES IDX 60 87 62 88 59 89
REMARK H PARENT 13 11 9 17 79 51 53 62
REMARK Flexibility Score: inf
ROOT
ATOM      1  C   UNL A   1      39.922  21.522  26.497  1.00  0.00     0.188 C 
ENDROOT
BRANCH   1   2
ATOM      2  O   UNL A   1      39.043  20.687  25.760  1.00  0.00    -0.376 OA
BRANCH   2   3
ATOM      3  C   UNL A   1      37.808  21.215  25.280  1.00  0.00     0.202 C 
BRANCH   3   4
ATOM      4  C   UNL A   1      37.535  22.728  25.376  1.00  0.00     0.261 C 
BRANCH   4   5
ATOM      5  O   UNL A   1      36.202  23.140  25.005  1.00  0.00    -0.459 OA
BRANCH   5   6
ATOM      6  C   UNL A   1      35.854  22.993  23.700  1.00  0.00     0.365 C 
ATOM      7  O   UNL A   1      36.579  23.296  22.756  1.00  0.00    -0.245 OA
BRANCH   6   8
ATOM      8  C   UNL A   1      34.429  22.426  23.497  1.00  0.00     0.295 C 
ATOM      9  N   UNL A   1      33.513  23.394  22.847  1.00  0.00    -0.315 N 
ATOM     10  C   UNL A   1      32.163  22.882  23.124  1.00  0.00     0.263 C 
ATOM     11  H   UNL A   1      33.688  23.468  21.845  1.00  0.00     0.349 HD
ATOM     12  C   UNL A   1      32.223  22.385  24.549  1.00  0.00     0.068 C 
ATOM     13  C   UNL A   1      33.631  21.835  24.669  1.00  0.00     0.083 C 
BRANCH   9  14
ATOM     14  C   UNL A   1      33.709  24.772  23.353  1.00  0.00     0.364 C 
BRANCH  14  15
ATOM     15  C   UNL A   1      33.163  25.794  22.369  1.00  0.00     0.275 C 
ATOM     16  N   UNL A   1      32.097  26.562  22.733  1.00  0.00    -0.348 N 
ATOM     17  H   UNL A   1      31.813  27.231  22.069  1.00  0.00     0.163 HD
ATOM     18  O   UNL A   1      33.653  25.936  21.247  1.00  0.00    -0.268 OA
BRANCH  16  19
ATOM     19  C   UNL A   1      31.310  26.536  23.976  1.00  0.00     0.085 C 
ATOM     20  C   UNL A   1      31.245  27.329  26.393  1.00  0.00     0.010 C 
ATOM     21  C   UNL A   1      31.854  27.564  25.001  1.00  0.00     0.011 C 
ATOM     22  C   UNL A   1      31.645  29.008  24.477  1.00  0.00    -0.009 C 
ATOM     23  C   UNL A   1      32.137  30.075  25.458  1.00  0.00     0.008 C 
ATOM     24  C   UNL A   1      30.185  29.274  24.075  1.00  0.00     0.004 C 
ATOM     25  C   UNL A   1      29.840  26.796  23.637  1.00  0.00     0.025 C 
ATOM     26  C   UNL A   1      29.620  28.217  23.127  1.00  0.00     0.002 C 
ENDBRANCH  16  19
ENDBRANCH  14  15
ENDBRANCH   9  14
ENDBRANCH   6   8
ENDBRANCH   5   6
ENDBRANCH   4   5
ENDBRANCH   3   4
ENDBRANCH   2   3
ENDBRANCH   1   2
BRANCH   1  27
ATOM     27  C   UNL A   1      40.932  20.878  27.452  1.00  0.00     0.188 C 
BRANCH  27  28
ATOM     28  O   UNL A   1      41.758  19.897  26.876  1.00  0.00    -0.376 OA
BRANCH  28  29
ATOM     29  C   UNL A   1      42.546  20.244  25.750  1.00  0.00     0.202 C 
BRANCH  29  30
ATOM     30  C   UNL A   1      43.413  21.517  25.762  1.00  0.00     0.261 C 
BRANCH  30  31
ATOM     31  O   UNL A   1      42.835  22.715  25.219  1.00  0.00    -0.460 OA
BRANCH  31  32
ATOM     32  C   UNL A   1      43.613  23.822  25.165  1.00  0.00     0.338 C 
ATOM     33  O   UNL A   1      44.512  24.051  24.371  1.00  0.00    -0.246 OA
BRANCH  32  34
ATOM     34  C   UNL A   1      43.002  24.829  26.066  1.00  0.00     0.060 A 
ATOM     35  C   UNL A   1      43.434  26.165  25.998  1.00  0.00     0.016 A 
ATOM     36  C   UNL A   1      41.975  24.467  26.938  1.00  0.00     0.016 A 
ATOM     37  C   UNL A   1      42.851  27.137  26.814  1.00  0.00     0.010 A 
ATOM     38  C   UNL A   1      41.417  25.433  27.777  1.00  0.00     0.010 A 
ATOM     39  C   UNL A   1      41.870  26.765  27.742  1.00  0.00    -0.014 A 
BRANCH  39  40
ATOM     40  C   UNL A   1      41.472  27.691  28.829  1.00  0.00     0.031 A 
ATOM     41  C   UNL A   1      42.224  27.609  30.128  1.00  0.00     0.074 A 
ATOM     42  C   UNL A   1      40.456  28.562  28.691  1.00  0.00     0.049 A 
ATOM     43  N   UNL A   1      41.980  28.191  31.272  1.00  0.00    -0.248 NA
ATOM     44  C   UNL A   1      43.410  26.737  30.134  1.00  0.00     0.031 C 
ATOM     45  C   UNL A   1      39.684  28.780  27.472  1.00  0.00     0.029 A 
ATOM     46  N   UNL A   1      39.887  29.408  29.612  1.00  0.00    -0.354 N 
ATOM     47  C   UNL A   1      42.966  27.737  32.140  1.00  0.00     0.074 A 
ATOM     48  C   UNL A   1      43.797  26.816  31.397  1.00  0.00     0.031 C 
ATOM     49  C   UNL A   1      38.720  29.683  27.725  1.00  0.00     0.029 A 
ATOM     50  C   UNL A   1      38.782  30.071  29.135  1.00  0.00     0.049 A 
ATOM     51  H   UNL A   1      40.237  29.529  30.523  1.00  0.00     0.167 HD
ATOM     52  C   UNL A   1      43.162  28.060  33.440  1.00  0.00     0.037 A 
ATOM     53  C   UNL A   1      37.902  30.866  29.776  1.00  0.00     0.037 A 
ATOM     54  C   UNL A   1      42.329  28.972  34.177  1.00  0.00     0.049 A 
ATOM     55  C   UNL A   1      38.086  31.147  31.246  1.00  0.00     0.074 A 
ATOM     56  C   UNL A   1      42.453  29.379  35.493  1.00  0.00     0.029 A 
ATOM     57  N   UNL A   1      41.209  29.608  33.664  1.00  0.00    -0.354 N 
ATOM     58  N   UNL A   1      39.027  30.728  32.059  1.00  0.00    -0.248 NA
ATOM     59  C   UNL A   1      37.084  32.010  31.891  1.00  0.00     0.031 C 
ATOM     60  C   UNL A   1      41.372  30.213  35.795  1.00  0.00     0.029 A 
ATOM     61  C   UNL A   1      40.615  30.382  34.647  1.00  0.00     0.049 A 
ATOM     62  H   UNL A   1      40.884  29.523  32.738  1.00  0.00     0.167 HD
ATOM     63  C   UNL A   1      38.753  31.305  33.295  1.00  0.00     0.074 A 
ATOM     64  C   UNL A   1      37.559  32.106  33.125  1.00  0.00     0.031 C 
ATOM     65  C   UNL A   1      39.434  31.189  34.462  1.00  0.00     0.037 A 
BRANCH  52  66
ATOM     66  C   UNL A   1      44.295  27.383  34.154  1.00  0.00     0.057 A 
ATOM     67  C   UNL A   1      44.136  26.155  34.812  1.00  0.00     0.134 A 
ATOM     68  C   UNL A   1      45.570  27.965  34.174  1.00  0.00     0.134 A 
ATOM     69  F   UNL A   1      42.938  25.552  34.846  1.00  0.00    -0.206 F 
ATOM     70  C   UNL A   1      45.194  25.548  35.491  1.00  0.00     0.040 A 
ATOM     71  C   UNL A   1      46.643  27.351  34.822  1.00  0.00     0.040 A 
ATOM     72  F   UNL A   1      45.794  29.137  33.563  1.00  0.00    -0.206 F 
ATOM     73  C   UNL A   1      46.454  26.144  35.490  1.00  0.00     0.006 A 
ENDBRANCH  52  66
BRANCH  53  74
ATOM     74  C   UNL A   1      36.747  31.441  29.038  1.00  0.00     0.057 A 
ATOM     75  C   UNL A   1      36.722  32.790  28.667  1.00  0.00     0.134 A 
ATOM     76  C   UNL A   1      35.632  30.661  28.703  1.00  0.00     0.134 A 
ATOM     77  F   UNL A   1      37.746  33.596  28.983  1.00  0.00    -0.206 F 
ATOM     78  C   UNL A   1      35.628  33.346  27.999  1.00  0.00     0.040 A 
ATOM     79  C   UNL A   1      34.544  31.197  28.012  1.00  0.00     0.040 A 
ATOM     80  F   UNL A   1      35.590  29.362  29.034  1.00  0.00    -0.206 F 
ATOM     81  C   UNL A   1      34.538  32.546  27.664  1.00  0.00     0.006 A 
ENDBRANCH  53  74
BRANCH  65  82
ATOM     82  C   UNL A   1      38.948  31.985  35.640  1.00  0.00     0.057 A 
ATOM     83  C   UNL A   1      38.177  31.416  36.660  1.00  0.00     0.134 A 
ATOM     84  C   UNL A   1      39.321  33.328  35.786  1.00  0.00     0.134 A 
ATOM     85  F   UNL A   1      37.777  30.138  36.579  1.00  0.00    -0.206 F 
ATOM     86  C   UNL A   1      37.779  32.158  37.775  1.00  0.00     0.040 A 
ATOM     87  C   UNL A   1      38.956  34.071  36.910  1.00  0.00     0.040 A 
ATOM     88  F   UNL A   1      40.070  33.933  34.852  1.00  0.00    -0.206 F 
ATOM     89  C   UNL A   1      38.179  33.487  37.906  1.00  0.00     0.006 A 
ENDBRANCH  65  82
ENDBRANCH  39  40
ENDBRANCH  32  34
ENDBRANCH  31  32
ENDBRANCH  30  31
ENDBRANCH  29  30
ENDBRANCH  28  29
ENDBRANCH  27  28
ENDBRANCH   1  27
TORSDOF 20
ENDMDL
MODEL 2
REMARK VINA RESULT:     -10.7      4.617     10.032
REMARK SMILES C[C@@H]1[C@H](C)CCC[C@H]1NC(=O)C[N@@H+]1CCC[C@@H]1C(=O)OCCOCCOCCOC(=O)c1ccc(-c2c3nc(c(-c4c(F)cccc4F)c4ccc([nH]4)c(-c4c(F)cccc4F)c4nc(c(-c5c(F)cccc5F)c5ccc2[nH]5)C=C4)C=C3)cc1
REMARK SMILES IDX 24 1 23 2 22 3 21 4 20 5 18 6 19 7 17 8 13 9 14 10 15 12
REMARK SMILES IDX 16 13 12 14 10 15 9 16 11 18 8 19 1 20 2 21 3 22 4 23 5 24
REMARK SMILES IDX 7 25 6 26 25 27 26 28 27 29 28 30 29 31 30 32 31 33 32 34
REMARK SMILES IDX 33 35 85 36 34 37 84 38 35 39 36 40 37 41 78 42 38 43 83 44
REMARK SMILES IDX 77 45 79 46 39 47 82 48 76 49 75 50 40 52 66 53 49 54 65 55
REMARK SMILES IDX 50 56 53 57 64 58 80 59 51 60 52 61 63 63 81 64 54 65 41 66
REMARK SMILES IDX 42 67 47 68 43 69 44 70 46 71 48 72 45 73 67 74 68 75 73 76
REMARK SMILES IDX 69 77 70 78 72 79 74 80 71 81 55 82 56 83 61 84 57 85 58 86
REMARK SMILES IDX 60 87 62 88 59 89
REMARK H PARENT 13 11 9 17 79 51 53 62
REMARK Flexibility Score: inf
ROOT
ATOM      1  C   UNL A   1      33.254  33.422  28.001  1.00  0.00     0.188 C 
ENDROOT
BRANCH   1   2
ATOM      2  O   UNL A   1      32.030  33.448  27.284  1.00  0.00    -0.376 OA
BRANCH   2   3
ATOM      3  C   UNL A   1      31.560  32.260  26.651  1.00  0.00     0.202 C 
BRANCH   3   4
ATOM      4  C   UNL A   1      32.297  30.928  26.882  1.00  0.00     0.261 C 
BRANCH   4   5
ATOM      5  O   UNL A   1      31.657  29.762  26.320  1.00  0.00    -0.459 OA
BRANCH   5   6
ATOM      6  C   UNL A   1      32.069  29.369  25.086  1.00  0.00     0.365 C 
ATOM      7  O   UNL A   1      33.173  29.630  24.615  1.00  0.00    -0.245 OA
BRANCH   6   8
ATOM      8  C   UNL A   1      31.001  28.575  24.298  1.00  0.00     0.295 C 
ATOM      9  N   UNL A   1      30.901  27.161  24.733  1.00  0.00    -0.315 N 
ATOM     10  C   UNL A   1      30.195  26.478  23.638  1.00  0.00     0.263 C 
ATOM     11  H   UNL A   1      30.399  27.070  25.616  1.00  0.00     0.349 HD
ATOM     12  C   UNL A   1      30.760  27.084  22.376  1.00  0.00     0.068 C 
ATOM     13  C   UNL A   1      31.011  28.530  22.763  1.00  0.00     0.083 C 
BRANCH   9  14
ATOM     14  C   UNL A   1      32.230  26.567  25.005  1.00  0.00     0.364 C 
BRANCH  14  15
ATOM     15  C   UNL A   1      32.099  25.316  25.859  1.00  0.00     0.275 C 
ATOM     16  N   UNL A   1      32.758  24.183  25.480  1.00  0.00    -0.348 N 
ATOM     17  H   UNL A   1      32.666  23.417  26.093  1.00  0.00     0.163 HD
ATOM     18  O   UNL A   1      31.404  25.297  26.876  1.00  0.00    -0.268 OA
BRANCH  16  19
ATOM     19  C   UNL A   1      33.587  23.940  24.289  1.00  0.00     0.085 C 
ATOM     20  C   UNL A   1      35.911  23.277  23.494  1.00  0.00     0.010 C 
ATOM     21  C   UNL A   1      34.922  23.252  24.671  1.00  0.00     0.011 C 
ATOM     22  C   UNL A   1      34.656  21.826  25.217  1.00  0.00    -0.009 C 
ATOM     23  C   UNL A   1      35.941  21.081  25.588  1.00  0.00     0.008 C 
ATOM     24  C   UNL A   1      33.802  20.986  24.255  1.00  0.00     0.004 C 
ATOM     25  C   UNL A   1      32.783  23.103  23.290  1.00  0.00     0.025 C 
ATOM     26  C   UNL A   1      32.522  21.694  23.813  1.00  0.00     0.002 C 
ENDBRANCH  16  19
ENDBRANCH  14  15
ENDBRANCH   9  14
ENDBRANCH   6   8
ENDBRANCH   5   6
ENDBRANCH   4   5
ENDBRANCH   3   4
ENDBRANCH   2   3
ENDBRANCH   1   2
BRANCH   1  27
ATOM     27  C   UNL A   1      34.200  34.623  27.902  1.00  0.00     0.188 C 
BRANCH  27  28
ATOM     28  O   UNL A   1      34.413  35.318  29.105  1.00  0.00    -0.376 OA
BRANCH  28  29
ATOM     29  C   UNL A   1      33.649  34.958  30.244  1.00  0.00     0.202 C 
BRANCH  29  30
ATOM     30  C   UNL A   1      34.316  34.265  31.448  1.00  0.00     0.261 C 
BRANCH  30  31
ATOM     31  O   UNL A   1      35.043  33.052  31.193  1.00  0.00    -0.460 OA
BRANCH  31  32
ATOM     32  C   UNL A   1      35.785  32.538  32.201  1.00  0.00     0.338 C 
ATOM     33  O   UNL A   1      35.503  32.526  33.390  1.00  0.00    -0.246 OA
BRANCH  32  34
ATOM     34  C   UNL A   1      36.874  31.745  31.582  1.00  0.00     0.060 A 
ATOM     35  C   UNL A   1      37.702  30.956  32.399  1.00  0.00     0.016 A 
ATOM     36  C   UNL A   1      37.047  31.743  30.198  1.00  0.00     0.016 A 
ATOM     37  C   UNL A   1      38.714  30.176  31.835  1.00  0.00     0.010 A 
ATOM     38  C   UNL A   1      38.080  30.989  29.638  1.00  0.00     0.010 A 
ATOM     39  C   UNL A   1      38.937  30.225  30.454  1.00  0.00    -0.014 A 
BRANCH  39  40
ATOM     40  C   UNL A   1      40.185  29.676  29.873  1.00  0.00     0.031 A 
ATOM     41  C   UNL A   1      41.340  30.619  29.679  1.00  0.00     0.074 A 
ATOM     42  C   UNL A   1      40.294  28.390  29.497  1.00  0.00     0.049 A 
ATOM     43  N   UNL A   1      42.476  30.433  29.060  1.00  0.00    -0.248 NA
ATOM     44  C   UNL A   1      41.180  31.964  30.257  1.00  0.00     0.031 C 
ATOM     45  C   UNL A   1      39.274  27.363  29.678  1.00  0.00     0.029 A 
ATOM     46  N   UNL A   1      41.321  27.742  28.853  1.00  0.00    -0.354 N 
ATOM     47  C   UNL A   1      43.155  31.642  29.153  1.00  0.00     0.074 A 
ATOM     48  C   UNL A   1      42.295  32.560  29.866  1.00  0.00     0.031 C 
ATOM     49  C   UNL A   1      39.713  26.214  29.133  1.00  0.00     0.029 A 
ATOM     50  C   UNL A   1      41.026  26.441  28.526  1.00  0.00     0.049 A 
ATOM     51  H   UNL A   1      42.183  28.167  28.647  1.00  0.00     0.167 HD
ATOM     52  C   UNL A   1      44.385  31.959  28.685  1.00  0.00     0.037 A 
ATOM     53  C   UNL A   1      41.719  25.551  27.788  1.00  0.00     0.037 A 
ATOM     54  C   UNL A   1      45.233  31.044  27.969  1.00  0.00     0.049 A 
ATOM     55  C   UNL A   1      43.051  25.948  27.201  1.00  0.00     0.074 A 
ATOM     56  C   UNL A   1      46.504  31.262  27.468  1.00  0.00     0.029 A 
ATOM     57  N   UNL A   1      44.891  29.741  27.642  1.00  0.00    -0.354 N 
ATOM     58  N   UNL A   1      43.695  27.087  27.303  1.00  0.00    -0.248 NA
ATOM     59  C   UNL A   1      43.752  24.937  26.394  1.00  0.00     0.031 C 
ATOM     60  C   UNL A   1      46.905  30.111  26.783  1.00  0.00     0.029 A 
ATOM     61  C   UNL A   1      45.915  29.152  26.919  1.00  0.00     0.049 A 
ATOM     62  H   UNL A   1      44.046  29.300  27.888  1.00  0.00     0.167 HD
ATOM     63  C   UNL A   1      44.888  26.916  26.608  1.00  0.00     0.074 A 
ATOM     64  C   UNL A   1      44.881  25.564  26.091  1.00  0.00     0.031 C 
ATOM     65  C   UNL A   1      45.902  27.798  26.422  1.00  0.00     0.037 A 
BRANCH  52  66
ATOM     66  C   UNL A   1      44.859  33.367  28.894  1.00  0.00     0.057 A 
ATOM     67  C   UNL A   1      45.637  33.736  30.001  1.00  0.00     0.134 A 
ATOM     68  C   UNL A   1      44.542  34.368  27.967  1.00  0.00     0.134 A 
ATOM     69  F   UNL A   1      45.962  32.830  30.936  1.00  0.00    -0.206 F 
ATOM     70  C   UNL A   1      46.052  35.054  30.195  1.00  0.00     0.040 A 
ATOM     71  C   UNL A   1      44.979  35.683  28.132  1.00  0.00     0.040 A 
ATOM     72  F   UNL A   1      43.805  34.085  26.883  1.00  0.00    -0.206 F 
ATOM     73  C   UNL A   1      45.729  36.030  29.254  1.00  0.00     0.006 A 
ENDBRANCH  52  66
BRANCH  53  74
ATOM     74  C   UNL A   1      41.161  24.196  27.539  1.00  0.00     0.057 A 
ATOM     75  C   UNL A   1      40.125  23.997  26.619  1.00  0.00     0.134 A 
ATOM     76  C   UNL A   1      41.637  23.072  28.226  1.00  0.00     0.134 A 
ATOM     77  F   UNL A   1      39.606  25.036  25.950  1.00  0.00    -0.206 F 
ATOM     78  C   UNL A   1      39.573  22.732  26.401  1.00  0.00     0.040 A 
ATOM     79  C   UNL A   1      41.113  21.798  27.998  1.00  0.00     0.040 A 
ATOM     80  F   UNL A   1      42.624  23.196  29.124  1.00  0.00    -0.206 F 
ATOM     81  C   UNL A   1      40.074  21.627  27.086  1.00  0.00     0.006 A 
ENDBRANCH  53  74
BRANCH  65  82
ATOM     82  C   UNL A   1      47.118  27.322  25.680  1.00  0.00     0.057 A 
ATOM     83  C   UNL A   1      48.132  26.582  26.300  1.00  0.00     0.134 A 
ATOM     84  C   UNL A   1      47.240  27.552  24.302  1.00  0.00     0.134 A 
ATOM     85  F   UNL A   1      48.083  26.334  27.618  1.00  0.00    -0.206 F 
ATOM     86  C   UNL A   1      49.230  26.102  25.582  1.00  0.00     0.040 A 
ATOM     87  C   UNL A   1      48.316  27.051  23.568  1.00  0.00     0.040 A 
ATOM     88  F   UNL A   1      46.299  28.243  23.642  1.00  0.00    -0.206 F 
ATOM     89  C   UNL A   1      49.318  26.328  24.209  1.00  0.00     0.006 A 
ENDBRANCH  65  82
ENDBRANCH  39  40
ENDBRANCH  32  34
ENDBRANCH  31  32
ENDBRANCH  30  31
ENDBRANCH  29  30
ENDBRANCH  28  29
ENDBRANCH  27  28
ENDBRANCH   1  27
TORSDOF 20
ENDMDL
MODEL 3
REMARK VINA RESULT:     -10.4      1.887      7.270
REMARK SMILES C[C@@H]1[C@H](C)CCC[C@H]1NC(=O)C[N@@H+]1CCC[C@@H]1C(=O)OCCOCCOCCOC(=O)c1ccc(-c2c3nc(c(-c4c(F)cccc4F)c4ccc([nH]4)c(-c4c(F)cccc4F)c4nc(c(-c5c(F)cccc5F)c5ccc2[nH]5)C=C4)C=C3)cc1
REMARK SMILES IDX 24 1 23 2 22 3 21 4 20 5 18 6 19 7 17 8 13 9 14 10 15 12
REMARK SMILES IDX 16 13 12 14 10 15 9 16 11 18 8 19 1 20 2 21 3 22 4 23 5 24
REMARK SMILES IDX 7 25 6 26 25 27 26 28 27 29 28 30 29 31 30 32 31 33 32 34
REMARK SMILES IDX 33 35 85 36 34 37 84 38 35 39 36 40 37 41 78 42 38 43 83 44
REMARK SMILES IDX 77 45 79 46 39 47 82 48 76 49 75 50 40 52 66 53 49 54 65 55
REMARK SMILES IDX 50 56 53 57 64 58 80 59 51 60 52 61 63 63 81 64 54 65 41 66
REMARK SMILES IDX 42 67 47 68 43 69 44 70 46 71 48 72 45 73 67 74 68 75 73 76
REMARK SMILES IDX 69 77 70 78 72 79 74 80 71 81 55 82 56 83 61 84 57 85 58 86
REMARK SMILES IDX 60 87 62 88 59 89
REMARK H PARENT 13 11 9 17 79 51 53 62
REMARK Flexibility Score: inf
ROOT
ATOM      1  C   UNL A   1      40.672  22.219  26.491  1.00  0.00     0.188 C 
ENDROOT
BRANCH   1   2
ATOM      2  O   UNL A   1      39.265  22.196  26.312  1.00  0.00    -0.376 OA
BRANCH   2   3
ATOM      3  C   UNL A   1      38.678  21.204  25.472  1.00  0.00     0.202 C 
BRANCH   3   4
ATOM      4  C   UNL A   1      37.221  21.367  25.001  1.00  0.00     0.261 C 
BRANCH   4   5
ATOM      5  O   UNL A   1      36.747  22.729  24.918  1.00  0.00    -0.459 OA
BRANCH   5   6
ATOM      6  C   UNL A   1      36.078  23.079  23.789  1.00  0.00     0.365 C 
ATOM      7  O   UNL A   1      36.455  22.805  22.653  1.00  0.00    -0.245 OA
BRANCH   6   8
ATOM      8  C   UNL A   1      34.791  23.894  24.058  1.00  0.00     0.295 C 
ATOM      9  N   UNL A   1      33.816  23.163  24.903  1.00  0.00    -0.315 N 
ATOM     10  C   UNL A   1      32.538  23.864  24.699  1.00  0.00     0.263 C 
ATOM     11  H   UNL A   1      34.089  23.164  25.886  1.00  0.00     0.349 HD
ATOM     12  C   UNL A   1      32.512  24.196  23.226  1.00  0.00     0.068 C 
ATOM     13  C   UNL A   1      33.966  24.487  22.907  1.00  0.00     0.083 C 
BRANCH   9  14
ATOM     14  C   UNL A   1      33.736  21.728  24.548  1.00  0.00     0.364 C 
BRANCH  14  15
ATOM     15  C   UNL A   1      33.928  20.854  25.778  1.00  0.00     0.275 C 
ATOM     16  N   UNL A   1      33.861  19.498  25.644  1.00  0.00    -0.348 N 
ATOM     17  H   UNL A   1      34.031  18.985  26.468  1.00  0.00     0.163 HD
ATOM     18  O   UNL A   1      34.131  21.341  26.891  1.00  0.00    -0.268 OA
BRANCH  16  19
ATOM     19  C   UNL A   1      33.572  18.692  24.448  1.00  0.00     0.085 C 
ATOM     20  C   UNL A   1      34.534  16.974  22.837  1.00  0.00     0.010 C 
ATOM     21  C   UNL A   1      34.658  17.607  24.233  1.00  0.00     0.011 C 
ATOM     22  C   UNL A   1      34.616  16.568  25.382  1.00  0.00    -0.009 C 
ATOM     23  C   UNL A   1      35.648  15.450  25.213  1.00  0.00     0.008 C 
ATOM     24  C   UNL A   1      33.210  15.979  25.582  1.00  0.00     0.004 C 
ATOM     25  C   UNL A   1      32.177  18.078  24.591  1.00  0.00     0.025 C 
ATOM     26  C   UNL A   1      32.124  17.047  25.715  1.00  0.00     0.002 C 
ENDBRANCH  16  19
ENDBRANCH  14  15
ENDBRANCH   9  14
ENDBRANCH   6   8
ENDBRANCH   5   6
ENDBRANCH   4   5
ENDBRANCH   3   4
ENDBRANCH   2   3
ENDBRANCH   1   2
BRANCH   1  27
ATOM     27  C   UNL A   1      41.463  20.916  26.337  1.00  0.00     0.188 C 
BRANCH  27  28
ATOM     28  O   UNL A   1      42.530  20.969  25.424  1.00  0.00    -0.376 OA
BRANCH  28  29
ATOM     29  C   UNL A   1      43.634  21.810  25.714  1.00  0.00     0.202 C 
BRANCH  29  30
ATOM     30  C   UNL A   1      44.117  22.853  24.688  1.00  0.00     0.261 C 
BRANCH  30  31
ATOM     31  O   UNL A   1      43.571  24.179  24.788  1.00  0.00    -0.460 OA
BRANCH  31  32
ATOM     32  C   UNL A   1      44.390  25.166  25.220  1.00  0.00     0.338 C 
ATOM     33  O   UNL A   1      45.422  25.550  24.691  1.00  0.00    -0.246 OA
BRANCH  32  34
ATOM     34  C   UNL A   1      43.674  25.888  26.299  1.00  0.00     0.060 A 
ATOM     35  C   UNL A   1      44.028  27.215  26.594  1.00  0.00     0.016 A 
ATOM     36  C   UNL A   1      42.624  25.273  26.983  1.00  0.00     0.016 A 
ATOM     37  C   UNL A   1      43.346  27.925  27.584  1.00  0.00     0.010 A 
ATOM     38  C   UNL A   1      41.964  25.972  27.996  1.00  0.00     0.010 A 
ATOM     39  C   UNL A   1      42.340  27.289  28.322  1.00  0.00    -0.014 A 
BRANCH  39  40
ATOM     40  C   UNL A   1      41.829  27.895  29.575  1.00  0.00     0.031 A 
ATOM     41  C   UNL A   1      40.587  28.738  29.489  1.00  0.00     0.074 A 
ATOM     42  C   UNL A   1      42.455  27.735  30.754  1.00  0.00     0.049 A 
ATOM     43  N   UNL A   1      40.027  29.495  30.395  1.00  0.00    -0.248 NA
ATOM     44  C   UNL A   1      39.891  28.732  28.192  1.00  0.00     0.031 C 
ATOM     45  C   UNL A   1      43.631  26.903  30.985  1.00  0.00     0.029 A 
ATOM     46  N   UNL A   1      42.192  28.300  31.979  1.00  0.00    -0.354 N 
ATOM     47  C   UNL A   1      38.928  30.073  29.772  1.00  0.00     0.074 A 
ATOM     48  C   UNL A   1      38.914  29.598  28.406  1.00  0.00     0.031 C 
ATOM     49  C   UNL A   1      44.008  27.031  32.270  1.00  0.00     0.029 A 
ATOM     50  C   UNL A   1      43.125  27.988  32.937  1.00  0.00     0.049 A 
ATOM     51  H   UNL A   1      41.410  28.871  32.153  1.00  0.00     0.167 HD
ATOM     52  C   UNL A   1      38.012  30.924  30.292  1.00  0.00     0.037 A 
ATOM     53  C   UNL A   1      43.270  28.454  34.194  1.00  0.00     0.037 A 
ATOM     54  C   UNL A   1      38.035  31.399  31.650  1.00  0.00     0.049 A 
ATOM     55  C   UNL A   1      42.290  29.467  34.730  1.00  0.00     0.074 A 
ATOM     56  C   UNL A   1      37.143  32.250  32.278  1.00  0.00     0.029 A 
ATOM     57  N   UNL A   1      39.007  31.075  32.583  1.00  0.00    -0.354 N 
ATOM     58  N   UNL A   1      41.244  30.000  34.142  1.00  0.00    -0.248 NA
ATOM     59  C   UNL A   1      42.510  29.947  36.103  1.00  0.00     0.031 C 
ATOM     60  C   UNL A   1      37.611  32.490  33.574  1.00  0.00     0.029 A 
ATOM     61  C   UNL A   1      38.753  31.733  33.775  1.00  0.00     0.049 A 
ATOM     62  H   UNL A   1      39.765  30.467  32.423  1.00  0.00     0.167 HD
ATOM     63  C   UNL A   1      40.664  30.844  35.084  1.00  0.00     0.074 A 
ATOM     64  C   UNL A   1      41.471  30.752  36.281  1.00  0.00     0.031 C 
ATOM     65  C   UNL A   1      39.557  31.620  34.968  1.00  0.00     0.037 A 
BRANCH  52  66
ATOM     66  C   UNL A   1      36.940  31.428  29.371  1.00  0.00     0.057 A 
ATOM     67  C   UNL A   1      35.853  30.631  28.984  1.00  0.00     0.134 A 
ATOM     68  C   UNL A   1      36.991  32.736  28.871  1.00  0.00     0.134 A 
ATOM     69  F   UNL A   1      35.752  29.364  29.413  1.00  0.00    -0.206 F 
ATOM     70  C   UNL A   1      34.875  31.106  28.109  1.00  0.00     0.040 A 
ATOM     71  C   UNL A   1      36.002  33.232  28.021  1.00  0.00     0.040 A 
ATOM     72  F   UNL A   1      38.001  33.553  29.202  1.00  0.00    -0.206 F 
ATOM     73  C   UNL A   1      34.945  32.413  27.631  1.00  0.00     0.006 A 
ENDBRANCH  52  66
BRANCH  53  74
ATOM     74  C   UNL A   1      44.403  27.985  35.034  1.00  0.00     0.057 A 
ATOM     75  C   UNL A   1      44.340  26.769  35.724  1.00  0.00     0.134 A 
ATOM     76  C   UNL A   1      45.568  28.749  35.181  1.00  0.00     0.134 A 
ATOM     77  F   UNL A   1      43.241  26.005  35.646  1.00  0.00    -0.206 F 
ATOM     78  C   UNL A   1      45.387  26.335  36.539  1.00  0.00     0.040 A 
ATOM     79  C   UNL A   1      46.634  28.314  35.972  1.00  0.00     0.040 A 
ATOM     80  F   UNL A   1      45.690  29.926  34.551  1.00  0.00    -0.206 F 
ATOM     81  C   UNL A   1      46.542  27.105  36.658  1.00  0.00     0.006 A 
ENDBRANCH  53  74
BRANCH  65  82
ATOM     82  C   UNL A   1      39.110  32.389  36.178  1.00  0.00     0.057 A 
ATOM     83  C   UNL A   1      39.491  33.718  36.403  1.00  0.00     0.134 A 
ATOM     84  C   UNL A   1      38.225  31.809  37.097  1.00  0.00     0.134 A 
ATOM     85  F   UNL A   1      40.344  34.331  35.568  1.00  0.00    -0.206 F 
ATOM     86  C   UNL A   1      39.023  34.435  37.506  1.00  0.00     0.040 A 
ATOM     87  C   UNL A   1      37.726  32.525  38.186  1.00  0.00     0.040 A 
ATOM     88  F   UNL A   1      37.809  30.544  36.937  1.00  0.00    -0.206 F 
ATOM     89  C   UNL A   1      38.129  33.841  38.396  1.00  0.00     0.006 A 
ENDBRANCH  65  82
ENDBRANCH  39  40
ENDBRANCH  32  34
ENDBRANCH  31  32
ENDBRANCH  30  31
ENDBRANCH  29  30
ENDBRANCH  28  29
ENDBRANCH  27  28
ENDBRANCH   1  27
TORSDOF 20
ENDMDL
