MODEL 1
REMARK VINA RESULT:     -10.8      0.000      0.000
REMARK SMILES CC[C@H](Oc1ccccc1/C=C1\SC(N)=[NH+]C1=O)C(=O)OCCOCCOCCOC(=O)c1ccc(-c2c3nc(c(-c4c(F)cccc4F)c4ccc([nH]4)c(-c4c(F)cccc4F)c4nc(c(-c5c(F)cccc5F)c5ccc2[nH]5)C=C4)C=C3)cc1
REMARK SMILES IDX 25 1 24 2 23 3 22 4 21 5 19 6 20 7 3 8 2 9 1 10 4 11 5 12
REMARK SMILES IDX 6 13 10 14 7 15 9 16 8 17 11 18 12 19 13 20 17 21 14 22
REMARK SMILES IDX 16 23 18 24 15 25 26 29 27 30 28 31 29 32 30 33 31 34 32 35
REMARK SMILES IDX 33 36 34 37 86 38 35 39 85 40 36 41 37 42 38 43 79 44 39 45
REMARK SMILES IDX 84 46 78 47 80 48 40 49 83 50 77 51 76 52 41 54 67 55 50 56
REMARK SMILES IDX 66 57 51 58 54 59 65 60 81 61 52 62 53 63 64 65 82 66 55 67
REMARK SMILES IDX 42 68 43 69 48 70 44 71 45 72 47 73 49 74 46 75 68 76 69 77
REMARK SMILES IDX 74 78 70 79 71 80 73 81 75 82 72 83 56 84 57 85 62 86 58 87
REMARK SMILES IDX 59 88 61 89 63 90 60 91
REMARK H PARENT 16 26 15 27 15 28 80 53 54 64
REMARK Flexibility Score: inf
ROOT
ATOM      1  C   UNL A   1      41.135  20.207  26.692  1.00  0.00     0.188 C 
ENDROOT
BRANCH   1   2
ATOM      2  O   UNL A   1      39.896  20.592  26.131  1.00  0.00    -0.376 OA
BRANCH   2   3
ATOM      3  C   UNL A   1      39.408  21.889  26.422  1.00  0.00     0.202 C 
BRANCH   3   4
ATOM      4  C   UNL A   1      38.241  22.504  25.624  1.00  0.00     0.261 C 
BRANCH   4   5
ATOM      5  O   UNL A   1      37.515  21.704  24.674  1.00  0.00    -0.461 OA
BRANCH   5   6
ATOM      6  C   UNL A   1      36.434  22.240  24.059  1.00  0.00     0.347 C 
ATOM      7  O   UNL A   1      36.480  22.789  22.962  1.00  0.00    -0.248 OA
BRANCH   6   8
ATOM      8  C   UNL A   1      35.144  22.175  24.931  1.00  0.00     0.282 C 
BRANCH   8   9
ATOM      9  C   UNL A   1      34.415  20.914  24.393  1.00  0.00     0.054 C 
ATOM     10  C   UNL A   1      33.465  20.156  25.305  1.00  0.00     0.008 C 
ENDBRANCH   8   9
BRANCH   8  11
ATOM     11  O   UNL A   1      34.474  23.443  25.044  1.00  0.00    -0.478 OA
BRANCH  11  12
ATOM     12  C   UNL A   1      33.199  23.614  25.513  1.00  0.00     0.127 A 
ATOM     13  C   UNL A   1      32.829  23.464  26.846  1.00  0.00     0.047 A 
ATOM     14  C   UNL A   1      32.166  23.836  24.580  1.00  0.00     0.018 A 
ATOM     15  C   UNL A   1      31.498  23.208  27.200  1.00  0.00     0.004 A 
ATOM     16  C   UNL A   1      30.830  23.563  24.933  1.00  0.00     0.012 A 
ATOM     17  C   UNL A   1      30.506  23.188  26.228  1.00  0.00     0.001 A 
BRANCH  14  18
ATOM     18  C   UNL A   1      32.318  24.595  23.329  1.00  0.00     0.036 C 
ATOM     19  C   UNL A   1      32.827  25.816  23.151  1.00  0.00     0.110 C 
ATOM     20  S   UNL A   1      33.224  26.999  24.321  1.00  0.00     0.006 SA
ATOM     21  C   UNL A   1      33.184  26.323  21.787  1.00  0.00     0.346 C 
ATOM     22  C   UNL A   1      33.494  28.129  23.020  1.00  0.00     0.314 C 
ATOM     23  N   UNL A   1      33.480  27.669  21.817  1.00  0.00    -0.200 N 
ATOM     24  O   UNL A   1      33.277  25.595  20.808  1.00  0.00    -0.240 OA
ATOM     25  N   UNL A   1      33.672  29.425  23.343  1.00  0.00    -0.281 N 
ATOM     26  H   UNL A   1      33.660  28.212  21.016  1.00  0.00     0.316 HD
ATOM     27  H   UNL A   1      33.670  29.700  24.289  1.00  0.00     0.302 HD
ATOM     28  H   UNL A   1      33.806  30.095  22.636  1.00  0.00     0.302 HD
ENDBRANCH  14  18
ENDBRANCH  11  12
ENDBRANCH   8  11
ENDBRANCH   6   8
ENDBRANCH   5   6
ENDBRANCH   4   5
ENDBRANCH   3   4
ENDBRANCH   2   3
ENDBRANCH   1   2
BRANCH   1  29
ATOM     29  C   UNL A   1      42.267  21.200  26.393  1.00  0.00     0.188 C 
BRANCH  29  30
ATOM     30  O   UNL A   1      43.205  20.868  25.378  1.00  0.00    -0.376 OA
BRANCH  30  31
ATOM     31  C   UNL A   1      44.362  21.685  25.242  1.00  0.00     0.202 C 
BRANCH  31  32
ATOM     32  C   UNL A   1      44.294  22.836  24.237  1.00  0.00     0.261 C 
BRANCH  32  33
ATOM     33  O   UNL A   1      43.552  23.963  24.733  1.00  0.00    -0.460 OA
BRANCH  33  34
ATOM     34  C   UNL A   1      44.312  24.993  25.187  1.00  0.00     0.338 C 
ATOM     35  O   UNL A   1      45.361  25.399  24.736  1.00  0.00    -0.246 OA
BRANCH  34  36
ATOM     36  C   UNL A   1      43.558  25.728  26.217  1.00  0.00     0.060 A 
ATOM     37  C   UNL A   1      43.878  27.075  26.450  1.00  0.00     0.016 A 
ATOM     38  C   UNL A   1      42.583  25.080  26.971  1.00  0.00     0.016 A 
ATOM     39  C   UNL A   1      43.229  27.780  27.457  1.00  0.00     0.010 A 
ATOM     40  C   UNL A   1      41.953  25.778  27.998  1.00  0.00     0.010 A 
ATOM     41  C   UNL A   1      42.295  27.118  28.261  1.00  0.00    -0.014 A 
BRANCH  41  42
ATOM     42  C   UNL A   1      41.804  27.758  29.498  1.00  0.00     0.031 A 
ATOM     43  C   UNL A   1      40.578  28.620  29.414  1.00  0.00     0.074 A 
ATOM     44  C   UNL A   1      42.452  27.588  30.662  1.00  0.00     0.049 A 
ATOM     45  N   UNL A   1      40.032  29.379  30.325  1.00  0.00    -0.248 NA
ATOM     46  C   UNL A   1      39.881  28.633  28.116  1.00  0.00     0.031 C 
ATOM     47  C   UNL A   1      43.623  26.735  30.861  1.00  0.00     0.029 A 
ATOM     48  N   UNL A   1      42.223  28.144  31.893  1.00  0.00    -0.354 N 
ATOM     49  C   UNL A   1      38.940  29.975  29.707  1.00  0.00     0.074 A 
ATOM     50  C   UNL A   1      38.916  29.511  28.338  1.00  0.00     0.031 C 
ATOM     51  C   UNL A   1      44.024  26.842  32.139  1.00  0.00     0.029 A 
ATOM     52  C   UNL A   1      43.165  27.799  32.831  1.00  0.00     0.049 A 
ATOM     53  H   UNL A   1      41.460  28.734  32.086  1.00  0.00     0.167 HD
ATOM     54  C   UNL A   1      38.039  30.833  30.242  1.00  0.00     0.037 A 
ATOM     55  C   UNL A   1      43.326  28.238  34.093  1.00  0.00     0.037 A 
ATOM     56  C   UNL A   1      38.081  31.288  31.606  1.00  0.00     0.049 A 
ATOM     57  C   UNL A   1      42.355  29.251  34.641  1.00  0.00     0.074 A 
ATOM     58  C   UNL A   1      37.211  32.139  32.259  1.00  0.00     0.029 A 
ATOM     59  N   UNL A   1      39.060  30.931  32.524  1.00  0.00    -0.354 N 
ATOM     60  N   UNL A   1      41.311  29.798  34.063  1.00  0.00    -0.248 NA
ATOM     61  C   UNL A   1      42.582  29.706  36.020  1.00  0.00     0.031 C 
ATOM     62  C   UNL A   1      37.696  32.348  33.554  1.00  0.00     0.029 A 
ATOM     63  C   UNL A   1      38.831  31.572  33.730  1.00  0.00     0.049 A 
ATOM     64  H   UNL A   1      39.807  30.316  32.343  1.00  0.00     0.167 HD
ATOM     65  C   UNL A   1      40.740  30.634  35.015  1.00  0.00     0.074 A 
ATOM     66  C   UNL A   1      41.547  30.512  36.212  1.00  0.00     0.031 C 
ATOM     67  C   UNL A   1      39.645  31.428  34.912  1.00  0.00     0.037 A 
BRANCH  54  68
ATOM     68  C   UNL A   1      36.963  31.360  29.336  1.00  0.00     0.057 A 
ATOM     69  C   UNL A   1      35.851  30.591  28.969  1.00  0.00     0.134 A 
ATOM     70  C   UNL A   1      37.035  32.666  28.833  1.00  0.00     0.134 A 
ATOM     71  F   UNL A   1      35.726  29.326  29.402  1.00  0.00    -0.206 F 
ATOM     72  C   UNL A   1      34.866  31.090  28.114  1.00  0.00     0.040 A 
ATOM     73  C   UNL A   1      36.041  33.187  28.004  1.00  0.00     0.040 A 
ATOM     74  F   UNL A   1      38.072  33.460  29.144  1.00  0.00    -0.206 F 
ATOM     75  C   UNL A   1      34.957  32.394  27.634  1.00  0.00     0.006 A 
ENDBRANCH  54  68
BRANCH  55  76
ATOM     76  C   UNL A   1      44.453  27.737  34.919  1.00  0.00     0.057 A 
ATOM     77  C   UNL A   1      45.698  28.374  34.909  1.00  0.00     0.134 A 
ATOM     78  C   UNL A   1      44.318  26.602  35.731  1.00  0.00     0.134 A 
ATOM     79  F   UNL A   1      45.898  29.453  34.137  1.00  0.00    -0.206 F 
ATOM     80  C   UNL A   1      46.774  27.895  35.658  1.00  0.00     0.040 A 
ATOM     81  C   UNL A   1      45.377  26.128  36.507  1.00  0.00     0.040 A 
ATOM     82  F   UNL A   1      43.150  25.945  35.788  1.00  0.00    -0.206 F 
ATOM     83  C   UNL A   1      46.611  26.771  36.466  1.00  0.00     0.006 A 
ENDBRANCH  55  76
BRANCH  67  84
ATOM     84  C   UNL A   1      39.229  32.189  36.139  1.00  0.00     0.057 A 
ATOM     85  C   UNL A   1      39.728  33.463  36.431  1.00  0.00     0.134 A 
ATOM     86  C   UNL A   1      38.279  31.649  37.018  1.00  0.00     0.134 A 
ATOM     87  F   UNL A   1      40.648  34.033  35.637  1.00  0.00    -0.206 F 
ATOM     88  C   UNL A   1      39.318  34.164  37.567  1.00  0.00     0.040 A 
ATOM     89  C   UNL A   1      37.838  32.354  38.139  1.00  0.00     0.040 A 
ATOM     90  F   UNL A   1      37.751  30.437  36.791  1.00  0.00    -0.206 F 
ATOM     91  C   UNL A   1      38.364  33.612  38.420  1.00  0.00     0.006 A 
ENDBRANCH  67  84
ENDBRANCH  41  42
ENDBRANCH  34  36
ENDBRANCH  33  34
ENDBRANCH  32  33
ENDBRANCH  31  32
ENDBRANCH  30  31
ENDBRANCH  29  30
ENDBRANCH   1  29
TORSDOF 21
ENDMDL
MODEL 2
REMARK VINA RESULT:     -10.7      2.185      3.031
REMARK SMILES CC[C@H](Oc1ccccc1/C=C1\SC(N)=[NH+]C1=O)C(=O)OCCOCCOCCOC(=O)c1ccc(-c2c3nc(c(-c4c(F)cccc4F)c4ccc([nH]4)c(-c4c(F)cccc4F)c4nc(c(-c5c(F)cccc5F)c5ccc2[nH]5)C=C4)C=C3)cc1
REMARK SMILES IDX 25 1 24 2 23 3 22 4 21 5 19 6 20 7 3 8 2 9 1 10 4 11 5 12
REMARK SMILES IDX 6 13 10 14 7 15 9 16 8 17 11 18 12 19 13 20 17 21 14 22
REMARK SMILES IDX 16 23 18 24 15 25 26 29 27 30 28 31 29 32 30 33 31 34 32 35
REMARK SMILES IDX 33 36 34 37 86 38 35 39 85 40 36 41 37 42 38 43 79 44 39 45
REMARK SMILES IDX 84 46 78 47 80 48 40 49 83 50 77 51 76 52 41 54 67 55 50 56
REMARK SMILES IDX 66 57 51 58 54 59 65 60 81 61 52 62 53 63 64 65 82 66 55 67
REMARK SMILES IDX 42 68 43 69 48 70 44 71 45 72 47 73 49 74 46 75 68 76 69 77
REMARK SMILES IDX 74 78 70 79 71 80 73 81 75 82 72 83 56 84 57 85 62 86 58 87
REMARK SMILES IDX 59 88 61 89 63 90 60 91
REMARK H PARENT 16 26 15 27 15 28 80 53 54 64
REMARK Flexibility Score: inf
ROOT
ATOM      1  C   UNL A   1      40.837  20.413  26.353  1.00  0.00     0.188 C 
ENDROOT
BRANCH   1   2
ATOM      2  O   UNL A   1      39.728  21.161  26.810  1.00  0.00    -0.376 OA
BRANCH   2   3
ATOM      3  C   UNL A   1      39.846  22.572  26.845  1.00  0.00     0.202 C 
BRANCH   3   4
ATOM      4  C   UNL A   1      38.775  23.482  26.211  1.00  0.00     0.261 C 
BRANCH   4   5
ATOM      5  O   UNL A   1      37.385  23.115  26.277  1.00  0.00    -0.461 OA
BRANCH   5   6
ATOM      6  C   UNL A   1      36.790  22.608  25.172  1.00  0.00     0.347 C 
ATOM      7  O   UNL A   1      37.403  22.043  24.270  1.00  0.00    -0.248 OA
BRANCH   6   8
ATOM      8  C   UNL A   1      35.261  22.899  25.116  1.00  0.00     0.282 C 
BRANCH   8   9
ATOM      9  C   UNL A   1      34.739  22.320  26.460  1.00  0.00     0.054 C 
ATOM     10  C   UNL A   1      33.572  22.996  27.161  1.00  0.00     0.008 C 
ENDBRANCH   8   9
BRANCH   8  11
ATOM     11  O   UNL A   1      34.663  22.542  23.858  1.00  0.00    -0.478 OA
BRANCH  11  12
ATOM     12  C   UNL A   1      33.456  23.005  23.406  1.00  0.00     0.127 A 
ATOM     13  C   UNL A   1      33.160  24.350  23.203  1.00  0.00     0.047 A 
ATOM     14  C   UNL A   1      32.400  22.084  23.250  1.00  0.00     0.018 A 
ATOM     15  C   UNL A   1      31.833  24.800  23.181  1.00  0.00     0.004 A 
ATOM     16  C   UNL A   1      31.067  22.538  23.244  1.00  0.00     0.012 A 
ATOM     17  C   UNL A   1      30.785  23.896  23.273  1.00  0.00     0.001 A 
BRANCH  14  18
ATOM     18  C   UNL A   1      32.565  20.688  22.816  1.00  0.00     0.036 C 
ATOM     19  C   UNL A   1      32.549  19.577  23.555  1.00  0.00     0.110 C 
ATOM     20  S   UNL A   1      32.597  19.415  25.258  1.00  0.00     0.006 SA
ATOM     21  C   UNL A   1      32.433  18.222  22.927  1.00  0.00     0.346 C 
ATOM     22  C   UNL A   1      32.791  17.695  25.042  1.00  0.00     0.314 C 
ATOM     23  N   UNL A   1      32.658  17.224  23.851  1.00  0.00    -0.200 N 
ATOM     24  O   UNL A   1      32.097  18.053  21.763  1.00  0.00    -0.240 OA
ATOM     25  N   UNL A   1      33.100  16.960  26.127  1.00  0.00    -0.281 N 
ATOM     26  H   UNL A   1      32.709  16.266  23.627  1.00  0.00     0.316 HD
ATOM     27  H   UNL A   1      33.186  17.395  27.007  1.00  0.00     0.302 HD
ATOM     28  H   UNL A   1      33.240  15.990  26.042  1.00  0.00     0.302 HD
ENDBRANCH  14  18
ENDBRANCH  11  12
ENDBRANCH   8  11
ENDBRANCH   6   8
ENDBRANCH   5   6
ENDBRANCH   4   5
ENDBRANCH   3   4
ENDBRANCH   2   3
ENDBRANCH   1   2
BRANCH   1  29
ATOM     29  C   UNL A   1      42.148  21.213  26.360  1.00  0.00     0.188 C 
BRANCH  29  30
ATOM     30  O   UNL A   1      43.117  20.929  25.360  1.00  0.00    -0.376 OA
BRANCH  30  31
ATOM     31  C   UNL A   1      44.258  21.774  25.273  1.00  0.00     0.202 C 
BRANCH  31  32
ATOM     32  C   UNL A   1      44.208  22.918  24.258  1.00  0.00     0.261 C 
BRANCH  32  33
ATOM     33  O   UNL A   1      43.434  24.037  24.721  1.00  0.00    -0.460 OA
BRANCH  33  34
ATOM     34  C   UNL A   1      44.163  25.110  25.124  1.00  0.00     0.338 C 
ATOM     35  O   UNL A   1      45.179  25.546  24.630  1.00  0.00    -0.246 OA
BRANCH  34  36
ATOM     36  C   UNL A   1      43.412  25.839  26.160  1.00  0.00     0.060 A 
ATOM     37  C   UNL A   1      43.731  27.186  26.397  1.00  0.00     0.016 A 
ATOM     38  C   UNL A   1      42.440  25.188  26.915  1.00  0.00     0.016 A 
ATOM     39  C   UNL A   1      43.084  27.886  27.410  1.00  0.00     0.010 A 
ATOM     40  C   UNL A   1      41.813  25.881  27.947  1.00  0.00     0.010 A 
ATOM     41  C   UNL A   1      42.154  27.220  28.214  1.00  0.00    -0.014 A 
BRANCH  41  42
ATOM     42  C   UNL A   1      41.667  27.855  29.455  1.00  0.00     0.031 A 
ATOM     43  C   UNL A   1      40.443  28.719  29.377  1.00  0.00     0.074 A 
ATOM     44  C   UNL A   1      42.316  27.677  30.617  1.00  0.00     0.049 A 
ATOM     45  N   UNL A   1      39.900  29.476  30.293  1.00  0.00    -0.248 NA
ATOM     46  C   UNL A   1      39.743  28.741  28.080  1.00  0.00     0.031 C 
ATOM     47  C   UNL A   1      43.485  26.820  30.810  1.00  0.00     0.029 A 
ATOM     48  N   UNL A   1      42.090  28.227  31.851  1.00  0.00    -0.354 N 
ATOM     49  C   UNL A   1      38.808  30.078  29.681  1.00  0.00     0.074 A 
ATOM     50  C   UNL A   1      38.781  29.621  28.309  1.00  0.00     0.031 C 
ATOM     51  C   UNL A   1      43.888  26.919  32.088  1.00  0.00     0.029 A 
ATOM     52  C   UNL A   1      43.032  27.874  32.786  1.00  0.00     0.049 A 
ATOM     53  H   UNL A   1      41.329  28.817  32.048  1.00  0.00     0.167 HD
ATOM     54  C   UNL A   1      37.910  30.934  30.221  1.00  0.00     0.037 A 
ATOM     55  C   UNL A   1      43.197  28.307  34.050  1.00  0.00     0.037 A 
ATOM     56  C   UNL A   1      37.955  31.382  31.588  1.00  0.00     0.049 A 
ATOM     57  C   UNL A   1      42.229  29.319  34.605  1.00  0.00     0.074 A 
ATOM     58  C   UNL A   1      37.088  32.232  32.247  1.00  0.00     0.029 A 
ATOM     59  N   UNL A   1      38.934  31.018  32.502  1.00  0.00    -0.354 N 
ATOM     60  N   UNL A   1      41.186  29.871  34.031  1.00  0.00    -0.248 NA
ATOM     61  C   UNL A   1      42.460  29.766  35.986  1.00  0.00     0.031 C 
ATOM     62  C   UNL A   1      37.575  32.432  33.542  1.00  0.00     0.029 A 
ATOM     63  C   UNL A   1      38.709  31.652  33.712  1.00  0.00     0.049 A 
ATOM     64  H   UNL A   1      39.680  30.402  32.317  1.00  0.00     0.167 HD
ATOM     65  C   UNL A   1      40.618  30.703  34.989  1.00  0.00     0.074 A 
ATOM     66  C   UNL A   1      41.426  30.573  36.184  1.00  0.00     0.031 C 
ATOM     67  C   UNL A   1      39.525  31.500  34.891  1.00  0.00     0.037 A 
BRANCH  54  68
ATOM     68  C   UNL A   1      36.834  31.469  29.319  1.00  0.00     0.057 A 
ATOM     69  C   UNL A   1      35.717  30.706  28.955  1.00  0.00     0.134 A 
ATOM     70  C   UNL A   1      36.911  32.775  28.819  1.00  0.00     0.134 A 
ATOM     71  F   UNL A   1      35.587  29.441  29.386  1.00  0.00    -0.206 F 
ATOM     72  C   UNL A   1      34.732  31.212  28.104  1.00  0.00     0.040 A 
ATOM     73  C   UNL A   1      35.917  33.303  27.994  1.00  0.00     0.040 A 
ATOM     74  F   UNL A   1      37.953  33.563  29.129  1.00  0.00    -0.206 F 
ATOM     75  C   UNL A   1      34.828  32.517  27.627  1.00  0.00     0.006 A 
ENDBRANCH  54  68
BRANCH  55  76
ATOM     76  C   UNL A   1      44.324  27.798  34.872  1.00  0.00     0.057 A 
ATOM     77  C   UNL A   1      44.169  26.679  35.697  1.00  0.00     0.134 A 
ATOM     78  C   UNL A   1      45.579  28.422  34.861  1.00  0.00     0.134 A 
ATOM     79  F   UNL A   1      42.987  26.050  35.768  1.00  0.00    -0.206 F 
ATOM     80  C   UNL A   1      45.213  26.209  36.497  1.00  0.00     0.040 A 
ATOM     81  C   UNL A   1      46.639  27.945  35.634  1.00  0.00     0.040 A 
ATOM     82  F   UNL A   1      45.794  29.497  34.090  1.00  0.00    -0.206 F 
ATOM     83  C   UNL A   1      46.455  26.840  36.461  1.00  0.00     0.006 A 
ENDBRANCH  55  76
BRANCH  67  84
ATOM     84  C   UNL A   1      39.112  32.255  36.123  1.00  0.00     0.057 A 
ATOM     85  C   UNL A   1      39.555  33.557  36.383  1.00  0.00     0.134 A 
ATOM     86  C   UNL A   1      38.221  31.681  37.041  1.00  0.00     0.134 A 
ATOM     87  F   UNL A   1      40.418  34.162  35.552  1.00  0.00    -0.206 F 
ATOM     88  C   UNL A   1      39.150  34.251  37.524  1.00  0.00     0.040 A 
ATOM     89  C   UNL A   1      37.783  32.377  38.168  1.00  0.00     0.040 A 
ATOM     90  F   UNL A   1      37.747  30.441  36.846  1.00  0.00    -0.206 F 
ATOM     91  C   UNL A   1      38.254  33.663  38.417  1.00  0.00     0.006 A 
ENDBRANCH  67  84
ENDBRANCH  41  42
ENDBRANCH  34  36
ENDBRANCH  33  34
ENDBRANCH  32  33
ENDBRANCH  31  32
ENDBRANCH  30  31
ENDBRANCH  29  30
ENDBRANCH   1  29
TORSDOF 21
ENDMDL
MODEL 3
REMARK VINA RESULT:     -10.6      1.856      6.570
REMARK SMILES CC[C@H](Oc1ccccc1/C=C1\SC(N)=[NH+]C1=O)C(=O)OCCOCCOCCOC(=O)c1ccc(-c2c3nc(c(-c4c(F)cccc4F)c4ccc([nH]4)c(-c4c(F)cccc4F)c4nc(c(-c5c(F)cccc5F)c5ccc2[nH]5)C=C4)C=C3)cc1
REMARK SMILES IDX 25 1 24 2 23 3 22 4 21 5 19 6 20 7 3 8 2 9 1 10 4 11 5 12
REMARK SMILES IDX 6 13 10 14 7 15 9 16 8 17 11 18 12 19 13 20 17 21 14 22
REMARK SMILES IDX 16 23 18 24 15 25 26 29 27 30 28 31 29 32 30 33 31 34 32 35
REMARK SMILES IDX 33 36 34 37 86 38 35 39 85 40 36 41 37 42 38 43 79 44 39 45
REMARK SMILES IDX 84 46 78 47 80 48 40 49 83 50 77 51 76 52 41 54 67 55 50 56
REMARK SMILES IDX 66 57 51 58 54 59 65 60 81 61 52 62 53 63 64 65 82 66 55 67
REMARK SMILES IDX 42 68 43 69 48 70 44 71 45 72 47 73 49 74 46 75 68 76 69 77
REMARK SMILES IDX 74 78 70 79 71 80 73 81 75 82 72 83 56 84 57 85 62 86 58 87
REMARK SMILES IDX 59 88 61 89 63 90 60 91
REMARK H PARENT 16 26 15 27 15 28 80 53 54 64
REMARK Flexibility Score: inf
ROOT
ATOM      1  C   UNL A   1      40.850  19.954  26.777  1.00  0.00     0.188 C 
ENDROOT
BRANCH   1   2
ATOM      2  O   UNL A   1      40.906  21.173  27.492  1.00  0.00    -0.376 OA
BRANCH   2   3
ATOM      3  C   UNL A   1      40.023  22.211  27.107  1.00  0.00     0.202 C 
BRANCH   3   4
ATOM      4  C   UNL A   1      38.899  21.968  26.080  1.00  0.00     0.261 C 
BRANCH   4   5
ATOM      5  O   UNL A   1      37.581  22.496  26.313  1.00  0.00    -0.461 OA
BRANCH   5   6
ATOM      6  C   UNL A   1      36.530  21.936  25.669  1.00  0.00     0.347 C 
ATOM      7  O   UNL A   1      36.412  20.728  25.484  1.00  0.00    -0.248 OA
BRANCH   6   8
ATOM      8  C   UNL A   1      35.533  22.991  25.101  1.00  0.00     0.282 C 
BRANCH   8   9
ATOM      9  C   UNL A   1      36.338  23.658  23.952  1.00  0.00     0.054 C 
ATOM     10  C   UNL A   1      36.725  22.834  22.736  1.00  0.00     0.008 C 
ENDBRANCH   8   9
BRANCH   8  11
ATOM     11  O   UNL A   1      34.892  23.771  26.125  1.00  0.00    -0.478 OA
BRANCH  11  12
ATOM     12  C   UNL A   1      33.725  24.468  25.961  1.00  0.00     0.127 A 
ATOM     13  C   UNL A   1      33.658  25.834  25.702  1.00  0.00     0.047 A 
ATOM     14  C   UNL A   1      32.506  23.797  26.190  1.00  0.00     0.018 A 
ATOM     15  C   UNL A   1      32.496  26.565  25.984  1.00  0.00     0.004 A 
ATOM     16  C   UNL A   1      31.343  24.534  26.488  1.00  0.00     0.012 A 
ATOM     17  C   UNL A   1      31.357  25.920  26.446  1.00  0.00     0.001 A 
BRANCH  14  18
ATOM     18  C   UNL A   1      32.261  22.380  25.879  1.00  0.00     0.036 C 
ATOM     19  C   UNL A   1      32.253  21.777  24.689  1.00  0.00     0.110 C 
ATOM     20  S   UNL A   1      32.261  22.474  23.127  1.00  0.00     0.006 SA
ATOM     21  C   UNL A   1      32.285  20.284  24.569  1.00  0.00     0.346 C 
ATOM     22  C   UNL A   1      31.981  20.885  22.466  1.00  0.00     0.314 C 
ATOM     23  N   UNL A   1      32.050  19.882  23.271  1.00  0.00    -0.200 N 
ATOM     24  O   UNL A   1      32.570  19.545  25.502  1.00  0.00    -0.240 OA
ATOM     25  N   UNL A   1      31.679  20.796  21.156  1.00  0.00    -0.281 N 
ATOM     26  H   UNL A   1      31.947  18.943  22.994  1.00  0.00     0.316 HD
ATOM     27  H   UNL A   1      31.646  21.611  20.603  1.00  0.00     0.302 HD
ATOM     28  H   UNL A   1      31.493  19.919  20.751  1.00  0.00     0.302 HD
ENDBRANCH  14  18
ENDBRANCH  11  12
ENDBRANCH   8  11
ENDBRANCH   6   8
ENDBRANCH   5   6
ENDBRANCH   4   5
ENDBRANCH   3   4
ENDBRANCH   2   3
ENDBRANCH   1   2
BRANCH   1  29
ATOM     29  C   UNL A   1      42.173  19.602  26.082  1.00  0.00     0.188 C 
BRANCH  29  30
ATOM     30  O   UNL A   1      42.853  20.626  25.369  1.00  0.00    -0.376 OA
BRANCH  30  31
ATOM     31  C   UNL A   1      44.269  20.537  25.255  1.00  0.00     0.202 C 
BRANCH  31  32
ATOM     32  C   UNL A   1      45.085  21.760  25.680  1.00  0.00     0.261 C 
BRANCH  32  33
ATOM     33  O   UNL A   1      44.289  22.755  26.345  1.00  0.00    -0.460 OA
BRANCH  33  34
ATOM     34  C   UNL A   1      44.161  23.928  25.673  1.00  0.00     0.338 C 
ATOM     35  O   UNL A   1      44.400  24.147  24.507  1.00  0.00    -0.246 OA
BRANCH  34  36
ATOM     36  C   UNL A   1      43.457  24.898  26.531  1.00  0.00     0.060 A 
ATOM     37  C   UNL A   1      43.808  26.254  26.436  1.00  0.00     0.016 A 
ATOM     38  C   UNL A   1      42.501  24.465  27.445  1.00  0.00     0.016 A 
ATOM     39  C   UNL A   1      43.207  27.187  27.275  1.00  0.00     0.010 A 
ATOM     40  C   UNL A   1      41.920  25.395  28.303  1.00  0.00     0.010 A 
ATOM     41  C   UNL A   1      42.293  26.751  28.239  1.00  0.00    -0.014 A 
BRANCH  41  42
ATOM     42  C   UNL A   1      41.859  27.669  29.310  1.00  0.00     0.031 A 
ATOM     43  C   UNL A   1      42.590  27.628  30.620  1.00  0.00     0.074 A 
ATOM     44  C   UNL A   1      40.824  28.504  29.121  1.00  0.00     0.049 A 
ATOM     45  N   UNL A   1      42.321  28.240  31.742  1.00  0.00    -0.248 NA
ATOM     46  C   UNL A   1      43.784  26.766  30.672  1.00  0.00     0.031 C 
ATOM     47  C   UNL A   1      40.078  28.656  27.873  1.00  0.00     0.029 A 
ATOM     48  N   UNL A   1      40.213  29.368  29.991  1.00  0.00    -0.354 N 
ATOM     49  C   UNL A   1      43.297  27.824  32.638  1.00  0.00     0.074 A 
ATOM     50  C   UNL A   1      44.149  26.887  31.939  1.00  0.00     0.031 C 
ATOM     51  C   UNL A   1      39.091  29.547  28.065  1.00  0.00     0.029 A 
ATOM     52  C   UNL A   1      39.114  29.993  29.455  1.00  0.00     0.049 A 
ATOM     53  H   UNL A   1      40.529  29.524  30.909  1.00  0.00     0.167 HD
ATOM     54  C   UNL A   1      43.465  28.195  33.929  1.00  0.00     0.037 A 
ATOM     55  C   UNL A   1      38.213  30.805  30.040  1.00  0.00     0.037 A 
ATOM     56  C   UNL A   1      42.604  29.125  34.610  1.00  0.00     0.049 A 
ATOM     57  C   UNL A   1      38.377  31.143  31.499  1.00  0.00     0.074 A 
ATOM     58  C   UNL A   1      42.691  29.588  35.909  1.00  0.00     0.029 A 
ATOM     59  N   UNL A   1      41.489  29.726  34.043  1.00  0.00    -0.354 N 
ATOM     60  N   UNL A   1      39.312  30.765  32.338  1.00  0.00    -0.248 NA
ATOM     61  C   UNL A   1      37.361  32.024  32.091  1.00  0.00     0.031 C 
ATOM     62  C   UNL A   1      41.593  30.421  36.148  1.00  0.00     0.029 A 
ATOM     63  C   UNL A   1      40.860  30.533  34.976  1.00  0.00     0.049 A 
ATOM     64  H   UNL A   1      41.189  29.596  33.114  1.00  0.00     0.167 HD
ATOM     65  C   UNL A   1      39.017  31.387  33.546  1.00  0.00     0.074 A 
ATOM     66  C   UNL A   1      37.822  32.176  33.325  1.00  0.00     0.031 C 
ATOM     67  C   UNL A   1      39.675  31.316  34.730  1.00  0.00     0.037 A 
BRANCH  54  68
ATOM     68  C   UNL A   1      44.594  27.562  34.691  1.00  0.00     0.057 A 
ATOM     69  C   UNL A   1      45.852  28.169  34.805  1.00  0.00     0.134 A 
ATOM     70  C   UNL A   1      44.415  26.329  35.333  1.00  0.00     0.134 A 
ATOM     71  F   UNL A   1      46.098  29.342  34.203  1.00  0.00    -0.206 F 
ATOM     72  C   UNL A   1      46.896  27.561  35.505  1.00  0.00     0.040 A 
ATOM     73  C   UNL A   1      45.440  25.727  36.061  1.00  0.00     0.040 A 
ATOM     74  F   UNL A   1      43.235  25.692  35.267  1.00  0.00    -0.206 F 
ATOM     75  C   UNL A   1      46.689  26.339  36.141  1.00  0.00     0.006 A 
ENDBRANCH  54  68
BRANCH  55  76
ATOM     76  C   UNL A   1      37.074  31.344  29.255  1.00  0.00     0.057 A 
ATOM     77  C   UNL A   1      35.940  30.566  28.998  1.00  0.00     0.134 A 
ATOM     78  C   UNL A   1      37.094  32.644  28.733  1.00  0.00     0.134 A 
ATOM     79  F   UNL A   1      35.869  29.306  29.453  1.00  0.00    -0.206 F 
ATOM     80  C   UNL A   1      34.875  31.050  28.237  1.00  0.00     0.040 A 
ATOM     81  C   UNL A   1      36.024  33.151  27.993  1.00  0.00     0.040 A 
ATOM     82  F   UNL A   1      38.150  33.443  28.944  1.00  0.00    -0.206 F 
ATOM     83  C   UNL A   1      34.914  32.351  27.737  1.00  0.00     0.006 A 
ENDBRANCH  55  76
BRANCH  67  84
ATOM     84  C   UNL A   1      39.146  32.149  35.863  1.00  0.00     0.057 A 
ATOM     85  C   UNL A   1      38.260  31.634  36.817  1.00  0.00     0.134 A 
ATOM     86  C   UNL A   1      39.566  33.478  36.021  1.00  0.00     0.134 A 
ATOM     87  F   UNL A   1      37.810  30.374  36.718  1.00  0.00    -0.206 F 
ATOM     88  C   UNL A   1      37.790  32.417  37.872  1.00  0.00     0.040 A 
ATOM     89  C   UNL A   1      39.128  34.259  37.090  1.00  0.00     0.040 A 
ATOM     90  F   UNL A   1      40.423  34.030  35.149  1.00  0.00    -0.206 F 
ATOM     91  C   UNL A   1      38.231  33.732  38.016  1.00  0.00     0.006 A 
ENDBRANCH  67  84
ENDBRANCH  41  42
ENDBRANCH  34  36
ENDBRANCH  33  34
ENDBRANCH  32  33
ENDBRANCH  31  32
ENDBRANCH  30  31
ENDBRANCH  29  30
ENDBRANCH   1  29
TORSDOF 21
ENDMDL
