MODEL 1
REMARK VINA RESULT:     -10.4      0.000      0.000
REMARK SMILES O=C(CCc1nc(-c2ccccc2)c(-c2ccccc2)o1)OCCOCCOCCOC(=O)c1ccc(-c2c3nc(c(-c4c(F)cccc4F)c4ccc([nH]4)c(-c4c(F)cccc4F)c4nc(c(-c5c(F)cccc5F)c5ccc2[nH]5)C=C4)C=C3)cc1
REMARK SMILES IDX 26 1 25 2 24 3 23 4 22 5 2 6 1 7 3 8 4 9 5 10 6 11 21 12
REMARK SMILES IDX 7 13 14 14 8 15 9 16 13 17 10 18 12 19 11 20 15 21 16 22
REMARK SMILES IDX 20 23 17 24 19 25 18 26 27 27 28 28 29 29 30 30 31 31 32 32
REMARK SMILES IDX 33 33 34 34 35 35 87 36 36 37 86 38 37 39 38 40 39 41 80 42
REMARK SMILES IDX 40 43 85 44 79 45 81 46 41 47 84 48 78 49 77 50 42 52 68 53
REMARK SMILES IDX 51 54 67 55 52 56 55 57 66 58 82 59 53 60 54 61 65 63 83 64
REMARK SMILES IDX 56 65 43 66 44 67 49 68 45 69 46 70 48 71 50 72 47 73 69 74
REMARK SMILES IDX 70 75 75 76 71 77 72 78 74 79 76 80 73 81 57 82 58 83 63 84
REMARK SMILES IDX 59 85 60 86 62 87 64 88 61 89
REMARK H PARENT 81 51 55 62
REMARK Flexibility Score: inf
ROOT
ATOM      1  C   UNL A   1      37.781  23.270  25.739  1.00  0.00     0.188 C 
ENDROOT
BRANCH   1   2
ATOM      2  O   UNL A   1      36.471  23.602  26.133  1.00  0.00    -0.376 OA
BRANCH   2   3
ATOM      3  C   UNL A   1      35.593  24.136  25.158  1.00  0.00     0.202 C 
BRANCH   3   4
ATOM      4  C   UNL A   1      34.091  23.923  25.331  1.00  0.00     0.261 C 
BRANCH   4   5
ATOM      5  O   UNL A   1      33.628  22.565  25.510  1.00  0.00    -0.463 OA
BRANCH   5   6
ATOM      6  C   UNL A   1      32.406  22.144  25.887  1.00  0.00     0.306 C 
ATOM      7  O   UNL A   1      31.770  21.389  25.152  1.00  0.00    -0.252 OA
BRANCH   6   8
ATOM      8  C   UNL A   1      31.744  22.727  27.106  1.00  0.00     0.132 C 
BRANCH   8   9
ATOM      9  C   UNL A   1      30.495  23.542  26.793  1.00  0.00     0.109 C 
BRANCH   9  10
ATOM     10  C   UNL A   1      30.740  24.842  26.109  1.00  0.00     0.196 A 
ATOM     11  N   UNL A   1      30.419  25.202  24.881  1.00  0.00    -0.213 NA
ATOM     12  O   UNL A   1      31.379  25.818  26.825  1.00  0.00    -0.440 OA
ATOM     13  C   UNL A   1      30.931  26.476  24.770  1.00  0.00     0.117 A 
ATOM     14  C   UNL A   1      31.583  26.837  25.928  1.00  0.00     0.162 A 
BRANCH  13  15
ATOM     15  C   UNL A   1      30.602  27.423  23.739  1.00  0.00     0.004 A 
ATOM     16  C   UNL A   1      31.573  28.228  23.134  1.00  0.00     0.010 A 
ATOM     17  C   UNL A   1      29.244  27.682  23.529  1.00  0.00     0.010 A 
ATOM     18  C   UNL A   1      31.176  29.329  22.374  1.00  0.00     0.001 A 
ATOM     19  C   UNL A   1      28.853  28.785  22.780  1.00  0.00     0.001 A 
ATOM     20  C   UNL A   1      29.818  29.616  22.216  1.00  0.00     0.000 A 
ENDBRANCH  13  15
BRANCH  14  21
ATOM     21  C   UNL A   1      32.374  27.978  26.367  1.00  0.00     0.020 A 
ATOM     22  C   UNL A   1      33.778  27.896  26.377  1.00  0.00     0.012 A 
ATOM     23  C   UNL A   1      31.778  29.176  26.763  1.00  0.00     0.012 A 
ATOM     24  C   UNL A   1      34.567  28.946  26.844  1.00  0.00     0.001 A 
ATOM     25  C   UNL A   1      32.571  30.250  27.189  1.00  0.00     0.001 A 
ATOM     26  C   UNL A   1      33.960  30.128  27.250  1.00  0.00     0.000 A 
ENDBRANCH  14  21
ENDBRANCH   9  10
ENDBRANCH   8   9
ENDBRANCH   6   8
ENDBRANCH   5   6
ENDBRANCH   4   5
ENDBRANCH   3   4
ENDBRANCH   2   3
ENDBRANCH   1   2
BRANCH   1  27
ATOM     27  C   UNL A   1      38.019  21.858  25.162  1.00  0.00     0.188 C 
BRANCH  27  28
ATOM     28  O   UNL A   1      38.962  20.968  25.749  1.00  0.00    -0.376 OA
BRANCH  28  29
ATOM     29  C   UNL A   1      39.998  21.434  26.600  1.00  0.00     0.202 C 
BRANCH  29  30
ATOM     30  C   UNL A   1      41.342  21.812  25.982  1.00  0.00     0.261 C 
BRANCH  30  31
ATOM     31  O   UNL A   1      42.051  22.800  26.741  1.00  0.00    -0.460 OA
BRANCH  31  32
ATOM     32  C   UNL A   1      42.290  23.961  26.083  1.00  0.00     0.338 C 
ATOM     33  O   UNL A   1      42.856  24.106  25.018  1.00  0.00    -0.246 OA
BRANCH  32  34
ATOM     34  C   UNL A   1      41.588  25.065  26.766  1.00  0.00     0.060 A 
ATOM     35  C   UNL A   1      41.977  26.377  26.453  1.00  0.00     0.016 A 
ATOM     36  C   UNL A   1      40.590  24.821  27.710  1.00  0.00     0.016 A 
ATOM     37  C   UNL A   1      41.425  27.450  27.140  1.00  0.00     0.010 A 
ATOM     38  C   UNL A   1      40.064  25.895  28.430  1.00  0.00     0.010 A 
ATOM     39  C   UNL A   1      40.534  27.200  28.189  1.00  0.00    -0.014 A 
BRANCH  39  40
ATOM     40  C   UNL A   1      40.382  28.241  29.229  1.00  0.00     0.031 A 
ATOM     41  C   UNL A   1      41.398  28.254  30.340  1.00  0.00     0.074 A 
ATOM     42  C   UNL A   1      39.425  29.179  29.158  1.00  0.00     0.049 A 
ATOM     43  N   UNL A   1      41.500  29.053  31.369  1.00  0.00    -0.248 NA
ATOM     44  C   UNL A   1      42.441  27.215  30.281  1.00  0.00     0.031 C 
ATOM     45  C   UNL A   1      38.431  29.301  28.095  1.00  0.00     0.029 A 
ATOM     46  N   UNL A   1      39.144  30.216  30.009  1.00  0.00    -0.354 N 
ATOM     47  C   UNL A   1      42.604  28.604  32.083  1.00  0.00     0.074 A 
ATOM     48  C   UNL A   1      43.119  27.444  31.394  1.00  0.00     0.031 C 
ATOM     49  C   UNL A   1      37.641  30.357  28.361  1.00  0.00     0.029 A 
ATOM     50  C   UNL A   1      38.061  30.964  29.624  1.00  0.00     0.049 A 
ATOM     51  H   UNL A   1      39.670  30.407  30.820  1.00  0.00     0.167 HD
ATOM     52  C   UNL A   1      43.149  29.117  33.211  1.00  0.00     0.037 A 
ATOM     53  C   UNL A   1      37.476  32.010  30.235  1.00  0.00     0.037 A 
ATOM     54  C   UNL A   1      42.630  30.273  33.890  1.00  0.00     0.049 A 
ATOM     55  C   UNL A   1      38.055  32.522  31.529  1.00  0.00     0.074 A 
ATOM     56  C   UNL A   1      43.108  30.889  35.031  1.00  0.00     0.029 A 
ATOM     57  N   UNL A   1      41.503  30.978  33.492  1.00  0.00    -0.354 N 
ATOM     58  N   UNL A   1      39.111  32.107  32.190  1.00  0.00    -0.248 NA
ATOM     59  C   UNL A   1      37.366  33.657  32.158  1.00  0.00     0.031 C 
ATOM     60  C   UNL A   1      42.233  31.930  35.360  1.00  0.00     0.029 A 
ATOM     61  C   UNL A   1      41.253  32.008  34.382  1.00  0.00     0.049 A 
ATOM     62  H   UNL A   1      40.962  30.775  32.695  1.00  0.00     0.167 HD
ATOM     63  C   UNL A   1      39.239  32.958  33.281  1.00  0.00     0.074 A 
ATOM     64  C   UNL A   1      38.154  33.912  33.191  1.00  0.00     0.031 C 
ATOM     65  C   UNL A   1      40.175  32.958  34.265  1.00  0.00     0.037 A 
BRANCH  52  66
ATOM     66  C   UNL A   1      44.330  28.397  33.794  1.00  0.00     0.057 A 
ATOM     67  C   UNL A   1      45.649  28.685  33.414  1.00  0.00     0.134 A 
ATOM     68  C   UNL A   1      44.142  27.389  34.749  1.00  0.00     0.134 A 
ATOM     69  F   UNL A   1      45.901  29.622  32.488  1.00  0.00    -0.206 F 
ATOM     70  C   UNL A   1      46.731  27.972  33.935  1.00  0.00     0.040 A 
ATOM     71  C   UNL A   1      45.218  26.695  35.302  1.00  0.00     0.040 A 
ATOM     72  F   UNL A   1      42.907  27.060  35.158  1.00  0.00    -0.206 F 
ATOM     73  C   UNL A   1      46.518  26.978  34.887  1.00  0.00     0.006 A 
ENDBRANCH  52  66
BRANCH  53  74
ATOM     74  C   UNL A   1      36.284  32.658  29.629  1.00  0.00     0.057 A 
ATOM     75  C   UNL A   1      36.409  33.544  28.554  1.00  0.00     0.134 A 
ATOM     76  C   UNL A   1      34.995  32.423  30.123  1.00  0.00     0.134 A 
ATOM     77  F   UNL A   1      37.620  33.827  28.051  1.00  0.00    -0.206 F 
ATOM     78  C   UNL A   1      35.300  34.189  28.003  1.00  0.00     0.040 A 
ATOM     79  C   UNL A   1      33.874  33.039  29.565  1.00  0.00     0.040 A 
ATOM     80  F   UNL A   1      34.805  31.583  31.151  1.00  0.00    -0.206 F 
ATOM     81  C   UNL A   1      34.027  33.933  28.506  1.00  0.00     0.006 A 
ENDBRANCH  53  74
BRANCH  65  82
ATOM     82  C   UNL A   1      40.108  34.065  35.280  1.00  0.00     0.057 A 
ATOM     83  C   UNL A   1      40.724  35.306  35.080  1.00  0.00     0.134 A 
ATOM     84  C   UNL A   1      39.384  33.888  36.468  1.00  0.00     0.134 A 
ATOM     85  F   UNL A   1      41.438  35.541  33.969  1.00  0.00    -0.206 F 
ATOM     86  C   UNL A   1      40.655  36.317  36.041  1.00  0.00     0.040 A 
ATOM     87  C   UNL A   1      39.278  34.903  37.418  1.00  0.00     0.040 A 
ATOM     88  F   UNL A   1      38.755  32.729  36.717  1.00  0.00    -0.206 F 
ATOM     89  C   UNL A   1      39.926  36.118  37.211  1.00  0.00     0.006 A 
ENDBRANCH  65  82
ENDBRANCH  39  40
ENDBRANCH  32  34
ENDBRANCH  31  32
ENDBRANCH  30  31
ENDBRANCH  29  30
ENDBRANCH  28  29
ENDBRANCH  27  28
ENDBRANCH   1  27
TORSDOF 21
ENDMDL
MODEL 2
REMARK VINA RESULT:      -9.9      4.438      9.715
REMARK SMILES O=C(CCc1nc(-c2ccccc2)c(-c2ccccc2)o1)OCCOCCOCCOC(=O)c1ccc(-c2c3nc(c(-c4c(F)cccc4F)c4ccc([nH]4)c(-c4c(F)cccc4F)c4nc(c(-c5c(F)cccc5F)c5ccc2[nH]5)C=C4)C=C3)cc1
REMARK SMILES IDX 26 1 25 2 24 3 23 4 22 5 2 6 1 7 3 8 4 9 5 10 6 11 21 12
REMARK SMILES IDX 7 13 14 14 8 15 9 16 13 17 10 18 12 19 11 20 15 21 16 22
REMARK SMILES IDX 20 23 17 24 19 25 18 26 27 27 28 28 29 29 30 30 31 31 32 32
REMARK SMILES IDX 33 33 34 34 35 35 87 36 36 37 86 38 37 39 38 40 39 41 80 42
REMARK SMILES IDX 40 43 85 44 79 45 81 46 41 47 84 48 78 49 77 50 42 52 68 53
REMARK SMILES IDX 51 54 67 55 52 56 55 57 66 58 82 59 53 60 54 61 65 63 83 64
REMARK SMILES IDX 56 65 43 66 44 67 49 68 45 69 46 70 48 71 50 72 47 73 69 74
REMARK SMILES IDX 70 75 75 76 71 77 72 78 74 79 76 80 73 81 57 82 58 83 63 84
REMARK SMILES IDX 59 85 60 86 62 87 64 88 61 89
REMARK H PARENT 81 51 55 62
REMARK Flexibility Score: inf
ROOT
ATOM      1  C   UNL A   1      34.432  29.864  27.462  1.00  0.00     0.188 C 
ENDROOT
BRANCH   1   2
ATOM      2  O   UNL A   1      34.072  28.505  27.365  1.00  0.00    -0.376 OA
BRANCH   2   3
ATOM      3  C   UNL A   1      33.424  28.068  26.184  1.00  0.00     0.202 C 
BRANCH   3   4
ATOM      4  C   UNL A   1      32.158  27.223  26.315  1.00  0.00     0.261 C 
BRANCH   4   5
ATOM      5  O   UNL A   1      31.069  27.511  25.410  1.00  0.00    -0.463 OA
BRANCH   5   6
ATOM      6  C   UNL A   1      30.746  26.879  24.266  1.00  0.00     0.306 C 
ATOM      7  O   UNL A   1      29.877  26.008  24.277  1.00  0.00    -0.252 OA
BRANCH   6   8
ATOM      8  C   UNL A   1      31.559  27.103  23.019  1.00  0.00     0.132 C 
BRANCH   8   9
ATOM      9  C   UNL A   1      31.761  25.843  22.186  1.00  0.00     0.109 C 
BRANCH   9  10
ATOM     10  C   UNL A   1      32.710  24.848  22.760  1.00  0.00     0.196 A 
ATOM     11  N   UNL A   1      34.019  24.937  22.893  1.00  0.00    -0.213 NA
ATOM     12  O   UNL A   1      32.184  23.673  23.223  1.00  0.00    -0.440 OA
ATOM     13  C   UNL A   1      34.377  23.719  23.428  1.00  0.00     0.117 A 
ATOM     14  C   UNL A   1      33.272  22.910  23.568  1.00  0.00     0.162 A 
BRANCH  13  15
ATOM     15  C   UNL A   1      35.644  23.411  24.034  1.00  0.00     0.004 A 
ATOM     16  C   UNL A   1      36.384  22.281  23.672  1.00  0.00     0.010 A 
ATOM     17  C   UNL A   1      35.999  24.152  25.166  1.00  0.00     0.010 A 
ATOM     18  C   UNL A   1      37.437  21.860  24.486  1.00  0.00     0.001 A 
ATOM     19  C   UNL A   1      37.042  23.724  25.978  1.00  0.00     0.001 A 
ATOM     20  C   UNL A   1      37.749  22.571  25.647  1.00  0.00     0.000 A 
ENDBRANCH  13  15
BRANCH  14  21
ATOM     21  C   UNL A   1      33.033  21.532  23.974  1.00  0.00     0.020 A 
ATOM     22  C   UNL A   1      32.611  20.585  23.024  1.00  0.00     0.012 A 
ATOM     23  C   UNL A   1      33.234  21.108  25.288  1.00  0.00     0.012 A 
ATOM     24  C   UNL A   1      32.317  19.270  23.386  1.00  0.00     0.001 A 
ATOM     25  C   UNL A   1      32.984  19.777  25.645  1.00  0.00     0.001 A 
ATOM     26  C   UNL A   1      32.507  18.866  24.702  1.00  0.00     0.000 A 
ENDBRANCH  14  21
ENDBRANCH   9  10
ENDBRANCH   8   9
ENDBRANCH   6   8
ENDBRANCH   5   6
ENDBRANCH   4   5
ENDBRANCH   3   4
ENDBRANCH   2   3
ENDBRANCH   1   2
BRANCH   1  27
ATOM     27  C   UNL A   1      33.327  30.916  27.227  1.00  0.00     0.188 C 
BRANCH  27  28
ATOM     28  O   UNL A   1      33.451  32.243  27.724  1.00  0.00    -0.376 OA
BRANCH  28  29
ATOM     29  C   UNL A   1      34.613  32.676  28.414  1.00  0.00     0.202 C 
BRANCH  29  30
ATOM     30  C   UNL A   1      34.610  32.653  29.941  1.00  0.00     0.261 C 
BRANCH  30  31
ATOM     31  O   UNL A   1      35.453  31.631  30.490  1.00  0.00    -0.460 OA
BRANCH  31  32
ATOM     32  C   UNL A   1      36.722  32.024  30.760  1.00  0.00     0.338 C 
ATOM     33  O   UNL A   1      37.077  32.974  31.427  1.00  0.00    -0.246 OA
BRANCH  32  34
ATOM     34  C   UNL A   1      37.665  31.001  30.267  1.00  0.00     0.060 A 
ATOM     35  C   UNL A   1      38.417  30.295  31.219  1.00  0.00     0.016 A 
ATOM     36  C   UNL A   1      37.829  30.757  28.903  1.00  0.00     0.016 A 
ATOM     37  C   UNL A   1      39.394  29.397  30.810  1.00  0.00     0.010 A 
ATOM     38  C   UNL A   1      38.838  29.886  28.489  1.00  0.00     0.010 A 
ATOM     39  C   UNL A   1      39.662  29.260  29.444  1.00  0.00    -0.014 A 
BRANCH  39  40
ATOM     40  C   UNL A   1      40.996  28.759  29.048  1.00  0.00     0.031 A 
ATOM     41  C   UNL A   1      42.146  29.728  29.132  1.00  0.00     0.074 A 
ATOM     42  C   UNL A   1      41.197  27.480  28.694  1.00  0.00     0.049 A 
ATOM     43  N   UNL A   1      43.410  29.551  28.851  1.00  0.00    -0.248 NA
ATOM     44  C   UNL A   1      41.819  31.089  29.594  1.00  0.00     0.031 C 
ATOM     45  C   UNL A   1      40.171  26.443  28.640  1.00  0.00     0.029 A 
ATOM     46  N   UNL A   1      42.349  26.842  28.316  1.00  0.00    -0.354 N 
ATOM     47  C   UNL A   1      44.020  30.777  29.087  1.00  0.00     0.074 A 
ATOM     48  C   UNL A   1      42.988  31.699  29.499  1.00  0.00     0.031 C 
ATOM     49  C   UNL A   1      40.742  25.290  28.246  1.00  0.00     0.029 A 
ATOM     50  C   UNL A   1      42.164  25.521  27.995  1.00  0.00     0.049 A 
ATOM     51  H   UNL A   1      43.226  27.288  28.278  1.00  0.00     0.167 HD
ATOM     52  C   UNL A   1      45.329  31.105  28.978  1.00  0.00     0.037 A 
ATOM     53  C   UNL A   1      43.048  24.614  27.541  1.00  0.00     0.037 A 
ATOM     54  C   UNL A   1      46.350  30.180  28.567  1.00  0.00     0.049 A 
ATOM     55  C   UNL A   1      44.488  25.020  27.357  1.00  0.00     0.074 A 
ATOM     56  C   UNL A   1      47.708  30.398  28.435  1.00  0.00     0.029 A 
ATOM     57  N   UNL A   1      46.116  28.861  28.209  1.00  0.00    -0.354 N 
ATOM     58  N   UNL A   1      45.064  26.174  27.601  1.00  0.00    -0.248 NA
ATOM     59  C   UNL A   1      45.403  23.991  26.844  1.00  0.00     0.031 C 
ATOM     60  C   UNL A   1      48.288  29.228  27.935  1.00  0.00     0.029 A 
ATOM     61  C   UNL A   1      47.302  28.258  27.827  1.00  0.00     0.049 A 
ATOM     62  H   UNL A   1      45.236  28.418  28.223  1.00  0.00     0.167 HD
ATOM     63  C   UNL A   1      46.414  25.995  27.318  1.00  0.00     0.074 A 
ATOM     64  C   UNL A   1      46.567  24.622  26.887  1.00  0.00     0.031 C 
ATOM     65  C   UNL A   1      47.436  26.883  27.416  1.00  0.00     0.037 A 
BRANCH  52  66
ATOM     66  C   UNL A   1      45.706  32.530  29.261  1.00  0.00     0.057 A 
ATOM     67  C   UNL A   1      46.088  32.968  30.537  1.00  0.00     0.134 A 
ATOM     68  C   UNL A   1      45.679  33.485  28.236  1.00  0.00     0.134 A 
ATOM     69  F   UNL A   1      46.115  32.112  31.570  1.00  0.00    -0.206 F 
ATOM     70  C   UNL A   1      46.392  34.308  30.790  1.00  0.00     0.040 A 
ATOM     71  C   UNL A   1      46.014  34.819  28.469  1.00  0.00     0.040 A 
ATOM     72  F   UNL A   1      45.322  33.137  26.991  1.00  0.00    -0.206 F 
ATOM     73  C   UNL A   1      46.362  35.236  29.753  1.00  0.00     0.006 A 
ENDBRANCH  52  66
BRANCH  53  74
ATOM     74  C   UNL A   1      42.607  23.227  27.240  1.00  0.00     0.057 A 
ATOM     75  C   UNL A   1      42.351  22.818  25.926  1.00  0.00     0.134 A 
ATOM     76  C   UNL A   1      42.410  22.286  28.257  1.00  0.00     0.134 A 
ATOM     77  F   UNL A   1      42.499  23.681  24.910  1.00  0.00    -0.206 F 
ATOM     78  C   UNL A   1      41.898  21.530  25.635  1.00  0.00     0.040 A 
ATOM     79  C   UNL A   1      41.984  20.986  27.979  1.00  0.00     0.040 A 
ATOM     80  F   UNL A   1      42.639  22.613  29.537  1.00  0.00    -0.206 F 
ATOM     81  C   UNL A   1      41.718  20.608  26.664  1.00  0.00     0.006 A 
ENDBRANCH  53  74
BRANCH  65  82
ATOM     82  C   UNL A   1      48.820  26.376  27.119  1.00  0.00     0.057 A 
ATOM     83  C   UNL A   1      49.591  25.696  28.069  1.00  0.00     0.134 A 
ATOM     84  C   UNL A   1      49.374  26.550  25.843  1.00  0.00     0.134 A 
ATOM     85  F   UNL A   1      49.124  25.501  29.312  1.00  0.00    -0.206 F 
ATOM     86  C   UNL A   1      50.878  25.240  27.773  1.00  0.00     0.040 A 
ATOM     87  C   UNL A   1      50.644  26.067  25.525  1.00  0.00     0.040 A 
ATOM     88  F   UNL A   1      48.684  27.178  24.879  1.00  0.00    -0.206 F 
ATOM     89  C   UNL A   1      51.404  25.422  26.496  1.00  0.00     0.006 A 
ENDBRANCH  65  82
ENDBRANCH  39  40
ENDBRANCH  32  34
ENDBRANCH  31  32
ENDBRANCH  30  31
ENDBRANCH  29  30
ENDBRANCH  28  29
ENDBRANCH  27  28
ENDBRANCH   1  27
TORSDOF 21
ENDMDL
MODEL 3
REMARK VINA RESULT:      -9.5      2.558      7.573
REMARK SMILES O=C(CCc1nc(-c2ccccc2)c(-c2ccccc2)o1)OCCOCCOCCOC(=O)c1ccc(-c2c3nc(c(-c4c(F)cccc4F)c4ccc([nH]4)c(-c4c(F)cccc4F)c4nc(c(-c5c(F)cccc5F)c5ccc2[nH]5)C=C4)C=C3)cc1
REMARK SMILES IDX 26 1 25 2 24 3 23 4 22 5 2 6 1 7 3 8 4 9 5 10 6 11 21 12
REMARK SMILES IDX 7 13 14 14 8 15 9 16 13 17 10 18 12 19 11 20 15 21 16 22
REMARK SMILES IDX 20 23 17 24 19 25 18 26 27 27 28 28 29 29 30 30 31 31 32 32
REMARK SMILES IDX 33 33 34 34 35 35 87 36 36 37 86 38 37 39 38 40 39 41 80 42
REMARK SMILES IDX 40 43 85 44 79 45 81 46 41 47 84 48 78 49 77 50 42 52 68 53
REMARK SMILES IDX 51 54 67 55 52 56 55 57 66 58 82 59 53 60 54 61 65 63 83 64
REMARK SMILES IDX 56 65 43 66 44 67 49 68 45 69 46 70 48 71 50 72 47 73 69 74
REMARK SMILES IDX 70 75 75 76 71 77 72 78 74 79 76 80 73 81 57 82 58 83 63 84
REMARK SMILES IDX 59 85 60 86 62 87 64 88 61 89
REMARK H PARENT 81 51 55 62
REMARK Flexibility Score: inf
ROOT
ATOM      1  C   UNL A   1      33.810  27.294  23.858  1.00  0.00     0.188 C 
ENDROOT
BRANCH   1   2
ATOM      2  O   UNL A   1      34.208  27.018  25.181  1.00  0.00    -0.376 OA
BRANCH   2   3
ATOM      3  C   UNL A   1      33.203  26.710  26.131  1.00  0.00     0.202 C 
BRANCH   3   4
ATOM      4  C   UNL A   1      31.983  25.915  25.671  1.00  0.00     0.261 C 
BRANCH   4   5
ATOM      5  O   UNL A   1      30.904  25.745  26.619  1.00  0.00    -0.463 OA
BRANCH   5   6
ATOM      6  C   UNL A   1      29.764  25.046  26.469  1.00  0.00     0.306 C 
ATOM      7  O   UNL A   1      28.711  25.496  26.920  1.00  0.00    -0.252 OA
BRANCH   6   8
ATOM      8  C   UNL A   1      29.799  23.648  25.914  1.00  0.00     0.132 C 
BRANCH   8   9
ATOM      9  C   UNL A   1      30.604  22.673  26.765  1.00  0.00     0.109 C 
BRANCH   9  10
ATOM     10  C   UNL A   1      31.651  21.907  26.033  1.00  0.00     0.196 A 
ATOM     11  N   UNL A   1      31.611  20.664  25.594  1.00  0.00    -0.213 NA
ATOM     12  O   UNL A   1      32.826  22.554  25.759  1.00  0.00    -0.440 OA
ATOM     13  C   UNL A   1      32.860  20.469  25.048  1.00  0.00     0.117 A 
ATOM     14  C   UNL A   1      33.638  21.595  25.206  1.00  0.00     0.162 A 
BRANCH  13  15
ATOM     15  C   UNL A   1      33.234  19.386  24.178  1.00  0.00     0.004 A 
ATOM     16  C   UNL A   1      32.424  18.976  23.114  1.00  0.00     0.010 A 
ATOM     17  C   UNL A   1      34.321  18.602  24.577  1.00  0.00     0.010 A 
ATOM     18  C   UNL A   1      32.669  17.748  22.498  1.00  0.00     0.001 A 
ATOM     19  C   UNL A   1      34.556  17.376  23.967  1.00  0.00     0.001 A 
ATOM     20  C   UNL A   1      33.721  16.943  22.940  1.00  0.00     0.000 A 
ENDBRANCH  13  15
BRANCH  14  21
ATOM     21  C   UNL A   1      35.022  21.953  24.931  1.00  0.00     0.020 A 
ATOM     22  C   UNL A   1      36.035  21.577  25.831  1.00  0.00     0.012 A 
ATOM     23  C   UNL A   1      35.385  22.647  23.777  1.00  0.00     0.012 A 
ATOM     24  C   UNL A   1      37.364  21.952  25.631  1.00  0.00     0.001 A 
ATOM     25  C   UNL A   1      36.726  22.984  23.550  1.00  0.00     0.001 A 
ATOM     26  C   UNL A   1      37.709  22.656  24.484  1.00  0.00     0.000 A 
ENDBRANCH  14  21
ENDBRANCH   9  10
ENDBRANCH   8   9
ENDBRANCH   6   8
ENDBRANCH   5   6
ENDBRANCH   4   5
ENDBRANCH   3   4
ENDBRANCH   2   3
ENDBRANCH   1   2
BRANCH   1  27
ATOM     27  C   UNL A   1      32.959  28.559  23.616  1.00  0.00     0.188 C 
BRANCH  27  28
ATOM     28  O   UNL A   1      32.867  29.588  24.594  1.00  0.00    -0.376 OA
BRANCH  28  29
ATOM     29  C   UNL A   1      31.614  30.064  25.061  1.00  0.00     0.202 C 
BRANCH  29  30
ATOM     30  C   UNL A   1      31.576  30.905  26.335  1.00  0.00     0.261 C 
BRANCH  30  31
ATOM     31  O   UNL A   1      32.707  30.683  27.189  1.00  0.00    -0.460 OA
BRANCH  31  32
ATOM     32  C   UNL A   1      33.423  31.795  27.486  1.00  0.00     0.338 C 
ATOM     33  O   UNL A   1      33.013  32.932  27.598  1.00  0.00    -0.246 OA
BRANCH  32  34
ATOM     34  C   UNL A   1      34.800  31.408  27.848  1.00  0.00     0.060 A 
ATOM     35  C   UNL A   1      35.067  30.041  28.026  1.00  0.00     0.016 A 
ATOM     36  C   UNL A   1      35.802  32.362  28.032  1.00  0.00     0.016 A 
ATOM     37  C   UNL A   1      36.316  29.627  28.468  1.00  0.00     0.010 A 
ATOM     38  C   UNL A   1      37.046  31.950  28.516  1.00  0.00     0.010 A 
ATOM     39  C   UNL A   1      37.276  30.591  28.796  1.00  0.00    -0.014 A 
BRANCH  39  40
ATOM     40  C   UNL A   1      38.347  30.206  29.741  1.00  0.00     0.031 A 
ATOM     41  C   UNL A   1      39.407  29.267  29.231  1.00  0.00     0.074 A 
ATOM     42  C   UNL A   1      38.417  30.718  30.980  1.00  0.00     0.049 A 
ATOM     43  N   UNL A   1      40.453  28.775  29.843  1.00  0.00    -0.248 NA
ATOM     44  C   UNL A   1      39.263  28.818  27.835  1.00  0.00     0.031 C 
ATOM     45  C   UNL A   1      37.483  31.682  31.554  1.00  0.00     0.029 A 
ATOM     46  N   UNL A   1      39.331  30.493  31.975  1.00  0.00    -0.354 N 
ATOM     47  C   UNL A   1      41.076  27.952  28.914  1.00  0.00     0.074 A 
ATOM     48  C   UNL A   1      40.279  27.979  27.711  1.00  0.00     0.031 C 
ATOM     49  C   UNL A   1      37.872  31.965  32.811  1.00  0.00     0.029 A 
ATOM     50  C   UNL A   1      39.064  31.181  33.131  1.00  0.00     0.049 A 
ATOM     51  H   UNL A   1      40.107  29.895  31.871  1.00  0.00     0.167 HD
ATOM     52  C   UNL A   1      42.220  27.240  29.048  1.00  0.00     0.037 A 
ATOM     53  C   UNL A   1      39.709  31.163  34.312  1.00  0.00     0.037 A 
ATOM     54  C   UNL A   1      43.008  27.219  30.250  1.00  0.00     0.049 A 
ATOM     55  C   UNL A   1      40.940  30.306  34.463  1.00  0.00     0.074 A 
ATOM     56  C   UNL A   1      44.190  26.546  30.494  1.00  0.00     0.029 A 
ATOM     57  N   UNL A   1      42.681  27.896  31.415  1.00  0.00    -0.354 N 
ATOM     58  N   UNL A   1      41.538  29.545  33.576  1.00  0.00    -0.248 NA
ATOM     59  C   UNL A   1      41.594  30.316  35.779  1.00  0.00     0.031 C 
ATOM     60  C   UNL A   1      44.545  26.764  31.829  1.00  0.00     0.029 A 
ATOM     61  C   UNL A   1      43.625  27.634  32.393  1.00  0.00     0.049 A 
ATOM     62  H   UNL A   1      41.893  28.476  31.531  1.00  0.00     0.167 HD
ATOM     63  C   UNL A   1      42.661  29.026  34.211  1.00  0.00     0.074 A 
ATOM     64  C   UNL A   1      42.660  29.562  35.556  1.00  0.00     0.031 C 
ATOM     65  C   UNL A   1      43.613  28.190  33.723  1.00  0.00     0.037 A 
BRANCH  52  66
ATOM     66  C   UNL A   1      42.645  26.396  27.881  1.00  0.00     0.057 A 
ATOM     67  C   UNL A   1      43.506  26.873  26.882  1.00  0.00     0.134 A 
ATOM     68  C   UNL A   1      42.177  25.082  27.751  1.00  0.00     0.134 A 
ATOM     69  F   UNL A   1      43.975  28.129  26.931  1.00  0.00    -0.206 F 
ATOM     70  C   UNL A   1      43.854  26.088  25.781  1.00  0.00     0.040 A 
ATOM     71  C   UNL A   1      42.545  24.277  26.674  1.00  0.00     0.040 A 
ATOM     72  F   UNL A   1      41.349  24.561  28.669  1.00  0.00    -0.206 F 
ATOM     73  C   UNL A   1      43.378  24.783  25.678  1.00  0.00     0.006 A 
ENDBRANCH  52  66
BRANCH  53  74
ATOM     74  C   UNL A   1      39.217  31.990  35.444  1.00  0.00     0.057 A 
ATOM     75  C   UNL A   1      39.600  33.329  35.583  1.00  0.00     0.134 A 
ATOM     76  C   UNL A   1      38.372  31.457  36.425  1.00  0.00     0.134 A 
ATOM     77  F   UNL A   1      40.426  33.890  34.688  1.00  0.00    -0.206 F 
ATOM     78  C   UNL A   1      39.176  34.104  36.664  1.00  0.00     0.040 A 
ATOM     79  C   UNL A   1      37.918  32.227  37.496  1.00  0.00     0.040 A 
ATOM     80  F   UNL A   1      37.966  30.181  36.351  1.00  0.00    -0.206 F 
ATOM     81  C   UNL A   1      38.328  33.554  37.622  1.00  0.00     0.006 A 
ENDBRANCH  53  74
BRANCH  65  82
ATOM     82  C   UNL A   1      44.769  27.861  34.626  1.00  0.00     0.057 A 
ATOM     83  C   UNL A   1      44.783  26.726  35.447  1.00  0.00     0.134 A 
ATOM     84  C   UNL A   1      45.902  28.686  34.647  1.00  0.00     0.134 A 
ATOM     85  F   UNL A   1      43.729  25.898  35.481  1.00  0.00    -0.206 F 
ATOM     86  C   UNL A   1      45.866  26.446  36.284  1.00  0.00     0.040 A 
ATOM     87  C   UNL A   1      47.004  28.396  35.452  1.00  0.00     0.040 A 
ATOM     88  F   UNL A   1      45.964  29.781  33.874  1.00  0.00    -0.206 F 
ATOM     89  C   UNL A   1      46.982  27.279  36.283  1.00  0.00     0.006 A 
ENDBRANCH  65  82
ENDBRANCH  39  40
ENDBRANCH  32  34
ENDBRANCH  31  32
ENDBRANCH  30  31
ENDBRANCH  29  30
ENDBRANCH  28  29
ENDBRANCH  27  28
ENDBRANCH   1  27
TORSDOF 21
ENDMDL
