MODEL 1
REMARK VINA RESULT:     -11.3      0.000      0.000
REMARK SMILES Cc1cc2n(n1)[C@H](C(F)(F)F)CCN2C(=O)c1cnn([C@@H](C)C(=O)OCCOCCOCCOC(=O)c2ccc(-c3c4nc(c(-c5c(F)cccc5F)c5ccc([nH]5)c(-c5c(F)cccc5F)c5nc(c(-c6c(F)cccc6F)c6ccc3[nH]6)C=C5)C=C4)cc2)c1
REMARK SMILES IDX 29 1 28 2 27 3 26 4 25 5 23 6 24 7 21 8 22 9 20 10 17 11
REMARK SMILES IDX 18 12 91 13 19 14 15 15 16 16 14 17 1 18 2 19 3 20 6 21 4 22
REMARK SMILES IDX 5 23 7 24 13 25 12 26 8 27 9 28 10 29 11 30 30 31 31 32
REMARK SMILES IDX 32 33 33 34 34 35 35 36 36 37 37 38 38 39 90 40 39 41 89 42
REMARK SMILES IDX 40 43 41 44 42 45 83 46 43 47 88 48 82 49 84 50 44 51 87 52
REMARK SMILES IDX 81 53 80 54 45 56 71 57 54 58 70 59 55 60 58 61 69 62 85 63
REMARK SMILES IDX 56 64 57 65 68 67 86 68 59 69 46 70 47 71 52 72 48 73 49 74
REMARK SMILES IDX 51 75 53 76 50 77 72 78 73 79 78 80 74 81 75 82 77 83 79 84
REMARK SMILES IDX 76 85 60 86 61 87 66 88 62 89 63 90 65 91 67 92 64 93
REMARK H PARENT 84 55 58 66
REMARK Flexibility Score: inf
ROOT
ATOM      1  C   UNL A   1      38.604  20.969  25.582  1.00  0.00     0.188 C 
ENDROOT
BRANCH   1   2
ATOM      2  O   UNL A   1      37.847  21.937  24.901  1.00  0.00    -0.376 OA
BRANCH   2   3
ATOM      3  C   UNL A   1      36.851  22.640  25.629  1.00  0.00     0.202 C 
BRANCH   3   4
ATOM      4  C   UNL A   1      35.603  23.245  24.949  1.00  0.00     0.261 C 
BRANCH   4   5
ATOM      5  O   UNL A   1      34.967  22.440  23.925  1.00  0.00    -0.462 OA
BRANCH   5   6
ATOM      6  C   UNL A   1      34.284  21.352  24.363  1.00  0.00     0.330 C 
ATOM      7  O   UNL A   1      34.850  20.322  24.735  1.00  0.00    -0.250 OA
BRANCH   6   8
ATOM      8  C   UNL A   1      32.770  21.436  24.448  1.00  0.00     0.213 C 
ATOM      9  C   UNL A   1      32.180  21.481  23.041  1.00  0.00     0.046 C 
BRANCH   8  10
ATOM     10  N   UNL A   1      32.137  22.437  25.313  1.00  0.00    -0.258 N 
ATOM     11  C   UNL A   1      31.014  24.245  25.971  1.00  0.00     0.078 A 
ATOM     12  C   UNL A   1      31.696  23.596  27.026  1.00  0.00     0.149 A 
ATOM     13  C   UNL A   1      31.337  23.471  24.868  1.00  0.00     0.123 A 
ATOM     14  N   UNL A   1      32.495  22.608  26.601  1.00  0.00    -0.180 NA
BRANCH  11  15
ATOM     15  C   UNL A   1      30.099  25.361  25.985  1.00  0.00     0.262 C 
ATOM     16  O   UNL A   1      29.078  25.385  26.680  1.00  0.00    -0.269 OA
BRANCH  15  17
ATOM     17  N   UNL A   1      30.377  26.413  25.010  1.00  0.00    -0.293 N 
ATOM     18  C   UNL A   1      32.942  30.115  27.294  1.00  0.00     0.069 C 
ATOM     19  C   UNL A   1      32.238  29.225  26.339  1.00  0.00     0.062 A 
ATOM     20  C   UNL A   1      31.699  27.929  26.571  1.00  0.00     0.072 A 
ATOM     21  N   UNL A   1      32.031  29.621  25.078  1.00  0.00    -0.176 NA
ATOM     22  C   UNL A   1      31.091  27.566  25.389  1.00  0.00     0.134 A 
ATOM     23  N   UNL A   1      31.308  28.627  24.549  1.00  0.00    -0.237 N 
ATOM     24  C   UNL A   1      30.847  28.695  23.181  1.00  0.00     0.216 C 
ATOM     25  C   UNL A   1      29.732  26.431  23.670  1.00  0.00     0.130 C 
ATOM     26  C   UNL A   1      30.527  27.283  22.673  1.00  0.00     0.059 C 
BRANCH  24  27
ATOM     27  C   UNL A   1      29.663  29.631  23.075  1.00  0.00     0.410 C 
ATOM     28  F   UNL A   1      28.511  28.926  23.206  1.00  0.00    -0.169 F 
ATOM     29  F   UNL A   1      29.670  30.551  24.067  1.00  0.00    -0.169 F 
ATOM     30  F   UNL A   1      29.594  30.281  21.900  1.00  0.00    -0.169 F 
ENDBRANCH  24  27
ENDBRANCH  15  17
ENDBRANCH  11  15
ENDBRANCH   8  10
ENDBRANCH   6   8
ENDBRANCH   5   6
ENDBRANCH   4   5
ENDBRANCH   3   4
ENDBRANCH   2   3
ENDBRANCH   1   2
BRANCH   1  31
ATOM     31  C   UNL A   1      39.721  21.450  26.510  1.00  0.00     0.188 C 
BRANCH  31  32
ATOM     32  O   UNL A   1      40.608  22.511  26.226  1.00  0.00    -0.376 OA
BRANCH  32  33
ATOM     33  C   UNL A   1      42.013  22.534  26.414  1.00  0.00     0.202 C 
BRANCH  33  34
ATOM     34  C   UNL A   1      42.890  23.761  26.178  1.00  0.00     0.261 C 
BRANCH  34  35
ATOM     35  O   UNL A   1      42.400  24.937  26.767  1.00  0.00    -0.460 OA
BRANCH  35  36
ATOM     36  C   UNL A   1      42.003  25.872  25.885  1.00  0.00     0.338 C 
ATOM     37  O   UNL A   1      42.324  25.979  24.705  1.00  0.00    -0.246 OA
BRANCH  36  38
ATOM     38  C   UNL A   1      41.057  26.740  26.589  1.00  0.00     0.060 A 
ATOM     39  C   UNL A   1      41.061  28.095  26.256  1.00  0.00     0.016 A 
ATOM     40  C   UNL A   1      40.321  26.232  27.672  1.00  0.00     0.016 A 
ATOM     41  C   UNL A   1      40.568  28.981  27.181  1.00  0.00     0.010 A 
ATOM     42  C   UNL A   1      39.845  27.113  28.603  1.00  0.00     0.010 A 
ATOM     43  C   UNL A   1      40.096  28.465  28.390  1.00  0.00    -0.014 A 
BRANCH  43  44
ATOM     44  C   UNL A   1      40.075  29.349  29.528  1.00  0.00     0.031 A 
ATOM     45  C   UNL A   1      38.884  30.200  29.653  1.00  0.00     0.074 A 
ATOM     46  C   UNL A   1      41.058  29.263  30.444  1.00  0.00     0.049 A 
ATOM     47  N   UNL A   1      38.840  31.489  29.647  1.00  0.00    -0.248 NA
ATOM     48  C   UNL A   1      37.572  29.541  29.683  1.00  0.00     0.031 C 
ATOM     49  C   UNL A   1      42.116  28.248  30.540  1.00  0.00     0.029 A 
ATOM     50  N   UNL A   1      41.240  30.003  31.567  1.00  0.00    -0.354 N 
ATOM     51  C   UNL A   1      37.507  31.810  29.858  1.00  0.00     0.074 A 
ATOM     52  C   UNL A   1      36.754  30.592  29.713  1.00  0.00     0.031 C 
ATOM     53  C   UNL A   1      42.668  28.305  31.771  1.00  0.00     0.029 A 
ATOM     54  C   UNL A   1      42.075  29.413  32.501  1.00  0.00     0.049 A 
ATOM     55  H   UNL A   1      40.815  30.880  31.705  1.00  0.00     0.167 HD
ATOM     56  C   UNL A   1      37.141  33.013  30.370  1.00  0.00     0.037 A 
ATOM     57  C   UNL A   1      42.178  29.758  33.807  1.00  0.00     0.037 A 
ATOM     58  C   UNL A   1      38.199  33.983  30.288  1.00  0.00     0.049 A 
ATOM     59  C   UNL A   1      41.614  31.129  33.950  1.00  0.00     0.074 A 
ATOM     60  C   UNL A   1      38.923  34.530  29.247  1.00  0.00     0.029 A 
ATOM     61  N   UNL A   1      38.905  34.269  31.431  1.00  0.00    -0.354 N 
ATOM     62  N   UNL A   1      42.180  32.205  33.476  1.00  0.00    -0.248 NA
ATOM     63  C   UNL A   1      40.189  31.255  34.231  1.00  0.00     0.031 C 
ATOM     64  C   UNL A   1      40.239  34.710  29.761  1.00  0.00     0.029 A 
ATOM     65  C   UNL A   1      40.234  34.291  31.092  1.00  0.00     0.049 A 
ATOM     66  H   UNL A   1      38.527  34.429  32.326  1.00  0.00     0.167 HD
ATOM     67  C   UNL A   1      41.130  32.986  33.010  1.00  0.00     0.074 A 
ATOM     68  C   UNL A   1      39.929  32.402  33.597  1.00  0.00     0.031 C 
ATOM     69  C   UNL A   1      41.299  33.845  31.961  1.00  0.00     0.037 A 
BRANCH  56  70
ATOM     70  C   UNL A   1      35.935  33.196  31.240  1.00  0.00     0.057 A 
ATOM     71  C   UNL A   1      34.942  34.112  30.867  1.00  0.00     0.134 A 
ATOM     72  C   UNL A   1      35.844  32.695  32.555  1.00  0.00     0.134 A 
ATOM     73  F   UNL A   1      34.958  34.683  29.653  1.00  0.00    -0.206 F 
ATOM     74  C   UNL A   1      33.942  34.524  31.753  1.00  0.00     0.040 A 
ATOM     75  C   UNL A   1      34.818  33.054  33.428  1.00  0.00     0.040 A 
ATOM     76  F   UNL A   1      36.792  31.913  33.086  1.00  0.00    -0.206 F 
ATOM     77  C   UNL A   1      33.876  33.993  33.037  1.00  0.00     0.006 A 
ENDBRANCH  56  70
BRANCH  57  78
ATOM     78  C   UNL A   1      42.487  28.882  34.962  1.00  0.00     0.057 A 
ATOM     79  C   UNL A   1      41.862  27.637  35.113  1.00  0.00     0.134 A 
ATOM     80  C   UNL A   1      43.564  29.135  35.832  1.00  0.00     0.134 A 
ATOM     81  F   UNL A   1      40.858  27.276  34.301  1.00  0.00    -0.206 F 
ATOM     82  C   UNL A   1      42.286  26.700  36.066  1.00  0.00     0.040 A 
ATOM     83  C   UNL A   1      43.985  28.217  36.800  1.00  0.00     0.040 A 
ATOM     84  F   UNL A   1      44.306  30.246  35.725  1.00  0.00    -0.206 F 
ATOM     85  C   UNL A   1      43.353  26.988  36.912  1.00  0.00     0.006 A 
ENDBRANCH  57  78
BRANCH  69  86
ATOM     86  C   UNL A   1      42.702  34.118  31.498  1.00  0.00     0.057 A 
ATOM     87  C   UNL A   1      43.349  33.373  30.500  1.00  0.00     0.134 A 
ATOM     88  C   UNL A   1      43.360  35.266  31.955  1.00  0.00     0.134 A 
ATOM     89  F   UNL A   1      42.750  32.328  29.918  1.00  0.00    -0.206 F 
ATOM     90  C   UNL A   1      44.613  33.724  30.017  1.00  0.00     0.040 A 
ATOM     91  C   UNL A   1      44.608  35.648  31.455  1.00  0.00     0.040 A 
ATOM     92  F   UNL A   1      42.774  36.066  32.859  1.00  0.00    -0.206 F 
ATOM     93  C   UNL A   1      45.245  34.869  30.493  1.00  0.00     0.006 A 
ENDBRANCH  69  86
ENDBRANCH  43  44
ENDBRANCH  36  38
ENDBRANCH  35  36
ENDBRANCH  34  35
ENDBRANCH  33  34
ENDBRANCH  32  33
ENDBRANCH  31  32
ENDBRANCH   1  31
TORSDOF 21
ENDMDL
MODEL 2
REMARK VINA RESULT:     -11.0      2.050      5.890
REMARK SMILES Cc1cc2n(n1)[C@H](C(F)(F)F)CCN2C(=O)c1cnn([C@@H](C)C(=O)OCCOCCOCCOC(=O)c2ccc(-c3c4nc(c(-c5c(F)cccc5F)c5ccc([nH]5)c(-c5c(F)cccc5F)c5nc(c(-c6c(F)cccc6F)c6ccc3[nH]6)C=C5)C=C4)cc2)c1
REMARK SMILES IDX 29 1 28 2 27 3 26 4 25 5 23 6 24 7 21 8 22 9 20 10 17 11
REMARK SMILES IDX 18 12 91 13 19 14 15 15 16 16 14 17 1 18 2 19 3 20 6 21 4 22
REMARK SMILES IDX 5 23 7 24 13 25 12 26 8 27 9 28 10 29 11 30 30 31 31 32
REMARK SMILES IDX 32 33 33 34 34 35 35 36 36 37 37 38 38 39 90 40 39 41 89 42
REMARK SMILES IDX 40 43 41 44 42 45 83 46 43 47 88 48 82 49 84 50 44 51 87 52
REMARK SMILES IDX 81 53 80 54 45 56 71 57 54 58 70 59 55 60 58 61 69 62 85 63
REMARK SMILES IDX 56 64 57 65 68 67 86 68 59 69 46 70 47 71 52 72 48 73 49 74
REMARK SMILES IDX 51 75 53 76 50 77 72 78 73 79 78 80 74 81 75 82 77 83 79 84
REMARK SMILES IDX 76 85 60 86 61 87 66 88 62 89 63 90 65 91 67 92 64 93
REMARK H PARENT 84 55 58 66
REMARK Flexibility Score: inf
ROOT
ATOM      1  C   UNL A   1      36.634  23.670  25.034  1.00  0.00     0.188 C 
ENDROOT
BRANCH   1   2
ATOM      2  O   UNL A   1      37.010  22.796  24.001  1.00  0.00    -0.376 OA
BRANCH   2   3
ATOM      3  C   UNL A   1      37.277  21.442  24.335  1.00  0.00     0.202 C 
BRANCH   3   4
ATOM      4  C   UNL A   1      36.295  20.586  25.165  1.00  0.00     0.261 C 
BRANCH   4   5
ATOM      5  O   UNL A   1      34.954  20.437  24.635  1.00  0.00    -0.462 OA
BRANCH   5   6
ATOM      6  C   UNL A   1      33.940  20.662  25.509  1.00  0.00     0.330 C 
ATOM      7  O   UNL A   1      33.210  19.759  25.922  1.00  0.00    -0.250 OA
BRANCH   6   8
ATOM      8  C   UNL A   1      33.741  22.073  26.034  1.00  0.00     0.213 C 
ATOM      9  C   UNL A   1      33.732  22.055  27.560  1.00  0.00     0.046 C 
BRANCH   8  10
ATOM     10  N   UNL A   1      32.649  22.903  25.515  1.00  0.00    -0.258 N 
ATOM     11  C   UNL A   1      31.012  24.411  25.415  1.00  0.00     0.078 A 
ATOM     12  C   UNL A   1      31.055  23.557  24.289  1.00  0.00     0.149 A 
ATOM     13  C   UNL A   1      32.054  23.944  26.200  1.00  0.00     0.123 A 
ATOM     14  N   UNL A   1      31.934  22.556  24.425  1.00  0.00    -0.180 NA
BRANCH  11  15
ATOM     15  C   UNL A   1      30.195  25.568  25.692  1.00  0.00     0.262 C 
ATOM     16  O   UNL A   1      29.312  25.577  26.556  1.00  0.00    -0.269 OA
BRANCH  15  17
ATOM     17  N   UNL A   1      30.374  26.696  24.781  1.00  0.00    -0.293 N 
ATOM     18  C   UNL A   1      32.750  30.413  27.241  1.00  0.00     0.069 C 
ATOM     19  C   UNL A   1      32.080  29.539  26.246  1.00  0.00     0.062 A 
ATOM     20  C   UNL A   1      31.635  28.197  26.405  1.00  0.00     0.072 A 
ATOM     21  N   UNL A   1      31.812  29.998  25.019  1.00  0.00    -0.176 NA
ATOM     22  C   UNL A   1      31.021  27.868  25.217  1.00  0.00     0.134 A 
ATOM     23  N   UNL A   1      31.143  28.994  24.444  1.00  0.00    -0.237 N 
ATOM     24  C   UNL A   1      30.641  29.116  23.094  1.00  0.00     0.216 C 
ATOM     25  C   UNL A   1      29.693  26.755  23.460  1.00  0.00     0.130 C 
ATOM     26  C   UNL A   1      30.402  27.721  22.502  1.00  0.00     0.059 C 
BRANCH  24  27
ATOM     27  C   UNL A   1      29.395  29.974  23.076  1.00  0.00     0.410 C 
ATOM     28  F   UNL A   1      29.696  31.226  23.500  1.00  0.00    -0.169 F 
ATOM     29  F   UNL A   1      28.897  30.097  21.824  1.00  0.00    -0.169 F 
ATOM     30  F   UNL A   1      28.414  29.515  23.875  1.00  0.00    -0.169 F 
ENDBRANCH  24  27
ENDBRANCH  15  17
ENDBRANCH  11  15
ENDBRANCH   8  10
ENDBRANCH   6   8
ENDBRANCH   5   6
ENDBRANCH   4   5
ENDBRANCH   3   4
ENDBRANCH   2   3
ENDBRANCH   1   2
BRANCH   1  31
ATOM     31  C   UNL A   1      37.516  23.731  26.282  1.00  0.00     0.188 C 
BRANCH  31  32
ATOM     32  O   UNL A   1      38.922  23.861  26.274  1.00  0.00    -0.376 OA
BRANCH  32  33
ATOM     33  C   UNL A   1      39.876  22.948  26.791  1.00  0.00     0.202 C 
BRANCH  33  34
ATOM     34  C   UNL A   1      41.385  23.173  26.758  1.00  0.00     0.261 C 
BRANCH  34  35
ATOM     35  O   UNL A   1      41.843  24.126  27.681  1.00  0.00    -0.460 OA
BRANCH  35  36
ATOM     36  C   UNL A   1      41.813  25.392  27.228  1.00  0.00     0.338 C 
ATOM     37  O   UNL A   1      42.271  25.826  26.175  1.00  0.00    -0.246 OA
BRANCH  36  38
ATOM     38  C   UNL A   1      41.075  26.177  28.220  1.00  0.00     0.060 A 
ATOM     39  C   UNL A   1      39.873  26.757  27.813  1.00  0.00     0.016 A 
ATOM     40  C   UNL A   1      41.668  26.465  29.460  1.00  0.00     0.016 A 
ATOM     41  C   UNL A   1      39.419  27.844  28.516  1.00  0.00     0.010 A 
ATOM     42  C   UNL A   1      41.228  27.558  30.153  1.00  0.00     0.010 A 
ATOM     43  C   UNL A   1      40.190  28.294  29.590  1.00  0.00    -0.014 A 
BRANCH  43  44
ATOM     44  C   UNL A   1      40.037  29.671  29.988  1.00  0.00     0.031 A 
ATOM     45  C   UNL A   1      41.245  30.501  29.890  1.00  0.00     0.074 A 
ATOM     46  C   UNL A   1      38.811  30.132  30.301  1.00  0.00     0.049 A 
ATOM     47  N   UNL A   1      41.851  31.116  30.849  1.00  0.00    -0.248 NA
ATOM     48  C   UNL A   1      41.924  30.574  28.589  1.00  0.00     0.031 C 
ATOM     49  C   UNL A   1      37.522  29.446  30.141  1.00  0.00     0.029 A 
ATOM     50  N   UNL A   1      38.449  31.372  30.713  1.00  0.00    -0.354 N 
ATOM     51  C   UNL A   1      42.889  31.808  30.242  1.00  0.00     0.074 A 
ATOM     52  C   UNL A   1      42.987  31.316  28.892  1.00  0.00     0.031 C 
ATOM     53  C   UNL A   1      36.528  30.354  30.230  1.00  0.00     0.029 A 
ATOM     54  C   UNL A   1      37.103  31.651  30.548  1.00  0.00     0.049 A 
ATOM     55  H   UNL A   1      39.088  32.017  31.094  1.00  0.00     0.167 HD
ATOM     56  C   UNL A   1      43.443  32.904  30.820  1.00  0.00     0.037 A 
ATOM     57  C   UNL A   1      36.535  32.881  30.569  1.00  0.00     0.037 A 
ATOM     58  C   UNL A   1      43.119  33.003  32.217  1.00  0.00     0.049 A 
ATOM     59  C   UNL A   1      37.494  33.800  31.243  1.00  0.00     0.074 A 
ATOM     60  C   UNL A   1      43.329  32.190  33.313  1.00  0.00     0.029 A 
ATOM     61  N   UNL A   1      42.153  33.905  32.594  1.00  0.00    -0.354 N 
ATOM     62  N   UNL A   1      37.778  33.756  32.515  1.00  0.00    -0.248 NA
ATOM     63  C   UNL A   1      38.480  34.484  30.414  1.00  0.00     0.031 C 
ATOM     64  C   UNL A   1      42.169  32.348  34.123  1.00  0.00     0.029 A 
ATOM     65  C   UNL A   1      41.333  33.268  33.490  1.00  0.00     0.049 A 
ATOM     66  H   UNL A   1      42.068  34.834  32.280  1.00  0.00     0.167 HD
ATOM     67  C   UNL A   1      39.140  34.019  32.588  1.00  0.00     0.074 A 
ATOM     68  C   UNL A   1      39.495  34.563  31.281  1.00  0.00     0.031 C 
ATOM     69  C   UNL A   1      39.909  33.497  33.590  1.00  0.00     0.037 A 
BRANCH  56  70
ATOM     70  C   UNL A   1      44.001  34.048  30.030  1.00  0.00     0.057 A 
ATOM     71  C   UNL A   1      45.336  34.432  30.212  1.00  0.00     0.134 A 
ATOM     72  C   UNL A   1      43.201  34.945  29.293  1.00  0.00     0.134 A 
ATOM     73  F   UNL A   1      46.175  33.673  30.934  1.00  0.00    -0.206 F 
ATOM     74  C   UNL A   1      45.834  35.641  29.718  1.00  0.00     0.040 A 
ATOM     75  C   UNL A   1      43.701  36.125  28.746  1.00  0.00     0.040 A 
ATOM     76  F   UNL A   1      41.880  34.769  29.150  1.00  0.00    -0.206 F 
ATOM     77  C   UNL A   1      45.017  36.491  28.979  1.00  0.00     0.006 A 
ENDBRANCH  56  70
BRANCH  57  78
ATOM     78  C   UNL A   1      35.348  33.353  29.817  1.00  0.00     0.057 A 
ATOM     79  C   UNL A   1      34.328  34.072  30.453  1.00  0.00     0.134 A 
ATOM     80  C   UNL A   1      35.282  33.311  28.412  1.00  0.00     0.134 A 
ATOM     81  F   UNL A   1      34.326  34.215  31.786  1.00  0.00    -0.206 F 
ATOM     82  C   UNL A   1      33.308  34.713  29.736  1.00  0.00     0.040 A 
ATOM     83  C   UNL A   1      34.260  33.929  27.685  1.00  0.00     0.040 A 
ATOM     84  F   UNL A   1      36.249  32.739  27.681  1.00  0.00    -0.206 F 
ATOM     85  C   UNL A   1      33.273  34.645  28.346  1.00  0.00     0.006 A 
ENDBRANCH  57  78
BRANCH  69  86
ATOM     86  C   UNL A   1      39.205  32.855  34.752  1.00  0.00     0.057 A 
ATOM     87  C   UNL A   1      38.858  31.496  34.794  1.00  0.00     0.134 A 
ATOM     88  C   UNL A   1      39.018  33.591  35.927  1.00  0.00     0.134 A 
ATOM     89  F   UNL A   1      39.108  30.685  33.760  1.00  0.00    -0.206 F 
ATOM     90  C   UNL A   1      38.303  30.910  35.935  1.00  0.00     0.040 A 
ATOM     91  C   UNL A   1      38.497  33.009  37.086  1.00  0.00     0.040 A 
ATOM     92  F   UNL A   1      39.390  34.880  35.984  1.00  0.00    -0.206 F 
ATOM     93  C   UNL A   1      38.126  31.667  37.089  1.00  0.00     0.006 A 
ENDBRANCH  69  86
ENDBRANCH  43  44
ENDBRANCH  36  38
ENDBRANCH  35  36
ENDBRANCH  34  35
ENDBRANCH  33  34
ENDBRANCH  32  33
ENDBRANCH  31  32
ENDBRANCH   1  31
TORSDOF 21
ENDMDL
MODEL 3
REMARK VINA RESULT:     -10.3     10.324     15.443
REMARK SMILES Cc1cc2n(n1)[C@H](C(F)(F)F)CCN2C(=O)c1cnn([C@@H](C)C(=O)OCCOCCOCCOC(=O)c2ccc(-c3c4nc(c(-c5c(F)cccc5F)c5ccc([nH]5)c(-c5c(F)cccc5F)c5nc(c(-c6c(F)cccc6F)c6ccc3[nH]6)C=C5)C=C4)cc2)c1
REMARK SMILES IDX 29 1 28 2 27 3 26 4 25 5 23 6 24 7 21 8 22 9 20 10 17 11
REMARK SMILES IDX 18 12 91 13 19 14 15 15 16 16 14 17 1 18 2 19 3 20 6 21 4 22
REMARK SMILES IDX 5 23 7 24 13 25 12 26 8 27 9 28 10 29 11 30 30 31 31 32
REMARK SMILES IDX 32 33 33 34 34 35 35 36 36 37 37 38 38 39 90 40 39 41 89 42
REMARK SMILES IDX 40 43 41 44 42 45 83 46 43 47 88 48 82 49 84 50 44 51 87 52
REMARK SMILES IDX 81 53 80 54 45 56 71 57 54 58 70 59 55 60 58 61 69 62 85 63
REMARK SMILES IDX 56 64 57 65 68 67 86 68 59 69 46 70 47 71 52 72 48 73 49 74
REMARK SMILES IDX 51 75 53 76 50 77 72 78 73 79 78 80 74 81 75 82 77 83 79 84
REMARK SMILES IDX 76 85 60 86 61 87 66 88 62 89 63 90 65 91 67 92 64 93
REMARK H PARENT 84 55 58 66
REMARK Flexibility Score: inf
ROOT
ATOM      1  C   UNL A   1      47.072  42.821  24.327  1.00  0.00     0.188 C 
ENDROOT
BRANCH   1   2
ATOM      2  O   UNL A   1      47.129  41.551  23.729  1.00  0.00    -0.376 OA
BRANCH   2   3
ATOM      3  C   UNL A   1      46.952  41.466  22.323  1.00  0.00     0.202 C 
BRANCH   3   4
ATOM      4  C   UNL A   1      45.915  42.326  21.567  1.00  0.00     0.261 C 
BRANCH   4   5
ATOM      5  O   UNL A   1      44.522  42.111  21.904  1.00  0.00    -0.462 OA
BRANCH   5   6
ATOM      6  C   UNL A   1      43.811  43.220  22.228  1.00  0.00     0.330 C 
ATOM      7  O   UNL A   1      44.310  44.172  22.831  1.00  0.00    -0.250 OA
BRANCH   6   8
ATOM      8  C   UNL A   1      42.362  43.305  21.779  1.00  0.00     0.213 C 
ATOM      9  C   UNL A   1      41.598  42.084  22.281  1.00  0.00     0.046 C 
BRANCH   8  10
ATOM     10  N   UNL A   1      42.044  43.581  20.375  1.00  0.00    -0.258 N 
ATOM     11  C   UNL A   1      42.220  44.320  18.280  1.00  0.00     0.078 A 
ATOM     12  C   UNL A   1      40.920  43.868  18.606  1.00  0.00     0.149 A 
ATOM     13  C   UNL A   1      42.920  44.133  19.461  1.00  0.00     0.123 A 
ATOM     14  N   UNL A   1      40.780  43.576  19.906  1.00  0.00    -0.180 NA
BRANCH  11  15
ATOM     15  C   UNL A   1      42.777  44.764  17.025  1.00  0.00     0.262 C 
ATOM     16  O   UNL A   1      43.132  43.985  16.134  1.00  0.00    -0.269 OA
BRANCH  15  17
ATOM     17  N   UNL A   1      43.036  46.198  16.924  1.00  0.00    -0.293 N 
ATOM     18  C   UNL A   1      48.015  46.980  17.249  1.00  0.00     0.069 C 
ATOM     19  C   UNL A   1      46.542  47.097  17.102  1.00  0.00     0.062 A 
ATOM     20  C   UNL A   1      45.575  46.056  17.051  1.00  0.00     0.072 A 
ATOM     21  N   UNL A   1      45.968  48.301  17.010  1.00  0.00    -0.176 NA
ATOM     22  C   UNL A   1      44.354  46.690  16.979  1.00  0.00     0.134 A 
ATOM     23  N   UNL A   1      44.660  48.027  16.980  1.00  0.00    -0.237 N 
ATOM     24  C   UNL A   1      43.683  49.089  16.914  1.00  0.00     0.216 C 
ATOM     25  C   UNL A   1      41.940  47.201  16.998  1.00  0.00     0.130 C 
ATOM     26  C   UNL A   1      42.356  48.539  16.373  1.00  0.00     0.059 C 
BRANCH  24  27
ATOM     27  C   UNL A   1      43.529  49.742  18.271  1.00  0.00     0.410 C 
ATOM     28  F   UNL A   1      44.130  50.957  18.263  1.00  0.00    -0.169 F 
ATOM     29  F   UNL A   1      42.227  49.954  18.572  1.00  0.00    -0.169 F 
ATOM     30  F   UNL A   1      44.082  49.036  19.273  1.00  0.00    -0.169 F 
ENDBRANCH  24  27
ENDBRANCH  15  17
ENDBRANCH  11  15
ENDBRANCH   8  10
ENDBRANCH   6   8
ENDBRANCH   5   6
ENDBRANCH   4   5
ENDBRANCH   3   4
ENDBRANCH   2   3
ENDBRANCH   1   2
BRANCH   1  31
ATOM     31  C   UNL A   1      46.149  43.008  25.533  1.00  0.00     0.188 C 
BRANCH  31  32
ATOM     32  O   UNL A   1      46.203  42.246  26.720  1.00  0.00    -0.376 OA
BRANCH  32  33
ATOM     33  C   UNL A   1      45.269  41.278  27.168  1.00  0.00     0.202 C 
BRANCH  33  34
ATOM     34  C   UNL A   1      44.263  40.574  26.261  1.00  0.00     0.261 C 
BRANCH  34  35
ATOM     35  O   UNL A   1      44.141  39.197  26.502  1.00  0.00    -0.460 OA
BRANCH  35  36
ATOM     36  C   UNL A   1      43.185  38.874  27.390  1.00  0.00     0.338 C 
ATOM     37  O   UNL A   1      42.210  39.541  27.724  1.00  0.00    -0.246 OA
BRANCH  36  38
ATOM     38  C   UNL A   1      43.494  37.526  27.872  1.00  0.00     0.060 A 
ATOM     39  C   UNL A   1      43.384  36.478  26.957  1.00  0.00     0.016 A 
ATOM     40  C   UNL A   1      43.712  37.310  29.243  1.00  0.00     0.016 A 
ATOM     41  C   UNL A   1      43.195  35.213  27.456  1.00  0.00     0.010 A 
ATOM     42  C   UNL A   1      43.508  36.054  29.743  1.00  0.00     0.010 A 
ATOM     43  C   UNL A   1      43.129  35.063  28.843  1.00  0.00    -0.014 A 
BRANCH  43  44
ATOM     44  C   UNL A   1      42.435  33.908  29.354  1.00  0.00     0.031 A 
ATOM     45  C   UNL A   1      41.119  34.167  29.953  1.00  0.00     0.074 A 
ATOM     46  C   UNL A   1      42.960  32.684  29.154  1.00  0.00     0.049 A 
ATOM     47  N   UNL A   1      40.755  33.942  31.169  1.00  0.00    -0.248 NA
ATOM     48  C   UNL A   1      40.116  34.857  29.130  1.00  0.00     0.031 C 
ATOM     49  C   UNL A   1      44.113  32.324  28.317  1.00  0.00     0.029 A 
ATOM     50  N   UNL A   1      42.488  31.480  29.560  1.00  0.00    -0.354 N 
ATOM     51  C   UNL A   1      39.414  34.292  31.222  1.00  0.00     0.074 A 
ATOM     52  C   UNL A   1      39.116  34.993  29.999  1.00  0.00     0.031 C 
ATOM     53  C   UNL A   1      44.097  30.992  28.100  1.00  0.00     0.029 A 
ATOM     54  C   UNL A   1      43.003  30.405  28.856  1.00  0.00     0.049 A 
ATOM     55  H   UNL A   1      41.836  31.379  30.291  1.00  0.00     0.167 HD
ATOM     56  C   UNL A   1      38.582  33.776  32.162  1.00  0.00     0.037 A 
ATOM     57  C   UNL A   1      42.489  29.152  28.825  1.00  0.00     0.037 A 
ATOM     58  C   UNL A   1      39.302  33.186  33.258  1.00  0.00     0.049 A 
ATOM     59  C   UNL A   1      41.587  29.014  30.003  1.00  0.00     0.074 A 
ATOM     60  C   UNL A   1      40.215  33.663  34.177  1.00  0.00     0.029 A 
ATOM     61  N   UNL A   1      39.399  31.816  33.305  1.00  0.00    -0.354 N 
ATOM     62  N   UNL A   1      42.001  28.964  31.239  1.00  0.00    -0.248 NA
ATOM     63  C   UNL A   1      40.186  29.382  29.836  1.00  0.00     0.031 C 
ATOM     64  C   UNL A   1      41.127  32.590  34.391  1.00  0.00     0.029 A 
ATOM     65  C   UNL A   1      40.701  31.513  33.614  1.00  0.00     0.049 A 
ATOM     66  H   UNL A   1      38.670  31.174  33.147  1.00  0.00     0.167 HD
ATOM     67  C   UNL A   1      41.062  29.690  31.960  1.00  0.00     0.074 A 
ATOM     68  C   UNL A   1      39.917  29.830  31.066  1.00  0.00     0.031 C 
ATOM     69  C   UNL A   1      41.409  30.363  33.098  1.00  0.00     0.037 A 
BRANCH  56  70
ATOM     70  C   UNL A   1      37.127  33.522  31.914  1.00  0.00     0.057 A 
ATOM     71  C   UNL A   1      36.170  34.059  32.785  1.00  0.00     0.134 A 
ATOM     72  C   UNL A   1      36.653  32.557  31.001  1.00  0.00     0.134 A 
ATOM     73  F   UNL A   1      36.520  34.953  33.722  1.00  0.00    -0.206 F 
ATOM     74  C   UNL A   1      34.835  33.641  32.769  1.00  0.00     0.040 A 
ATOM     75  C   UNL A   1      35.314  32.176  30.937  1.00  0.00     0.040 A 
ATOM     76  F   UNL A   1      37.477  31.871  30.199  1.00  0.00    -0.206 F 
ATOM     77  C   UNL A   1      34.403  32.699  31.841  1.00  0.00     0.006 A 
ENDBRANCH  56  70
BRANCH  57  78
ATOM     78  C   UNL A   1      42.526  28.176  27.710  1.00  0.00     0.057 A 
ATOM     79  C   UNL A   1      41.735  28.353  26.568  1.00  0.00     0.134 A 
ATOM     80  C   UNL A   1      43.498  27.162  27.630  1.00  0.00     0.134 A 
ATOM     81  F   UNL A   1      40.813  29.325  26.522  1.00  0.00    -0.206 F 
ATOM     82  C   UNL A   1      41.904  27.574  25.415  1.00  0.00     0.040 A 
ATOM     83  C   UNL A   1      43.665  26.364  26.493  1.00  0.00     0.040 A 
ATOM     84  F   UNL A   1      44.382  26.957  28.616  1.00  0.00    -0.206 F 
ATOM     85  C   UNL A   1      42.874  26.576  25.374  1.00  0.00     0.006 A 
ENDBRANCH  57  78
BRANCH  69  86
ATOM     86  C   UNL A   1      42.761  30.085  33.691  1.00  0.00     0.057 A 
ATOM     87  C   UNL A   1      43.012  29.045  34.600  1.00  0.00     0.134 A 
ATOM     88  C   UNL A   1      43.874  30.784  33.209  1.00  0.00     0.134 A 
ATOM     89  F   UNL A   1      42.027  28.246  35.026  1.00  0.00    -0.206 F 
ATOM     90  C   UNL A   1      44.302  28.749  35.047  1.00  0.00     0.040 A 
ATOM     91  C   UNL A   1      45.173  30.474  33.621  1.00  0.00     0.040 A 
ATOM     92  F   UNL A   1      43.720  31.747  32.286  1.00  0.00    -0.206 F 
ATOM     93  C   UNL A   1      45.390  29.462  34.552  1.00  0.00     0.006 A 
ENDBRANCH  69  86
ENDBRANCH  43  44
ENDBRANCH  36  38
ENDBRANCH  35  36
ENDBRANCH  34  35
ENDBRANCH  33  34
ENDBRANCH  32  33
ENDBRANCH  31  32
ENDBRANCH   1  31
TORSDOF 21
ENDMDL
