MODEL 1
REMARK VINA RESULT:     -10.2      0.000      0.000
REMARK SMILES Nc1nonc1C(=O)N1[C@@H]2CC[C@H]1C[C@H](CC(=O)OCCOCCOCCOC(=O)c1ccc(-c3c4nc(c(-c5c(F)cccc5F)c5ccc([nH]5)c(-c5c(F)cccc5F)c5nc(c(-c6c(F)cccc6F)c6ccc3[nH]6)C=C5)C=C4)cc1)C2
REMARK SMILES IDX 23 1 22 2 21 3 20 4 19 5 17 6 18 7 16 8 15 9 9 10 10 11
REMARK SMILES IDX 13 12 11 13 85 14 12 15 14 16 7 17 8 18 6 19 2 20 3 21 4 22
REMARK SMILES IDX 5 23 1 24 24 27 25 28 26 29 27 30 28 31 29 32 30 33 31 34
REMARK SMILES IDX 32 35 84 36 33 37 83 38 34 39 35 40 36 41 77 42 37 43 82 44
REMARK SMILES IDX 76 45 78 46 38 47 81 48 75 49 74 50 39 52 65 53 48 54 64 55
REMARK SMILES IDX 49 56 52 57 63 58 79 59 50 60 51 61 62 63 80 64 53 65 40 66
REMARK SMILES IDX 41 67 46 68 42 69 43 70 45 71 47 72 44 73 66 74 67 75 72 76
REMARK SMILES IDX 68 77 69 78 71 79 73 80 70 81 54 82 55 83 60 84 56 85 57 86
REMARK SMILES IDX 59 87 61 88 58 89
REMARK H PARENT 1 25 1 26 78 51 52 62
REMARK Flexibility Score: inf
ROOT
ATOM      1  C   UNL A   1      34.499  34.467  28.997  1.00  0.00     0.188 C 
ENDROOT
BRANCH   1   2
ATOM      2  O   UNL A   1      34.267  33.511  27.971  1.00  0.00    -0.376 OA
BRANCH   2   3
ATOM      3  C   UNL A   1      33.758  32.241  28.379  1.00  0.00     0.202 C 
BRANCH   3   4
ATOM      4  C   UNL A   1      34.223  31.025  27.566  1.00  0.00     0.261 C 
BRANCH   4   5
ATOM      5  O   UNL A   1      33.539  30.888  26.305  1.00  0.00    -0.463 OA
BRANCH   5   6
ATOM      6  C   UNL A   1      32.366  30.210  26.349  1.00  0.00     0.306 C 
ATOM      7  O   UNL A   1      31.452  30.334  25.540  1.00  0.00    -0.252 OA
BRANCH   6   8
ATOM      8  C   UNL A   1      32.280  29.184  27.458  1.00  0.00     0.126 C 
BRANCH   8   9
ATOM      9  C   UNL A   1      32.376  27.663  27.190  1.00  0.00     0.004 C 
ATOM     10  N   UNL A   1      31.607  26.451  24.745  1.00  0.00    -0.331 N 
ATOM     11  C   UNL A   1      33.014  26.304  25.057  1.00  0.00     0.086 C 
ATOM     12  C   UNL A   1      30.897  25.939  25.904  1.00  0.00     0.086 C 
ATOM     13  C   UNL A   1      33.117  24.958  25.774  1.00  0.00     0.027 C 
ATOM     14  C   UNL A   1      33.352  27.475  25.979  1.00  0.00     0.029 C 
ATOM     15  C   UNL A   1      31.695  24.673  26.261  1.00  0.00     0.027 C 
ATOM     16  C   UNL A   1      30.990  26.977  27.033  1.00  0.00     0.029 C 
BRANCH  10  17
ATOM     17  C   UNL A   1      31.149  26.273  23.441  1.00  0.00     0.280 C 
ATOM     18  O   UNL A   1      29.980  26.530  23.150  1.00  0.00    -0.267 OA
BRANCH  17  19
ATOM     19  C   UNL A   1      32.081  25.670  22.485  1.00  0.00     0.216 A 
ATOM     20  C   UNL A   1      32.404  24.312  22.217  1.00  0.00     0.201 A 
ATOM     21  N   UNL A   1      33.274  24.244  21.214  1.00  0.00    -0.032 NA
ATOM     22  O   UNL A   1      33.461  25.555  20.807  1.00  0.00    -0.242 OA
ATOM     23  N   UNL A   1      32.733  26.433  21.593  1.00  0.00    -0.042 NA
BRANCH  20  24
ATOM     24  N   UNL A   1      31.898  23.225  22.819  1.00  0.00    -0.379 N 
ATOM     25  H   UNL A   1      32.312  22.343  22.673  1.00  0.00     0.158 HD
ATOM     26  H   UNL A   1      31.113  23.307  23.407  1.00  0.00     0.158 HD
ENDBRANCH  20  24
ENDBRANCH  17  19
ENDBRANCH  10  17
ENDBRANCH   8   9
ENDBRANCH   6   8
ENDBRANCH   5   6
ENDBRANCH   4   5
ENDBRANCH   3   4
ENDBRANCH   2   3
ENDBRANCH   1   2
BRANCH   1  27
ATOM     27  C   UNL A   1      33.271  35.142  29.612  1.00  0.00     0.188 C 
BRANCH  27  28
ATOM     28  O   UNL A   1      33.137  35.040  31.025  1.00  0.00    -0.376 OA
BRANCH  28  29
ATOM     29  C   UNL A   1      34.186  35.652  31.788  1.00  0.00     0.202 C 
BRANCH  29  30
ATOM     30  C   UNL A   1      34.898  34.755  32.823  1.00  0.00     0.261 C 
BRANCH  30  31
ATOM     31  O   UNL A   1      35.885  33.856  32.275  1.00  0.00    -0.460 OA
BRANCH  31  32
ATOM     32  C   UNL A   1      35.510  32.584  32.001  1.00  0.00     0.338 C 
ATOM     33  O   UNL A   1      34.372  32.144  32.000  1.00  0.00    -0.246 OA
BRANCH  32  34
ATOM     34  C   UNL A   1      36.680  31.878  31.412  1.00  0.00     0.060 A 
ATOM     35  C   UNL A   1      37.550  31.196  32.279  1.00  0.00     0.016 A 
ATOM     36  C   UNL A   1      36.870  31.791  30.030  1.00  0.00     0.016 A 
ATOM     37  C   UNL A   1      38.617  30.450  31.767  1.00  0.00     0.010 A 
ATOM     38  C   UNL A   1      37.944  31.054  29.519  1.00  0.00     0.010 A 
ATOM     39  C   UNL A   1      38.838  30.400  30.384  1.00  0.00    -0.014 A 
BRANCH  39  40
ATOM     40  C   UNL A   1      40.097  29.831  29.842  1.00  0.00     0.031 A 
ATOM     41  C   UNL A   1      41.281  30.745  29.688  1.00  0.00     0.074 A 
ATOM     42  C   UNL A   1      40.200  28.540  29.477  1.00  0.00     0.049 A 
ATOM     43  N   UNL A   1      42.453  30.509  29.157  1.00  0.00    -0.248 NA
ATOM     44  C   UNL A   1      41.115  32.114  30.203  1.00  0.00     0.031 C 
ATOM     45  C   UNL A   1      39.150  27.533  29.605  1.00  0.00     0.029 A 
ATOM     46  N   UNL A   1      41.250  27.863  28.903  1.00  0.00    -0.354 N 
ATOM     47  C   UNL A   1      43.161  31.699  29.269  1.00  0.00     0.074 A 
ATOM     48  C   UNL A   1      42.279  32.662  29.892  1.00  0.00     0.031 C 
ATOM     49  C   UNL A   1      39.601  26.369  29.104  1.00  0.00     0.029 A 
ATOM     50  C   UNL A   1      40.957  26.557  28.588  1.00  0.00     0.049 A 
ATOM     51  H   UNL A   1      42.128  28.273  28.733  1.00  0.00     0.167 HD
ATOM     52  C   UNL A   1      44.434  31.966  28.897  1.00  0.00     0.037 A 
ATOM     53  C   UNL A   1      41.688  25.633  27.931  1.00  0.00     0.037 A 
ATOM     54  C   UNL A   1      45.314  31.020  28.266  1.00  0.00     0.049 A 
ATOM     55  C   UNL A   1      43.071  25.981  27.438  1.00  0.00     0.074 A 
ATOM     56  C   UNL A   1      46.626  31.200  27.862  1.00  0.00     0.029 A 
ATOM     57  N   UNL A   1      44.969  29.719  27.934  1.00  0.00    -0.354 N 
ATOM     58  N   UNL A   1      43.741  27.100  27.571  1.00  0.00    -0.248 NA
ATOM     59  C   UNL A   1      43.796  24.937  26.697  1.00  0.00     0.031 C 
ATOM     60  C   UNL A   1      47.057  30.024  27.240  1.00  0.00     0.029 A 
ATOM     61  C   UNL A   1      46.032  29.095  27.305  1.00  0.00     0.049 A 
ATOM     62  H   UNL A   1      44.096  29.301  28.120  1.00  0.00     0.167 HD
ATOM     63  C   UNL A   1      44.971  26.885  26.956  1.00  0.00     0.074 A 
ATOM     64  C   UNL A   1      44.959  25.527  26.459  1.00  0.00     0.031 C 
ATOM     65  C   UNL A   1      46.015  27.739  26.819  1.00  0.00     0.037 A 
BRANCH  52  66
ATOM     66  C   UNL A   1      44.939  33.357  29.137  1.00  0.00     0.057 A 
ATOM     67  C   UNL A   1      44.725  34.391  28.216  1.00  0.00     0.134 A 
ATOM     68  C   UNL A   1      45.634  33.670  30.312  1.00  0.00     0.134 A 
ATOM     69  F   UNL A   1      44.083  34.151  27.062  1.00  0.00    -0.206 F 
ATOM     70  C   UNL A   1      45.206  35.681  28.444  1.00  0.00     0.040 A 
ATOM     71  C   UNL A   1      46.096  34.961  30.563  1.00  0.00     0.040 A 
ATOM     72  F   UNL A   1      45.871  32.726  31.235  1.00  0.00    -0.206 F 
ATOM     73  C   UNL A   1      45.888  35.970  29.624  1.00  0.00     0.006 A 
ENDBRANCH  52  66
BRANCH  53  74
ATOM     74  C   UNL A   1      41.120  24.286  27.663  1.00  0.00     0.057 A 
ATOM     75  C   UNL A   1      41.563  23.158  28.362  1.00  0.00     0.134 A 
ATOM     76  C   UNL A   1      40.152  24.091  26.671  1.00  0.00     0.134 A 
ATOM     77  F   UNL A   1      42.513  23.276  29.301  1.00  0.00    -0.206 F 
ATOM     78  C   UNL A   1      41.074  21.881  28.075  1.00  0.00     0.040 A 
ATOM     79  C   UNL A   1      39.636  22.825  26.391  1.00  0.00     0.040 A 
ATOM     80  F   UNL A   1      39.691  25.131  25.960  1.00  0.00    -0.206 F 
ATOM     81  C   UNL A   1      40.104  21.714  27.090  1.00  0.00     0.006 A 
ENDBRANCH  53  74
BRANCH  65  82
ATOM     82  C   UNL A   1      47.250  27.227  26.132  1.00  0.00     0.057 A 
ATOM     83  C   UNL A   1      47.460  27.400  24.759  1.00  0.00     0.134 A 
ATOM     84  C   UNL A   1      48.271  26.610  26.869  1.00  0.00     0.134 A 
ATOM     85  F   UNL A   1      46.518  27.973  23.995  1.00  0.00    -0.206 F 
ATOM     86  C   UNL A   1      48.632  26.964  24.139  1.00  0.00     0.040 A 
ATOM     87  C   UNL A   1      49.458  26.192  26.265  1.00  0.00     0.040 A 
ATOM     88  F   UNL A   1      48.140  26.423  28.191  1.00  0.00    -0.206 F 
ATOM     89  C   UNL A   1      49.639  26.365  24.895  1.00  0.00     0.006 A 
ENDBRANCH  65  82
ENDBRANCH  39  40
ENDBRANCH  32  34
ENDBRANCH  31  32
ENDBRANCH  30  31
ENDBRANCH  29  30
ENDBRANCH  28  29
ENDBRANCH  27  28
ENDBRANCH   1  27
TORSDOF 21
ENDMDL
MODEL 2
REMARK VINA RESULT:     -10.2      4.781      6.923
REMARK SMILES Nc1nonc1C(=O)N1[C@@H]2CC[C@H]1C[C@H](CC(=O)OCCOCCOCCOC(=O)c1ccc(-c3c4nc(c(-c5c(F)cccc5F)c5ccc([nH]5)c(-c5c(F)cccc5F)c5nc(c(-c6c(F)cccc6F)c6ccc3[nH]6)C=C5)C=C4)cc1)C2
REMARK SMILES IDX 23 1 22 2 21 3 20 4 19 5 17 6 18 7 16 8 15 9 9 10 10 11
REMARK SMILES IDX 13 12 11 13 85 14 12 15 14 16 7 17 8 18 6 19 2 20 3 21 4 22
REMARK SMILES IDX 5 23 1 24 24 27 25 28 26 29 27 30 28 31 29 32 30 33 31 34
REMARK SMILES IDX 32 35 84 36 33 37 83 38 34 39 35 40 36 41 77 42 37 43 82 44
REMARK SMILES IDX 76 45 78 46 38 47 81 48 75 49 74 50 39 52 65 53 48 54 64 55
REMARK SMILES IDX 49 56 52 57 63 58 79 59 50 60 51 61 62 63 80 64 53 65 40 66
REMARK SMILES IDX 41 67 46 68 42 69 43 70 45 71 47 72 44 73 66 74 67 75 72 76
REMARK SMILES IDX 68 77 69 78 71 79 73 80 70 81 54 82 55 83 60 84 56 85 57 86
REMARK SMILES IDX 59 87 61 88 58 89
REMARK H PARENT 1 25 1 26 78 51 52 62
REMARK Flexibility Score: inf
ROOT
ATOM      1  C   UNL A   1      35.721  33.041  28.640  1.00  0.00     0.188 C 
ENDROOT
BRANCH   1   2
ATOM      2  O   UNL A   1      35.527  32.143  27.555  1.00  0.00    -0.376 OA
BRANCH   2   3
ATOM      3  C   UNL A   1      35.499  30.751  27.871  1.00  0.00     0.202 C 
BRANCH   3   4
ATOM      4  C   UNL A   1      34.400  29.919  27.195  1.00  0.00     0.261 C 
BRANCH   4   5
ATOM      5  O   UNL A   1      33.087  30.497  27.325  1.00  0.00    -0.463 OA
BRANCH   5   6
ATOM      6  C   UNL A   1      32.116  29.912  26.584  1.00  0.00     0.306 C 
ATOM      7  O   UNL A   1      31.472  30.469  25.701  1.00  0.00    -0.252 OA
BRANCH   6   8
ATOM      8  C   UNL A   1      31.919  28.437  26.867  1.00  0.00     0.126 C 
BRANCH   8   9
ATOM      9  C   UNL A   1      31.887  27.375  25.743  1.00  0.00     0.004 C 
ATOM     10  N   UNL A   1      31.535  24.602  26.215  1.00  0.00    -0.331 N 
ATOM     11  C   UNL A   1      30.476  25.204  25.431  1.00  0.00     0.086 C 
ATOM     12  C   UNL A   1      32.767  24.927  25.517  1.00  0.00     0.086 C 
ATOM     13  C   UNL A   1      30.888  24.976  23.976  1.00  0.00     0.027 C 
ATOM     14  C   UNL A   1      30.483  26.685  25.806  1.00  0.00     0.029 C 
ATOM     15  C   UNL A   1      32.392  24.707  24.042  1.00  0.00     0.027 C 
ATOM     16  C   UNL A   1      33.101  26.404  25.778  1.00  0.00     0.029 C 
BRANCH  10  17
ATOM     17  C   UNL A   1      31.334  23.382  26.859  1.00  0.00     0.280 C 
ATOM     18  O   UNL A   1      30.288  23.165  27.471  1.00  0.00    -0.267 OA
BRANCH  17  19
ATOM     19  C   UNL A   1      32.456  22.439  26.862  1.00  0.00     0.216 A 
ATOM     20  C   UNL A   1      32.860  21.458  25.918  1.00  0.00     0.201 A 
ATOM     21  N   UNL A   1      33.983  20.874  26.326  1.00  0.00    -0.032 NA
ATOM     22  O   UNL A   1      34.324  21.525  27.500  1.00  0.00    -0.242 OA
ATOM     23  N   UNL A   1      33.381  22.483  27.835  1.00  0.00    -0.042 NA
BRANCH  20  24
ATOM     24  N   UNL A   1      32.265  21.160  24.752  1.00  0.00    -0.379 N 
ATOM     25  H   UNL A   1      31.364  20.762  24.747  1.00  0.00     0.158 HD
ATOM     26  H   UNL A   1      32.728  21.340  23.903  1.00  0.00     0.158 HD
ENDBRANCH  20  24
ENDBRANCH  17  19
ENDBRANCH  10  17
ENDBRANCH   8   9
ENDBRANCH   6   8
ENDBRANCH   5   6
ENDBRANCH   4   5
ENDBRANCH   3   4
ENDBRANCH   2   3
ENDBRANCH   1   2
BRANCH   1  27
ATOM     27  C   UNL A   1      34.492  33.404  29.474  1.00  0.00     0.188 C 
BRANCH  27  28
ATOM     28  O   UNL A   1      33.509  34.208  28.833  1.00  0.00    -0.376 OA
BRANCH  28  29
ATOM     29  C   UNL A   1      33.701  35.625  28.947  1.00  0.00     0.202 C 
BRANCH  29  30
ATOM     30  C   UNL A   1      32.690  36.389  29.826  1.00  0.00     0.261 C 
BRANCH  30  31
ATOM     31  O   UNL A   1      33.124  36.637  31.181  1.00  0.00    -0.460 OA
BRANCH  31  32
ATOM     32  C   UNL A   1      32.723  35.778  32.148  1.00  0.00     0.338 C 
ATOM     33  O   UNL A   1      31.574  35.520  32.463  1.00  0.00    -0.246 OA
BRANCH  32  34
ATOM     34  C   UNL A   1      33.905  34.977  32.568  1.00  0.00     0.060 A 
ATOM     35  C   UNL A   1      35.180  35.551  32.434  1.00  0.00     0.016 A 
ATOM     36  C   UNL A   1      33.769  33.727  33.181  1.00  0.00     0.016 A 
ATOM     37  C   UNL A   1      36.314  34.871  32.889  1.00  0.00     0.010 A 
ATOM     38  C   UNL A   1      34.905  33.042  33.626  1.00  0.00     0.010 A 
ATOM     39  C   UNL A   1      36.185  33.598  33.461  1.00  0.00    -0.014 A 
BRANCH  39  40
ATOM     40  C   UNL A   1      37.384  32.761  33.715  1.00  0.00     0.031 A 
ATOM     41  C   UNL A   1      38.181  33.023  34.963  1.00  0.00     0.074 A 
ATOM     42  C   UNL A   1      37.779  31.797  32.864  1.00  0.00     0.049 A 
ATOM     43  N   UNL A   1      39.310  32.493  35.359  1.00  0.00    -0.248 NA
ATOM     44  C   UNL A   1      37.626  34.025  35.888  1.00  0.00     0.031 C 
ATOM     45  C   UNL A   1      37.085  31.407  31.639  1.00  0.00     0.029 A 
ATOM     46  N   UNL A   1      38.882  30.978  32.902  1.00  0.00    -0.354 N 
ATOM     47  C   UNL A   1      39.602  33.099  36.574  1.00  0.00     0.074 A 
ATOM     48  C   UNL A   1      38.549  34.056  36.837  1.00  0.00     0.031 C 
ATOM     49  C   UNL A   1      37.790  30.438  31.030  1.00  0.00     0.029 A 
ATOM     50  C   UNL A   1      39.003  30.163  31.801  1.00  0.00     0.049 A 
ATOM     51  H   UNL A   1      39.527  30.976  33.646  1.00  0.00     0.167 HD
ATOM     52  C   UNL A   1      40.648  32.875  37.403  1.00  0.00     0.037 A 
ATOM     53  C   UNL A   1      39.992  29.319  31.445  1.00  0.00     0.037 A 
ATOM     54  C   UNL A   1      41.705  31.935  37.146  1.00  0.00     0.049 A 
ATOM     55  C   UNL A   1      41.198  29.155  32.338  1.00  0.00     0.074 A 
ATOM     56  C   UNL A   1      42.802  31.634  37.935  1.00  0.00     0.029 A 
ATOM     57  N   UNL A   1      41.807  31.154  36.005  1.00  0.00    -0.354 N 
ATOM     58  N   UNL A   1      41.453  29.712  33.496  1.00  0.00    -0.248 NA
ATOM     59  C   UNL A   1      42.255  28.245  31.868  1.00  0.00     0.031 C 
ATOM     60  C   UNL A   1      43.593  30.708  37.249  1.00  0.00     0.029 A 
ATOM     61  C   UNL A   1      42.962  30.394  36.057  1.00  0.00     0.049 A 
ATOM     62  H   UNL A   1      41.155  31.143  35.267  1.00  0.00     0.167 HD
ATOM     63  C   UNL A   1      42.682  29.204  33.903  1.00  0.00     0.074 A 
ATOM     64  C   UNL A   1      43.118  28.285  32.875  1.00  0.00     0.031 C 
ATOM     65  C   UNL A   1      43.385  29.475  35.031  1.00  0.00     0.037 A 
BRANCH  52  66
ATOM     66  C   UNL A   1      40.710  33.690  38.660  1.00  0.00     0.057 A 
ATOM     67  C   UNL A   1      39.988  33.338  39.807  1.00  0.00     0.134 A 
ATOM     68  C   UNL A   1      41.516  34.834  38.727  1.00  0.00     0.134 A 
ATOM     69  F   UNL A   1      39.182  32.264  39.799  1.00  0.00    -0.206 F 
ATOM     70  C   UNL A   1      40.046  34.107  40.970  1.00  0.00     0.040 A 
ATOM     71  C   UNL A   1      41.603  35.596  39.893  1.00  0.00     0.040 A 
ATOM     72  F   UNL A   1      42.235  35.226  37.664  1.00  0.00    -0.206 F 
ATOM     73  C   UNL A   1      40.860  35.237  41.016  1.00  0.00     0.006 A 
ENDBRANCH  52  66
BRANCH  53  74
ATOM     74  C   UNL A   1      39.913  28.578  30.159  1.00  0.00     0.057 A 
ATOM     75  C   UNL A   1      39.232  27.360  30.061  1.00  0.00     0.134 A 
ATOM     76  C   UNL A   1      40.555  29.052  29.008  1.00  0.00     0.134 A 
ATOM     77  F   UNL A   1      38.625  26.838  31.138  1.00  0.00    -0.206 F 
ATOM     78  C   UNL A   1      39.202  26.631  28.871  1.00  0.00     0.040 A 
ATOM     79  C   UNL A   1      40.512  28.347  27.804  1.00  0.00     0.040 A 
ATOM     80  F   UNL A   1      41.231  30.210  29.037  1.00  0.00    -0.206 F 
ATOM     81  C   UNL A   1      39.840  27.128  27.736  1.00  0.00     0.006 A 
ENDBRANCH  53  74
BRANCH  65  82
ATOM     82  C   UNL A   1      44.684  28.748  35.235  1.00  0.00     0.057 A 
ATOM     83  C   UNL A   1      45.907  29.286  34.819  1.00  0.00     0.134 A 
ATOM     84  C   UNL A   1      44.716  27.523  35.916  1.00  0.00     0.134 A 
ATOM     85  F   UNL A   1      45.947  30.450  34.153  1.00  0.00    -0.206 F 
ATOM     86  C   UNL A   1      47.115  28.625  35.057  1.00  0.00     0.040 A 
ATOM     87  C   UNL A   1      45.918  26.865  36.181  1.00  0.00     0.040 A 
ATOM     88  F   UNL A   1      43.581  26.956  36.352  1.00  0.00    -0.206 F 
ATOM     89  C   UNL A   1      47.122  27.415  35.748  1.00  0.00     0.006 A 
ENDBRANCH  65  82
ENDBRANCH  39  40
ENDBRANCH  32  34
ENDBRANCH  31  32
ENDBRANCH  30  31
ENDBRANCH  29  30
ENDBRANCH  28  29
ENDBRANCH  27  28
ENDBRANCH   1  27
TORSDOF 21
ENDMDL
MODEL 3
REMARK VINA RESULT:     -10.2      5.336     10.446
REMARK SMILES Nc1nonc1C(=O)N1[C@@H]2CC[C@H]1C[C@H](CC(=O)OCCOCCOCCOC(=O)c1ccc(-c3c4nc(c(-c5c(F)cccc5F)c5ccc([nH]5)c(-c5c(F)cccc5F)c5nc(c(-c6c(F)cccc6F)c6ccc3[nH]6)C=C5)C=C4)cc1)C2
REMARK SMILES IDX 23 1 22 2 21 3 20 4 19 5 17 6 18 7 16 8 15 9 9 10 10 11
REMARK SMILES IDX 13 12 11 13 85 14 12 15 14 16 7 17 8 18 6 19 2 20 3 21 4 22
REMARK SMILES IDX 5 23 1 24 24 27 25 28 26 29 27 30 28 31 29 32 30 33 31 34
REMARK SMILES IDX 32 35 84 36 33 37 83 38 34 39 35 40 36 41 77 42 37 43 82 44
REMARK SMILES IDX 76 45 78 46 38 47 81 48 75 49 74 50 39 52 65 53 48 54 64 55
REMARK SMILES IDX 49 56 52 57 63 58 79 59 50 60 51 61 62 63 80 64 53 65 40 66
REMARK SMILES IDX 41 67 46 68 42 69 43 70 45 71 47 72 44 73 66 74 67 75 72 76
REMARK SMILES IDX 68 77 69 78 71 79 73 80 70 81 54 82 55 83 60 84 56 85 57 86
REMARK SMILES IDX 59 87 61 88 58 89
REMARK H PARENT 1 25 1 26 78 51 52 62
REMARK Flexibility Score: inf
ROOT
ATOM      1  C   UNL A   1      42.854  19.253  25.515  1.00  0.00     0.188 C 
ENDROOT
BRANCH   1   2
ATOM      2  O   UNL A   1      42.445  19.806  26.758  1.00  0.00    -0.376 OA
BRANCH   2   3
ATOM      3  C   UNL A   1      41.040  19.969  26.958  1.00  0.00     0.202 C 
BRANCH   3   4
ATOM      4  C   UNL A   1      40.514  21.411  26.977  1.00  0.00     0.261 C 
BRANCH   4   5
ATOM      5  O   UNL A   1      39.572  21.686  25.922  1.00  0.00    -0.463 OA
BRANCH   5   6
ATOM      6  C   UNL A   1      38.756  22.747  26.132  1.00  0.00     0.306 C 
ATOM      7  O   UNL A   1      39.127  23.911  26.231  1.00  0.00    -0.252 OA
BRANCH   6   8
ATOM      8  C   UNL A   1      37.281  22.404  26.156  1.00  0.00     0.126 C 
BRANCH   8   9
ATOM      9  C   UNL A   1      36.245  23.137  25.271  1.00  0.00     0.004 C 
ATOM     10  N   UNL A   1      33.585  22.232  24.893  1.00  0.00    -0.331 N 
ATOM     11  C   UNL A   1      33.680  23.523  25.542  1.00  0.00     0.086 C 
ATOM     12  C   UNL A   1      34.343  22.359  23.661  1.00  0.00     0.086 C 
ATOM     13  C   UNL A   1      33.571  24.540  24.406  1.00  0.00     0.027 C 
ATOM     14  C   UNL A   1      35.057  23.546  26.205  1.00  0.00     0.029 C 
ATOM     15  C   UNL A   1      33.927  23.748  23.146  1.00  0.00     0.027 C 
ATOM     16  C   UNL A   1      35.841  22.334  24.003  1.00  0.00     0.029 C 
BRANCH  10  17
ATOM     17  C   UNL A   1      32.416  21.477  24.984  1.00  0.00     0.280 C 
ATOM     18  O   UNL A   1      31.426  21.928  25.560  1.00  0.00    -0.267 OA
BRANCH  17  19
ATOM     19  C   UNL A   1      32.468  20.107  24.467  1.00  0.00     0.216 A 
ATOM     20  C   UNL A   1      32.675  18.864  25.123  1.00  0.00     0.201 A 
ATOM     21  N   UNL A   1      32.582  17.869  24.245  1.00  0.00    -0.032 NA
ATOM     22  O   UNL A   1      32.259  18.476  23.043  1.00  0.00    -0.242 OA
ATOM     23  N   UNL A   1      32.195  19.854  23.177  1.00  0.00    -0.042 NA
BRANCH  20  24
ATOM     24  N   UNL A   1      32.886  18.663  26.432  1.00  0.00    -0.379 N 
ATOM     25  H   UNL A   1      32.174  18.862  27.083  1.00  0.00     0.158 HD
ATOM     26  H   UNL A   1      33.753  18.316  26.744  1.00  0.00     0.158 HD
ENDBRANCH  20  24
ENDBRANCH  17  19
ENDBRANCH  10  17
ENDBRANCH   8   9
ENDBRANCH   6   8
ENDBRANCH   5   6
ENDBRANCH   4   5
ENDBRANCH   3   4
ENDBRANCH   2   3
ENDBRANCH   1   2
BRANCH   1  27
ATOM     27  C   UNL A   1      44.248  18.626  25.456  1.00  0.00     0.188 C 
BRANCH  27  28
ATOM     28  O   UNL A   1      45.288  19.448  24.938  1.00  0.00    -0.376 OA
BRANCH  28  29
ATOM     29  C   UNL A   1      44.911  20.795  24.625  1.00  0.00     0.202 C 
BRANCH  29  30
ATOM     30  C   UNL A   1      45.270  21.872  25.670  1.00  0.00     0.261 C 
BRANCH  30  31
ATOM     31  O   UNL A   1      44.152  22.638  26.166  1.00  0.00    -0.460 OA
BRANCH  31  32
ATOM     32  C   UNL A   1      43.900  23.842  25.601  1.00  0.00     0.338 C 
ATOM     33  O   UNL A   1      43.759  24.074  24.412  1.00  0.00    -0.246 OA
BRANCH  32  34
ATOM     34  C   UNL A   1      43.527  24.789  26.687  1.00  0.00     0.060 A 
ATOM     35  C   UNL A   1      42.616  24.356  27.664  1.00  0.00     0.016 A 
ATOM     36  C   UNL A   1      44.137  26.041  26.815  1.00  0.00     0.016 A 
ATOM     37  C   UNL A   1      42.297  25.179  28.749  1.00  0.00     0.010 A 
ATOM     38  C   UNL A   1      43.809  26.868  27.895  1.00  0.00     0.010 A 
ATOM     39  C   UNL A   1      42.870  26.453  28.854  1.00  0.00    -0.014 A 
BRANCH  39  40
ATOM     40  C   UNL A   1      42.359  27.430  29.848  1.00  0.00     0.031 A 
ATOM     41  C   UNL A   1      43.011  27.471  31.203  1.00  0.00     0.074 A 
ATOM     42  C   UNL A   1      41.334  28.258  29.577  1.00  0.00     0.049 A 
ATOM     43  N   UNL A   1      42.687  28.166  32.263  1.00  0.00    -0.248 NA
ATOM     44  C   UNL A   1      44.186  26.604  31.383  1.00  0.00     0.031 C 
ATOM     45  C   UNL A   1      40.634  28.355  28.299  1.00  0.00     0.029 A 
ATOM     46  N   UNL A   1      40.693  29.169  30.383  1.00  0.00    -0.354 N 
ATOM     47  C   UNL A   1      43.616  27.818  33.236  1.00  0.00     0.074 A 
ATOM     48  C   UNL A   1      44.495  26.829  32.651  1.00  0.00     0.031 C 
ATOM     49  C   UNL A   1      39.646  29.261  28.412  1.00  0.00     0.029 A 
ATOM     50  C   UNL A   1      39.620  29.781  29.780  1.00  0.00     0.049 A 
ATOM     51  H   UNL A   1      40.975  29.365  31.306  1.00  0.00     0.167 HD
ATOM     52  C   UNL A   1      43.732  28.283  34.501  1.00  0.00     0.037 A 
ATOM     53  C   UNL A   1      38.707  30.635  30.283  1.00  0.00     0.037 A 
ATOM     54  C   UNL A   1      42.856  29.255  35.096  1.00  0.00     0.049 A 
ATOM     55  C   UNL A   1      38.798  31.069  31.726  1.00  0.00     0.074 A 
ATOM     56  C   UNL A   1      42.904  29.794  36.370  1.00  0.00     0.029 A 
ATOM     57  N   UNL A   1      41.762  29.825  34.463  1.00  0.00    -0.354 N 
ATOM     58  N   UNL A   1      39.693  30.754  32.631  1.00  0.00    -0.248 NA
ATOM     59  C   UNL A   1      37.747  31.973  32.218  1.00  0.00     0.031 C 
ATOM     60  C   UNL A   1      41.811  30.651  36.525  1.00  0.00     0.029 A 
ATOM     61  C   UNL A   1      41.112  30.686  35.329  1.00  0.00     0.049 A 
ATOM     62  H   UNL A   1      41.489  29.643  33.534  1.00  0.00     0.167 HD
ATOM     63  C   UNL A   1      39.328  31.439  33.785  1.00  0.00     0.074 A 
ATOM     64  C   UNL A   1      38.137  32.195  33.466  1.00  0.00     0.031 C 
ATOM     65  C   UNL A   1      39.930  31.441  35.001  1.00  0.00     0.037 A 
BRANCH  52  66
ATOM     66  C   UNL A   1      44.839  27.716  35.339  1.00  0.00     0.057 A 
ATOM     67  C   UNL A   1      46.108  28.307  35.386  1.00  0.00     0.134 A 
ATOM     68  C   UNL A   1      44.627  26.572  36.119  1.00  0.00     0.134 A 
ATOM     69  F   UNL A   1      46.379  29.393  34.646  1.00  0.00    -0.206 F 
ATOM     70  C   UNL A   1      47.134  27.768  36.162  1.00  0.00     0.040 A 
ATOM     71  C   UNL A   1      45.638  26.039  36.919  1.00  0.00     0.040 A 
ATOM     72  F   UNL A   1      43.434  25.958  36.119  1.00  0.00    -0.206 F 
ATOM     73  C   UNL A   1      46.898  26.633  36.936  1.00  0.00     0.006 A 
ENDBRANCH  52  66
BRANCH  53  74
ATOM     74  C   UNL A   1      37.592  31.123  29.430  1.00  0.00     0.057 A 
ATOM     75  C   UNL A   1      37.602  32.411  28.886  1.00  0.00     0.134 A 
ATOM     76  C   UNL A   1      36.470  30.324  29.176  1.00  0.00     0.134 A 
ATOM     77  F   UNL A   1      38.634  33.236  29.122  1.00  0.00    -0.206 F 
ATOM     78  C   UNL A   1      36.532  32.895  28.131  1.00  0.00     0.040 A 
ATOM     79  C   UNL A   1      35.404  30.785  28.402  1.00  0.00     0.040 A 
ATOM     80  F   UNL A   1      36.395  29.082  29.675  1.00  0.00    -0.206 F 
ATOM     81  C   UNL A   1      35.431  32.079  27.883  1.00  0.00     0.006 A 
ENDBRANCH  53  74
BRANCH  65  82
ATOM     82  C   UNL A   1      39.335  32.310  36.072  1.00  0.00     0.057 A 
ATOM     83  C   UNL A   1      39.725  33.642  36.249  1.00  0.00     0.134 A 
ATOM     84  C   UNL A   1      38.311  31.823  36.898  1.00  0.00     0.134 A 
ATOM     85  F   UNL A   1      40.707  34.168  35.500  1.00  0.00    -0.206 F 
ATOM     86  C   UNL A   1      39.131  34.456  37.216  1.00  0.00     0.040 A 
ATOM     87  C   UNL A   1      37.693  32.633  37.851  1.00  0.00     0.040 A 
ATOM     88  F   UNL A   1      37.880  30.558  36.774  1.00  0.00    -0.206 F 
ATOM     89  C   UNL A   1      38.106  33.953  38.015  1.00  0.00     0.006 A 
ENDBRANCH  65  82
ENDBRANCH  39  40
ENDBRANCH  32  34
ENDBRANCH  31  32
ENDBRANCH  30  31
ENDBRANCH  29  30
ENDBRANCH  28  29
ENDBRANCH  27  28
ENDBRANCH   1  27
TORSDOF 21
ENDMDL
