MODEL 1
REMARK VINA RESULT:     -10.6      0.000      0.000
REMARK SMILES N#Cc1ccc2c(c1)C=C(C(=O)OCCOCCOCCOC(=O)c1ccc(-c3c4nc(c(-c5c(F)cccc5F)c5ccc([nH]5)c(-c5c(F)cccc5F)c5nc(c(-c6c(F)cccc6F)c6ccc3[nH]6)C=C5)C=C4)cc1)[C@@H](C(F)(F)F)O2
REMARK SMILES IDX 18 1 17 2 16 3 15 4 14 5 13 6 11 7 12 8 10 9 3 10 4 11 8 12
REMARK SMILES IDX 5 13 7 14 6 15 9 16 84 17 79 18 2 19 1 20 80 21 81 22 82 23
REMARK SMILES IDX 83 24 19 25 20 26 21 27 22 28 23 29 24 30 25 31 26 32 78 33
REMARK SMILES IDX 27 34 77 35 28 36 29 37 30 38 71 39 31 40 76 41 70 42 72 43
REMARK SMILES IDX 32 44 75 45 69 46 68 47 33 49 59 50 42 51 58 52 43 53 46 54
REMARK SMILES IDX 57 55 73 56 44 57 45 58 56 60 74 61 47 62 34 63 35 64 40 65
REMARK SMILES IDX 36 66 37 67 39 68 41 69 38 70 60 71 61 72 66 73 62 74 63 75
REMARK SMILES IDX 65 76 67 77 64 78 48 79 49 80 54 81 50 82 51 83 53 84 55 85
REMARK SMILES IDX 52 86
REMARK H PARENT 72 48 46 59
REMARK Flexibility Score: inf
ROOT
ATOM      1  C   UNL A   1      31.991  29.251  25.952  1.00  0.00     0.188 C 
ENDROOT
BRANCH   1   2
ATOM      2  C   UNL A   1      31.302  29.160  24.575  1.00  0.00     0.188 C 
BRANCH   2   3
ATOM      3  O   UNL A   1      30.389  28.110  24.354  1.00  0.00    -0.376 OA
BRANCH   3   4
ATOM      4  C   UNL A   1      30.114  27.645  23.043  1.00  0.00     0.202 C 
BRANCH   4   5
ATOM      5  C   UNL A   1      31.149  27.058  22.063  1.00  0.00     0.261 C 
BRANCH   5   6
ATOM      6  O   UNL A   1      31.590  25.716  22.286  1.00  0.00    -0.460 OA
BRANCH   6   7
ATOM      7  C   UNL A   1      32.903  25.478  22.045  1.00  0.00     0.338 C 
ATOM      8  O   UNL A   1      33.617  26.069  21.254  1.00  0.00    -0.246 OA
BRANCH   7   9
ATOM      9  C   UNL A   1      33.412  24.495  23.027  1.00  0.00     0.087 C 
ATOM     10  C   UNL A   1      33.182  20.083  24.936  1.00  0.00     0.053 A 
ATOM     11  C   UNL A   1      33.993  20.509  25.992  1.00  0.00     0.023 A 
ATOM     12  C   UNL A   1      32.896  20.959  23.881  1.00  0.00     0.031 A 
ATOM     13  C   UNL A   1      34.535  21.796  25.981  1.00  0.00     0.048 A 
ATOM     14  C   UNL A   1      33.396  22.268  23.900  1.00  0.00     0.019 A 
ATOM     15  C   UNL A   1      34.236  22.673  24.938  1.00  0.00     0.128 A 
ATOM     16  C   UNL A   1      32.981  23.233  22.895  1.00  0.00     0.027 C 
ATOM     17  O   UNL A   1      34.802  23.913  25.018  1.00  0.00    -0.475 OA
ATOM     18  C   UNL A   1      34.379  24.947  24.089  1.00  0.00     0.316 C 
BRANCH  10  19
ATOM     19  C   UNL A   1      32.613  18.765  24.954  1.00  0.00     0.099 C 
ATOM     20  N   UNL A   1      32.154  17.704  24.977  1.00  0.00    -0.192 NA
ENDBRANCH  10  19
BRANCH  18  21
ATOM     21  C   UNL A   1      33.828  26.129  24.897  1.00  0.00     0.430 C 
ATOM     22  F   UNL A   1      34.042  27.305  24.262  1.00  0.00    -0.167 F 
ATOM     23  F   UNL A   1      32.492  26.026  25.087  1.00  0.00    -0.167 F 
ATOM     24  F   UNL A   1      34.406  26.213  26.118  1.00  0.00    -0.167 F 
ENDBRANCH  18  21
ENDBRANCH   7   9
ENDBRANCH   6   7
ENDBRANCH   5   6
ENDBRANCH   4   5
ENDBRANCH   3   4
ENDBRANCH   2   3
ENDBRANCH   1   2
BRANCH   1  25
ATOM     25  O   UNL A   1      32.290  30.524  26.476  1.00  0.00    -0.376 OA
BRANCH  25  26
ATOM     26  C   UNL A   1      31.374  31.592  26.289  1.00  0.00     0.202 C 
BRANCH  26  27
ATOM     27  C   UNL A   1      31.520  33.016  26.875  1.00  0.00     0.261 C 
BRANCH  27  28
ATOM     28  O   UNL A   1      32.828  33.595  26.946  1.00  0.00    -0.460 OA
BRANCH  28  29
ATOM     29  C   UNL A   1      33.169  34.176  28.127  1.00  0.00     0.338 C 
ATOM     30  O   UNL A   1      32.530  35.001  28.754  1.00  0.00    -0.246 OA
BRANCH  29  31
ATOM     31  C   UNL A   1      34.357  33.473  28.659  1.00  0.00     0.060 A 
ATOM     32  C   UNL A   1      35.623  34.035  28.514  1.00  0.00     0.016 A 
ATOM     33  C   UNL A   1      34.204  32.217  29.272  1.00  0.00     0.016 A 
ATOM     34  C   UNL A   1      36.738  33.344  28.997  1.00  0.00     0.010 A 
ATOM     35  C   UNL A   1      35.325  31.520  29.734  1.00  0.00     0.010 A 
ATOM     36  C   UNL A   1      36.601  32.089  29.620  1.00  0.00    -0.014 A 
BRANCH  36  37
ATOM     37  C   UNL A   1      37.777  31.470  30.283  1.00  0.00     0.031 A 
ATOM     38  C   UNL A   1      38.151  31.770  31.705  1.00  0.00     0.074 A 
ATOM     39  C   UNL A   1      38.511  30.593  29.570  1.00  0.00     0.049 A 
ATOM     40  N   UNL A   1      39.085  31.221  32.442  1.00  0.00    -0.248 NA
ATOM     41  C   UNL A   1      37.385  32.821  32.387  1.00  0.00     0.031 C 
ATOM     42  C   UNL A   1      38.268  30.243  28.169  1.00  0.00     0.029 A 
ATOM     43  N   UNL A   1      39.590  29.825  29.925  1.00  0.00    -0.354 N 
ATOM     44  C   UNL A   1      39.006  31.837  33.684  1.00  0.00     0.074 A 
ATOM     45  C   UNL A   1      37.967  32.844  33.580  1.00  0.00     0.031 C 
ATOM     46  C   UNL A   1      39.143  29.297  27.797  1.00  0.00     0.029 A 
ATOM     47  C   UNL A   1      40.033  29.005  28.916  1.00  0.00     0.049 A 
ATOM     48  H   UNL A   1      40.006  29.858  30.817  1.00  0.00     0.167 HD
ATOM     49  C   UNL A   1      39.716  31.571  34.809  1.00  0.00     0.037 A 
ATOM     50  C   UNL A   1      41.044  28.118  28.892  1.00  0.00     0.037 A 
ATOM     51  C   UNL A   1      40.773  30.591  34.898  1.00  0.00     0.049 A 
ATOM     52  C   UNL A   1      41.866  27.905  30.134  1.00  0.00     0.074 A 
ATOM     53  C   UNL A   1      41.533  30.238  36.002  1.00  0.00     0.029 A 
ATOM     54  N   UNL A   1      41.239  29.825  33.840  1.00  0.00    -0.354 N 
ATOM     55  N   UNL A   1      41.725  28.434  31.324  1.00  0.00    -0.248 NA
ATOM     56  C   UNL A   1      42.989  26.963  30.025  1.00  0.00     0.031 C 
ATOM     57  C   UNL A   1      42.500  29.312  35.596  1.00  0.00     0.029 A 
ATOM     58  C   UNL A   1      42.296  29.028  34.256  1.00  0.00     0.049 A 
ATOM     59  H   UNL A   1      40.872  29.842  32.926  1.00  0.00     0.167 HD
ATOM     60  C   UNL A   1      42.719  27.866  32.113  1.00  0.00     0.074 A 
ATOM     61  C   UNL A   1      43.436  26.932  31.271  1.00  0.00     0.031 C 
ATOM     62  C   UNL A   1      43.012  28.100  33.416  1.00  0.00     0.037 A 
BRANCH  49  63
ATOM     63  C   UNL A   1      39.383  32.363  36.044  1.00  0.00     0.057 A 
ATOM     64  C   UNL A   1      38.415  31.913  36.952  1.00  0.00     0.134 A 
ATOM     65  C   UNL A   1      39.989  33.599  36.313  1.00  0.00     0.134 A 
ATOM     66  F   UNL A   1      37.778  30.751  36.749  1.00  0.00    -0.206 F 
ATOM     67  C   UNL A   1      38.067  32.658  38.081  1.00  0.00     0.040 A 
ATOM     68  C   UNL A   1      39.673  34.337  37.455  1.00  0.00     0.040 A 
ATOM     69  F   UNL A   1      40.921  34.094  35.484  1.00  0.00    -0.206 F 
ATOM     70  C   UNL A   1      38.705  33.869  38.341  1.00  0.00     0.006 A 
ENDBRANCH  49  63
BRANCH  50  71
ATOM     71  C   UNL A   1      41.350  27.360  27.651  1.00  0.00     0.057 A 
ATOM     72  C   UNL A   1      42.222  27.871  26.682  1.00  0.00     0.134 A 
ATOM     73  C   UNL A   1      40.826  26.080  27.434  1.00  0.00     0.134 A 
ATOM     74  F   UNL A   1      42.749  29.096  26.822  1.00  0.00    -0.206 F 
ATOM     75  C   UNL A   1      42.568  27.136  25.549  1.00  0.00     0.040 A 
ATOM     76  C   UNL A   1      41.194  25.317  26.324  1.00  0.00     0.040 A 
ATOM     77  F   UNL A   1      39.997  25.526  28.332  1.00  0.00    -0.206 F 
ATOM     78  C   UNL A   1      42.069  25.848  25.377  1.00  0.00     0.006 A 
ENDBRANCH  50  71
BRANCH  62  79
ATOM     79  C   UNL A   1      44.134  27.300  34.020  1.00  0.00     0.057 A 
ATOM     80  C   UNL A   1      43.885  26.054  34.610  1.00  0.00     0.134 A 
ATOM     81  C   UNL A   1      45.461  27.754  34.019  1.00  0.00     0.134 A 
ATOM     82  F   UNL A   1      42.638  25.560  34.658  1.00  0.00    -0.206 F 
ATOM     83  C   UNL A   1      44.908  25.288  35.170  1.00  0.00     0.040 A 
ATOM     84  C   UNL A   1      46.500  26.980  34.542  1.00  0.00     0.040 A 
ATOM     85  F   UNL A   1      45.777  28.931  33.460  1.00  0.00    -0.206 F 
ATOM     86  C   UNL A   1      46.224  25.745  35.124  1.00  0.00     0.006 A 
ENDBRANCH  62  79
ENDBRANCH  36  37
ENDBRANCH  29  31
ENDBRANCH  28  29
ENDBRANCH  27  28
ENDBRANCH  26  27
ENDBRANCH  25  26
ENDBRANCH   1  25
TORSDOF 19
ENDMDL
MODEL 2
REMARK VINA RESULT:     -10.5      1.367      2.241
REMARK SMILES N#Cc1ccc2c(c1)C=C(C(=O)OCCOCCOCCOC(=O)c1ccc(-c3c4nc(c(-c5c(F)cccc5F)c5ccc([nH]5)c(-c5c(F)cccc5F)c5nc(c(-c6c(F)cccc6F)c6ccc3[nH]6)C=C5)C=C4)cc1)[C@@H](C(F)(F)F)O2
REMARK SMILES IDX 18 1 17 2 16 3 15 4 14 5 13 6 11 7 12 8 10 9 3 10 4 11 8 12
REMARK SMILES IDX 5 13 7 14 6 15 9 16 84 17 79 18 2 19 1 20 80 21 81 22 82 23
REMARK SMILES IDX 83 24 19 25 20 26 21 27 22 28 23 29 24 30 25 31 26 32 78 33
REMARK SMILES IDX 27 34 77 35 28 36 29 37 30 38 71 39 31 40 76 41 70 42 72 43
REMARK SMILES IDX 32 44 75 45 69 46 68 47 33 49 59 50 42 51 58 52 43 53 46 54
REMARK SMILES IDX 57 55 73 56 44 57 45 58 56 60 74 61 47 62 34 63 35 64 40 65
REMARK SMILES IDX 36 66 37 67 39 68 41 69 38 70 60 71 61 72 66 73 62 74 63 75
REMARK SMILES IDX 65 76 67 77 64 78 48 79 49 80 54 81 50 82 51 83 53 84 55 85
REMARK SMILES IDX 52 86
REMARK H PARENT 72 48 46 59
REMARK Flexibility Score: inf
ROOT
ATOM      1  C   UNL A   1      31.831  29.302  24.950  1.00  0.00     0.188 C 
ENDROOT
BRANCH   1   2
ATOM      2  C   UNL A   1      30.867  28.273  24.324  1.00  0.00     0.188 C 
BRANCH   2   3
ATOM      3  O   UNL A   1      31.121  26.905  24.537  1.00  0.00    -0.376 OA
BRANCH   3   4
ATOM      4  C   UNL A   1      30.886  26.306  25.800  1.00  0.00     0.202 C 
BRANCH   4   5
ATOM      5  C   UNL A   1      31.686  25.132  26.401  1.00  0.00     0.261 C 
BRANCH   5   6
ATOM      6  O   UNL A   1      31.619  23.870  25.732  1.00  0.00    -0.460 OA
BRANCH   6   7
ATOM      7  C   UNL A   1      32.719  23.085  25.843  1.00  0.00     0.338 C 
ATOM      8  O   UNL A   1      33.641  23.229  26.626  1.00  0.00    -0.246 OA
BRANCH   7   9
ATOM      9  C   UNL A   1      32.559  21.892  24.982  1.00  0.00     0.087 C 
ATOM     10  C   UNL A   1      33.084  17.145  24.383  1.00  0.00     0.053 A 
ATOM     11  C   UNL A   1      32.833  17.301  23.016  1.00  0.00     0.023 A 
ATOM     12  C   UNL A   1      33.000  18.253  25.236  1.00  0.00     0.031 A 
ATOM     13  C   UNL A   1      32.475  18.552  22.509  1.00  0.00     0.048 A 
ATOM     14  C   UNL A   1      32.696  19.519  24.716  1.00  0.00     0.019 A 
ATOM     15  C   UNL A   1      32.408  19.658  23.358  1.00  0.00     0.128 A 
ATOM     16  C   UNL A   1      32.759  20.700  25.561  1.00  0.00     0.027 C 
ATOM     17  O   UNL A   1      32.062  20.841  22.772  1.00  0.00    -0.475 OA
ATOM     18  C   UNL A   1      32.172  22.072  23.538  1.00  0.00     0.316 C 
BRANCH  10  19
ATOM     19  C   UNL A   1      33.464  15.862  24.902  1.00  0.00     0.099 C 
ATOM     20  N   UNL A   1      33.773  14.832  25.329  1.00  0.00    -0.192 NA
ENDBRANCH  10  19
BRANCH  18  21
ATOM     21  C   UNL A   1      33.130  23.017  22.803  1.00  0.00     0.430 C 
ATOM     22  F   UNL A   1      33.132  22.781  21.470  1.00  0.00    -0.167 F 
ATOM     23  F   UNL A   1      32.780  24.314  22.970  1.00  0.00    -0.167 F 
ATOM     24  F   UNL A   1      34.403  22.881  23.243  1.00  0.00    -0.167 F 
ENDBRANCH  18  21
ENDBRANCH   7   9
ENDBRANCH   6   7
ENDBRANCH   5   6
ENDBRANCH   4   5
ENDBRANCH   3   4
ENDBRANCH   2   3
ENDBRANCH   1   2
BRANCH   1  25
ATOM     25  O   UNL A   1      31.317  30.547  25.362  1.00  0.00    -0.376 OA
BRANCH  25  26
ATOM     26  C   UNL A   1      31.800  31.144  26.556  1.00  0.00     0.202 C 
BRANCH  26  27
ATOM     27  C   UNL A   1      31.692  32.644  26.919  1.00  0.00     0.261 C 
BRANCH  27  28
ATOM     28  O   UNL A   1      32.881  33.443  26.884  1.00  0.00    -0.460 OA
BRANCH  28  29
ATOM     29  C   UNL A   1      33.235  34.051  28.047  1.00  0.00     0.338 C 
ATOM     30  O   UNL A   1      32.604  34.893  28.660  1.00  0.00    -0.246 OA
BRANCH  29  31
ATOM     31  C   UNL A   1      34.426  33.358  28.584  1.00  0.00     0.060 A 
ATOM     32  C   UNL A   1      35.697  33.886  28.369  1.00  0.00     0.016 A 
ATOM     33  C   UNL A   1      34.270  32.144  29.275  1.00  0.00     0.016 A 
ATOM     34  C   UNL A   1      36.813  33.204  28.859  1.00  0.00     0.010 A 
ATOM     35  C   UNL A   1      35.392  31.453  29.744  1.00  0.00     0.010 A 
ATOM     36  C   UNL A   1      36.673  31.990  29.559  1.00  0.00    -0.014 A 
BRANCH  36  37
ATOM     37  C   UNL A   1      37.859  31.389  30.223  1.00  0.00     0.031 A 
ATOM     38  C   UNL A   1      38.236  31.706  31.640  1.00  0.00     0.074 A 
ATOM     39  C   UNL A   1      38.597  30.512  29.515  1.00  0.00     0.049 A 
ATOM     40  N   UNL A   1      39.179  31.173  32.378  1.00  0.00    -0.248 NA
ATOM     41  C   UNL A   1      37.463  32.757  32.315  1.00  0.00     0.031 C 
ATOM     42  C   UNL A   1      38.351  30.146  28.118  1.00  0.00     0.029 A 
ATOM     43  N   UNL A   1      39.685  29.757  29.873  1.00  0.00    -0.354 N 
ATOM     44  C   UNL A   1      39.100  31.800  33.614  1.00  0.00     0.074 A 
ATOM     45  C   UNL A   1      38.051  32.796  33.505  1.00  0.00     0.031 C 
ATOM     46  C   UNL A   1      39.233  29.205  27.751  1.00  0.00     0.029 A 
ATOM     47  C   UNL A   1      40.132  28.932  28.869  1.00  0.00     0.049 A 
ATOM     48  H   UNL A   1      40.105  29.803  30.762  1.00  0.00     0.167 HD
ATOM     49  C   UNL A   1      39.818  31.552  34.739  1.00  0.00     0.037 A 
ATOM     50  C   UNL A   1      41.151  28.054  28.849  1.00  0.00     0.037 A 
ATOM     51  C   UNL A   1      40.884  30.583  34.832  1.00  0.00     0.049 A 
ATOM     52  C   UNL A   1      41.981  27.861  30.089  1.00  0.00     0.074 A 
ATOM     53  C   UNL A   1      41.653  30.248  35.936  1.00  0.00     0.029 A 
ATOM     54  N   UNL A   1      41.352  29.811  33.779  1.00  0.00    -0.354 N 
ATOM     55  N   UNL A   1      41.840  28.400  31.274  1.00  0.00    -0.248 NA
ATOM     56  C   UNL A   1      43.111  26.929  29.984  1.00  0.00     0.031 C 
ATOM     57  C   UNL A   1      42.626  29.327  35.534  1.00  0.00     0.029 A 
ATOM     58  C   UNL A   1      42.419  29.028  34.198  1.00  0.00     0.049 A 
ATOM     59  H   UNL A   1      40.981  29.816  32.867  1.00  0.00     0.167 HD
ATOM     60  C   UNL A   1      42.842  27.849  32.064  1.00  0.00     0.074 A 
ATOM     61  C   UNL A   1      43.565  26.914  31.228  1.00  0.00     0.031 C 
ATOM     62  C   UNL A   1      43.139  28.099  33.363  1.00  0.00     0.037 A 
BRANCH  49  63
ATOM     63  C   UNL A   1      39.483  32.353  35.968  1.00  0.00     0.057 A 
ATOM     64  C   UNL A   1      38.515  31.909  36.877  1.00  0.00     0.134 A 
ATOM     65  C   UNL A   1      40.087  33.591  36.227  1.00  0.00     0.134 A 
ATOM     66  F   UNL A   1      37.878  30.745  36.683  1.00  0.00    -0.206 F 
ATOM     67  C   UNL A   1      38.164  32.661  38.001  1.00  0.00     0.040 A 
ATOM     68  C   UNL A   1      39.769  34.337  37.364  1.00  0.00     0.040 A 
ATOM     69  F   UNL A   1      41.020  34.080  35.395  1.00  0.00    -0.206 F 
ATOM     70  C   UNL A   1      38.801  33.875  38.253  1.00  0.00     0.006 A 
ENDBRANCH  49  63
BRANCH  50  71
ATOM     71  C   UNL A   1      41.458  27.287  27.613  1.00  0.00     0.057 A 
ATOM     72  C   UNL A   1      42.278  27.819  26.611  1.00  0.00     0.134 A 
ATOM     73  C   UNL A   1      40.990  25.979  27.435  1.00  0.00     0.134 A 
ATOM     74  F   UNL A   1      42.750  29.071  26.714  1.00  0.00    -0.206 F 
ATOM     75  C   UNL A   1      42.627  27.079  25.482  1.00  0.00     0.040 A 
ATOM     76  C   UNL A   1      41.363  25.213  26.329  1.00  0.00     0.040 A 
ATOM     77  F   UNL A   1      40.213  25.406  28.367  1.00  0.00    -0.206 F 
ATOM     78  C   UNL A   1      42.185  25.766  25.348  1.00  0.00     0.006 A 
ENDBRANCH  50  71
BRANCH  62  79
ATOM     79  C   UNL A   1      44.272  27.315  33.970  1.00  0.00     0.057 A 
ATOM     80  C   UNL A   1      45.579  27.819  33.950  1.00  0.00     0.134 A 
ATOM     81  C   UNL A   1      44.076  26.066  34.577  1.00  0.00     0.134 A 
ATOM     82  F   UNL A   1      45.845  29.003  33.377  1.00  0.00    -0.206 F 
ATOM     83  C   UNL A   1      46.646  27.116  34.513  1.00  0.00     0.040 A 
ATOM     84  C   UNL A   1      45.128  25.371  35.178  1.00  0.00     0.040 A 
ATOM     85  F   UNL A   1      42.850  25.528  34.646  1.00  0.00    -0.206 F 
ATOM     86  C   UNL A   1      46.419  25.894  35.142  1.00  0.00     0.006 A 
ENDBRANCH  62  79
ENDBRANCH  36  37
ENDBRANCH  29  31
ENDBRANCH  28  29
ENDBRANCH  27  28
ENDBRANCH  26  27
ENDBRANCH  25  26
ENDBRANCH   1  25
TORSDOF 19
ENDMDL
MODEL 3
REMARK VINA RESULT:     -10.3      4.841      9.619
REMARK SMILES N#Cc1ccc2c(c1)C=C(C(=O)OCCOCCOCCOC(=O)c1ccc(-c3c4nc(c(-c5c(F)cccc5F)c5ccc([nH]5)c(-c5c(F)cccc5F)c5nc(c(-c6c(F)cccc6F)c6ccc3[nH]6)C=C5)C=C4)cc1)[C@@H](C(F)(F)F)O2
REMARK SMILES IDX 18 1 17 2 16 3 15 4 14 5 13 6 11 7 12 8 10 9 3 10 4 11 8 12
REMARK SMILES IDX 5 13 7 14 6 15 9 16 84 17 79 18 2 19 1 20 80 21 81 22 82 23
REMARK SMILES IDX 83 24 19 25 20 26 21 27 22 28 23 29 24 30 25 31 26 32 78 33
REMARK SMILES IDX 27 34 77 35 28 36 29 37 30 38 71 39 31 40 76 41 70 42 72 43
REMARK SMILES IDX 32 44 75 45 69 46 68 47 33 49 59 50 42 51 58 52 43 53 46 54
REMARK SMILES IDX 57 55 73 56 44 57 45 58 56 60 74 61 47 62 34 63 35 64 40 65
REMARK SMILES IDX 36 66 37 67 39 68 41 69 38 70 60 71 61 72 66 73 62 74 63 75
REMARK SMILES IDX 65 76 67 77 64 78 48 79 49 80 54 81 50 82 51 83 53 84 55 85
REMARK SMILES IDX 52 86
REMARK H PARENT 72 48 46 59
REMARK Flexibility Score: inf
ROOT
ATOM      1  C   UNL A   1      37.145  22.499  25.502  1.00  0.00     0.188 C 
ENDROOT
BRANCH   1   2
ATOM      2  C   UNL A   1      35.826  21.712  25.650  1.00  0.00     0.188 C 
BRANCH   2   3
ATOM      3  O   UNL A   1      35.218  21.661  26.919  1.00  0.00    -0.376 OA
BRANCH   3   4
ATOM      4  C   UNL A   1      34.204  22.583  27.280  1.00  0.00     0.202 C 
BRANCH   4   5
ATOM      5  C   UNL A   1      33.842  23.869  26.508  1.00  0.00     0.261 C 
BRANCH   5   6
ATOM      6  O   UNL A   1      33.396  23.729  25.156  1.00  0.00    -0.460 OA
BRANCH   6   7
ATOM      7  C   UNL A   1      32.124  23.288  24.996  1.00  0.00     0.338 C 
ATOM      8  O   UNL A   1      31.103  23.888  25.285  1.00  0.00    -0.246 OA
BRANCH   7   9
ATOM      9  C   UNL A   1      32.137  22.018  24.238  1.00  0.00     0.087 C 
ATOM     10  C   UNL A   1      33.000  17.283  24.148  1.00  0.00     0.053 A 
ATOM     11  C   UNL A   1      32.906  17.303  22.753  1.00  0.00     0.023 A 
ATOM     12  C   UNL A   1      32.751  18.452  24.878  1.00  0.00     0.031 A 
ATOM     13  C   UNL A   1      32.541  18.479  22.094  1.00  0.00     0.048 A 
ATOM     14  C   UNL A   1      32.440  19.645  24.212  1.00  0.00     0.019 A 
ATOM     15  C   UNL A   1      32.310  19.647  22.822  1.00  0.00     0.128 A 
ATOM     16  C   UNL A   1      32.334  20.896  24.944  1.00  0.00     0.027 C 
ATOM     17  O   UNL A   1      31.969  20.750  22.093  1.00  0.00    -0.475 OA
ATOM     18  C   UNL A   1      31.916  22.046  22.749  1.00  0.00     0.316 C 
BRANCH  10  19
ATOM     19  C   UNL A   1      33.388  16.078  24.824  1.00  0.00     0.099 C 
ATOM     20  N   UNL A   1      33.693  15.107  25.375  1.00  0.00    -0.192 NA
ENDBRANCH  10  19
BRANCH  18  21
ATOM     21  C   UNL A   1      32.900  22.987  22.043  1.00  0.00     0.430 C 
ATOM     22  F   UNL A   1      32.562  24.284  22.227  1.00  0.00    -0.167 F 
ATOM     23  F   UNL A   1      34.160  22.841  22.517  1.00  0.00    -0.167 F 
ATOM     24  F   UNL A   1      32.940  22.760  20.709  1.00  0.00    -0.167 F 
ENDBRANCH  18  21
ENDBRANCH   7   9
ENDBRANCH   6   7
ENDBRANCH   5   6
ENDBRANCH   4   5
ENDBRANCH   3   4
ENDBRANCH   2   3
ENDBRANCH   1   2
BRANCH   1  25
ATOM     25  O   UNL A   1      38.345  21.894  25.922  1.00  0.00    -0.376 OA
BRANCH  25  26
ATOM     26  C   UNL A   1      38.730  20.643  25.373  1.00  0.00     0.202 C 
BRANCH  26  27
ATOM     27  C   UNL A   1      39.562  19.560  26.098  1.00  0.00     0.261 C 
BRANCH  27  28
ATOM     28  O   UNL A   1      40.624  18.920  25.381  1.00  0.00    -0.460 OA
BRANCH  28  29
ATOM     29  C   UNL A   1      41.849  18.942  25.969  1.00  0.00     0.338 C 
ATOM     30  O   UNL A   1      42.662  18.036  26.014  1.00  0.00    -0.246 OA
BRANCH  29  31
ATOM     31  C   UNL A   1      42.145  20.336  26.364  1.00  0.00     0.060 A 
ATOM     32  C   UNL A   1      42.128  20.699  27.708  1.00  0.00     0.016 A 
ATOM     33  C   UNL A   1      42.402  21.299  25.372  1.00  0.00     0.016 A 
ATOM     34  C   UNL A   1      42.381  22.027  28.062  1.00  0.00     0.010 A 
ATOM     35  C   UNL A   1      42.633  22.631  25.730  1.00  0.00     0.010 A 
ATOM     36  C   UNL A   1      42.647  23.002  27.081  1.00  0.00    -0.014 A 
BRANCH  36  37
ATOM     37  C   UNL A   1      43.092  24.356  27.499  1.00  0.00     0.031 A 
ATOM     38  C   UNL A   1      44.532  24.774  27.475  1.00  0.00     0.074 A 
ATOM     39  C   UNL A   1      42.148  25.234  27.891  1.00  0.00     0.049 A 
ATOM     40  N   UNL A   1      45.049  25.956  27.708  1.00  0.00    -0.248 NA
ATOM     41  C   UNL A   1      45.521  23.737  27.153  1.00  0.00     0.031 C 
ATOM     42  C   UNL A   1      40.717  24.937  27.989  1.00  0.00     0.029 A 
ATOM     43  N   UNL A   1      42.243  26.552  28.260  1.00  0.00    -0.354 N 
ATOM     44  C   UNL A   1      46.420  25.817  27.536  1.00  0.00     0.074 A 
ATOM     45  C   UNL A   1      46.658  24.418  27.235  1.00  0.00     0.031 C 
ATOM     46  C   UNL A   1      40.063  26.051  28.348  1.00  0.00     0.029 A 
ATOM     47  C   UNL A   1      41.029  27.128  28.546  1.00  0.00     0.049 A 
ATOM     48  H   UNL A   1      43.097  27.037  28.313  1.00  0.00     0.167 HD
ATOM     49  C   UNL A   1      47.384  26.769  27.601  1.00  0.00     0.037 A 
ATOM     50  C   UNL A   1      40.725  28.382  28.926  1.00  0.00     0.037 A 
ATOM     51  C   UNL A   1      47.146  28.154  27.935  1.00  0.00     0.049 A 
ATOM     52  C   UNL A   1      41.828  29.395  29.068  1.00  0.00     0.074 A 
ATOM     53  C   UNL A   1      48.058  29.195  28.004  1.00  0.00     0.029 A 
ATOM     54  N   UNL A   1      45.914  28.688  28.282  1.00  0.00    -0.354 N 
ATOM     55  N   UNL A   1      43.108  29.270  28.821  1.00  0.00    -0.248 NA
ATOM     56  C   UNL A   1      41.436  30.730  29.540  1.00  0.00     0.031 C 
ATOM     57  C   UNL A   1      47.391  30.339  28.457  1.00  0.00     0.029 A 
ATOM     58  C   UNL A   1      46.048  30.033  28.598  1.00  0.00     0.049 A 
ATOM     59  H   UNL A   1      45.066  28.187  28.300  1.00  0.00     0.167 HD
ATOM     60  C   UNL A   1      43.669  30.516  29.076  1.00  0.00     0.074 A 
ATOM     61  C   UNL A   1      42.583  31.389  29.469  1.00  0.00     0.031 C 
ATOM     62  C   UNL A   1      44.966  30.900  28.993  1.00  0.00     0.037 A 
BRANCH  49  63
ATOM     63  C   UNL A   1      48.799  26.346  27.314  1.00  0.00     0.057 A 
ATOM     64  C   UNL A   1      49.666  25.976  28.351  1.00  0.00     0.134 A 
ATOM     65  C   UNL A   1      49.321  26.350  26.013  1.00  0.00     0.134 A 
ATOM     66  F   UNL A   1      49.244  25.970  29.624  1.00  0.00    -0.206 F 
ATOM     67  C   UNL A   1      50.994  25.620  28.104  1.00  0.00     0.040 A 
ATOM     68  C   UNL A   1      50.636  25.964  25.750  1.00  0.00     0.040 A 
ATOM     69  F   UNL A   1      48.548  26.698  24.972  1.00  0.00    -0.206 F 
ATOM     70  C   UNL A   1      51.479  25.602  26.798  1.00  0.00     0.006 A 
ENDBRANCH  49  63
BRANCH  50  71
ATOM     71  C   UNL A   1      39.316  28.762  29.210  1.00  0.00     0.057 A 
ATOM     72  C   UNL A   1      38.745  28.551  30.471  1.00  0.00     0.134 A 
ATOM     73  C   UNL A   1      38.528  29.400  28.245  1.00  0.00     0.134 A 
ATOM     74  F   UNL A   1      39.442  27.934  31.437  1.00  0.00    -0.206 F 
ATOM     75  C   UNL A   1      37.448  28.968  30.765  1.00  0.00     0.040 A 
ATOM     76  C   UNL A   1      37.242  29.857  28.537  1.00  0.00     0.040 A 
ATOM     77  F   UNL A   1      39.022  29.645  27.022  1.00  0.00    -0.206 F 
ATOM     78  C   UNL A   1      36.699  29.640  29.802  1.00  0.00     0.006 A 
ENDBRANCH  50  71
BRANCH  62  79
ATOM     79  C   UNL A   1      45.274  32.342  29.298  1.00  0.00     0.057 A 
ATOM     80  C   UNL A   1      45.196  33.315  28.293  1.00  0.00     0.134 A 
ATOM     81  C   UNL A   1      45.644  32.773  30.580  1.00  0.00     0.134 A 
ATOM     82  F   UNL A   1      44.859  32.976  27.039  1.00  0.00    -0.206 F 
ATOM     83  C   UNL A   1      45.469  34.660  28.551  1.00  0.00     0.040 A 
ATOM     84  C   UNL A   1      45.882  34.120  30.859  1.00  0.00     0.040 A 
ATOM     85  F   UNL A   1      45.727  31.899  31.594  1.00  0.00    -0.206 F 
ATOM     86  C   UNL A   1      45.799  35.068  29.841  1.00  0.00     0.006 A 
ENDBRANCH  62  79
ENDBRANCH  36  37
ENDBRANCH  29  31
ENDBRANCH  28  29
ENDBRANCH  27  28
ENDBRANCH  26  27
ENDBRANCH  25  26
ENDBRANCH   1  25
TORSDOF 19
ENDMDL
