MODEL 1
REMARK VINA RESULT:     -10.0      0.000      0.000
REMARK SMILES COc1cccc(-c2ccc(=O)n(CC(=O)N[C@@H](C(=O)OCCOCCOCCOC(=O)c3ccc(-c4c5nc(c(-c6c(F)cccc6F)c6ccc([nH]6)c(-c6c(F)cccc6F)c6nc(c(-c7c(F)cccc7F)c7ccc4[nH]7)C=C6)C=C5)cc3)C(C)C)n2)c1
REMARK SMILES IDX 24 1 23 2 22 3 21 4 19 5 20 6 18 7 17 8 15 9 16 10 14 12
REMARK SMILES IDX 13 13 8 14 9 15 90 16 10 17 11 18 12 19 7 20 3 21 4 22 91 23
REMARK SMILES IDX 5 24 6 25 2 26 1 27 87 28 88 29 89 30 25 31 26 32 27 33
REMARK SMILES IDX 28 34 29 35 30 36 31 37 32 38 33 39 34 40 86 41 35 42 85 43
REMARK SMILES IDX 36 44 37 45 38 46 79 47 39 48 84 49 78 50 80 51 40 52 83 53
REMARK SMILES IDX 77 54 76 55 41 57 67 58 50 59 66 60 51 61 54 62 65 63 81 64
REMARK SMILES IDX 52 65 53 66 64 68 82 69 55 70 42 71 43 72 48 73 44 74 45 75
REMARK SMILES IDX 47 76 49 77 46 78 68 79 69 80 74 81 70 82 71 83 73 84 75 85
REMARK SMILES IDX 72 86 56 87 57 88 62 89 58 90 59 91 61 92 63 93 60 94
REMARK H PARENT 17 11 80 56 54 67
REMARK Flexibility Score: inf
ROOT
ATOM      1  O   UNL A   1      33.079  30.412  27.286  1.00  0.00    -0.376 OA
ENDROOT
BRANCH   1   2
ATOM      2  C   UNL A   1      32.095  30.813  26.346  1.00  0.00     0.202 C 
BRANCH   2   3
ATOM      3  C   UNL A   1      31.511  29.770  25.377  1.00  0.00     0.261 C 
BRANCH   3   4
ATOM      4  O   UNL A   1      31.360  28.413  25.858  1.00  0.00    -0.462 OA
BRANCH   4   5
ATOM      5  C   UNL A   1      31.066  27.464  24.926  1.00  0.00     0.328 C 
ATOM      6  O   UNL A   1      30.325  27.691  23.973  1.00  0.00    -0.250 OA
BRANCH   5   7
ATOM      7  C   UNL A   1      31.782  26.085  25.119  1.00  0.00     0.194 C 
BRANCH   7   8
ATOM      8  N   UNL A   1      31.562  25.362  26.389  1.00  0.00    -0.341 N 
ATOM      9  C   UNL A   1      31.355  24.037  26.638  1.00  0.00     0.242 C 
ATOM     10  O   UNL A   1      31.618  23.646  27.781  1.00  0.00    -0.273 OA
ATOM     11  H   UNL A   1      31.565  25.933  27.191  1.00  0.00     0.164 HD
BRANCH   9  12
ATOM     12  C   UNL A   1      31.002  23.057  25.528  1.00  0.00     0.248 C 
BRANCH  12  13
ATOM     13  N   UNL A   1      32.097  22.952  24.580  1.00  0.00    -0.220 N 
ATOM     14  C   UNL A   1      34.340  22.661  24.268  1.00  0.00     0.091 A 
ATOM     15  C   UNL A   1      34.242  22.950  22.826  1.00  0.00     0.036 A 
ATOM     16  N   UNL A   1      33.336  22.644  25.087  1.00  0.00    -0.169 NA
ATOM     17  C   UNL A   1      33.016  23.170  22.344  1.00  0.00     0.075 A 
ATOM     18  C   UNL A   1      31.836  23.155  23.232  1.00  0.00     0.267 A 
ATOM     19  O   UNL A   1      30.724  23.350  22.750  1.00  0.00    -0.268 OA
BRANCH  14  20
ATOM     20  C   UNL A   1      35.689  22.380  24.803  1.00  0.00     0.006 A 
ATOM     21  C   UNL A   1      37.685  23.215  25.858  1.00  0.00     0.119 A 
ATOM     22  C   UNL A   1      38.315  21.991  25.630  1.00  0.00     0.046 A 
ATOM     23  C   UNL A   1      36.387  23.428  25.402  1.00  0.00     0.056 A 
ATOM     24  C   UNL A   1      37.623  20.948  25.017  1.00  0.00     0.005 A 
ATOM     25  C   UNL A   1      36.297  21.134  24.631  1.00  0.00     0.011 A 
BRANCH  21  26
ATOM     26  O   UNL A   1      38.423  24.172  26.497  1.00  0.00    -0.497 OA
ATOM     27  C   UNL A   1      39.504  23.627  27.255  1.00  0.00     0.278 C 
ENDBRANCH  21  26
ENDBRANCH  14  20
ENDBRANCH  12  13
ENDBRANCH   9  12
ENDBRANCH   7   8
BRANCH   7  28
ATOM     28  C   UNL A   1      33.327  26.231  24.918  1.00  0.00     0.017 C 
ATOM     29  C   UNL A   1      33.643  26.917  23.578  1.00  0.00     0.010 C 
ATOM     30  C   UNL A   1      34.025  27.015  26.035  1.00  0.00     0.010 C 
ENDBRANCH   7  28
ENDBRANCH   5   7
ENDBRANCH   4   5
ENDBRANCH   3   4
ENDBRANCH   2   3
ENDBRANCH   1   2
BRANCH   1  31
ATOM     31  C   UNL A   1      34.115  31.322  27.634  1.00  0.00     0.188 C 
BRANCH  31  32
ATOM     32  C   UNL A   1      35.433  30.788  28.229  1.00  0.00     0.188 C 
BRANCH  32  33
ATOM     33  O   UNL A   1      36.127  31.716  29.026  1.00  0.00    -0.376 OA
BRANCH  33  34
ATOM     34  C   UNL A   1      35.581  32.044  30.287  1.00  0.00     0.202 C 
BRANCH  34  35
ATOM     35  C   UNL A   1      35.892  31.137  31.491  1.00  0.00     0.261 C 
BRANCH  35  36
ATOM     36  O   UNL A   1      36.341  29.799  31.205  1.00  0.00    -0.460 OA
BRANCH  36  37
ATOM     37  C   UNL A   1      37.266  29.257  32.027  1.00  0.00     0.338 C 
ATOM     38  O   UNL A   1      37.058  28.651  33.068  1.00  0.00    -0.246 OA
BRANCH  37  39
ATOM     39  C   UNL A   1      38.577  29.314  31.338  1.00  0.00     0.060 A 
ATOM     40  C   UNL A   1      38.618  29.539  29.952  1.00  0.00     0.016 A 
ATOM     41  C   UNL A   1      39.763  29.161  32.057  1.00  0.00     0.016 A 
ATOM     42  C   UNL A   1      39.844  29.588  29.280  1.00  0.00     0.010 A 
ATOM     43  C   UNL A   1      40.986  29.178  31.379  1.00  0.00     0.010 A 
ATOM     44  C   UNL A   1      41.032  29.360  29.984  1.00  0.00    -0.014 A 
BRANCH  44  45
ATOM     45  C   UNL A   1      42.295  29.085  29.252  1.00  0.00     0.031 A 
ATOM     46  C   UNL A   1      42.502  27.701  28.699  1.00  0.00     0.074 A 
ATOM     47  C   UNL A   1      43.243  30.023  29.083  1.00  0.00     0.049 A 
ATOM     48  N   UNL A   1      43.557  27.177  28.130  1.00  0.00    -0.248 NA
ATOM     49  C   UNL A   1      41.359  26.780  28.811  1.00  0.00     0.031 C 
ATOM     50  C   UNL A   1      43.150  31.415  29.516  1.00  0.00     0.029 A 
ATOM     51  N   UNL A   1      44.488  29.931  28.508  1.00  0.00    -0.354 N 
ATOM     52  C   UNL A   1      43.210  25.866  27.830  1.00  0.00     0.074 A 
ATOM     53  C   UNL A   1      41.859  25.664  28.304  1.00  0.00     0.031 C 
ATOM     54  C   UNL A   1      44.300  32.043  29.213  1.00  0.00     0.029 A 
ATOM     55  C   UNL A   1      45.225  31.087  28.603  1.00  0.00     0.049 A 
ATOM     56  H   UNL A   1      44.822  29.114  28.073  1.00  0.00     0.167 HD
ATOM     57  C   UNL A   1      43.949  24.914  27.212  1.00  0.00     0.037 A 
ATOM     58  C   UNL A   1      46.507  31.333  28.264  1.00  0.00     0.037 A 
ATOM     59  C   UNL A   1      45.296  25.111  26.745  1.00  0.00     0.049 A 
ATOM     60  C   UNL A   1      47.343  30.230  27.661  1.00  0.00     0.074 A 
ATOM     61  C   UNL A   1      46.124  24.211  26.099  1.00  0.00     0.029 A 
ATOM     62  N   UNL A   1      46.014  26.289  26.883  1.00  0.00    -0.354 N 
ATOM     63  N   UNL A   1      47.005  28.997  27.370  1.00  0.00    -0.248 NA
ATOM     64  C   UNL A   1      48.741  30.557  27.339  1.00  0.00     0.031 C 
ATOM     65  C   UNL A   1      47.365  24.824  25.900  1.00  0.00     0.029 A 
ATOM     66  C   UNL A   1      47.286  26.129  26.360  1.00  0.00     0.049 A 
ATOM     67  H   UNL A   1      45.671  27.116  27.294  1.00  0.00     0.167 HD
ATOM     68  C   UNL A   1      48.132  28.416  26.797  1.00  0.00     0.074 A 
ATOM     69  C   UNL A   1      49.161  29.433  26.774  1.00  0.00     0.031 C 
ATOM     70  C   UNL A   1      48.298  27.155  26.326  1.00  0.00     0.037 A 
BRANCH  57  71
ATOM     71  C   UNL A   1      43.325  23.559  27.039  1.00  0.00     0.057 A 
ATOM     72  C   UNL A   1      42.920  23.081  25.786  1.00  0.00     0.134 A 
ATOM     73  C   UNL A   1      43.152  22.711  28.140  1.00  0.00     0.134 A 
ATOM     74  F   UNL A   1      43.043  23.849  24.693  1.00  0.00    -0.206 F 
ATOM     75  C   UNL A   1      42.343  21.819  25.638  1.00  0.00     0.040 A 
ATOM     76  C   UNL A   1      42.604  21.434  28.000  1.00  0.00     0.040 A 
ATOM     77  F   UNL A   1      43.520  23.104  29.368  1.00  0.00    -0.206 F 
ATOM     78  C   UNL A   1      42.191  20.989  26.747  1.00  0.00     0.006 A 
ENDBRANCH  57  71
BRANCH  58  79
ATOM     79  C   UNL A   1      47.103  32.674  28.506  1.00  0.00     0.057 A 
ATOM     80  C   UNL A   1      47.685  32.999  29.739  1.00  0.00     0.134 A 
ATOM     81  C   UNL A   1      47.066  33.677  27.530  1.00  0.00     0.134 A 
ATOM     82  F   UNL A   1      47.725  32.092  30.725  1.00  0.00    -0.206 F 
ATOM     83  C   UNL A   1      48.187  34.276  29.998  1.00  0.00     0.040 A 
ATOM     84  C   UNL A   1      47.589  34.949  27.765  1.00  0.00     0.040 A 
ATOM     85  F   UNL A   1      46.518  33.434  26.330  1.00  0.00    -0.206 F 
ATOM     86  C   UNL A   1      48.145  35.254  29.006  1.00  0.00     0.006 A 
ENDBRANCH  58  79
BRANCH  70  87
ATOM     87  C   UNL A   1      49.617  26.813  25.691  1.00  0.00     0.057 A 
ATOM     88  C   UNL A   1      50.646  26.179  26.399  1.00  0.00     0.134 A 
ATOM     89  C   UNL A   1      49.839  27.077  24.332  1.00  0.00     0.134 A 
ATOM     90  F   UNL A   1      50.506  25.905  27.704  1.00  0.00    -0.206 F 
ATOM     91  C   UNL A   1      51.855  25.843  25.785  1.00  0.00     0.040 A 
ATOM     92  C   UNL A   1      51.029  26.717  23.699  1.00  0.00     0.040 A 
ATOM     93  F   UNL A   1      48.891  27.671  23.590  1.00  0.00    -0.206 F 
ATOM     94  C   UNL A   1      52.045  26.105  24.428  1.00  0.00     0.006 A 
ENDBRANCH  70  87
ENDBRANCH  44  45
ENDBRANCH  37  39
ENDBRANCH  36  37
ENDBRANCH  35  36
ENDBRANCH  34  35
ENDBRANCH  33  34
ENDBRANCH  32  33
ENDBRANCH  31  32
ENDBRANCH   1  31
TORSDOF 23
ENDMDL
MODEL 2
REMARK VINA RESULT:      -9.9      5.702      9.481
REMARK SMILES COc1cccc(-c2ccc(=O)n(CC(=O)N[C@@H](C(=O)OCCOCCOCCOC(=O)c3ccc(-c4c5nc(c(-c6c(F)cccc6F)c6ccc([nH]6)c(-c6c(F)cccc6F)c6nc(c(-c7c(F)cccc7F)c7ccc4[nH]7)C=C6)C=C5)cc3)C(C)C)n2)c1
REMARK SMILES IDX 24 1 23 2 22 3 21 4 19 5 20 6 18 7 17 8 15 9 16 10 14 12
REMARK SMILES IDX 13 13 8 14 9 15 90 16 10 17 11 18 12 19 7 20 3 21 4 22 91 23
REMARK SMILES IDX 5 24 6 25 2 26 1 27 87 28 88 29 89 30 25 31 26 32 27 33
REMARK SMILES IDX 28 34 29 35 30 36 31 37 32 38 33 39 34 40 86 41 35 42 85 43
REMARK SMILES IDX 36 44 37 45 38 46 79 47 39 48 84 49 78 50 80 51 40 52 83 53
REMARK SMILES IDX 77 54 76 55 41 57 67 58 50 59 66 60 51 61 54 62 65 63 81 64
REMARK SMILES IDX 52 65 53 66 64 68 82 69 55 70 42 71 43 72 48 73 44 74 45 75
REMARK SMILES IDX 47 76 49 77 46 78 68 79 69 80 74 81 70 82 71 83 73 84 75 85
REMARK SMILES IDX 72 86 56 87 57 88 62 89 58 90 59 91 61 92 63 93 60 94
REMARK H PARENT 17 11 80 56 54 67
REMARK Flexibility Score: inf
ROOT
ATOM      1  O   UNL A   1      32.925  31.652  27.711  1.00  0.00    -0.376 OA
ENDROOT
BRANCH   1   2
ATOM      2  C   UNL A   1      32.109  31.858  26.568  1.00  0.00     0.202 C 
BRANCH   2   3
ATOM      3  C   UNL A   1      31.384  30.658  25.935  1.00  0.00     0.261 C 
BRANCH   3   4
ATOM      4  O   UNL A   1      31.818  29.330  26.317  1.00  0.00    -0.462 OA
BRANCH   4   5
ATOM      5  C   UNL A   1      32.440  28.591  25.356  1.00  0.00     0.328 C 
ATOM      6  O   UNL A   1      33.650  28.661  25.158  1.00  0.00    -0.250 OA
BRANCH   5   7
ATOM      7  C   UNL A   1      31.519  27.604  24.563  1.00  0.00     0.194 C 
BRANCH   7   8
ATOM      8  N   UNL A   1      32.163  26.650  23.635  1.00  0.00    -0.341 N 
ATOM      9  C   UNL A   1      31.869  25.351  23.344  1.00  0.00     0.242 C 
ATOM     10  O   UNL A   1      32.277  24.925  22.258  1.00  0.00    -0.273 OA
ATOM     11  H   UNL A   1      32.934  27.015  23.143  1.00  0.00     0.164 HD
BRANCH   9  12
ATOM     12  C   UNL A   1      30.933  24.525  24.216  1.00  0.00     0.248 C 
BRANCH  12  13
ATOM     13  N   UNL A   1      31.694  23.764  25.192  1.00  0.00    -0.220 N 
ATOM     14  C   UNL A   1      32.868  21.857  25.642  1.00  0.00     0.091 A 
ATOM     15  C   UNL A   1      32.975  22.187  27.076  1.00  0.00     0.036 A 
ATOM     16  N   UNL A   1      32.284  22.602  24.757  1.00  0.00    -0.169 NA
ATOM     17  C   UNL A   1      32.461  23.358  27.458  1.00  0.00     0.075 A 
ATOM     18  C   UNL A   1      31.791  24.249  26.488  1.00  0.00     0.267 A 
ATOM     19  O   UNL A   1      31.342  25.323  26.875  1.00  0.00    -0.268 OA
BRANCH  14  20
ATOM     20  C   UNL A   1      33.466  20.579  25.203  1.00  0.00     0.006 A 
ATOM     21  C   UNL A   1      33.204  18.214  24.849  1.00  0.00     0.119 A 
ATOM     22  C   UNL A   1      34.574  18.099  24.609  1.00  0.00     0.046 A 
ATOM     23  C   UNL A   1      32.655  19.446  25.195  1.00  0.00     0.056 A 
ATOM     24  C   UNL A   1      35.387  19.230  24.633  1.00  0.00     0.005 A 
ATOM     25  C   UNL A   1      34.827  20.478  24.900  1.00  0.00     0.011 A 
BRANCH  21  26
ATOM     26  O   UNL A   1      32.472  17.061  24.771  1.00  0.00    -0.497 OA
ATOM     27  C   UNL A   1      33.242  15.893  25.055  1.00  0.00     0.278 C 
ENDBRANCH  21  26
ENDBRANCH  14  20
ENDBRANCH  12  13
ENDBRANCH   9  12
ENDBRANCH   7   8
BRANCH   7  28
ATOM     28  C   UNL A   1      30.431  28.388  23.756  1.00  0.00     0.017 C 
ATOM     29  C   UNL A   1      30.983  28.847  22.396  1.00  0.00     0.010 C 
ATOM     30  C   UNL A   1      29.148  27.587  23.507  1.00  0.00     0.010 C 
ENDBRANCH   7  28
ENDBRANCH   5   7
ENDBRANCH   4   5
ENDBRANCH   3   4
ENDBRANCH   2   3
ENDBRANCH   1   2
BRANCH   1  31
ATOM     31  C   UNL A   1      34.121  32.408  27.853  1.00  0.00     0.188 C 
BRANCH  31  32
ATOM     32  C   UNL A   1      34.458  33.057  29.209  1.00  0.00     0.188 C 
BRANCH  32  33
ATOM     33  O   UNL A   1      34.815  34.415  29.130  1.00  0.00    -0.376 OA
BRANCH  33  34
ATOM     34  C   UNL A   1      33.872  35.317  28.588  1.00  0.00     0.202 C 
BRANCH  34  35
ATOM     35  C   UNL A   1      32.905  36.044  29.540  1.00  0.00     0.261 C 
BRANCH  35  36
ATOM     36  O   UNL A   1      32.358  35.277  30.629  1.00  0.00    -0.460 OA
BRANCH  36  37
ATOM     37  C   UNL A   1      32.541  35.748  31.883  1.00  0.00     0.338 C 
ATOM     38  O   UNL A   1      31.787  36.478  32.510  1.00  0.00    -0.246 OA
BRANCH  37  39
ATOM     39  C   UNL A   1      33.702  35.039  32.471  1.00  0.00     0.060 A 
ATOM     40  C   UNL A   1      34.977  35.624  32.393  1.00  0.00     0.016 A 
ATOM     41  C   UNL A   1      33.533  33.812  33.111  1.00  0.00     0.016 A 
ATOM     42  C   UNL A   1      36.089  34.969  32.933  1.00  0.00     0.010 A 
ATOM     43  C   UNL A   1      34.650  33.143  33.623  1.00  0.00     0.010 A 
ATOM     44  C   UNL A   1      35.937  33.702  33.509  1.00  0.00    -0.014 A 
BRANCH  44  45
ATOM     45  C   UNL A   1      37.128  32.859  33.789  1.00  0.00     0.031 A 
ATOM     46  C   UNL A   1      37.906  33.136  35.047  1.00  0.00     0.074 A 
ATOM     47  C   UNL A   1      37.524  31.880  32.957  1.00  0.00     0.049 A 
ATOM     48  N   UNL A   1      39.039  32.626  35.457  1.00  0.00    -0.248 NA
ATOM     49  C   UNL A   1      37.325  34.130  35.964  1.00  0.00     0.031 C 
ATOM     50  C   UNL A   1      36.834  31.470  31.737  1.00  0.00     0.029 A 
ATOM     51  N   UNL A   1      38.627  31.062  33.013  1.00  0.00    -0.354 N 
ATOM     52  C   UNL A   1      39.313  33.247  36.670  1.00  0.00     0.074 A 
ATOM     53  C   UNL A   1      38.244  34.189  36.916  1.00  0.00     0.031 C 
ATOM     54  C   UNL A   1      37.542  30.491  31.145  1.00  0.00     0.029 A 
ATOM     55  C   UNL A   1      38.755  30.236  31.922  1.00  0.00     0.049 A 
ATOM     56  H   UNL A   1      39.266  31.068  33.761  1.00  0.00     0.167 HD
ATOM     57  C   UNL A   1      40.359  33.048  37.507  1.00  0.00     0.037 A 
ATOM     58  C   UNL A   1      39.752  29.396  31.578  1.00  0.00     0.037 A 
ATOM     59  C   UNL A   1      41.426  32.116  37.260  1.00  0.00     0.049 A 
ATOM     60  C   UNL A   1      40.955  29.258  32.481  1.00  0.00     0.074 A 
ATOM     61  C   UNL A   1      42.526  31.836  38.052  1.00  0.00     0.029 A 
ATOM     62  N   UNL A   1      41.532  31.317  36.132  1.00  0.00    -0.354 N 
ATOM     63  N   UNL A   1      41.201  29.838  33.630  1.00  0.00    -0.248 NA
ATOM     64  C   UNL A   1      42.019  28.345  32.035  1.00  0.00     0.031 C 
ATOM     65  C   UNL A   1      43.328  30.913  37.375  1.00  0.00     0.029 A 
ATOM     66  C   UNL A   1      42.693  30.565  36.194  1.00  0.00     0.049 A 
ATOM     67  H   UNL A   1      40.878  31.289  35.396  1.00  0.00     0.167 HD
ATOM     68  C   UNL A   1      42.423  29.334  34.061  1.00  0.00     0.074 A 
ATOM     69  C   UNL A   1      42.866  28.394  33.054  1.00  0.00     0.031 C 
ATOM     70  C   UNL A   1      43.115  29.618  35.193  1.00  0.00     0.037 A 
BRANCH  57  71
ATOM     71  C   UNL A   1      40.416  33.886  38.751  1.00  0.00     0.057 A 
ATOM     72  C   UNL A   1      41.115  35.099  38.800  1.00  0.00     0.134 A 
ATOM     73  C   UNL A   1      39.739  33.484  39.910  1.00  0.00     0.134 A 
ATOM     74  F   UNL A   1      41.797  35.534  37.730  1.00  0.00    -0.206 F 
ATOM     75  C   UNL A   1      41.160  35.870  39.963  1.00  0.00     0.040 A 
ATOM     76  C   UNL A   1      39.751  34.261  41.070  1.00  0.00     0.040 A 
ATOM     77  F   UNL A   1      39.048  32.335  39.933  1.00  0.00    -0.206 F 
ATOM     78  C   UNL A   1      40.469  35.454  41.100  1.00  0.00     0.006 A 
ENDBRANCH  57  71
BRANCH  58  79
ATOM     79  C   UNL A   1      39.682  28.628  30.307  1.00  0.00     0.057 A 
ATOM     80  C   UNL A   1      39.073  27.367  30.252  1.00  0.00     0.134 A 
ATOM     81  C   UNL A   1      40.259  29.114  29.127  1.00  0.00     0.134 A 
ATOM     82  F   UNL A   1      38.528  26.834  31.354  1.00  0.00    -0.206 F 
ATOM     83  C   UNL A   1      39.060  26.610  29.078  1.00  0.00     0.040 A 
ATOM     84  C   UNL A   1      40.229  28.380  27.940  1.00  0.00     0.040 A 
ATOM     85  F   UNL A   1      40.862  30.311  29.111  1.00  0.00    -0.206 F 
ATOM     86  C   UNL A   1      39.635  27.120  27.916  1.00  0.00     0.006 A 
ENDBRANCH  58  79
BRANCH  70  87
ATOM     87  C   UNL A   1      44.394  28.866  35.439  1.00  0.00     0.057 A 
ATOM     88  C   UNL A   1      45.639  29.352  35.022  1.00  0.00     0.134 A 
ATOM     89  C   UNL A   1      44.380  27.659  36.153  1.00  0.00     0.134 A 
ATOM     90  F   UNL A   1      45.726  30.496  34.327  1.00  0.00    -0.206 F 
ATOM     91  C   UNL A   1      46.820  28.654  35.285  1.00  0.00     0.040 A 
ATOM     92  C   UNL A   1      45.555  26.969  36.449  1.00  0.00     0.040 A 
ATOM     93  F   UNL A   1      43.223  27.142  36.593  1.00  0.00    -0.206 F 
ATOM     94  C   UNL A   1      46.780  27.462  36.008  1.00  0.00     0.006 A 
ENDBRANCH  70  87
ENDBRANCH  44  45
ENDBRANCH  37  39
ENDBRANCH  36  37
ENDBRANCH  35  36
ENDBRANCH  34  35
ENDBRANCH  33  34
ENDBRANCH  32  33
ENDBRANCH  31  32
ENDBRANCH   1  31
TORSDOF 23
ENDMDL
MODEL 3
REMARK VINA RESULT:      -9.6      2.178      7.313
REMARK SMILES COc1cccc(-c2ccc(=O)n(CC(=O)N[C@@H](C(=O)OCCOCCOCCOC(=O)c3ccc(-c4c5nc(c(-c6c(F)cccc6F)c6ccc([nH]6)c(-c6c(F)cccc6F)c6nc(c(-c7c(F)cccc7F)c7ccc4[nH]7)C=C6)C=C5)cc3)C(C)C)n2)c1
REMARK SMILES IDX 24 1 23 2 22 3 21 4 19 5 20 6 18 7 17 8 15 9 16 10 14 12
REMARK SMILES IDX 13 13 8 14 9 15 90 16 10 17 11 18 12 19 7 20 3 21 4 22 91 23
REMARK SMILES IDX 5 24 6 25 2 26 1 27 87 28 88 29 89 30 25 31 26 32 27 33
REMARK SMILES IDX 28 34 29 35 30 36 31 37 32 38 33 39 34 40 86 41 35 42 85 43
REMARK SMILES IDX 36 44 37 45 38 46 79 47 39 48 84 49 78 50 80 51 40 52 83 53
REMARK SMILES IDX 77 54 76 55 41 57 67 58 50 59 66 60 51 61 54 62 65 63 81 64
REMARK SMILES IDX 52 65 53 66 64 68 82 69 55 70 42 71 43 72 48 73 44 74 45 75
REMARK SMILES IDX 47 76 49 77 46 78 68 79 69 80 74 81 70 82 71 83 73 84 75 85
REMARK SMILES IDX 72 86 56 87 57 88 62 89 58 90 59 91 61 92 63 93 60 94
REMARK H PARENT 17 11 80 56 54 67
REMARK Flexibility Score: inf
ROOT
ATOM      1  O   UNL A   1      33.264  30.094  27.369  1.00  0.00    -0.376 OA
ENDROOT
BRANCH   1   2
ATOM      2  C   UNL A   1      32.026  29.503  27.008  1.00  0.00     0.202 C 
BRANCH   2   3
ATOM      3  C   UNL A   1      31.588  28.196  27.693  1.00  0.00     0.261 C 
BRANCH   3   4
ATOM      4  O   UNL A   1      31.100  27.125  26.851  1.00  0.00    -0.462 OA
BRANCH   4   5
ATOM      5  C   UNL A   1      32.038  26.303  26.302  1.00  0.00     0.328 C 
ATOM      6  O   UNL A   1      32.989  26.737  25.657  1.00  0.00    -0.250 OA
BRANCH   5   7
ATOM      7  C   UNL A   1      31.855  24.777  26.599  1.00  0.00     0.194 C 
BRANCH   7   8
ATOM      8  N   UNL A   1      32.855  23.839  26.045  1.00  0.00    -0.341 N 
ATOM      9  C   UNL A   1      33.050  23.391  24.772  1.00  0.00     0.242 C 
ATOM     10  O   UNL A   1      34.178  22.962  24.508  1.00  0.00    -0.273 OA
ATOM     11  H   UNL A   1      33.487  23.477  26.707  1.00  0.00     0.164 HD
BRANCH   9  12
ATOM     12  C   UNL A   1      32.000  23.579  23.685  1.00  0.00     0.248 C 
BRANCH  12  13
ATOM     13  N   UNL A   1      32.110  24.905  23.101  1.00  0.00    -0.220 N 
ATOM     14  C   UNL A   1      31.074  26.887  22.639  1.00  0.00     0.091 A 
ATOM     15  C   UNL A   1      32.207  27.361  21.823  1.00  0.00     0.036 A 
ATOM     16  N   UNL A   1      31.034  25.746  23.251  1.00  0.00    -0.169 NA
ATOM     17  C   UNL A   1      33.271  26.558  21.757  1.00  0.00     0.075 A 
ATOM     18  C   UNL A   1      33.281  25.249  22.442  1.00  0.00     0.267 A 
ATOM     19  O   UNL A   1      34.283  24.544  22.368  1.00  0.00    -0.268 OA
BRANCH  14  20
ATOM     20  C   UNL A   1      29.906  27.786  22.748  1.00  0.00     0.006 A 
ATOM     21  C   UNL A   1      29.013  30.012  22.549  1.00  0.00     0.119 A 
ATOM     22  C   UNL A   1      27.823  29.585  23.140  1.00  0.00     0.046 A 
ATOM     23  C   UNL A   1      30.075  29.124  22.397  1.00  0.00     0.056 A 
ATOM     24  C   UNL A   1      27.659  28.250  23.504  1.00  0.00     0.005 A 
ATOM     25  C   UNL A   1      28.692  27.342  23.280  1.00  0.00     0.011 A 
BRANCH  21  26
ATOM     26  O   UNL A   1      29.078  31.329  22.188  1.00  0.00    -0.497 OA
ATOM     27  C   UNL A   1      28.412  31.601  20.955  1.00  0.00     0.278 C 
ENDBRANCH  21  26
ENDBRANCH  14  20
ENDBRANCH  12  13
ENDBRANCH   9  12
ENDBRANCH   7   8
BRANCH   7  28
ATOM     28  C   UNL A   1      30.441  24.289  26.139  1.00  0.00     0.017 C 
ATOM     29  C   UNL A   1      30.038  23.003  26.881  1.00  0.00     0.010 C 
ATOM     30  C   UNL A   1      29.332  25.327  26.342  1.00  0.00     0.010 C 
ENDBRANCH   7  28
ENDBRANCH   5   7
ENDBRANCH   4   5
ENDBRANCH   3   4
ENDBRANCH   2   3
ENDBRANCH   1   2
BRANCH   1  31
ATOM     31  C   UNL A   1      33.319  31.496  27.603  1.00  0.00     0.188 C 
BRANCH  31  32
ATOM     32  C   UNL A   1      34.685  32.206  27.679  1.00  0.00     0.188 C 
BRANCH  32  33
ATOM     33  O   UNL A   1      34.613  33.567  28.026  1.00  0.00    -0.376 OA
BRANCH  33  34
ATOM     34  C   UNL A   1      33.813  33.926  29.134  1.00  0.00     0.202 C 
BRANCH  34  35
ATOM     35  C   UNL A   1      34.427  33.870  30.544  1.00  0.00     0.261 C 
BRANCH  35  36
ATOM     36  O   UNL A   1      34.535  32.574  31.162  1.00  0.00    -0.460 OA
BRANCH  36  37
ATOM     37  C   UNL A   1      35.476  32.410  32.118  1.00  0.00     0.338 C 
ATOM     38  O   UNL A   1      35.380  32.703  33.300  1.00  0.00    -0.246 OA
BRANCH  37  39
ATOM     39  C   UNL A   1      36.572  31.593  31.544  1.00  0.00     0.060 A 
ATOM     40  C   UNL A   1      37.534  31.032  32.399  1.00  0.00     0.016 A 
ATOM     41  C   UNL A   1      36.641  31.368  30.169  1.00  0.00     0.016 A 
ATOM     42  C   UNL A   1      38.581  30.265  31.878  1.00  0.00     0.010 A 
ATOM     43  C   UNL A   1      37.706  30.628  29.645  1.00  0.00     0.010 A 
ATOM     44  C   UNL A   1      38.698  30.099  30.493  1.00  0.00    -0.014 A 
BRANCH  44  45
ATOM     45  C   UNL A   1      39.958  29.576  29.905  1.00  0.00     0.031 A 
ATOM     46  C   UNL A   1      41.104  30.536  29.727  1.00  0.00     0.074 A 
ATOM     47  C   UNL A   1      40.095  28.293  29.529  1.00  0.00     0.049 A 
ATOM     48  N   UNL A   1      42.258  30.360  29.136  1.00  0.00    -0.248 NA
ATOM     49  C   UNL A   1      40.915  31.883  30.290  1.00  0.00     0.031 C 
ATOM     50  C   UNL A   1      39.090  27.246  29.696  1.00  0.00     0.029 A 
ATOM     51  N   UNL A   1      41.143  27.658  28.907  1.00  0.00    -0.354 N 
ATOM     52  C   UNL A   1      42.924  31.574  29.242  1.00  0.00     0.074 A 
ATOM     53  C   UNL A   1      42.037  32.487  29.929  1.00  0.00     0.031 C 
ATOM     54  C   UNL A   1      39.561  26.103  29.167  1.00  0.00     0.029 A 
ATOM     55  C   UNL A   1      40.883  26.347  28.589  1.00  0.00     0.049 A 
ATOM     56  H   UNL A   1      41.999  28.101  28.707  1.00  0.00     0.167 HD
ATOM     57  C   UNL A   1      44.165  31.901  28.811  1.00  0.00     0.037 A 
ATOM     58  C   UNL A   1      41.614  25.460  27.883  1.00  0.00     0.037 A 
ATOM     59  C   UNL A   1      45.046  30.996  28.122  1.00  0.00     0.049 A 
ATOM     60  C   UNL A   1      42.957  25.874  27.331  1.00  0.00     0.074 A 
ATOM     61  C   UNL A   1      46.326  31.230  27.652  1.00  0.00     0.029 A 
ATOM     62  N   UNL A   1      44.734  29.685  27.795  1.00  0.00    -0.354 N 
ATOM     63  N   UNL A   1      43.585  27.018  27.446  1.00  0.00    -0.248 NA
ATOM     64  C   UNL A   1      43.691  24.867  26.548  1.00  0.00     0.031 C 
ATOM     65  C   UNL A   1      46.765  30.081  26.988  1.00  0.00     0.029 A 
ATOM     66  C   UNL A   1      45.786  29.107  27.106  1.00  0.00     0.049 A 
ATOM     67  H   UNL A   1      43.888  29.233  28.020  1.00  0.00     0.167 HD
ATOM     68  C   UNL A   1      44.800  26.857  26.788  1.00  0.00     0.074 A 
ATOM     69  C   UNL A   1      44.824  25.502  26.282  1.00  0.00     0.031 C 
ATOM     70  C   UNL A   1      45.807  27.750  26.622  1.00  0.00     0.037 A 
BRANCH  57  71
ATOM     71  C   UNL A   1      44.627  33.310  29.040  1.00  0.00     0.057 A 
ATOM     72  C   UNL A   1      45.325  33.686  30.196  1.00  0.00     0.134 A 
ATOM     73  C   UNL A   1      44.394  34.301  28.078  1.00  0.00     0.134 A 
ATOM     74  F   UNL A   1      45.568  32.790  31.164  1.00  0.00    -0.206 F 
ATOM     75  C   UNL A   1      45.751  35.000  30.397  1.00  0.00     0.040 A 
ATOM     76  C   UNL A   1      44.841  35.612  28.254  1.00  0.00     0.040 A 
ATOM     77  F   UNL A   1      43.734  34.011  26.947  1.00  0.00    -0.206 F 
ATOM     78  C   UNL A   1      45.516  35.965  29.420  1.00  0.00     0.006 A 
ENDBRANCH  57  71
BRANCH  58  79
ATOM     79  C   UNL A   1      41.092  24.091  27.630  1.00  0.00     0.057 A 
ATOM     80  C   UNL A   1      41.629  22.975  28.285  1.00  0.00     0.134 A 
ATOM     81  C   UNL A   1      40.075  23.858  26.695  1.00  0.00     0.134 A 
ATOM     82  F   UNL A   1      42.625  23.128  29.170  1.00  0.00    -0.206 F 
ATOM     83  C   UNL A   1      41.191  21.679  28.004  1.00  0.00     0.040 A 
ATOM     84  C   UNL A   1      39.608  22.571  26.426  1.00  0.00     0.040 A 
ATOM     85  F   UNL A   1      39.520  24.881  26.029  1.00  0.00    -0.206 F 
ATOM     86  C   UNL A   1      40.173  21.476  27.076  1.00  0.00     0.006 A 
ENDBRANCH  58  79
BRANCH  70  87
ATOM     87  C   UNL A   1      47.049  27.280  25.917  1.00  0.00     0.057 A 
ATOM     88  C   UNL A   1      48.074  26.595  26.583  1.00  0.00     0.134 A 
ATOM     89  C   UNL A   1      47.196  27.473  24.536  1.00  0.00     0.134 A 
ATOM     90  F   UNL A   1      48.004  26.384  27.906  1.00  0.00    -0.206 F 
ATOM     91  C   UNL A   1      49.208  26.141  25.906  1.00  0.00     0.040 A 
ATOM     92  C   UNL A   1      48.309  26.995  23.843  1.00  0.00     0.040 A 
ATOM     93  F   UNL A   1      46.247  28.110  23.833  1.00  0.00    -0.206 F 
ATOM     94  C   UNL A   1      49.323  26.333  24.529  1.00  0.00     0.006 A 
ENDBRANCH  70  87
ENDBRANCH  44  45
ENDBRANCH  37  39
ENDBRANCH  36  37
ENDBRANCH  35  36
ENDBRANCH  34  35
ENDBRANCH  33  34
ENDBRANCH  32  33
ENDBRANCH  31  32
ENDBRANCH   1  31
TORSDOF 23
ENDMDL
