MODEL 1
REMARK VINA RESULT:     -10.1      0.000      0.000
REMARK SMILES CS(=O)(=O)N1CCC[C@@H]1C(=O)N1CCC[C@@H]1C(=O)OCCOCCOCCOC(=O)c1ccc(-c2c3nc(c(-c4c(F)cccc4F)c4ccc([nH]4)c(-c4c(F)cccc4F)c4nc(c(-c5c(F)cccc5F)c5ccc2[nH]5)C=C4)C=C3)cc1
REMARK SMILES IDX 23 1 22 2 21 3 20 4 19 5 17 6 18 7 16 8 12 9 13 10 14 11
REMARK SMILES IDX 15 12 10 13 11 14 9 15 5 16 6 17 7 18 8 19 2 20 1 21 3 22
REMARK SMILES IDX 4 23 24 24 25 25 26 26 27 27 28 28 29 29 30 30 31 31 32 32
REMARK SMILES IDX 84 33 33 34 83 35 34 36 35 37 36 38 77 39 37 40 82 41 76 42
REMARK SMILES IDX 78 43 38 44 81 45 75 46 74 47 39 49 65 50 48 51 64 52 49 53
REMARK SMILES IDX 52 54 63 55 79 56 50 57 51 58 62 60 80 61 53 62 40 63 41 64
REMARK SMILES IDX 46 65 42 66 43 67 45 68 47 69 44 70 66 71 67 72 72 73 68 74
REMARK SMILES IDX 69 75 71 76 73 77 70 78 54 79 55 80 60 81 56 82 57 83 59 84
REMARK SMILES IDX 61 85 58 86
REMARK H PARENT 78 48 52 59
REMARK Flexibility Score: inf
ROOT
ATOM      1  C   UNL A   1      35.032  30.952  27.633  1.00  0.00     0.188 C 
ENDROOT
BRANCH   1   2
ATOM      2  O   UNL A   1      34.546  29.619  27.698  1.00  0.00    -0.376 OA
BRANCH   2   3
ATOM      3  C   UNL A   1      33.472  29.292  26.818  1.00  0.00     0.202 C 
BRANCH   3   4
ATOM      4  C   UNL A   1      33.599  28.017  25.973  1.00  0.00     0.261 C 
BRANCH   4   5
ATOM      5  O   UNL A   1      32.360  27.556  25.364  1.00  0.00    -0.462 OA
BRANCH   5   6
ATOM      6  C   UNL A   1      31.574  26.725  26.110  1.00  0.00     0.328 C 
ATOM      7  O   UNL A   1      31.380  26.887  27.314  1.00  0.00    -0.250 OA
BRANCH   6   8
ATOM      8  C   UNL A   1      30.901  25.551  25.334  1.00  0.00     0.195 C 
ATOM      9  N   UNL A   1      31.729  24.468  24.792  1.00  0.00    -0.327 N 
ATOM     10  C   UNL A   1      30.872  23.685  23.927  1.00  0.00     0.120 C 
ATOM     11  C   UNL A   1      30.086  24.722  23.163  1.00  0.00     0.024 C 
ATOM     12  C   UNL A   1      30.026  25.919  24.117  1.00  0.00     0.039 C 
BRANCH   9  13
ATOM     13  C   UNL A   1      32.734  23.895  25.538  1.00  0.00     0.241 C 
ATOM     14  O   UNL A   1      32.573  23.659  26.736  1.00  0.00    -0.273 OA
BRANCH  13  15
ATOM     15  C   UNL A   1      34.086  23.593  24.842  1.00  0.00     0.162 C 
ATOM     16  N   UNL A   1      34.645  22.181  24.761  1.00  0.00    -0.190 NA
ATOM     17  C   UNL A   1      36.024  22.180  25.279  1.00  0.00     0.103 C 
ATOM     18  C   UNL A   1      36.135  23.441  26.105  1.00  0.00     0.019 C 
ATOM     19  C   UNL A   1      35.257  24.431  25.357  1.00  0.00     0.032 C 
BRANCH  16  20
ATOM     20  S   UNL A   1      33.621  20.952  25.224  1.00  0.00     0.211 S 
ATOM     21  C   UNL A   1      34.390  19.424  24.750  1.00  0.00     0.176 C 
ATOM     22  O   UNL A   1      32.453  21.109  24.390  1.00  0.00    -0.212 OA
ATOM     23  O   UNL A   1      33.576  20.953  26.672  1.00  0.00    -0.212 OA
ENDBRANCH  16  20
ENDBRANCH  13  15
ENDBRANCH   9  13
ENDBRANCH   6   8
ENDBRANCH   5   6
ENDBRANCH   4   5
ENDBRANCH   3   4
ENDBRANCH   2   3
ENDBRANCH   1   2
BRANCH   1  24
ATOM     24  C   UNL A   1      34.038  32.067  27.991  1.00  0.00     0.188 C 
BRANCH  24  25
ATOM     25  O   UNL A   1      34.627  33.326  28.217  1.00  0.00    -0.376 OA
BRANCH  25  26
ATOM     26  C   UNL A   1      34.050  34.184  29.186  1.00  0.00     0.202 C 
BRANCH  26  27
ATOM     27  C   UNL A   1      34.373  34.068  30.691  1.00  0.00     0.261 C 
BRANCH  27  28
ATOM     28  O   UNL A   1      35.023  32.874  31.146  1.00  0.00    -0.460 OA
BRANCH  28  29
ATOM     29  C   UNL A   1      36.049  32.988  32.023  1.00  0.00     0.338 C 
ATOM     30  O   UNL A   1      36.005  33.438  33.154  1.00  0.00    -0.246 OA
BRANCH  29  31
ATOM     31  C   UNL A   1      37.168  32.183  31.463  1.00  0.00     0.060 A 
ATOM     32  C   UNL A   1      37.957  31.411  32.334  1.00  0.00     0.016 A 
ATOM     33  C   UNL A   1      37.335  32.071  30.081  1.00  0.00     0.016 A 
ATOM     34  C   UNL A   1      38.911  30.525  31.825  1.00  0.00     0.010 A 
ATOM     35  C   UNL A   1      38.316  31.216  29.574  1.00  0.00     0.010 A 
ATOM     36  C   UNL A   1      39.123  30.456  30.441  1.00  0.00    -0.014 A 
BRANCH  36  37
ATOM     37  C   UNL A   1      40.355  29.837  29.899  1.00  0.00     0.031 A 
ATOM     38  C   UNL A   1      41.533  30.746  29.686  1.00  0.00     0.074 A 
ATOM     39  C   UNL A   1      40.429  28.540  29.552  1.00  0.00     0.049 A 
ATOM     40  N   UNL A   1      42.661  30.523  29.067  1.00  0.00    -0.248 NA
ATOM     41  C   UNL A   1      41.407  32.107  30.239  1.00  0.00     0.031 C 
ATOM     42  C   UNL A   1      39.383  27.541  29.754  1.00  0.00     0.029 A 
ATOM     43  N   UNL A   1      41.437  27.851  28.922  1.00  0.00    -0.354 N 
ATOM     44  C   UNL A   1      43.367  31.717  29.138  1.00  0.00     0.074 A 
ATOM     45  C   UNL A   1      42.537  32.667  29.842  1.00  0.00     0.031 C 
ATOM     46  C   UNL A   1      39.792  26.371  29.228  1.00  0.00     0.029 A 
ATOM     47  C   UNL A   1      41.108  26.552  28.615  1.00  0.00     0.049 A 
ATOM     48  H   UNL A   1      42.312  28.250  28.710  1.00  0.00     0.167 HD
ATOM     49  C   UNL A   1      44.598  31.999  28.656  1.00  0.00     0.037 A 
ATOM     50  C   UNL A   1      41.779  25.635  27.887  1.00  0.00     0.037 A 
ATOM     51  C   UNL A   1      45.418  31.057  27.946  1.00  0.00     0.049 A 
ATOM     52  C   UNL A   1      43.115  25.999  27.283  1.00  0.00     0.074 A 
ATOM     53  C   UNL A   1      46.685  31.243  27.427  1.00  0.00     0.029 A 
ATOM     54  N   UNL A   1      45.043  29.757  27.647  1.00  0.00    -0.354 N 
ATOM     55  N   UNL A   1      43.787  27.123  27.368  1.00  0.00    -0.248 NA
ATOM     56  C   UNL A   1      43.784  24.967  26.475  1.00  0.00     0.031 C 
ATOM     57  C   UNL A   1      47.058  30.070  26.764  1.00  0.00     0.029 A 
ATOM     58  C   UNL A   1      46.047  29.135  26.926  1.00  0.00     0.049 A 
ATOM     59  H   UNL A   1      44.191  29.339  27.909  1.00  0.00     0.167 HD
ATOM     60  C   UNL A   1      44.968  26.919  26.661  1.00  0.00     0.074 A 
ATOM     61  C   UNL A   1      44.925  25.564  26.156  1.00  0.00     0.031 C 
ATOM     62  C   UNL A   1      45.997  27.776  26.452  1.00  0.00     0.037 A 
BRANCH  49  63
ATOM     63  C   UNL A   1      45.108  33.395  28.849  1.00  0.00     0.057 A 
ATOM     64  C   UNL A   1      45.910  33.748  29.942  1.00  0.00     0.134 A 
ATOM     65  C   UNL A   1      44.807  34.395  27.917  1.00  0.00     0.134 A 
ATOM     66  F   UNL A   1      46.215  32.841  30.883  1.00  0.00    -0.206 F 
ATOM     67  C   UNL A   1      46.378  35.052  30.111  1.00  0.00     0.040 A 
ATOM     68  C   UNL A   1      45.293  35.695  28.059  1.00  0.00     0.040 A 
ATOM     69  F   UNL A   1      44.041  34.124  26.849  1.00  0.00    -0.206 F 
ATOM     70  C   UNL A   1      46.076  36.027  29.162  1.00  0.00     0.006 A 
ENDBRANCH  49  63
BRANCH  50  71
ATOM     71  C   UNL A   1      41.195  24.289  27.647  1.00  0.00     0.057 A 
ATOM     72  C   UNL A   1      41.671  23.159  28.324  1.00  0.00     0.134 A 
ATOM     73  C   UNL A   1      40.184  24.088  26.699  1.00  0.00     0.134 A 
ATOM     74  F   UNL A   1      42.663  23.277  29.219  1.00  0.00    -0.206 F 
ATOM     75  C   UNL A   1      41.182  21.879  28.052  1.00  0.00     0.040 A 
ATOM     76  C   UNL A   1      39.664  22.819  26.438  1.00  0.00     0.040 A 
ATOM     77  F   UNL A   1      39.689  25.125  26.007  1.00  0.00    -0.206 F 
ATOM     78  C   UNL A   1      40.169  21.708  27.110  1.00  0.00     0.006 A 
ENDBRANCH  50  71
BRANCH  62  79
ATOM     79  C   UNL A   1      47.191  27.267  25.695  1.00  0.00     0.057 A 
ATOM     80  C   UNL A   1      47.357  27.495  24.324  1.00  0.00     0.134 A 
ATOM     81  C   UNL A   1      48.228  26.609  26.371  1.00  0.00     0.134 A 
ATOM     82  F   UNL A   1      46.399  28.112  23.617  1.00  0.00    -0.206 F 
ATOM     83  C   UNL A   1      48.503  27.071  23.648  1.00  0.00     0.040 A 
ATOM     84  C   UNL A   1      49.391  26.207  25.713  1.00  0.00     0.040 A 
ATOM     85  F   UNL A   1      48.141  26.372  27.688  1.00  0.00    -0.206 F 
ATOM     86  C   UNL A   1      49.529  26.435  24.346  1.00  0.00     0.006 A 
ENDBRANCH  62  79
ENDBRANCH  36  37
ENDBRANCH  29  31
ENDBRANCH  28  29
ENDBRANCH  27  28
ENDBRANCH  26  27
ENDBRANCH  25  26
ENDBRANCH  24  25
ENDBRANCH   1  24
TORSDOF 20
ENDMDL
MODEL 2
REMARK VINA RESULT:     -10.1      4.618      7.239
REMARK SMILES CS(=O)(=O)N1CCC[C@@H]1C(=O)N1CCC[C@@H]1C(=O)OCCOCCOCCOC(=O)c1ccc(-c2c3nc(c(-c4c(F)cccc4F)c4ccc([nH]4)c(-c4c(F)cccc4F)c4nc(c(-c5c(F)cccc5F)c5ccc2[nH]5)C=C4)C=C3)cc1
REMARK SMILES IDX 23 1 22 2 21 3 20 4 19 5 17 6 18 7 16 8 12 9 13 10 14 11
REMARK SMILES IDX 15 12 10 13 11 14 9 15 5 16 6 17 7 18 8 19 2 20 1 21 3 22
REMARK SMILES IDX 4 23 24 24 25 25 26 26 27 27 28 28 29 29 30 30 31 31 32 32
REMARK SMILES IDX 84 33 33 34 83 35 34 36 35 37 36 38 77 39 37 40 82 41 76 42
REMARK SMILES IDX 78 43 38 44 81 45 75 46 74 47 39 49 65 50 48 51 64 52 49 53
REMARK SMILES IDX 52 54 63 55 79 56 50 57 51 58 62 60 80 61 53 62 40 63 41 64
REMARK SMILES IDX 46 65 42 66 43 67 45 68 47 69 44 70 66 71 67 72 72 73 68 74
REMARK SMILES IDX 69 75 71 76 73 77 70 78 54 79 55 80 60 81 56 82 57 83 59 84
REMARK SMILES IDX 61 85 58 86
REMARK H PARENT 78 48 52 59
REMARK Flexibility Score: inf
ROOT
ATOM      1  C   UNL A   1      34.377  32.174  28.880  1.00  0.00     0.188 C 
ENDROOT
BRANCH   1   2
ATOM      2  O   UNL A   1      34.685  31.587  27.625  1.00  0.00    -0.376 OA
BRANCH   2   3
ATOM      3  C   UNL A   1      35.210  30.261  27.657  1.00  0.00     0.202 C 
BRANCH   3   4
ATOM      4  C   UNL A   1      34.296  29.115  27.201  1.00  0.00     0.261 C 
BRANCH   4   5
ATOM      5  O   UNL A   1      32.883  29.453  27.115  1.00  0.00    -0.462 OA
BRANCH   5   6
ATOM      6  C   UNL A   1      32.003  28.415  27.001  1.00  0.00     0.328 C 
ATOM      7  O   UNL A   1      31.681  27.701  27.950  1.00  0.00    -0.250 OA
BRANCH   6   8
ATOM      8  C   UNL A   1      31.396  28.193  25.582  1.00  0.00     0.195 C 
ATOM      9  N   UNL A   1      32.103  27.350  24.612  1.00  0.00    -0.327 N 
ATOM     10  C   UNL A   1      31.442  27.541  23.338  1.00  0.00     0.120 C 
ATOM     11  C   UNL A   1      31.207  29.030  23.273  1.00  0.00     0.024 C 
ATOM     12  C   UNL A   1      31.088  29.451  24.741  1.00  0.00     0.039 C 
BRANCH   9  13
ATOM     13  C   UNL A   1      32.646  26.139  24.979  1.00  0.00     0.241 C 
ATOM     14  O   UNL A   1      33.532  26.079  25.832  1.00  0.00    -0.273 OA
BRANCH  13  15
ATOM     15  C   UNL A   1      32.141  24.860  24.263  1.00  0.00     0.162 C 
ATOM     16  N   UNL A   1      31.248  23.849  24.966  1.00  0.00    -0.190 NA
ATOM     17  C   UNL A   1      31.845  22.510  24.838  1.00  0.00     0.103 C 
ATOM     18  C   UNL A   1      33.297  22.757  24.499  1.00  0.00     0.019 C 
ATOM     19  C   UNL A   1      33.251  24.011  23.641  1.00  0.00     0.032 C 
BRANCH  16  20
ATOM     20  S   UNL A   1      30.633  24.309  26.443  1.00  0.00     0.211 S 
ATOM     21  C   UNL A   1      29.661  22.952  27.050  1.00  0.00     0.176 C 
ATOM     22  O   UNL A   1      29.714  25.382  26.146  1.00  0.00    -0.212 OA
ATOM     23  O   UNL A   1      31.754  24.445  27.352  1.00  0.00    -0.212 OA
ENDBRANCH  16  20
ENDBRANCH  13  15
ENDBRANCH   9  13
ENDBRANCH   6   8
ENDBRANCH   5   6
ENDBRANCH   4   5
ENDBRANCH   3   4
ENDBRANCH   2   3
ENDBRANCH   1   2
BRANCH   1  24
ATOM     24  C   UNL A   1      34.641  33.680  29.021  1.00  0.00     0.188 C 
BRANCH  24  25
ATOM     25  O   UNL A   1      33.722  34.502  28.340  1.00  0.00    -0.376 OA
BRANCH  25  26
ATOM     26  C   UNL A   1      33.530  35.831  28.795  1.00  0.00     0.202 C 
BRANCH  26  27
ATOM     27  C   UNL A   1      32.424  36.211  29.802  1.00  0.00     0.261 C 
BRANCH  27  28
ATOM     28  O   UNL A   1      32.819  36.873  31.011  1.00  0.00    -0.460 OA
BRANCH  28  29
ATOM     29  C   UNL A   1      32.572  36.262  32.195  1.00  0.00     0.338 C 
ATOM     30  O   UNL A   1      31.531  36.272  32.826  1.00  0.00    -0.246 OA
BRANCH  29  31
ATOM     31  C   UNL A   1      33.707  35.329  32.427  1.00  0.00     0.060 A 
ATOM     32  C   UNL A   1      33.435  34.001  32.801  1.00  0.00     0.016 A 
ATOM     33  C   UNL A   1      35.015  35.718  32.127  1.00  0.00     0.016 A 
ATOM     34  C   UNL A   1      34.467  33.061  32.872  1.00  0.00     0.010 A 
ATOM     35  C   UNL A   1      36.052  34.788  32.239  1.00  0.00     0.010 A 
ATOM     36  C   UNL A   1      35.787  33.464  32.632  1.00  0.00    -0.014 A 
BRANCH  36  37
ATOM     37  C   UNL A   1      36.923  32.615  33.065  1.00  0.00     0.031 A 
ATOM     38  C   UNL A   1      37.554  32.952  34.388  1.00  0.00     0.074 A 
ATOM     39  C   UNL A   1      37.424  31.623  32.308  1.00  0.00     0.049 A 
ATOM     40  N   UNL A   1      38.656  32.505  34.926  1.00  0.00    -0.248 NA
ATOM     41  C   UNL A   1      36.841  33.947  35.209  1.00  0.00     0.031 C 
ATOM     42  C   UNL A   1      36.877  31.160  31.036  1.00  0.00     0.029 A 
ATOM     43  N   UNL A   1      38.538  30.843  32.502  1.00  0.00    -0.354 N 
ATOM     44  C   UNL A   1      38.780  33.178  36.135  1.00  0.00     0.074 A 
ATOM     45  C   UNL A   1      37.652  34.076  36.245  1.00  0.00     0.031 C 
ATOM     46  C   UNL A   1      37.677  30.195  30.545  1.00  0.00     0.029 A 
ATOM     47  C   UNL A   1      38.812  30.005  31.447  1.00  0.00     0.049 A 
ATOM     48  H   UNL A   1      39.088  30.879  33.318  1.00  0.00     0.167 HD
ATOM     49  C   UNL A   1      39.748  33.063  37.070  1.00  0.00     0.037 A 
ATOM     50  C   UNL A   1      39.880  29.211  31.224  1.00  0.00     0.037 A 
ATOM     51  C   UNL A   1      40.875  32.179  36.955  1.00  0.00     0.049 A 
ATOM     52  C   UNL A   1      40.996  29.162  32.242  1.00  0.00     0.074 A 
ATOM     53  C   UNL A   1      41.905  31.980  37.854  1.00  0.00     0.029 A 
ATOM     54  N   UNL A   1      41.121  31.357  35.867  1.00  0.00    -0.354 N 
ATOM     55  N   UNL A   1      41.099  29.786  33.392  1.00  0.00    -0.248 NA
ATOM     56  C   UNL A   1      42.147  28.300  31.929  1.00  0.00     0.031 C 
ATOM     57  C   UNL A   1      42.807  31.076  37.286  1.00  0.00     0.029 A 
ATOM     58  C   UNL A   1      42.304  30.666  36.061  1.00  0.00     0.049 A 
ATOM     59  H   UNL A   1      40.541  31.276  35.076  1.00  0.00     0.167 HD
ATOM     60  C   UNL A   1      42.301  29.364  33.951  1.00  0.00     0.074 A 
ATOM     61  C   UNL A   1      42.891  28.429  33.019  1.00  0.00     0.031 C 
ATOM     62  C   UNL A   1      42.864  29.718  35.132  1.00  0.00     0.037 A 
BRANCH  49  63
ATOM     63  C   UNL A   1      39.647  33.945  38.278  1.00  0.00     0.057 A 
ATOM     64  C   UNL A   1      40.248  35.210  38.326  1.00  0.00     0.134 A 
ATOM     65  C   UNL A   1      38.924  33.529  39.402  1.00  0.00     0.134 A 
ATOM     66  F   UNL A   1      40.975  35.657  37.291  1.00  0.00    -0.206 F 
ATOM     67  C   UNL A   1      40.148  36.021  39.457  1.00  0.00     0.040 A 
ATOM     68  C   UNL A   1      38.793  34.342  40.527  1.00  0.00     0.040 A 
ATOM     69  F   UNL A   1      38.327  32.326  39.422  1.00  0.00    -0.206 F 
ATOM     70  C   UNL A   1      39.412  35.590  40.558  1.00  0.00     0.006 A 
ENDBRANCH  49  63
BRANCH  50  71
ATOM     71  C   UNL A   1      39.982  28.418  29.970  1.00  0.00     0.057 A 
ATOM     72  C   UNL A   1      40.689  28.900  28.861  1.00  0.00     0.134 A 
ATOM     73  C   UNL A   1      39.333  27.185  29.829  1.00  0.00     0.134 A 
ATOM     74  F   UNL A   1      41.304  30.091  28.919  1.00  0.00    -0.206 F 
ATOM     75  C   UNL A   1      40.729  28.199  27.654  1.00  0.00     0.040 A 
ATOM     76  C   UNL A   1      39.389  26.458  28.638  1.00  0.00     0.040 A 
ATOM     77  F   UNL A   1      38.629  26.670  30.848  1.00  0.00    -0.206 F 
ATOM     78  C   UNL A   1      40.081  26.970  27.543  1.00  0.00     0.006 A 
ENDBRANCH  50  71
BRANCH  62  79
ATOM     79  C   UNL A   1      44.154  29.054  35.522  1.00  0.00     0.057 A 
ATOM     80  C   UNL A   1      45.402  29.607  35.207  1.00  0.00     0.134 A 
ATOM     81  C   UNL A   1      44.142  27.884  36.293  1.00  0.00     0.134 A 
ATOM     82  F   UNL A   1      45.484  30.721  34.466  1.00  0.00    -0.206 F 
ATOM     83  C   UNL A   1      46.591  29.011  35.632  1.00  0.00     0.040 A 
ATOM     84  C   UNL A   1      45.322  27.295  36.748  1.00  0.00     0.040 A 
ATOM     85  F   UNL A   1      42.981  27.310  36.642  1.00  0.00    -0.206 F 
ATOM     86  C   UNL A   1      46.552  27.857  36.415  1.00  0.00     0.006 A 
ENDBRANCH  62  79
ENDBRANCH  36  37
ENDBRANCH  29  31
ENDBRANCH  28  29
ENDBRANCH  27  28
ENDBRANCH  26  27
ENDBRANCH  25  26
ENDBRANCH  24  25
ENDBRANCH   1  24
TORSDOF 20
ENDMDL
MODEL 3
REMARK VINA RESULT:     -10.1      4.546      9.755
REMARK SMILES CS(=O)(=O)N1CCC[C@@H]1C(=O)N1CCC[C@@H]1C(=O)OCCOCCOCCOC(=O)c1ccc(-c2c3nc(c(-c4c(F)cccc4F)c4ccc([nH]4)c(-c4c(F)cccc4F)c4nc(c(-c5c(F)cccc5F)c5ccc2[nH]5)C=C4)C=C3)cc1
REMARK SMILES IDX 23 1 22 2 21 3 20 4 19 5 17 6 18 7 16 8 12 9 13 10 14 11
REMARK SMILES IDX 15 12 10 13 11 14 9 15 5 16 6 17 7 18 8 19 2 20 1 21 3 22
REMARK SMILES IDX 4 23 24 24 25 25 26 26 27 27 28 28 29 29 30 30 31 31 32 32
REMARK SMILES IDX 84 33 33 34 83 35 34 36 35 37 36 38 77 39 37 40 82 41 76 42
REMARK SMILES IDX 78 43 38 44 81 45 75 46 74 47 39 49 65 50 48 51 64 52 49 53
REMARK SMILES IDX 52 54 63 55 79 56 50 57 51 58 62 60 80 61 53 62 40 63 41 64
REMARK SMILES IDX 46 65 42 66 43 67 45 68 47 69 44 70 66 71 67 72 72 73 68 74
REMARK SMILES IDX 69 75 71 76 73 77 70 78 54 79 55 80 60 81 56 82 57 83 59 84
REMARK SMILES IDX 61 85 58 86
REMARK H PARENT 78 48 52 59
REMARK Flexibility Score: inf
ROOT
ATOM      1  C   UNL A   1      40.778  21.332  27.245  1.00  0.00     0.188 C 
ENDROOT
BRANCH   1   2
ATOM      2  O   UNL A   1      39.902  22.312  26.708  1.00  0.00    -0.376 OA
BRANCH   2   3
ATOM      3  C   UNL A   1      38.914  21.845  25.791  1.00  0.00     0.202 C 
BRANCH   3   4
ATOM      4  C   UNL A   1      37.616  22.653  25.662  1.00  0.00     0.261 C 
BRANCH   4   5
ATOM      5  O   UNL A   1      36.630  22.094  24.748  1.00  0.00    -0.462 OA
BRANCH   5   6
ATOM      6  C   UNL A   1      35.502  21.563  25.303  1.00  0.00     0.328 C 
ATOM      7  O   UNL A   1      35.313  21.508  26.518  1.00  0.00    -0.250 OA
BRANCH   6   8
ATOM      8  C   UNL A   1      34.431  21.042  24.296  1.00  0.00     0.195 C 
ATOM      9  N   UNL A   1      33.273  21.880  23.967  1.00  0.00    -0.327 N 
ATOM     10  C   UNL A   1      32.352  21.042  23.228  1.00  0.00     0.120 C 
ATOM     11  C   UNL A   1      32.365  19.737  23.986  1.00  0.00     0.024 C 
ATOM     12  C   UNL A   1      33.760  19.689  24.618  1.00  0.00     0.039 C 
BRANCH   9  13
ATOM     13  C   UNL A   1      33.417  23.222  23.697  1.00  0.00     0.241 C 
ATOM     14  O   UNL A   1      33.782  23.605  22.584  1.00  0.00    -0.273 OA
BRANCH  13  15
ATOM     15  C   UNL A   1      33.147  24.235  24.839  1.00  0.00     0.162 C 
ATOM     16  N   UNL A   1      32.010  25.242  24.763  1.00  0.00    -0.190 NA
ATOM     17  C   UNL A   1      32.546  26.591  25.009  1.00  0.00     0.103 C 
ATOM     18  C   UNL A   1      34.031  26.477  24.755  1.00  0.00     0.019 C 
ATOM     19  C   UNL A   1      34.365  25.073  25.233  1.00  0.00     0.032 C 
BRANCH  16  20
ATOM     20  S   UNL A   1      30.920  25.033  23.522  1.00  0.00     0.211 S 
ATOM     21  C   UNL A   1      29.514  26.055  23.883  1.00  0.00     0.176 C 
ATOM     22  O   UNL A   1      30.482  23.663  23.639  1.00  0.00    -0.212 OA
ATOM     23  O   UNL A   1      31.523  25.580  22.323  1.00  0.00    -0.212 OA
ENDBRANCH  16  20
ENDBRANCH  13  15
ENDBRANCH   9  13
ENDBRANCH   6   8
ENDBRANCH   5   6
ENDBRANCH   4   5
ENDBRANCH   3   4
ENDBRANCH   2   3
ENDBRANCH   1   2
BRANCH   1  24
ATOM     24  C   UNL A   1      41.897  20.826  26.323  1.00  0.00     0.188 C 
BRANCH  24  25
ATOM     25  O   UNL A   1      43.121  21.510  26.459  1.00  0.00    -0.376 OA
BRANCH  25  26
ATOM     26  C   UNL A   1      44.006  21.546  25.352  1.00  0.00     0.202 C 
BRANCH  26  27
ATOM     27  C   UNL A   1      44.112  22.769  24.416  1.00  0.00     0.261 C 
BRANCH  27  28
ATOM     28  O   UNL A   1      43.546  24.007  24.866  1.00  0.00    -0.460 OA
BRANCH  28  29
ATOM     29  C   UNL A   1      44.383  25.005  25.239  1.00  0.00     0.338 C 
ATOM     30  O   UNL A   1      45.347  25.425  24.626  1.00  0.00    -0.246 OA
BRANCH  29  31
ATOM     31  C   UNL A   1      43.727  25.694  26.382  1.00  0.00     0.060 A 
ATOM     32  C   UNL A   1      44.077  27.026  26.670  1.00  0.00     0.016 A 
ATOM     33  C   UNL A   1      42.669  25.086  27.062  1.00  0.00     0.016 A 
ATOM     34  C   UNL A   1      43.369  27.750  27.633  1.00  0.00     0.010 A 
ATOM     35  C   UNL A   1      41.989  25.797  28.053  1.00  0.00     0.010 A 
ATOM     36  C   UNL A   1      42.349  27.122  28.359  1.00  0.00    -0.014 A 
BRANCH  36  37
ATOM     37  C   UNL A   1      41.848  27.716  29.622  1.00  0.00     0.031 A 
ATOM     38  C   UNL A   1      40.623  28.580  29.524  1.00  0.00     0.074 A 
ATOM     39  C   UNL A   1      42.472  27.555  30.802  1.00  0.00     0.049 A 
ATOM     40  N   UNL A   1      40.077  29.362  30.417  1.00  0.00    -0.248 NA
ATOM     41  C   UNL A   1      39.926  28.569  28.226  1.00  0.00     0.031 C 
ATOM     42  C   UNL A   1      43.634  26.704  31.045  1.00  0.00     0.029 A 
ATOM     43  N   UNL A   1      42.218  28.137  32.021  1.00  0.00    -0.354 N 
ATOM     44  C   UNL A   1      38.989  29.948  29.783  1.00  0.00     0.074 A 
ATOM     45  C   UNL A   1      38.961  29.450  28.427  1.00  0.00     0.031 C 
ATOM     46  C   UNL A   1      44.013  26.844  32.330  1.00  0.00     0.029 A 
ATOM     47  C   UNL A   1      43.148  27.825  32.984  1.00  0.00     0.049 A 
ATOM     48  H   UNL A   1      41.443  28.722  32.189  1.00  0.00     0.167 HD
ATOM     49  C   UNL A   1      38.094  30.828  30.284  1.00  0.00     0.037 A 
ATOM     50  C   UNL A   1      43.301  28.312  34.233  1.00  0.00     0.037 A 
ATOM     51  C   UNL A   1      38.129  31.332  31.629  1.00  0.00     0.049 A 
ATOM     52  C   UNL A   1      42.341  29.361  34.745  1.00  0.00     0.074 A 
ATOM     53  C   UNL A   1      37.261  32.219  32.237  1.00  0.00     0.029 A 
ATOM     54  N   UNL A   1      39.093  31.001  32.568  1.00  0.00    -0.354 N 
ATOM     55  N   UNL A   1      41.303  29.899  34.148  1.00  0.00    -0.248 NA
ATOM     56  C   UNL A   1      42.577  29.874  36.104  1.00  0.00     0.031 C 
ATOM     57  C   UNL A   1      37.731  32.468  33.530  1.00  0.00     0.029 A 
ATOM     58  C   UNL A   1      38.855  31.686  33.745  1.00  0.00     0.049 A 
ATOM     59  H   UNL A   1      39.835  30.371  32.419  1.00  0.00     0.167 HD
ATOM     60  C   UNL A   1      40.745  30.780  35.069  1.00  0.00     0.074 A 
ATOM     61  C   UNL A   1      41.555  30.703  36.265  1.00  0.00     0.031 C 
ATOM     62  C   UNL A   1      39.658  31.579  34.937  1.00  0.00     0.037 A 
BRANCH  49  63
ATOM     63  C   UNL A   1      37.028  31.329  29.358  1.00  0.00     0.057 A 
ATOM     64  C   UNL A   1      35.935  30.536  28.987  1.00  0.00     0.134 A 
ATOM     65  C   UNL A   1      37.089  32.630  28.843  1.00  0.00     0.134 A 
ATOM     66  F   UNL A   1      35.830  29.272  29.427  1.00  0.00    -0.206 F 
ATOM     67  C   UNL A   1      34.949  31.013  28.121  1.00  0.00     0.040 A 
ATOM     68  C   UNL A   1      36.095  33.127  28.000  1.00  0.00     0.040 A 
ATOM     69  F   UNL A   1      38.112  33.439  29.156  1.00  0.00    -0.206 F 
ATOM     70  C   UNL A   1      35.025  32.315  27.633  1.00  0.00     0.006 A 
ENDBRANCH  49  63
BRANCH  50  71
ATOM     71  C   UNL A   1      44.426  27.852  35.089  1.00  0.00     0.057 A 
ATOM     72  C   UNL A   1      45.691  28.449  35.009  1.00  0.00     0.134 A 
ATOM     73  C   UNL A   1      44.282  26.773  35.970  1.00  0.00     0.134 A 
ATOM     74  F   UNL A   1      45.905  29.465  34.160  1.00  0.00    -0.206 F 
ATOM     75  C   UNL A   1      46.774  27.977  35.754  1.00  0.00     0.040 A 
ATOM     76  C   UNL A   1      45.348  26.309  36.743  1.00  0.00     0.040 A 
ATOM     77  F   UNL A   1      43.101  26.148  36.088  1.00  0.00    -0.206 F 
ATOM     78  C   UNL A   1      46.602  26.906  36.629  1.00  0.00     0.006 A 
ENDBRANCH  50  71
BRANCH  62  79
ATOM     79  C   UNL A   1      39.236  32.393  36.126  1.00  0.00     0.057 A 
ATOM     80  C   UNL A   1      39.707  33.693  36.345  1.00  0.00     0.134 A 
ATOM     81  C   UNL A   1      38.281  31.892  37.022  1.00  0.00     0.134 A 
ATOM     82  F   UNL A   1      40.627  34.229  35.529  1.00  0.00    -0.206 F 
ATOM     83  C   UNL A   1      39.256  34.461  37.420  1.00  0.00     0.040 A 
ATOM     84  C   UNL A   1      37.801  32.660  38.084  1.00  0.00     0.040 A 
ATOM     85  F   UNL A   1      37.777  30.660  36.863  1.00  0.00    -0.206 F 
ATOM     86  C   UNL A   1      38.291  33.948  38.287  1.00  0.00     0.006 A 
ENDBRANCH  62  79
ENDBRANCH  36  37
ENDBRANCH  29  31
ENDBRANCH  28  29
ENDBRANCH  27  28
ENDBRANCH  26  27
ENDBRANCH  25  26
ENDBRANCH  24  25
ENDBRANCH   1  24
TORSDOF 20
ENDMDL
