MODEL 1
REMARK VINA RESULT:     -13.9      0.000      0.000
REMARK SMILES Cc1ccc(-c2cc(C(=O)OCCOCCOCCOC(=O)c3ccc(-c4c5nc(c(-c6c(F)cccc6F)c6ccc([nH]6)c(-c6c(F)cccc6F)c6nc(c(-c7c(F)cccc7F)c7ccc4[nH]7)C=C6)C=C5)cc3)c3c(-c4cccc([N+](=O)[O-])c4)[nH]nc3n2)cc1
REMARK SMILES IDX 15 1 14 2 13 3 12 4 11 5 9 6 10 7 8 8 6 9 7 10 91 11 90 12
REMARK SMILES IDX 77 13 89 14 78 15 88 16 5 18 1 19 2 20 3 21 93 22 4 23 92 24
REMARK SMILES IDX 79 25 80 26 87 27 81 28 83 29 82 30 84 31 85 32 86 33 16 34
REMARK SMILES IDX 17 35 18 36 19 37 20 38 21 39 22 40 23 41 24 42 76 43 25 44
REMARK SMILES IDX 75 45 26 46 27 47 28 48 69 49 29 50 74 51 68 52 70 53 30 54
REMARK SMILES IDX 73 55 67 56 66 57 31 59 57 60 40 61 56 62 41 63 44 64 55 65
REMARK SMILES IDX 71 66 42 67 43 68 54 70 72 71 45 72 32 73 33 74 38 75 34 76
REMARK SMILES IDX 35 77 37 78 39 79 36 80 58 81 59 82 64 83 60 84 61 85 63 86
REMARK SMILES IDX 65 87 62 88 46 89 47 90 52 91 48 92 49 93 51 94 53 95 50 96
REMARK H PARENT 88 17 70 58 44 69
REMARK Flexibility Score: inf
ROOT
ATOM      1  C   UNL A   1      39.211  21.478  25.898  1.00  0.00     0.188 C 
ENDROOT
BRANCH   1   2
ATOM      2  O   UNL A   1      38.031  22.303  25.685  1.00  0.00    -0.376 OA
BRANCH   2   3
ATOM      3  C   UNL A   1      36.981  21.871  24.777  1.00  0.00     0.202 C 
BRANCH   3   4
ATOM      4  C   UNL A   1      36.639  22.795  23.368  1.00  0.00     0.261 C 
BRANCH   4   5
ATOM      5  O   UNL A   1      35.455  24.078  23.079  1.00  0.00    -0.460 OA
BRANCH   5   6
ATOM      6  C   UNL A   1      34.072  24.392  22.705  1.00  0.00     0.339 C 
ATOM      7  O   UNL A   1      33.635  25.210  21.899  1.00  0.00    -0.246 OA
BRANCH   6   8
ATOM      8  C   UNL A   1      32.945  23.891  23.483  1.00  0.00     0.075 A 
ATOM      9  C   UNL A   1      32.551  21.725  24.527  1.00  0.00     0.074 A 
ATOM     10  C   UNL A   1      33.003  22.504  23.460  1.00  0.00     0.045 A 
ATOM     11  N   UNL A   1      31.923  22.144  25.638  1.00  0.00    -0.226 NA
ATOM     12  C   UNL A   1      31.821  23.485  25.719  1.00  0.00     0.182 A 
ATOM     13  C   UNL A   1      32.320  24.416  24.699  1.00  0.00     0.061 A 
ATOM     14  N   UNL A   1      31.275  24.081  26.768  1.00  0.00    -0.154 NA
ATOM     15  C   UNL A   1      32.028  25.673  25.284  1.00  0.00     0.076 A 
ATOM     16  N   UNL A   1      31.446  25.360  26.505  1.00  0.00    -0.275 N 
ATOM     17  H   UNL A   1      31.175  26.060  27.143  1.00  0.00     0.190 HD
BRANCH   9  18
ATOM     18  C   UNL A   1      32.799  20.305  24.414  1.00  0.00     0.000 A 
ATOM     19  C   UNL A   1      34.162  16.477  23.103  1.00  0.00     0.044 C 
ATOM     20  C   UNL A   1      33.660  17.783  23.629  1.00  0.00    -0.051 A 
ATOM     21  C   UNL A   1      32.493  18.332  23.081  1.00  0.00     0.004 A 
ATOM     22  C   UNL A   1      34.352  18.467  24.634  1.00  0.00     0.004 A 
ATOM     23  C   UNL A   1      32.058  19.584  23.478  1.00  0.00     0.010 A 
ATOM     24  C   UNL A   1      33.921  19.727  25.031  1.00  0.00     0.010 A 
ENDBRANCH   9  18
BRANCH  15  25
ATOM     25  C   UNL A   1      31.988  27.139  25.079  1.00  0.00     0.007 A 
ATOM     26  C   UNL A   1      32.413  27.999  26.120  1.00  0.00     0.011 A 
ATOM     27  C   UNL A   1      31.112  27.689  24.128  1.00  0.00     0.096 A 
ATOM     28  C   UNL A   1      32.006  29.348  26.193  1.00  0.00     0.008 A 
ATOM     29  C   UNL A   1      30.750  29.056  24.172  1.00  0.00     0.270 A 
ATOM     30  C   UNL A   1      31.181  29.886  25.212  1.00  0.00     0.085 A 
BRANCH  29  31
ATOM     31  N   UNL A   1      29.984  29.647  23.066  1.00  0.00     0.062 N 
ATOM     32  O   UNL A   1      29.194  30.563  23.339  1.00  0.00    -0.258 OA
ATOM     33  O   UNL A   1      30.211  29.226  21.925  1.00  0.00    -0.258 OA
ENDBRANCH  29  31
ENDBRANCH  15  25
ENDBRANCH   6   8
ENDBRANCH   5   6
ENDBRANCH   4   5
ENDBRANCH   3   4
ENDBRANCH   2   3
ENDBRANCH   1   2
BRANCH   1  34
ATOM     34  C   UNL A   1      40.092  22.076  27.037  1.00  0.00     0.188 C 
BRANCH  34  35
ATOM     35  O   UNL A   1      41.155  21.163  27.258  1.00  0.00    -0.376 OA
BRANCH  35  36
ATOM     36  C   UNL A   1      41.861  20.627  26.164  1.00  0.00     0.202 C 
BRANCH  36  37
ATOM     37  C   UNL A   1      43.094  21.464  25.787  1.00  0.00     0.261 C 
BRANCH  37  38
ATOM     38  O   UNL A   1      42.749  22.516  24.855  1.00  0.00    -0.460 OA
BRANCH  38  39
ATOM     39  C   UNL A   1      43.372  23.719  25.067  1.00  0.00     0.338 C 
ATOM     40  O   UNL A   1      44.489  24.003  24.660  1.00  0.00    -0.246 OA
BRANCH  39  41
ATOM     41  C   UNL A   1      42.611  24.537  26.062  1.00  0.00     0.060 A 
ATOM     42  C   UNL A   1      41.585  25.442  25.770  1.00  0.00     0.016 A 
ATOM     43  C   UNL A   1      43.168  24.685  27.277  1.00  0.00     0.016 A 
ATOM     44  C   UNL A   1      41.200  26.527  26.677  1.00  0.00     0.010 A 
ATOM     45  C   UNL A   1      43.006  25.950  27.851  1.00  0.00     0.010 A 
ATOM     46  C   UNL A   1      41.961  26.906  27.773  1.00  0.00    -0.014 A 
BRANCH  46  47
ATOM     47  C   UNL A   1      41.678  28.233  28.800  1.00  0.00     0.031 A 
ATOM     48  C   UNL A   1      40.374  29.406  28.941  1.00  0.00     0.074 A 
ATOM     49  C   UNL A   1      42.640  28.536  29.713  1.00  0.00     0.049 A 
ATOM     50  N   UNL A   1      40.505  30.600  29.504  1.00  0.00    -0.248 NA
ATOM     51  C   UNL A   1      38.946  29.373  28.488  1.00  0.00     0.031 C 
ATOM     52  C   UNL A   1      42.515  29.462  30.841  1.00  0.00     0.029 A 
ATOM     53  N   UNL A   1      43.989  28.175  29.743  1.00  0.00    -0.354 N 
ATOM     54  C   UNL A   1      39.256  31.221  29.667  1.00  0.00     0.074 A 
ATOM     55  C   UNL A   1      38.311  30.387  29.047  1.00  0.00     0.031 C 
ATOM     56  C   UNL A   1      43.730  29.893  31.194  1.00  0.00     0.029 A 
ATOM     57  C   UNL A   1      44.688  29.270  30.314  1.00  0.00     0.049 A 
ATOM     58  H   UNL A   1      44.378  27.327  29.431  1.00  0.00     0.167 HD
ATOM     59  C   UNL A   1      39.032  32.381  30.346  1.00  0.00     0.037 A 
ATOM     60  C   UNL A   1      45.716  29.898  29.683  1.00  0.00     0.037 A 
ATOM     61  C   UNL A   1      40.272  32.986  30.728  1.00  0.00     0.049 A 
ATOM     62  C   UNL A   1      45.472  31.359  29.364  1.00  0.00     0.074 A 
ATOM     63  C   UNL A   1      41.020  32.968  31.888  1.00  0.00     0.029 A 
ATOM     64  N   UNL A   1      41.091  33.463  29.722  1.00  0.00    -0.354 N 
ATOM     65  N   UNL A   1      44.454  32.058  29.787  1.00  0.00    -0.248 NA
ATOM     66  C   UNL A   1      46.334  32.145  28.479  1.00  0.00     0.031 C 
ATOM     67  C   UNL A   1      42.326  33.400  31.562  1.00  0.00     0.029 A 
ATOM     68  C   UNL A   1      42.358  33.692  30.210  1.00  0.00     0.049 A 
ATOM     69  H   UNL A   1      40.809  33.617  28.792  1.00  0.00     0.167 HD
ATOM     70  C   UNL A   1      44.442  33.291  29.168  1.00  0.00     0.074 A 
ATOM     71  C   UNL A   1      45.681  33.319  28.421  1.00  0.00     0.031 C 
ATOM     72  C   UNL A   1      43.387  34.154  29.298  1.00  0.00     0.037 A 
BRANCH  59  73
ATOM     73  C   UNL A   1      37.655  32.762  30.882  1.00  0.00     0.057 A 
ATOM     74  C   UNL A   1      37.231  32.284  32.136  1.00  0.00     0.134 A 
ATOM     75  C   UNL A   1      36.660  33.459  30.170  1.00  0.00     0.134 A 
ATOM     76  F   UNL A   1      38.090  31.738  33.003  1.00  0.00    -0.206 F 
ATOM     77  C   UNL A   1      35.893  32.320  32.555  1.00  0.00     0.040 A 
ATOM     78  C   UNL A   1      35.304  33.448  30.545  1.00  0.00     0.040 A 
ATOM     79  F   UNL A   1      36.962  34.193  29.088  1.00  0.00    -0.206 F 
ATOM     80  C   UNL A   1      34.911  32.846  31.730  1.00  0.00     0.006 A 
ENDBRANCH  59  73
BRANCH  60  81
ATOM     81  C   UNL A   1      46.546  28.946  28.909  1.00  0.00     0.057 A 
ATOM     82  C   UNL A   1      47.414  28.076  29.582  1.00  0.00     0.134 A 
ATOM     83  C   UNL A   1      46.106  28.543  27.659  1.00  0.00     0.134 A 
ATOM     84  F   UNL A   1      47.877  28.404  30.796  1.00  0.00    -0.206 F 
ATOM     85  C   UNL A   1      47.727  26.805  29.083  1.00  0.00     0.040 A 
ATOM     86  C   UNL A   1      46.376  27.257  27.180  1.00  0.00     0.040 A 
ATOM     87  F   UNL A   1      45.231  29.317  27.003  1.00  0.00    -0.206 F 
ATOM     88  C   UNL A   1      47.163  26.370  27.895  1.00  0.00     0.006 A 
ENDBRANCH  60  81
BRANCH  72  89
ATOM     89  C   UNL A   1      43.166  35.501  28.626  1.00  0.00     0.057 A 
ATOM     90  C   UNL A   1      42.817  35.697  27.285  1.00  0.00     0.134 A 
ATOM     91  C   UNL A   1      43.184  36.688  29.408  1.00  0.00     0.134 A 
ATOM     92  F   UNL A   1      42.653  34.669  26.444  1.00  0.00    -0.206 F 
ATOM     93  C   UNL A   1      42.560  36.973  26.751  1.00  0.00     0.040 A 
ATOM     94  C   UNL A   1      42.868  37.953  28.901  1.00  0.00     0.040 A 
ATOM     95  F   UNL A   1      43.491  36.669  30.714  1.00  0.00    -0.206 F 
ATOM     96  C   UNL A   1      42.572  38.103  27.560  1.00  0.00     0.006 A 
ENDBRANCH  72  89
ENDBRANCH  46  47
ENDBRANCH  39  41
ENDBRANCH  38  39
ENDBRANCH  37  38
ENDBRANCH  36  37
ENDBRANCH  35  36
ENDBRANCH  34  35
ENDBRANCH   1  34
TORSDOF 20
ENDMDL
MODEL 2
REMARK VINA RESULT:     -13.5      1.701      2.560
REMARK SMILES Cc1ccc(-c2cc(C(=O)OCCOCCOCCOC(=O)c3ccc(-c4c5nc(c(-c6c(F)cccc6F)c6ccc([nH]6)c(-c6c(F)cccc6F)c6nc(c(-c7c(F)cccc7F)c7ccc4[nH]7)C=C6)C=C5)cc3)c3c(-c4cccc([N+](=O)[O-])c4)[nH]nc3n2)cc1
REMARK SMILES IDX 15 1 14 2 13 3 12 4 11 5 9 6 10 7 8 8 6 9 7 10 91 11 90 12
REMARK SMILES IDX 77 13 89 14 78 15 88 16 5 18 1 19 2 20 3 21 93 22 4 23 92 24
REMARK SMILES IDX 79 25 80 26 87 27 81 28 83 29 82 30 84 31 85 32 86 33 16 34
REMARK SMILES IDX 17 35 18 36 19 37 20 38 21 39 22 40 23 41 24 42 76 43 25 44
REMARK SMILES IDX 75 45 26 46 27 47 28 48 69 49 29 50 74 51 68 52 70 53 30 54
REMARK SMILES IDX 73 55 67 56 66 57 31 59 57 60 40 61 56 62 41 63 44 64 55 65
REMARK SMILES IDX 71 66 42 67 43 68 54 70 72 71 45 72 32 73 33 74 38 75 34 76
REMARK SMILES IDX 35 77 37 78 39 79 36 80 58 81 59 82 64 83 60 84 61 85 63 86
REMARK SMILES IDX 65 87 62 88 46 89 47 90 52 91 48 92 49 93 51 94 53 95 50 96
REMARK H PARENT 88 17 70 58 44 69
REMARK Flexibility Score: inf
ROOT
ATOM      1  C   UNL A   1      39.721  21.376  26.196  1.00  0.00     0.188 C 
ENDROOT
BRANCH   1   2
ATOM      2  O   UNL A   1      38.486  22.097  25.923  1.00  0.00    -0.376 OA
BRANCH   2   3
ATOM      3  C   UNL A   1      37.606  21.674  24.847  1.00  0.00     0.202 C 
BRANCH   3   4
ATOM      4  C   UNL A   1      36.926  22.848  23.789  1.00  0.00     0.261 C 
BRANCH   4   5
ATOM      5  O   UNL A   1      35.431  23.787  23.904  1.00  0.00    -0.460 OA
BRANCH   5   6
ATOM      6  C   UNL A   1      34.202  24.201  23.218  1.00  0.00     0.339 C 
ATOM      7  O   UNL A   1      34.025  25.059  22.357  1.00  0.00    -0.246 OA
BRANCH   6   8
ATOM      8  C   UNL A   1      32.891  23.767  23.688  1.00  0.00     0.075 A 
ATOM      9  C   UNL A   1      32.122  21.620  24.547  1.00  0.00     0.074 A 
ATOM     10  C   UNL A   1      32.867  22.380  23.642  1.00  0.00     0.045 A 
ATOM     11  N   UNL A   1      31.271  22.067  25.484  1.00  0.00    -0.226 NA
ATOM     12  C   UNL A   1      31.236  23.412  25.575  1.00  0.00     0.182 A 
ATOM     13  C   UNL A   1      32.024  24.319  24.731  1.00  0.00     0.061 A 
ATOM     14  N   UNL A   1      30.490  24.030  26.478  1.00  0.00    -0.154 NA
ATOM     15  C   UNL A   1      31.677  25.585  25.263  1.00  0.00     0.076 A 
ATOM     16  N   UNL A   1      30.798  25.298  26.299  1.00  0.00    -0.275 N 
ATOM     17  H   UNL A   1      30.425  26.007  26.872  1.00  0.00     0.190 HD
BRANCH   9  18
ATOM     18  C   UNL A   1      32.302  20.188  24.457  1.00  0.00     0.000 A 
ATOM     19  C   UNL A   1      33.895  16.299  23.705  1.00  0.00     0.044 C 
ATOM     20  C   UNL A   1      33.279  17.627  24.010  1.00  0.00    -0.051 A 
ATOM     21  C   UNL A   1      32.595  18.307  22.995  1.00  0.00     0.004 A 
ATOM     22  C   UNL A   1      33.402  18.201  25.280  1.00  0.00     0.004 A 
ATOM     23  C   UNL A   1      32.100  19.580  23.219  1.00  0.00     0.010 A 
ATOM     24  C   UNL A   1      32.911  19.481  25.507  1.00  0.00     0.010 A 
ENDBRANCH   9  18
BRANCH  15  25
ATOM     25  C   UNL A   1      31.780  27.053  25.095  1.00  0.00     0.007 A 
ATOM     26  C   UNL A   1      32.250  27.846  26.169  1.00  0.00     0.011 A 
ATOM     27  C   UNL A   1      30.987  27.704  24.134  1.00  0.00     0.096 A 
ATOM     28  C   UNL A   1      31.968  29.224  26.266  1.00  0.00     0.008 A 
ATOM     29  C   UNL A   1      30.752  29.098  24.204  1.00  0.00     0.270 A 
ATOM     30  C   UNL A   1      31.226  29.860  25.277  1.00  0.00     0.085 A 
BRANCH  29  31
ATOM     31  N   UNL A   1      30.077  29.783  23.092  1.00  0.00     0.062 N 
ATOM     32  O   UNL A   1      29.263  30.675  23.376  1.00  0.00    -0.258 OA
ATOM     33  O   UNL A   1      30.399  29.461  21.943  1.00  0.00    -0.258 OA
ENDBRANCH  29  31
ENDBRANCH  15  25
ENDBRANCH   6   8
ENDBRANCH   5   6
ENDBRANCH   4   5
ENDBRANCH   3   4
ENDBRANCH   2   3
ENDBRANCH   1   2
BRANCH   1  34
ATOM     34  C   UNL A   1      40.831  22.363  26.673  1.00  0.00     0.188 C 
BRANCH  34  35
ATOM     35  O   UNL A   1      42.016  21.600  26.837  1.00  0.00    -0.376 OA
BRANCH  35  36
ATOM     36  C   UNL A   1      42.030  20.237  26.486  1.00  0.00     0.202 C 
BRANCH  36  37
ATOM     37  C   UNL A   1      43.264  19.852  25.655  1.00  0.00     0.261 C 
BRANCH  37  38
ATOM     38  O   UNL A   1      43.594  20.884  24.695  1.00  0.00    -0.460 OA
BRANCH  38  39
ATOM     39  C   UNL A   1      44.912  21.257  24.659  1.00  0.00     0.338 C 
ATOM     40  O   UNL A   1      45.821  20.558  24.237  1.00  0.00    -0.246 OA
BRANCH  39  41
ATOM     41  C   UNL A   1      45.121  22.524  25.427  1.00  0.00     0.060 A 
ATOM     42  C   UNL A   1      45.652  22.626  26.718  1.00  0.00     0.016 A 
ATOM     43  C   UNL A   1      44.440  23.605  25.008  1.00  0.00     0.016 A 
ATOM     44  C   UNL A   1      45.417  23.784  27.585  1.00  0.00     0.010 A 
ATOM     45  C   UNL A   1      43.957  24.432  26.028  1.00  0.00     0.010 A 
ATOM     46  C   UNL A   1      44.462  24.753  27.315  1.00  0.00    -0.014 A 
BRANCH  46  47
ATOM     47  C   UNL A   1      44.013  26.051  28.320  1.00  0.00     0.031 A 
ATOM     48  C   UNL A   1      42.519  26.953  28.547  1.00  0.00     0.074 A 
ATOM     49  C   UNL A   1      44.972  26.583  29.124  1.00  0.00     0.049 A 
ATOM     50  N   UNL A   1      42.460  28.177  29.054  1.00  0.00    -0.248 NA
ATOM     51  C   UNL A   1      41.092  26.618  28.236  1.00  0.00     0.031 C 
ATOM     52  C   UNL A   1      44.766  27.524  30.228  1.00  0.00     0.029 A 
ATOM     53  N   UNL A   1      46.363  26.494  29.036  1.00  0.00    -0.354 N 
ATOM     54  C   UNL A   1      41.131  28.551  29.317  1.00  0.00     0.074 A 
ATOM     55  C   UNL A   1      40.320  27.518  28.820  1.00  0.00     0.031 C 
ATOM     56  C   UNL A   1      45.897  28.201  30.446  1.00  0.00     0.029 A 
ATOM     57  C   UNL A   1      46.878  27.732  29.499  1.00  0.00     0.049 A 
ATOM     58  H   UNL A   1      46.884  25.722  28.716  1.00  0.00     0.167 HD
ATOM     59  C   UNL A   1      40.742  29.678  29.975  1.00  0.00     0.037 A 
ATOM     60  C   UNL A   1      47.701  28.515  28.750  1.00  0.00     0.037 A 
ATOM     61  C   UNL A   1      41.866  30.532  30.214  1.00  0.00     0.049 A 
ATOM     62  C   UNL A   1      47.143  29.882  28.408  1.00  0.00     0.074 A 
ATOM     63  C   UNL A   1      42.701  30.721  31.296  1.00  0.00     0.029 A 
ATOM     64  N   UNL A   1      42.481  31.107  29.118  1.00  0.00    -0.354 N 
ATOM     65  N   UNL A   1      46.048  30.389  28.903  1.00  0.00    -0.248 NA
ATOM     66  C   UNL A   1      47.750  30.774  27.418  1.00  0.00     0.031 C 
ATOM     67  C   UNL A   1      43.861  31.382  30.830  1.00  0.00     0.029 A 
ATOM     68  C   UNL A   1      43.715  31.604  29.473  1.00  0.00     0.049 A 
ATOM     69  H   UNL A   1      42.092  31.154  28.215  1.00  0.00     0.167 HD
ATOM     70  C   UNL A   1      45.737  31.562  28.248  1.00  0.00     0.074 A 
ATOM     71  C   UNL A   1      46.874  31.793  27.383  1.00  0.00     0.031 C 
ATOM     72  C   UNL A   1      44.547  32.209  28.451  1.00  0.00     0.037 A 
BRANCH  59  73
ATOM     73  C   UNL A   1      39.369  29.811  30.629  1.00  0.00     0.057 A 
ATOM     74  C   UNL A   1      39.076  29.091  31.802  1.00  0.00     0.134 A 
ATOM     75  C   UNL A   1      38.265  30.499  30.089  1.00  0.00     0.134 A 
ATOM     76  F   UNL A   1      40.040  28.512  32.526  1.00  0.00    -0.206 F 
ATOM     77  C   UNL A   1      37.771  28.910  32.281  1.00  0.00     0.040 A 
ATOM     78  C   UNL A   1      36.943  30.276  30.518  1.00  0.00     0.040 A 
ATOM     79  F   UNL A   1      38.421  31.427  29.133  1.00  0.00    -0.206 F 
ATOM     80  C   UNL A   1      36.690  29.449  31.601  1.00  0.00     0.006 A 
ENDBRANCH  59  73
BRANCH  60  81
ATOM     81  C   UNL A   1      48.632  27.704  27.931  1.00  0.00     0.057 A 
ATOM     82  C   UNL A   1      49.732  27.086  28.540  1.00  0.00     0.134 A 
ATOM     83  C   UNL A   1      48.162  27.128  26.763  1.00  0.00     0.134 A 
ATOM     84  F   UNL A   1      50.237  27.590  29.675  1.00  0.00    -0.206 F 
ATOM     85  C   UNL A   1      50.259  25.875  28.071  1.00  0.00     0.040 A 
ATOM     86  C   UNL A   1      48.652  25.896  26.319  1.00  0.00     0.040 A 
ATOM     87  F   UNL A   1      47.077  27.652  26.177  1.00  0.00    -0.206 F 
ATOM     88  C   UNL A   1      49.682  25.247  26.979  1.00  0.00     0.006 A 
ENDBRANCH  60  81
BRANCH  72  89
ATOM     89  C   UNL A   1      44.004  33.451  27.758  1.00  0.00     0.057 A 
ATOM     90  C   UNL A   1      43.707  34.668  28.380  1.00  0.00     0.134 A 
ATOM     91  C   UNL A   1      43.882  33.469  26.342  1.00  0.00     0.134 A 
ATOM     92  F   UNL A   1      43.875  34.846  29.696  1.00  0.00    -0.206 F 
ATOM     93  C   UNL A   1      43.273  35.797  27.660  1.00  0.00     0.040 A 
ATOM     94  C   UNL A   1      43.513  34.603  25.612  1.00  0.00     0.040 A 
ATOM     95  F   UNL A   1      44.139  32.383  25.597  1.00  0.00    -0.206 F 
ATOM     96  C   UNL A   1      43.187  35.772  26.274  1.00  0.00     0.006 A 
ENDBRANCH  72  89
ENDBRANCH  46  47
ENDBRANCH  39  41
ENDBRANCH  38  39
ENDBRANCH  37  38
ENDBRANCH  36  37
ENDBRANCH  35  36
ENDBRANCH  34  35
ENDBRANCH   1  34
TORSDOF 20
ENDMDL
MODEL 3
REMARK VINA RESULT:     -13.5      2.131      3.524
REMARK SMILES Cc1ccc(-c2cc(C(=O)OCCOCCOCCOC(=O)c3ccc(-c4c5nc(c(-c6c(F)cccc6F)c6ccc([nH]6)c(-c6c(F)cccc6F)c6nc(c(-c7c(F)cccc7F)c7ccc4[nH]7)C=C6)C=C5)cc3)c3c(-c4cccc([N+](=O)[O-])c4)[nH]nc3n2)cc1
REMARK SMILES IDX 15 1 14 2 13 3 12 4 11 5 9 6 10 7 8 8 6 9 7 10 91 11 90 12
REMARK SMILES IDX 77 13 89 14 78 15 88 16 5 18 1 19 2 20 3 21 93 22 4 23 92 24
REMARK SMILES IDX 79 25 80 26 87 27 81 28 83 29 82 30 84 31 85 32 86 33 16 34
REMARK SMILES IDX 17 35 18 36 19 37 20 38 21 39 22 40 23 41 24 42 76 43 25 44
REMARK SMILES IDX 75 45 26 46 27 47 28 48 69 49 29 50 74 51 68 52 70 53 30 54
REMARK SMILES IDX 73 55 67 56 66 57 31 59 57 60 40 61 56 62 41 63 44 64 55 65
REMARK SMILES IDX 71 66 42 67 43 68 54 70 72 71 45 72 32 73 33 74 38 75 34 76
REMARK SMILES IDX 35 77 37 78 39 79 36 80 58 81 59 82 64 83 60 84 61 85 63 86
REMARK SMILES IDX 65 87 62 88 46 89 47 90 52 91 48 92 49 93 51 94 53 95 50 96
REMARK H PARENT 88 17 70 58 44 69
REMARK Flexibility Score: inf
ROOT
ATOM      1  C   UNL A   1      35.994  23.648  24.785  1.00  0.00     0.188 C 
ENDROOT
BRANCH   1   2
ATOM      2  O   UNL A   1      34.879  24.567  24.604  1.00  0.00    -0.376 OA
BRANCH   2   3
ATOM      3  C   UNL A   1      34.457  25.440  25.686  1.00  0.00     0.202 C 
BRANCH   3   4
ATOM      4  C   UNL A   1      34.013  27.066  25.348  1.00  0.00     0.261 C 
BRANCH   4   5
ATOM      5  O   UNL A   1      33.475  27.834  23.847  1.00  0.00    -0.460 OA
BRANCH   5   6
ATOM      6  C   UNL A   1      32.326  28.161  22.994  1.00  0.00     0.339 C 
ATOM      7  O   UNL A   1      31.988  29.233  22.498  1.00  0.00    -0.246 OA
BRANCH   6   8
ATOM      8  C   UNL A   1      31.228  27.221  22.811  1.00  0.00     0.075 A 
ATOM      9  C   UNL A   1      30.933  24.926  23.577  1.00  0.00     0.074 A 
ATOM     10  C   UNL A   1      31.724  25.945  23.042  1.00  0.00     0.045 A 
ATOM     11  N   UNL A   1      29.617  24.965  23.840  1.00  0.00    -0.226 NA
ATOM     12  C   UNL A   1      29.066  26.176  23.625  1.00  0.00     0.182 A 
ATOM     13  C   UNL A   1      29.805  27.346  23.134  1.00  0.00     0.061 A 
ATOM     14  N   UNL A   1      27.788  26.416  23.878  1.00  0.00    -0.154 NA
ATOM     15  C   UNL A   1      28.804  28.348  23.146  1.00  0.00     0.076 A 
ATOM     16  N   UNL A   1      27.672  27.703  23.627  1.00  0.00    -0.275 N 
ATOM     17  H   UNL A   1      26.826  28.184  23.774  1.00  0.00     0.190 HD
BRANCH   9  18
ATOM     18  C   UNL A   1      31.624  23.694  23.884  1.00  0.00     0.000 A 
ATOM     19  C   UNL A   1      32.565  19.587  24.572  1.00  0.00     0.044 C 
ATOM     20  C   UNL A   1      32.314  21.041  24.334  1.00  0.00    -0.051 A 
ATOM     21  C   UNL A   1      31.778  21.816  25.371  1.00  0.00     0.004 A 
ATOM     22  C   UNL A   1      32.581  21.623  23.091  1.00  0.00     0.004 A 
ATOM     23  C   UNL A   1      31.442  23.140  25.151  1.00  0.00     0.010 A 
ATOM     24  C   UNL A   1      32.240  22.950  22.864  1.00  0.00     0.010 A 
ENDBRANCH   9  18
BRANCH  15  25
ATOM     25  C   UNL A   1      28.455  29.735  22.760  1.00  0.00     0.007 A 
ATOM     26  C   UNL A   1      27.988  29.996  21.449  1.00  0.00     0.011 A 
ATOM     27  C   UNL A   1      29.025  30.818  23.450  1.00  0.00     0.096 A 
ATOM     28  C   UNL A   1      28.060  31.279  20.867  1.00  0.00     0.008 A 
ATOM     29  C   UNL A   1      29.045  32.115  22.886  1.00  0.00     0.270 A 
ATOM     30  C   UNL A   1      28.579  32.348  21.588  1.00  0.00     0.085 A 
BRANCH  29  31
ATOM     31  N   UNL A   1      29.478  33.261  23.699  1.00  0.00     0.062 N 
ATOM     32  O   UNL A   1      30.163  33.025  24.706  1.00  0.00    -0.258 OA
ATOM     33  O   UNL A   1      29.173  34.391  23.302  1.00  0.00    -0.258 OA
ENDBRANCH  29  31
ENDBRANCH  15  25
ENDBRANCH   6   8
ENDBRANCH   5   6
ENDBRANCH   4   5
ENDBRANCH   3   4
ENDBRANCH   2   3
ENDBRANCH   1   2
BRANCH   1  34
ATOM     34  C   UNL A   1      35.512  22.345  25.493  1.00  0.00     0.188 C 
BRANCH  34  35
ATOM     35  O   UNL A   1      36.675  21.618  25.854  1.00  0.00    -0.376 OA
BRANCH  35  36
ATOM     36  C   UNL A   1      37.793  21.609  24.998  1.00  0.00     0.202 C 
BRANCH  36  37
ATOM     37  C   UNL A   1      39.103  21.291  25.736  1.00  0.00     0.261 C 
BRANCH  37  38
ATOM     38  O   UNL A   1      39.390  22.286  26.747  1.00  0.00    -0.460 OA
BRANCH  38  39
ATOM     39  C   UNL A   1      40.443  23.120  26.470  1.00  0.00     0.338 C 
ATOM     40  O   UNL A   1      41.593  22.750  26.288  1.00  0.00    -0.246 OA
BRANCH  39  41
ATOM     41  C   UNL A   1      40.045  24.549  26.665  1.00  0.00     0.060 A 
ATOM     42  C   UNL A   1      40.877  25.664  26.508  1.00  0.00     0.016 A 
ATOM     43  C   UNL A   1      38.924  24.775  27.372  1.00  0.00     0.016 A 
ATOM     44  C   UNL A   1      40.598  26.959  27.135  1.00  0.00     0.010 A 
ATOM     45  C   UNL A   1      38.976  25.884  28.223  1.00  0.00     0.010 A 
ATOM     46  C   UNL A   1      39.642  27.133  28.125  1.00  0.00    -0.014 A 
BRANCH  46  47
ATOM     47  C   UNL A   1      39.339  28.553  29.012  1.00  0.00     0.031 A 
ATOM     48  C   UNL A   1      38.281  29.938  28.766  1.00  0.00     0.074 A 
ATOM     49  C   UNL A   1      40.058  28.748  30.150  1.00  0.00     0.049 A 
ATOM     50  N   UNL A   1      38.471  31.126  29.324  1.00  0.00    -0.248 NA
ATOM     51  C   UNL A   1      37.046  30.118  27.936  1.00  0.00     0.031 C 
ATOM     52  C   UNL A   1      39.804  29.753  31.184  1.00  0.00     0.029 A 
ATOM     53  N   UNL A   1      41.260  28.165  30.558  1.00  0.00    -0.354 N 
ATOM     54  C   UNL A   1      37.358  31.960  29.125  1.00  0.00     0.074 A 
ATOM     55  C   UNL A   1      36.480  31.260  28.281  1.00  0.00     0.031 C 
ATOM     56  C   UNL A   1      40.936  29.993  31.853  1.00  0.00     0.029 A 
ATOM     57  C   UNL A   1      41.966  29.160  31.282  1.00  0.00     0.049 A 
ATOM     58  H   UNL A   1      41.558  27.244  30.380  1.00  0.00     0.167 HD
ATOM     59  C   UNL A   1      37.174  33.183  29.696  1.00  0.00     0.037 A 
ATOM     60  C   UNL A   1      43.223  29.560  30.951  1.00  0.00     0.037 A 
ATOM     61  C   UNL A   1      38.354  33.592  30.396  1.00  0.00     0.049 A 
ATOM     62  C   UNL A   1      43.343  31.018  30.553  1.00  0.00     0.074 A 
ATOM     63  C   UNL A   1      38.745  33.524  31.718  1.00  0.00     0.029 A 
ATOM     64  N   UNL A   1      39.486  33.856  29.648  1.00  0.00    -0.354 N 
ATOM     65  N   UNL A   1      42.394  31.906  30.665  1.00  0.00    -0.248 NA
ATOM     66  C   UNL A   1      44.540  31.586  29.929  1.00  0.00     0.031 C 
ATOM     67  C   UNL A   1      40.147  33.705  31.759  1.00  0.00     0.029 A 
ATOM     68  C   UNL A   1      40.594  33.897  30.465  1.00  0.00     0.049 A 
ATOM     69  H   UNL A   1      39.498  33.994  28.674  1.00  0.00     0.167 HD
ATOM     70  C   UNL A   1      42.774  33.079  30.047  1.00  0.00     0.074 A 
ATOM     71  C   UNL A   1      44.152  32.847  29.672  1.00  0.00     0.031 C 
ATOM     72  C   UNL A   1      41.898  34.116  29.866  1.00  0.00     0.037 A 
BRANCH  59  73
ATOM     73  C   UNL A   1      35.797  33.828  29.823  1.00  0.00     0.057 A 
ATOM     74  C   UNL A   1      35.182  34.403  28.696  1.00  0.00     0.134 A 
ATOM     75  C   UNL A   1      35.098  34.043  31.028  1.00  0.00     0.134 A 
ATOM     76  F   UNL A   1      35.628  34.163  27.458  1.00  0.00    -0.206 F 
ATOM     77  C   UNL A   1      34.088  35.276  28.784  1.00  0.00     0.040 A 
ATOM     78  C   UNL A   1      34.042  34.965  31.142  1.00  0.00     0.040 A 
ATOM     79  F   UNL A   1      35.401  33.359  32.141  1.00  0.00    -0.206 F 
ATOM     80  C   UNL A   1      33.553  35.613  30.017  1.00  0.00     0.006 A 
ENDBRANCH  59  73
BRANCH  60  81
ATOM     81  C   UNL A   1      44.043  28.432  30.452  1.00  0.00     0.057 A 
ATOM     82  C   UNL A   1      44.536  27.481  31.355  1.00  0.00     0.134 A 
ATOM     83  C   UNL A   1      43.881  28.020  29.140  1.00  0.00     0.134 A 
ATOM     84  F   UNL A   1      44.715  27.813  32.641  1.00  0.00    -0.206 F 
ATOM     85  C   UNL A   1      44.737  26.143  30.991  1.00  0.00     0.040 A 
ATOM     86  C   UNL A   1      44.033  26.676  28.783  1.00  0.00     0.040 A 
ATOM     87  F   UNL A   1      43.360  28.879  28.254  1.00  0.00    -0.206 F 
ATOM     88  C   UNL A   1      44.435  25.724  29.705  1.00  0.00     0.006 A 
ENDBRANCH  60  81
BRANCH  72  89
ATOM     89  C   UNL A   1      42.115  35.434  29.137  1.00  0.00     0.057 A 
ATOM     90  C   UNL A   1      41.416  35.865  28.004  1.00  0.00     0.134 A 
ATOM     91  C   UNL A   1      43.005  36.400  29.681  1.00  0.00     0.134 A 
ATOM     92  F   UNL A   1      40.464  35.114  27.437  1.00  0.00    -0.206 F 
ATOM     93  C   UNL A   1      41.624  37.130  27.425  1.00  0.00     0.040 A 
ATOM     94  C   UNL A   1      43.172  37.683  29.150  1.00  0.00     0.040 A 
ATOM     95  F   UNL A   1      43.743  36.145  30.772  1.00  0.00    -0.206 F 
ATOM     96  C   UNL A   1      42.492  38.047  28.003  1.00  0.00     0.006 A 
ENDBRANCH  72  89
ENDBRANCH  46  47
ENDBRANCH  39  41
ENDBRANCH  38  39
ENDBRANCH  37  38
ENDBRANCH  36  37
ENDBRANCH  35  36
ENDBRANCH  34  35
ENDBRANCH   1  34
TORSDOF 20
ENDMDL
