MODEL 1
REMARK VINA RESULT:     -10.9      0.000      0.000
REMARK SMILES O=C(Cc1ccccc1Nc1c(Cl)cccc1C(F)(F)F)OCCOCCOCCOC(=O)c1ccc(-c2c3nc(c(-c4c(F)cccc4F)c4ccc([nH]4)c(-c4c(F)cccc4F)c4nc(c(-c5c(F)cccc5F)c5ccc2[nH]5)C=C4)C=C3)cc1
REMARK SMILES IDX 26 1 25 2 24 3 23 4 22 5 2 6 1 7 3 8 4 9 5 10 9 11 6 12 8 13
REMARK SMILES IDX 7 14 10 15 11 17 12 18 17 19 13 20 14 21 16 22 15 23 18 24
REMARK SMILES IDX 19 25 20 26 21 27 27 28 28 29 29 30 30 31 31 32 32 33 33 34
REMARK SMILES IDX 34 35 35 36 87 37 36 38 86 39 37 40 38 41 39 42 80 43 40 44
REMARK SMILES IDX 85 45 79 46 81 47 41 48 84 49 78 50 77 51 42 53 68 54 51 55
REMARK SMILES IDX 67 56 52 57 55 58 66 59 82 60 53 61 54 62 65 64 83 65 56 66
REMARK SMILES IDX 43 67 44 68 49 69 45 70 46 71 48 72 50 73 47 74 69 75 70 76
REMARK SMILES IDX 75 77 71 78 72 79 74 80 76 81 73 82 57 83 58 84 63 85 59 86
REMARK SMILES IDX 60 87 62 88 64 89 61 90
REMARK H PARENT 10 16 81 52 55 63
REMARK Flexibility Score: inf
ROOT
ATOM      1  C   UNL A   1      39.827  21.058  25.848  1.00  0.00     0.188 C 
ENDROOT
BRANCH   1   2
ATOM      2  O   UNL A   1      39.176  22.063  26.601  1.00  0.00    -0.376 OA
BRANCH   2   3
ATOM      3  C   UNL A   1      38.283  22.919  25.911  1.00  0.00     0.202 C 
BRANCH   3   4
ATOM      4  C   UNL A   1      37.138  22.186  25.215  1.00  0.00     0.261 C 
BRANCH   4   5
ATOM      5  O   UNL A   1      36.048  21.715  26.043  1.00  0.00    -0.463 OA
BRANCH   5   6
ATOM      6  C   UNL A   1      34.741  22.044  25.996  1.00  0.00     0.310 C 
ATOM      7  O   UNL A   1      34.026  21.561  25.117  1.00  0.00    -0.252 OA
BRANCH   6   8
ATOM      8  C   UNL A   1      34.192  23.089  26.930  1.00  0.00     0.160 C 
BRANCH   8   9
ATOM      9  C   UNL A   1      32.796  23.617  26.697  1.00  0.00    -0.013 A 
ATOM     10  C   UNL A   1      31.672  22.843  27.042  1.00  0.00     0.006 A 
ATOM     11  C   UNL A   1      32.610  24.855  26.033  1.00  0.00     0.042 A 
ATOM     12  C   UNL A   1      30.381  23.295  26.785  1.00  0.00     0.000 A 
ATOM     13  C   UNL A   1      31.295  25.266  25.756  1.00  0.00     0.026 A 
ATOM     14  C   UNL A   1      30.192  24.503  26.136  1.00  0.00     0.002 A 
BRANCH  11  15
ATOM     15  N   UNL A   1      33.723  25.675  25.694  1.00  0.00    -0.354 N 
ATOM     16  H   UNL A   1      34.506  25.628  26.288  1.00  0.00     0.167 HD
BRANCH  15  17
ATOM     17  C   UNL A   1      33.815  26.554  24.584  1.00  0.00     0.070 A 
ATOM     18  C   UNL A   1      33.820  25.989  23.287  1.00  0.00     0.065 A 
ATOM     19  C   UNL A   1      33.727  27.952  24.712  1.00  0.00     0.080 A 
ATOM     20  Cl  UNL A   1      34.072  24.289  23.066  1.00  0.00    -0.082 Cl
ATOM     21  C   UNL A   1      33.609  26.771  22.155  1.00  0.00     0.023 A 
ATOM     22  C   UNL A   1      33.496  28.727  23.557  1.00  0.00     0.015 A 
ATOM     23  C   UNL A   1      33.400  28.136  22.299  1.00  0.00     0.002 A 
BRANCH  19  24
ATOM     24  C   UNL A   1      33.853  28.675  26.032  1.00  0.00     0.418 C 
ATOM     25  F   UNL A   1      33.234  29.894  26.000  1.00  0.00    -0.166 F 
ATOM     26  F   UNL A   1      33.251  28.002  27.053  1.00  0.00    -0.166 F 
ATOM     27  F   UNL A   1      35.125  28.937  26.437  1.00  0.00    -0.166 F 
ENDBRANCH  19  24
ENDBRANCH  15  17
ENDBRANCH  11  15
ENDBRANCH   8   9
ENDBRANCH   6   8
ENDBRANCH   5   6
ENDBRANCH   4   5
ENDBRANCH   3   4
ENDBRANCH   2   3
ENDBRANCH   1   2
BRANCH   1  28
ATOM     28  C   UNL A   1      41.179  20.613  26.430  1.00  0.00     0.188 C 
BRANCH  28  29
ATOM     29  O   UNL A   1      42.130  20.002  25.569  1.00  0.00    -0.376 OA
BRANCH  29  30
ATOM     30  C   UNL A   1      43.507  20.343  25.718  1.00  0.00     0.202 C 
BRANCH  30  31
ATOM     31  C   UNL A   1      44.067  21.480  24.852  1.00  0.00     0.261 C 
BRANCH  31  32
ATOM     32  O   UNL A   1      43.228  22.655  24.803  1.00  0.00    -0.460 OA
BRANCH  32  33
ATOM     33  C   UNL A   1      43.874  23.841  24.887  1.00  0.00     0.338 C 
ATOM     34  O   UNL A   1      44.877  24.183  24.274  1.00  0.00    -0.246 OA
BRANCH  33  35
ATOM     35  C   UNL A   1      43.137  24.786  25.748  1.00  0.00     0.060 A 
ATOM     36  C   UNL A   1      43.500  26.139  25.716  1.00  0.00     0.016 A 
ATOM     37  C   UNL A   1      42.191  24.333  26.669  1.00  0.00     0.016 A 
ATOM     38  C   UNL A   1      42.940  27.040  26.628  1.00  0.00     0.010 A 
ATOM     39  C   UNL A   1      41.650  25.232  27.598  1.00  0.00     0.010 A 
ATOM     40  C   UNL A   1      42.043  26.584  27.604  1.00  0.00    -0.014 A 
BRANCH  40  41
ATOM     41  C   UNL A   1      41.645  27.478  28.722  1.00  0.00     0.031 A 
ATOM     42  C   UNL A   1      42.390  27.390  30.031  1.00  0.00     0.074 A 
ATOM     43  C   UNL A   1      40.636  28.358  28.595  1.00  0.00     0.049 A 
ATOM     44  N   UNL A   1      42.170  28.023  31.157  1.00  0.00    -0.248 NA
ATOM     45  C   UNL A   1      43.525  26.456  30.078  1.00  0.00     0.031 C 
ATOM     46  C   UNL A   1      39.823  28.559  27.397  1.00  0.00     0.029 A 
ATOM     47  N   UNL A   1      40.112  29.239  29.510  1.00  0.00    -0.354 N 
ATOM     48  C   UNL A   1      43.127  27.555  32.048  1.00  0.00     0.074 A 
ATOM     49  C   UNL A   1      43.924  26.578  31.336  1.00  0.00     0.031 C 
ATOM     50  C   UNL A   1      38.885  29.487  27.660  1.00  0.00     0.029 A 
ATOM     51  C   UNL A   1      39.026  29.938  29.043  1.00  0.00     0.049 A 
ATOM     52  H   UNL A   1      40.479  29.359  30.415  1.00  0.00     0.167 HD
ATOM     53  C   UNL A   1      43.328  27.903  33.342  1.00  0.00     0.037 A 
ATOM     54  C   UNL A   1      38.225  30.820  29.667  1.00  0.00     0.037 A 
ATOM     55  C   UNL A   1      42.548  28.871  34.066  1.00  0.00     0.049 A 
ATOM     56  C   UNL A   1      38.459  31.172  31.113  1.00  0.00     0.074 A 
ATOM     57  C   UNL A   1      42.710  29.306  35.373  1.00  0.00     0.029 A 
ATOM     58  N   UNL A   1      41.457  29.550  33.554  1.00  0.00    -0.354 N 
ATOM     59  N   UNL A   1      39.375  30.732  31.937  1.00  0.00    -0.248 NA
ATOM     60  C   UNL A   1      37.529  32.145  31.712  1.00  0.00     0.031 C 
ATOM     61  C   UNL A   1      41.689  30.216  35.664  1.00  0.00     0.029 A 
ATOM     62  C   UNL A   1      40.921  30.382  34.525  1.00  0.00     0.049 A 
ATOM     63  H   UNL A   1      41.113  29.457  32.637  1.00  0.00     0.167 HD
ATOM     64  C   UNL A   1      39.129  31.370  33.148  1.00  0.00     0.074 A 
ATOM     65  C   UNL A   1      37.999  32.249  32.944  1.00  0.00     0.031 C 
ATOM     66  C   UNL A   1      39.781  31.234  34.326  1.00  0.00     0.037 A 
BRANCH  53  67
ATOM     67  C   UNL A   1      44.432  27.209  34.082  1.00  0.00     0.057 A 
ATOM     68  C   UNL A   1      44.227  25.990  34.738  1.00  0.00     0.134 A 
ATOM     69  C   UNL A   1      45.730  27.736  34.079  1.00  0.00     0.134 A 
ATOM     70  F   UNL A   1      43.004  25.440  34.784  1.00  0.00    -0.206 F 
ATOM     71  C   UNL A   1      45.274  25.323  35.376  1.00  0.00     0.040 A 
ATOM     72  C   UNL A   1      46.788  27.068  34.694  1.00  0.00     0.040 A 
ATOM     73  F   UNL A   1      45.991  28.898  33.461  1.00  0.00    -0.206 F 
ATOM     74  C   UNL A   1      46.560  25.858  35.347  1.00  0.00     0.006 A 
ENDBRANCH  53  67
BRANCH  54  75
ATOM     75  C   UNL A   1      37.059  31.419  28.980  1.00  0.00     0.057 A 
ATOM     76  C   UNL A   1      37.093  32.739  28.515  1.00  0.00     0.134 A 
ATOM     77  C   UNL A   1      35.838  30.740  28.937  1.00  0.00     0.134 A 
ATOM     78  F   UNL A   1      38.230  33.447  28.575  1.00  0.00    -0.206 F 
ATOM     79  C   UNL A   1      35.939  33.378  28.063  1.00  0.00     0.040 A 
ATOM     80  C   UNL A   1      34.676  31.369  28.490  1.00  0.00     0.040 A 
ATOM     81  F   UNL A   1      35.750  29.474  29.369  1.00  0.00    -0.206 F 
ATOM     82  C   UNL A   1      34.722  32.695  28.059  1.00  0.00     0.006 A 
ENDBRANCH  54  75
BRANCH  66  83
ATOM     83  C   UNL A   1      39.284  32.051  35.481  1.00  0.00     0.057 A 
ATOM     84  C   UNL A   1      39.690  33.379  35.670  1.00  0.00     0.134 A 
ATOM     85  C   UNL A   1      38.388  31.510  36.409  1.00  0.00     0.134 A 
ATOM     86  F   UNL A   1      40.564  33.950  34.826  1.00  0.00    -0.206 F 
ATOM     87  C   UNL A   1      39.238  34.132  36.755  1.00  0.00     0.040 A 
ATOM     88  C   UNL A   1      37.912  32.260  37.486  1.00  0.00     0.040 A 
ATOM     89  F   UNL A   1      37.960  30.245  36.285  1.00  0.00    -0.206 F 
ATOM     90  C   UNL A   1      38.341  33.573  37.664  1.00  0.00     0.006 A 
ENDBRANCH  66  83
ENDBRANCH  40  41
ENDBRANCH  33  35
ENDBRANCH  32  33
ENDBRANCH  31  32
ENDBRANCH  30  31
ENDBRANCH  29  30
ENDBRANCH  28  29
ENDBRANCH   1  28
TORSDOF 21
ENDMDL
MODEL 2
REMARK VINA RESULT:     -10.7      1.634      2.096
REMARK SMILES O=C(Cc1ccccc1Nc1c(Cl)cccc1C(F)(F)F)OCCOCCOCCOC(=O)c1ccc(-c2c3nc(c(-c4c(F)cccc4F)c4ccc([nH]4)c(-c4c(F)cccc4F)c4nc(c(-c5c(F)cccc5F)c5ccc2[nH]5)C=C4)C=C3)cc1
REMARK SMILES IDX 26 1 25 2 24 3 23 4 22 5 2 6 1 7 3 8 4 9 5 10 9 11 6 12 8 13
REMARK SMILES IDX 7 14 10 15 11 17 12 18 17 19 13 20 14 21 16 22 15 23 18 24
REMARK SMILES IDX 19 25 20 26 21 27 27 28 28 29 29 30 30 31 31 32 32 33 33 34
REMARK SMILES IDX 34 35 35 36 87 37 36 38 86 39 37 40 38 41 39 42 80 43 40 44
REMARK SMILES IDX 85 45 79 46 81 47 41 48 84 49 78 50 77 51 42 53 68 54 51 55
REMARK SMILES IDX 67 56 52 57 55 58 66 59 82 60 53 61 54 62 65 64 83 65 56 66
REMARK SMILES IDX 43 67 44 68 49 69 45 70 46 71 48 72 50 73 47 74 69 75 70 76
REMARK SMILES IDX 75 77 71 78 72 79 74 80 76 81 73 82 57 83 58 84 63 85 59 86
REMARK SMILES IDX 60 87 62 88 64 89 61 90
REMARK H PARENT 10 16 81 52 55 63
REMARK Flexibility Score: inf
ROOT
ATOM      1  C   UNL A   1      39.998  19.763  25.794  1.00  0.00     0.188 C 
ENDROOT
BRANCH   1   2
ATOM      2  O   UNL A   1      39.583  21.103  25.976  1.00  0.00    -0.376 OA
BRANCH   2   3
ATOM      3  C   UNL A   1      38.245  21.423  25.636  1.00  0.00     0.202 C 
BRANCH   3   4
ATOM      4  C   UNL A   1      37.846  22.856  25.985  1.00  0.00     0.261 C 
BRANCH   4   5
ATOM      5  O   UNL A   1      37.284  23.667  24.925  1.00  0.00    -0.463 OA
BRANCH   5   6
ATOM      6  C   UNL A   1      36.023  23.685  24.446  1.00  0.00     0.310 C 
ATOM      7  O   UNL A   1      35.676  22.838  23.623  1.00  0.00    -0.252 OA
BRANCH   6   8
ATOM      8  C   UNL A   1      35.091  24.807  24.818  1.00  0.00     0.160 C 
BRANCH   8   9
ATOM      9  C   UNL A   1      33.827  24.485  25.581  1.00  0.00    -0.013 A 
ATOM     10  C   UNL A   1      33.668  23.234  26.206  1.00  0.00     0.006 A 
ATOM     11  C   UNL A   1      32.749  25.405  25.584  1.00  0.00     0.042 A 
ATOM     12  C   UNL A   1      32.489  22.905  26.868  1.00  0.00     0.000 A 
ATOM     13  C   UNL A   1      31.559  25.029  26.230  1.00  0.00     0.026 A 
ATOM     14  C   UNL A   1      31.431  23.799  26.874  1.00  0.00     0.002 A 
BRANCH  11  15
ATOM     15  N   UNL A   1      32.886  26.690  24.985  1.00  0.00    -0.354 N 
ATOM     16  H   UNL A   1      33.779  27.100  25.014  1.00  0.00     0.167 HD
BRANCH  15  17
ATOM     17  C   UNL A   1      31.859  27.436  24.349  1.00  0.00     0.070 A 
ATOM     18  C   UNL A   1      31.388  28.603  24.996  1.00  0.00     0.065 A 
ATOM     19  C   UNL A   1      31.419  27.162  23.042  1.00  0.00     0.080 A 
ATOM     20  Cl  UNL A   1      31.781  28.912  26.654  1.00  0.00    -0.082 Cl
ATOM     21  C   UNL A   1      30.613  29.541  24.321  1.00  0.00     0.023 A 
ATOM     22  C   UNL A   1      30.648  28.131  22.368  1.00  0.00     0.015 A 
ATOM     23  C   UNL A   1      30.283  29.323  22.990  1.00  0.00     0.002 A 
BRANCH  19  24
ATOM     24  C   UNL A   1      31.741  25.882  22.307  1.00  0.00     0.418 C 
ATOM     25  F   UNL A   1      31.399  25.960  20.986  1.00  0.00    -0.166 F 
ATOM     26  F   UNL A   1      33.075  25.603  22.309  1.00  0.00    -0.166 F 
ATOM     27  F   UNL A   1      31.111  24.768  22.768  1.00  0.00    -0.166 F 
ENDBRANCH  19  24
ENDBRANCH  15  17
ENDBRANCH  11  15
ENDBRANCH   8   9
ENDBRANCH   6   8
ENDBRANCH   5   6
ENDBRANCH   4   5
ENDBRANCH   3   4
ENDBRANCH   2   3
ENDBRANCH   1   2
BRANCH   1  28
ATOM     28  C   UNL A   1      41.452  19.493  26.216  1.00  0.00     0.188 C 
BRANCH  28  29
ATOM     29  O   UNL A   1      42.480  19.592  25.240  1.00  0.00    -0.376 OA
BRANCH  29  30
ATOM     30  C   UNL A   1      43.783  19.994  25.657  1.00  0.00     0.202 C 
BRANCH  30  31
ATOM     31  C   UNL A   1      44.303  21.359  25.186  1.00  0.00     0.261 C 
BRANCH  31  32
ATOM     32  O   UNL A   1      43.339  22.429  25.293  1.00  0.00    -0.460 OA
BRANCH  32  33
ATOM     33  C   UNL A   1      43.819  23.676  25.082  1.00  0.00     0.338 C 
ATOM     34  O   UNL A   1      44.661  24.016  24.260  1.00  0.00    -0.246 OA
BRANCH  33  35
ATOM     35  C   UNL A   1      43.097  24.668  25.902  1.00  0.00     0.060 A 
ATOM     36  C   UNL A   1      43.566  25.989  25.916  1.00  0.00     0.016 A 
ATOM     37  C   UNL A   1      42.056  24.283  26.747  1.00  0.00     0.016 A 
ATOM     38  C   UNL A   1      43.013  26.922  26.798  1.00  0.00     0.010 A 
ATOM     39  C   UNL A   1      41.520  25.213  27.648  1.00  0.00     0.010 A 
ATOM     40  C   UNL A   1      42.016  26.529  27.701  1.00  0.00    -0.014 A 
BRANCH  40  41
ATOM     41  C   UNL A   1      41.609  27.442  28.802  1.00  0.00     0.031 A 
ATOM     42  C   UNL A   1      42.337  27.370  30.121  1.00  0.00     0.074 A 
ATOM     43  C   UNL A   1      40.606  28.325  28.649  1.00  0.00     0.049 A 
ATOM     44  N   UNL A   1      42.107  28.020  31.234  1.00  0.00    -0.248 NA
ATOM     45  C   UNL A   1      43.467  26.431  30.195  1.00  0.00     0.031 C 
ATOM     46  C   UNL A   1      39.808  28.512  27.439  1.00  0.00     0.029 A 
ATOM     47  N   UNL A   1      40.075  29.222  29.545  1.00  0.00    -0.354 N 
ATOM     48  C   UNL A   1      43.051  27.561  32.144  1.00  0.00     0.074 A 
ATOM     49  C   UNL A   1      43.852  26.570  31.456  1.00  0.00     0.031 C 
ATOM     50  C   UNL A   1      38.871  29.448  27.677  1.00  0.00     0.029 A 
ATOM     51  C   UNL A   1      38.999  29.918  29.054  1.00  0.00     0.049 A 
ATOM     52  H   UNL A   1      40.432  29.353  30.453  1.00  0.00     0.167 HD
ATOM     53  C   UNL A   1      43.238  27.927  33.435  1.00  0.00     0.037 A 
ATOM     54  C   UNL A   1      38.194  30.814  29.656  1.00  0.00     0.037 A 
ATOM     55  C   UNL A   1      42.455  28.910  34.135  1.00  0.00     0.049 A 
ATOM     56  C   UNL A   1      38.413  31.186  31.099  1.00  0.00     0.074 A 
ATOM     57  C   UNL A   1      42.603  29.363  35.437  1.00  0.00     0.029 A 
ATOM     58  N   UNL A   1      41.373  29.587  33.600  1.00  0.00    -0.354 N 
ATOM     59  N   UNL A   1      39.317  30.754  31.940  1.00  0.00    -0.248 NA
ATOM     60  C   UNL A   1      37.480  32.173  31.672  1.00  0.00     0.031 C 
ATOM     61  C   UNL A   1      41.583  30.282  35.702  1.00  0.00     0.029 A 
ATOM     62  C   UNL A   1      40.830  30.435  34.552  1.00  0.00     0.049 A 
ATOM     63  H   UNL A   1      41.039  29.481  32.680  1.00  0.00     0.167 HD
ATOM     64  C   UNL A   1      39.059  31.411  33.138  1.00  0.00     0.074 A 
ATOM     65  C   UNL A   1      37.936  32.292  32.909  1.00  0.00     0.031 C 
ATOM     66  C   UNL A   1      39.696  31.289  34.327  1.00  0.00     0.037 A 
BRANCH  53  67
ATOM     67  C   UNL A   1      44.330  27.239  34.199  1.00  0.00     0.057 A 
ATOM     68  C   UNL A   1      45.660  27.667  34.129  1.00  0.00     0.134 A 
ATOM     69  C   UNL A   1      44.031  26.179  35.065  1.00  0.00     0.134 A 
ATOM     70  F   UNL A   1      46.009  28.671  33.310  1.00  0.00    -0.206 F 
ATOM     71  C   UNL A   1      46.660  27.057  34.888  1.00  0.00     0.040 A 
ATOM     72  C   UNL A   1      45.018  25.577  35.844  1.00  0.00     0.040 A 
ATOM     73  F   UNL A   1      42.773  25.729  35.181  1.00  0.00    -0.206 F 
ATOM     74  C   UNL A   1      46.338  26.015  35.754  1.00  0.00     0.006 A 
ENDBRANCH  53  67
BRANCH  54  75
ATOM     75  C   UNL A   1      37.039  31.408  28.946  1.00  0.00     0.057 A 
ATOM     76  C   UNL A   1      37.041  32.754  28.563  1.00  0.00     0.134 A 
ATOM     77  C   UNL A   1      35.852  30.686  28.800  1.00  0.00     0.134 A 
ATOM     78  F   UNL A   1      38.143  33.501  28.723  1.00  0.00    -0.206 F 
ATOM     79  C   UNL A   1      35.884  33.374  28.090  1.00  0.00     0.040 A 
ATOM     80  C   UNL A   1      34.688  31.295  28.331  1.00  0.00     0.040 A 
ATOM     81  F   UNL A   1      35.795  29.394  29.151  1.00  0.00    -0.206 F 
ATOM     82  C   UNL A   1      34.700  32.646  27.983  1.00  0.00     0.006 A 
ENDBRANCH  54  75
BRANCH  66  83
ATOM     83  C   UNL A   1      39.190  32.126  35.463  1.00  0.00     0.057 A 
ATOM     84  C   UNL A   1      39.617  33.447  35.650  1.00  0.00     0.134 A 
ATOM     85  C   UNL A   1      38.262  31.610  36.375  1.00  0.00     0.134 A 
ATOM     86  F   UNL A   1      40.521  33.994  34.823  1.00  0.00    -0.206 F 
ATOM     87  C   UNL A   1      39.156  34.218  36.719  1.00  0.00     0.040 A 
ATOM     88  C   UNL A   1      37.776  32.379  37.434  1.00  0.00     0.040 A 
ATOM     89  F   UNL A   1      37.812  30.353  36.251  1.00  0.00    -0.206 F 
ATOM     90  C   UNL A   1      38.228  33.685  37.612  1.00  0.00     0.006 A 
ENDBRANCH  66  83
ENDBRANCH  40  41
ENDBRANCH  33  35
ENDBRANCH  32  33
ENDBRANCH  31  32
ENDBRANCH  30  31
ENDBRANCH  29  30
ENDBRANCH  28  29
ENDBRANCH   1  28
TORSDOF 21
ENDMDL
MODEL 3
REMARK VINA RESULT:     -10.6      4.835      9.833
REMARK SMILES O=C(Cc1ccccc1Nc1c(Cl)cccc1C(F)(F)F)OCCOCCOCCOC(=O)c1ccc(-c2c3nc(c(-c4c(F)cccc4F)c4ccc([nH]4)c(-c4c(F)cccc4F)c4nc(c(-c5c(F)cccc5F)c5ccc2[nH]5)C=C4)C=C3)cc1
REMARK SMILES IDX 26 1 25 2 24 3 23 4 22 5 2 6 1 7 3 8 4 9 5 10 9 11 6 12 8 13
REMARK SMILES IDX 7 14 10 15 11 17 12 18 17 19 13 20 14 21 16 22 15 23 18 24
REMARK SMILES IDX 19 25 20 26 21 27 27 28 28 29 29 30 30 31 31 32 32 33 33 34
REMARK SMILES IDX 34 35 35 36 87 37 36 38 86 39 37 40 38 41 39 42 80 43 40 44
REMARK SMILES IDX 85 45 79 46 81 47 41 48 84 49 78 50 77 51 42 53 68 54 51 55
REMARK SMILES IDX 67 56 52 57 55 58 66 59 82 60 53 61 54 62 65 64 83 65 56 66
REMARK SMILES IDX 43 67 44 68 49 69 45 70 46 71 48 72 50 73 47 74 69 75 70 76
REMARK SMILES IDX 75 77 71 78 72 79 74 80 76 81 73 82 57 83 58 84 63 85 59 86
REMARK SMILES IDX 60 87 62 88 64 89 61 90
REMARK H PARENT 10 16 81 52 55 63
REMARK Flexibility Score: inf
ROOT
ATOM      1  C   UNL A   1      32.996  34.164  28.128  1.00  0.00     0.188 C 
ENDROOT
BRANCH   1   2
ATOM      2  O   UNL A   1      34.117  33.688  27.409  1.00  0.00    -0.376 OA
BRANCH   2   3
ATOM      3  C   UNL A   1      34.906  32.684  28.022  1.00  0.00     0.202 C 
BRANCH   3   4
ATOM      4  C   UNL A   1      34.209  31.328  28.125  1.00  0.00     0.261 C 
BRANCH   4   5
ATOM      5  O   UNL A   1      33.626  30.786  26.915  1.00  0.00    -0.463 OA
BRANCH   5   6
ATOM      6  C   UNL A   1      33.292  29.510  26.631  1.00  0.00     0.310 C 
ATOM      7  O   UNL A   1      32.196  29.077  26.989  1.00  0.00    -0.252 OA
BRANCH   6   8
ATOM      8  C   UNL A   1      34.300  28.590  25.996  1.00  0.00     0.160 C 
BRANCH   8   9
ATOM      9  C   UNL A   1      33.992  27.991  24.644  1.00  0.00    -0.013 A 
ATOM     10  C   UNL A   1      33.745  28.819  23.533  1.00  0.00     0.006 A 
ATOM     11  C   UNL A   1      33.849  26.586  24.509  1.00  0.00     0.042 A 
ATOM     12  C   UNL A   1      33.409  28.281  22.294  1.00  0.00     0.000 A 
ATOM     13  C   UNL A   1      33.474  26.077  23.254  1.00  0.00     0.026 A 
ATOM     14  C   UNL A   1      33.266  26.910  22.156  1.00  0.00     0.002 A 
BRANCH  11  15
ATOM     15  N   UNL A   1      34.118  25.718  25.605  1.00  0.00    -0.354 N 
ATOM     16  H   UNL A   1      34.726  26.057  26.301  1.00  0.00     0.167 HD
BRANCH  15  17
ATOM     17  C   UNL A   1      33.598  24.411  25.791  1.00  0.00     0.070 A 
ATOM     18  C   UNL A   1      32.208  24.275  26.020  1.00  0.00     0.065 A 
ATOM     19  C   UNL A   1      34.367  23.250  25.588  1.00  0.00     0.080 A 
ATOM     20  Cl  UNL A   1      31.241  25.656  26.419  1.00  0.00    -0.082 Cl
ATOM     21  C   UNL A   1      31.575  23.041  25.917  1.00  0.00     0.023 A 
ATOM     22  C   UNL A   1      33.706  22.011  25.470  1.00  0.00     0.015 A 
ATOM     23  C   UNL A   1      32.322  21.915  25.595  1.00  0.00     0.002 A 
BRANCH  19  24
ATOM     24  C   UNL A   1      35.873  23.261  25.475  1.00  0.00     0.418 C 
ATOM     25  F   UNL A   1      36.369  22.008  25.245  1.00  0.00    -0.166 F 
ATOM     26  F   UNL A   1      36.310  24.011  24.424  1.00  0.00    -0.166 F 
ATOM     27  F   UNL A   1      36.539  23.707  26.573  1.00  0.00    -0.166 F 
ENDBRANCH  19  24
ENDBRANCH  15  17
ENDBRANCH  11  15
ENDBRANCH   8   9
ENDBRANCH   6   8
ENDBRANCH   5   6
ENDBRANCH   4   5
ENDBRANCH   3   4
ENDBRANCH   2   3
ENDBRANCH   1   2
BRANCH   1  28
ATOM     28  C   UNL A   1      33.303  35.352  29.055  1.00  0.00     0.188 C 
BRANCH  28  29
ATOM     29  O   UNL A   1      33.148  35.186  30.458  1.00  0.00    -0.376 OA
BRANCH  29  30
ATOM     30  C   UNL A   1      34.255  34.703  31.217  1.00  0.00     0.202 C 
BRANCH  30  31
ATOM     31  C   UNL A   1      33.965  33.780  32.409  1.00  0.00     0.261 C 
BRANCH  31  32
ATOM     32  O   UNL A   1      34.606  32.488  32.326  1.00  0.00    -0.460 OA
BRANCH  32  33
ATOM     33  C   UNL A   1      35.780  32.372  32.988  1.00  0.00     0.338 C 
ATOM     34  O   UNL A   1      36.047  32.800  34.104  1.00  0.00    -0.246 OA
BRANCH  33  35
ATOM     35  C   UNL A   1      36.727  31.521  32.242  1.00  0.00     0.060 A 
ATOM     36  C   UNL A   1      37.642  30.746  32.969  1.00  0.00     0.016 A 
ATOM     37  C   UNL A   1      36.805  31.579  30.850  1.00  0.00     0.016 A 
ATOM     38  C   UNL A   1      38.658  30.051  32.307  1.00  0.00     0.010 A 
ATOM     39  C   UNL A   1      37.839  30.901  30.190  1.00  0.00     0.010 A 
ATOM     40  C   UNL A   1      38.790  30.159  30.915  1.00  0.00    -0.014 A 
BRANCH  40  41
ATOM     41  C   UNL A   1      40.006  29.633  30.242  1.00  0.00     0.031 A 
ATOM     42  C   UNL A   1      41.183  30.554  30.032  1.00  0.00     0.074 A 
ATOM     43  C   UNL A   1      40.079  28.360  29.813  1.00  0.00     0.049 A 
ATOM     44  N   UNL A   1      42.314  30.329  29.411  1.00  0.00    -0.248 NA
ATOM     45  C   UNL A   1      41.061  31.910  30.587  1.00  0.00     0.031 C 
ATOM     46  C   UNL A   1      39.027  27.354  29.941  1.00  0.00     0.029 A 
ATOM     47  N   UNL A   1      41.094  27.707  29.156  1.00  0.00    -0.354 N 
ATOM     48  C   UNL A   1      43.032  31.516  29.488  1.00  0.00     0.074 A 
ATOM     49  C   UNL A   1      42.205  32.462  30.206  1.00  0.00     0.031 C 
ATOM     50  C   UNL A   1      39.443  26.215  29.356  1.00  0.00     0.029 A 
ATOM     51  C   UNL A   1      40.783  26.416  28.808  1.00  0.00     0.049 A 
ATOM     52  H   UNL A   1      41.962  28.124  28.953  1.00  0.00     0.167 HD
ATOM     53  C   UNL A   1      44.265  31.797  29.004  1.00  0.00     0.037 A 
ATOM     54  C   UNL A   1      41.488  25.509  28.107  1.00  0.00     0.037 A 
ATOM     55  C   UNL A   1      45.102  30.871  28.288  1.00  0.00     0.049 A 
ATOM     56  C   UNL A   1      42.849  25.857  27.564  1.00  0.00     0.074 A 
ATOM     57  C   UNL A   1      46.382  31.070  27.794  1.00  0.00     0.029 A 
ATOM     58  N   UNL A   1      44.744  29.576  27.957  1.00  0.00    -0.354 N 
ATOM     59  N   UNL A   1      43.519  26.978  27.656  1.00  0.00    -0.248 NA
ATOM     60  C   UNL A   1      43.544  24.802  26.807  1.00  0.00     0.031 C 
ATOM     61  C   UNL A   1      46.781  29.908  27.125  1.00  0.00     0.029 A 
ATOM     62  C   UNL A   1      45.769  28.973  27.243  1.00  0.00     0.049 A 
ATOM     63  H   UNL A   1      43.890  29.148  28.192  1.00  0.00     0.167 HD
ATOM     64  C   UNL A   1      44.707  26.763  26.967  1.00  0.00     0.074 A 
ATOM     65  C   UNL A   1      44.682  25.399  26.490  1.00  0.00     0.031 C 
ATOM     66  C   UNL A   1      45.728  27.625  26.747  1.00  0.00     0.037 A 
BRANCH  53  67
ATOM     67  C   UNL A   1      44.789  33.187  29.210  1.00  0.00     0.057 A 
ATOM     68  C   UNL A   1      44.562  34.206  28.279  1.00  0.00     0.134 A 
ATOM     69  C   UNL A   1      45.470  33.521  30.388  1.00  0.00     0.134 A 
ATOM     70  F   UNL A   1      43.925  33.945  27.127  1.00  0.00    -0.206 F 
ATOM     71  C   UNL A   1      45.004  35.510  28.506  1.00  0.00     0.040 A 
ATOM     72  C   UNL A   1      45.897  34.825  30.637  1.00  0.00     0.040 A 
ATOM     73  F   UNL A   1      45.711  32.590  31.323  1.00  0.00    -0.206 F 
ATOM     74  C   UNL A   1      45.666  35.824  29.692  1.00  0.00     0.006 A 
ENDBRANCH  53  67
BRANCH  54  75
ATOM     75  C   UNL A   1      40.929  24.175  27.794  1.00  0.00     0.057 A 
ATOM     76  C   UNL A   1      41.422  23.021  28.413  1.00  0.00     0.134 A 
ATOM     77  C   UNL A   1      40.018  24.019  26.745  1.00  0.00     0.134 A 
ATOM     78  F   UNL A   1      42.330  23.117  29.395  1.00  0.00    -0.206 F 
ATOM     79  C   UNL A   1      41.054  21.749  27.974  1.00  0.00     0.040 A 
ATOM     80  C   UNL A   1      39.645  22.753  26.294  1.00  0.00     0.040 A 
ATOM     81  F   UNL A   1      39.514  25.091  26.118  1.00  0.00    -0.206 F 
ATOM     82  C   UNL A   1      40.171  21.613  26.903  1.00  0.00     0.006 A 
ENDBRANCH  54  75
BRANCH  66  83
ATOM     83  C   UNL A   1      46.894  27.115  25.955  1.00  0.00     0.057 A 
ATOM     84  C   UNL A   1      47.002  27.343  24.576  1.00  0.00     0.134 A 
ATOM     85  C   UNL A   1      47.922  26.395  26.574  1.00  0.00     0.134 A 
ATOM     86  F   UNL A   1      46.040  28.009  23.920  1.00  0.00    -0.206 F 
ATOM     87  C   UNL A   1      48.082  26.853  23.839  1.00  0.00     0.040 A 
ATOM     88  C   UNL A   1      49.017  25.920  25.851  1.00  0.00     0.040 A 
ATOM     89  F   UNL A   1      47.879  26.143  27.891  1.00  0.00    -0.206 F 
ATOM     90  C   UNL A   1      49.096  26.143  24.479  1.00  0.00     0.006 A 
ENDBRANCH  66  83
ENDBRANCH  40  41
ENDBRANCH  33  35
ENDBRANCH  32  33
ENDBRANCH  31  32
ENDBRANCH  30  31
ENDBRANCH  29  30
ENDBRANCH  28  29
ENDBRANCH   1  28
TORSDOF 21
ENDMDL
