MODEL 1
REMARK VINA RESULT:     -11.1      0.000      0.000
REMARK SMILES O=C(OCCOCCOCCOC(=O)c1cc(NC(=O)c2ccccc2Cl)ccc1N1CCC[C@H](C[NH+]2CCCC2)C1)c1ccc(-c2c3nc(c(-c4c(F)cccc4F)c4ccc([nH]4)c(-c4c(F)cccc4F)c4nc(c(-c5c(F)cccc5F)c5ccc2[nH]5)C=C4)C=C3)cc1
REMARK SMILES IDX 8 1 7 2 6 3 5 4 4 5 3 6 2 7 1 8 43 9 44 10 96 11 45 12 95 13
REMARK SMILES IDX 46 14 47 15 48 16 89 17 49 18 94 19 88 20 90 21 50 22 93 23
REMARK SMILES IDX 87 24 86 25 51 27 77 28 60 29 76 30 61 31 64 32 75 33 91 34
REMARK SMILES IDX 62 35 63 36 74 38 92 39 65 40 52 41 53 42 58 43 54 44 55 45
REMARK SMILES IDX 57 46 59 47 56 48 78 49 79 50 84 51 80 52 81 53 83 54 85 55
REMARK SMILES IDX 82 56 66 57 67 58 72 59 68 60 69 61 71 62 73 63 70 64 9 65
REMARK SMILES IDX 10 66 11 67 12 68 13 69 14 70 15 71 16 72 30 73 17 74 29 75
REMARK SMILES IDX 28 76 31 77 32 78 42 79 33 80 35 81 34 82 36 83 37 84 38 85
REMARK SMILES IDX 41 86 39 88 40 89 18 90 19 91 20 93 21 94 22 95 26 96 23 97
REMARK SMILES IDX 25 98 27 99 24 100
REMARK H PARENT 90 26 64 37 37 87 18 92
REMARK Flexibility Score: inf
ROOT
ATOM      1  C   UNL A   1      39.514  22.672  26.558  1.00  0.00     0.188 C 
ENDROOT
BRANCH   1   2
ATOM      2  C   UNL A   1      40.785  21.817  26.599  1.00  0.00     0.188 C 
BRANCH   2   3
ATOM      3  O   UNL A   1      41.603  21.837  25.430  1.00  0.00    -0.376 OA
BRANCH   3   4
ATOM      4  C   UNL A   1      43.003  21.747  25.720  1.00  0.00     0.202 C 
BRANCH   4   5
ATOM      5  C   UNL A   1      43.896  22.585  24.795  1.00  0.00     0.261 C 
BRANCH   5   6
ATOM      6  O   UNL A   1      44.689  23.547  25.509  1.00  0.00    -0.460 OA
BRANCH   6   7
ATOM      7  C   UNL A   1      44.671  24.899  25.453  1.00  0.00     0.338 C 
ATOM      8  O   UNL A   1      45.473  25.441  24.690  1.00  0.00    -0.246 OA
BRANCH   7   9
ATOM      9  C   UNL A   1      43.761  25.796  26.246  1.00  0.00     0.060 A 
ATOM     10  C   UNL A   1      43.977  27.140  26.548  1.00  0.00     0.016 A 
ATOM     11  C   UNL A   1      42.574  25.211  26.733  1.00  0.00     0.016 A 
ATOM     12  C   UNL A   1      43.136  27.833  27.418  1.00  0.00     0.010 A 
ATOM     13  C   UNL A   1      41.691  25.915  27.561  1.00  0.00     0.010 A 
ATOM     14  C   UNL A   1      42.025  27.203  27.976  1.00  0.00    -0.014 A 
BRANCH  14  15
ATOM     15  C   UNL A   1      41.433  27.810  29.188  1.00  0.00     0.031 A 
ATOM     16  C   UNL A   1      42.208  27.695  30.472  1.00  0.00     0.074 A 
ATOM     17  C   UNL A   1      40.333  28.578  29.109  1.00  0.00     0.049 A 
ATOM     18  N   UNL A   1      41.987  28.261  31.628  1.00  0.00    -0.248 NA
ATOM     19  C   UNL A   1      43.396  26.824  30.448  1.00  0.00     0.031 C 
ATOM     20  C   UNL A   1      39.527  28.767  27.907  1.00  0.00     0.029 A 
ATOM     21  N   UNL A   1      39.734  29.379  30.048  1.00  0.00    -0.354 N 
ATOM     22  C   UNL A   1      42.983  27.785  32.472  1.00  0.00     0.074 A 
ATOM     23  C   UNL A   1      43.801  26.876  31.704  1.00  0.00     0.031 C 
ATOM     24  C   UNL A   1      38.572  29.677  28.167  1.00  0.00     0.029 A 
ATOM     25  C   UNL A   1      38.703  30.135  29.544  1.00  0.00     0.049 A 
ATOM     26  H   UNL A   1      40.015  29.410  30.991  1.00  0.00     0.167 HD
ATOM     27  C   UNL A   1      43.197  28.078  33.774  1.00  0.00     0.037 A 
ATOM     28  C   UNL A   1      37.972  31.106  30.122  1.00  0.00     0.037 A 
ATOM     29  C   UNL A   1      42.385  28.995  34.522  1.00  0.00     0.049 A 
ATOM     30  C   UNL A   1      38.251  31.445  31.560  1.00  0.00     0.074 A 
ATOM     31  C   UNL A   1      42.469  29.337  35.858  1.00  0.00     0.029 A 
ATOM     32  N   UNL A   1      41.336  29.726  33.981  1.00  0.00    -0.354 N 
ATOM     33  N   UNL A   1      39.181  30.973  32.355  1.00  0.00    -0.248 NA
ATOM     34  C   UNL A   1      37.369  32.438  32.190  1.00  0.00     0.031 C 
ATOM     35  C   UNL A   1      41.450  30.257  36.132  1.00  0.00     0.029 A 
ATOM     36  C   UNL A   1      40.760  30.517  34.958  1.00  0.00     0.049 A 
ATOM     37  H   UNL A   1      41.046  29.686  33.041  1.00  0.00     0.167 HD
ATOM     38  C   UNL A   1      38.997  31.604  33.577  1.00  0.00     0.074 A 
ATOM     39  C   UNL A   1      37.892  32.526  33.405  1.00  0.00     0.031 C 
ATOM     40  C   UNL A   1      39.664  31.426  34.744  1.00  0.00     0.037 A 
BRANCH  27  41
ATOM     41  C   UNL A   1      44.310  27.340  34.453  1.00  0.00     0.057 A 
ATOM     42  C   UNL A   1      44.114  26.097  35.068  1.00  0.00     0.134 A 
ATOM     43  C   UNL A   1      45.579  27.923  34.558  1.00  0.00     0.134 A 
ATOM     44  F   UNL A   1      42.910  25.504  35.036  1.00  0.00    -0.206 F 
ATOM     45  C   UNL A   1      45.132  25.474  35.793  1.00  0.00     0.040 A 
ATOM     46  C   UNL A   1      46.611  27.298  35.260  1.00  0.00     0.040 A 
ATOM     47  F   UNL A   1      45.828  29.117  34.002  1.00  0.00    -0.206 F 
ATOM     48  C   UNL A   1      46.386  26.076  35.889  1.00  0.00     0.006 A 
ENDBRANCH  27  41
BRANCH  28  49
ATOM     49  C   UNL A   1      36.945  31.852  29.342  1.00  0.00     0.057 A 
ATOM     50  C   UNL A   1      35.688  31.293  29.079  1.00  0.00     0.134 A 
ATOM     51  C   UNL A   1      37.189  33.135  28.836  1.00  0.00     0.134 A 
ATOM     52  F   UNL A   1      35.391  30.061  29.522  1.00  0.00    -0.206 F 
ATOM     53  C   UNL A   1      34.721  31.970  28.332  1.00  0.00     0.040 A 
ATOM     54  C   UNL A   1      36.222  33.837  28.113  1.00  0.00     0.040 A 
ATOM     55  F   UNL A   1      38.368  33.737  29.055  1.00  0.00    -0.206 F 
ATOM     56  C   UNL A   1      34.986  33.250  27.852  1.00  0.00     0.006 A 
ENDBRANCH  28  49
BRANCH  40  57
ATOM     57  C   UNL A   1      39.216  32.251  35.911  1.00  0.00     0.057 A 
ATOM     58  C   UNL A   1      39.680  33.558  36.104  1.00  0.00     0.134 A 
ATOM     59  C   UNL A   1      38.283  31.747  36.824  1.00  0.00     0.134 A 
ATOM     60  F   UNL A   1      40.585  34.089  35.267  1.00  0.00    -0.206 F 
ATOM     61  C   UNL A   1      39.247  34.330  37.180  1.00  0.00     0.040 A 
ATOM     62  C   UNL A   1      37.823  32.519  37.890  1.00  0.00     0.040 A 
ATOM     63  F   UNL A   1      37.795  30.505  36.685  1.00  0.00    -0.206 F 
ATOM     64  C   UNL A   1      38.310  33.812  38.074  1.00  0.00     0.006 A 
ENDBRANCH  40  57
ENDBRANCH  14  15
ENDBRANCH   7   9
ENDBRANCH   6   7
ENDBRANCH   5   6
ENDBRANCH   4   5
ENDBRANCH   3   4
ENDBRANCH   2   3
ENDBRANCH   1   2
BRANCH   1  65
ATOM     65  O   UNL A   1      38.481  22.286  25.667  1.00  0.00    -0.376 OA
BRANCH  65  66
ATOM     66  C   UNL A   1      37.238  22.974  25.759  1.00  0.00     0.202 C 
BRANCH  66  67
ATOM     67  C   UNL A   1      36.702  23.700  24.524  1.00  0.00     0.261 C 
BRANCH  67  68
ATOM     68  O   UNL A   1      35.328  24.127  24.604  1.00  0.00    -0.460 OA
BRANCH  68  69
ATOM     69  C   UNL A   1      34.539  23.672  23.594  1.00  0.00     0.340 C 
ATOM     70  O   UNL A   1      34.880  22.919  22.695  1.00  0.00    -0.246 OA
BRANCH  69  71
ATOM     71  C   UNL A   1      33.158  24.183  23.683  1.00  0.00     0.085 A 
ATOM     72  C   UNL A   1      32.877  25.251  22.797  1.00  0.00     0.044 A 
ATOM     73  C   UNL A   1      32.235  23.763  24.664  1.00  0.00     0.051 A 
ATOM     74  C   UNL A   1      31.677  25.949  22.876  1.00  0.00     0.042 A 
ATOM     75  C   UNL A   1      31.034  24.499  24.713  1.00  0.00     0.029 A 
ATOM     76  C   UNL A   1      30.764  25.576  23.856  1.00  0.00     0.028 A 
BRANCH  73  77
ATOM     77  N   UNL A   1      32.440  22.769  25.607  1.00  0.00    -0.370 N 
ATOM     78  C   UNL A   1      33.248  23.022  26.801  1.00  0.00     0.116 C 
ATOM     79  C   UNL A   1      31.728  21.495  25.615  1.00  0.00     0.126 C 
ATOM     80  C   UNL A   1      34.283  21.911  26.966  1.00  0.00     0.022 C 
ATOM     81  C   UNL A   1      32.719  20.329  25.714  1.00  0.00     0.064 C 
ATOM     82  C   UNL A   1      33.621  20.533  26.944  1.00  0.00     0.013 C 
BRANCH  81  83
ATOM     83  C   UNL A   1      33.457  20.180  24.361  1.00  0.00     0.267 C 
BRANCH  83  84
ATOM     84  N   UNL A   1      33.603  18.848  23.770  1.00  0.00    -0.335 N 
ATOM     85  C   UNL A   1      32.378  18.053  23.726  1.00  0.00     0.262 C 
ATOM     86  C   UNL A   1      34.656  18.006  24.319  1.00  0.00     0.262 C 
ATOM     87  H   UNL A   1      33.875  19.117  22.825  1.00  0.00     0.348 HD
ATOM     88  C   UNL A   1      32.484  17.066  24.873  1.00  0.00     0.067 C 
ATOM     89  C   UNL A   1      33.975  16.893  25.104  1.00  0.00     0.067 C 
ENDBRANCH  83  84
ENDBRANCH  81  83
ENDBRANCH  73  77
BRANCH  74  90
ATOM     90  N   UNL A   1      31.363  27.077  22.097  1.00  0.00    -0.322 N 
ATOM     91  C   UNL A   1      31.215  28.403  22.431  1.00  0.00     0.257 C 
ATOM     92  H   UNL A   1      31.224  26.882  21.142  1.00  0.00     0.170 HD
ATOM     93  O   UNL A   1      30.658  29.185  21.663  1.00  0.00    -0.269 OA
BRANCH  91  94
ATOM     94  C   UNL A   1      31.809  28.944  23.663  1.00  0.00     0.058 A 
ATOM     95  C   UNL A   1      30.948  29.447  24.648  1.00  0.00     0.015 A 
ATOM     96  C   UNL A   1      33.195  29.041  23.822  1.00  0.00     0.053 A 
ATOM     97  C   UNL A   1      31.474  29.987  25.822  1.00  0.00     0.001 A 
ATOM     98  C   UNL A   1      33.709  29.600  24.993  1.00  0.00     0.021 A 
ATOM     99  Cl  UNL A   1      34.311  28.546  22.602  1.00  0.00    -0.083 Cl
ATOM    100  C   UNL A   1      32.855  30.058  25.997  1.00  0.00     0.002 A 
ENDBRANCH  91  94
ENDBRANCH  74  90
ENDBRANCH  69  71
ENDBRANCH  68  69
ENDBRANCH  67  68
ENDBRANCH  66  67
ENDBRANCH  65  66
ENDBRANCH   1  65
TORSDOF 22
ENDMDL
MODEL 2
REMARK VINA RESULT:     -10.9      4.349      9.925
REMARK SMILES O=C(OCCOCCOCCOC(=O)c1cc(NC(=O)c2ccccc2Cl)ccc1N1CCC[C@H](C[NH+]2CCCC2)C1)c1ccc(-c2c3nc(c(-c4c(F)cccc4F)c4ccc([nH]4)c(-c4c(F)cccc4F)c4nc(c(-c5c(F)cccc5F)c5ccc2[nH]5)C=C4)C=C3)cc1
REMARK SMILES IDX 8 1 7 2 6 3 5 4 4 5 3 6 2 7 1 8 43 9 44 10 96 11 45 12 95 13
REMARK SMILES IDX 46 14 47 15 48 16 89 17 49 18 94 19 88 20 90 21 50 22 93 23
REMARK SMILES IDX 87 24 86 25 51 27 77 28 60 29 76 30 61 31 64 32 75 33 91 34
REMARK SMILES IDX 62 35 63 36 74 38 92 39 65 40 52 41 53 42 58 43 54 44 55 45
REMARK SMILES IDX 57 46 59 47 56 48 78 49 79 50 84 51 80 52 81 53 83 54 85 55
REMARK SMILES IDX 82 56 66 57 67 58 72 59 68 60 69 61 71 62 73 63 70 64 9 65
REMARK SMILES IDX 10 66 11 67 12 68 13 69 14 70 15 71 16 72 30 73 17 74 29 75
REMARK SMILES IDX 28 76 31 77 32 78 42 79 33 80 35 81 34 82 36 83 37 84 38 85
REMARK SMILES IDX 41 86 39 88 40 89 18 90 19 91 20 93 21 94 22 95 26 96 23 97
REMARK SMILES IDX 25 98 27 99 24 100
REMARK H PARENT 90 26 64 37 37 87 18 92
REMARK Flexibility Score: inf
ROOT
ATOM      1  C   UNL A   1      34.632  30.826  28.042  1.00  0.00     0.188 C 
ENDROOT
BRANCH   1   2
ATOM      2  C   UNL A   1      34.569  32.332  28.316  1.00  0.00     0.188 C 
BRANCH   2   3
ATOM      3  O   UNL A   1      34.136  32.724  29.619  1.00  0.00    -0.376 OA
BRANCH   3   4
ATOM      4  C   UNL A   1      34.972  33.723  30.214  1.00  0.00     0.202 C 
BRANCH   4   5
ATOM      5  C   UNL A   1      34.843  33.831  31.739  1.00  0.00     0.261 C 
BRANCH   5   6
ATOM      6  O   UNL A   1      35.011  32.568  32.402  1.00  0.00    -0.460 OA
BRANCH   6   7
ATOM      7  C   UNL A   1      36.113  32.024  32.967  1.00  0.00     0.338 C 
ATOM      8  O   UNL A   1      36.325  32.283  34.153  1.00  0.00    -0.246 OA
BRANCH   7   9
ATOM      9  C   UNL A   1      37.105  31.134  32.270  1.00  0.00     0.060 A 
ATOM     10  C   UNL A   1      38.291  30.633  32.805  1.00  0.00     0.016 A 
ATOM     11  C   UNL A   1      36.801  30.779  30.939  1.00  0.00     0.016 A 
ATOM     12  C   UNL A   1      39.208  29.940  32.016  1.00  0.00     0.010 A 
ATOM     13  C   UNL A   1      37.689  30.034  30.153  1.00  0.00     0.010 A 
ATOM     14  C   UNL A   1      38.937  29.693  30.671  1.00  0.00    -0.014 A 
BRANCH  14  15
ATOM     15  C   UNL A   1      40.080  29.357  29.795  1.00  0.00     0.031 A 
ATOM     16  C   UNL A   1      41.199  30.357  29.698  1.00  0.00     0.074 A 
ATOM     17  C   UNL A   1      40.192  28.137  29.242  1.00  0.00     0.049 A 
ATOM     18  N   UNL A   1      42.368  30.242  29.126  1.00  0.00    -0.248 NA
ATOM     19  C   UNL A   1      40.969  31.665  30.336  1.00  0.00     0.031 C 
ATOM     20  C   UNL A   1      39.171  27.094  29.298  1.00  0.00     0.029 A 
ATOM     21  N   UNL A   1      41.235  27.554  28.568  1.00  0.00    -0.354 N 
ATOM     22  C   UNL A   1      42.991  31.472  29.304  1.00  0.00     0.074 A 
ATOM     23  C   UNL A   1      42.072  32.321  30.023  1.00  0.00     0.031 C 
ATOM     24  C   UNL A   1      39.664  25.979  28.734  1.00  0.00     0.029 A 
ATOM     25  C   UNL A   1      41.028  26.225  28.286  1.00  0.00     0.049 A 
ATOM     26  H   UNL A   1      42.052  28.039  28.313  1.00  0.00     0.167 HD
ATOM     27  C   UNL A   1      44.222  31.859  28.902  1.00  0.00     0.037 A 
ATOM     28  C   UNL A   1      41.859  25.308  27.754  1.00  0.00     0.037 A 
ATOM     29  C   UNL A   1      45.132  30.999  28.201  1.00  0.00     0.049 A 
ATOM     30  C   UNL A   1      43.238  25.750  27.348  1.00  0.00     0.074 A 
ATOM     31  C   UNL A   1      46.385  31.290  27.696  1.00  0.00     0.029 A 
ATOM     32  N   UNL A   1      44.878  29.665  27.914  1.00  0.00    -0.354 N 
ATOM     33  N   UNL A   1      43.810  26.921  27.502  1.00  0.00    -0.248 NA
ATOM     34  C   UNL A   1      44.084  24.752  26.680  1.00  0.00     0.031 C 
ATOM     35  C   UNL A   1      46.879  30.135  27.079  1.00  0.00     0.029 A 
ATOM     36  C   UNL A   1      45.951  29.117  27.236  1.00  0.00     0.049 A 
ATOM     37  H   UNL A   1      44.056  29.181  28.158  1.00  0.00     0.167 HD
ATOM     38  C   UNL A   1      45.076  26.804  26.947  1.00  0.00     0.074 A 
ATOM     39  C   UNL A   1      45.205  25.433  26.493  1.00  0.00     0.031 C 
ATOM     40  C   UNL A   1      46.041  27.745  26.805  1.00  0.00     0.037 A 
BRANCH  27  41
ATOM     41  C   UNL A   1      44.595  33.286  29.165  1.00  0.00     0.057 A 
ATOM     42  C   UNL A   1      45.254  33.681  30.336  1.00  0.00     0.134 A 
ATOM     43  C   UNL A   1      44.218  34.289  28.263  1.00  0.00     0.134 A 
ATOM     44  F   UNL A   1      45.607  32.772  31.259  1.00  0.00    -0.206 F 
ATOM     45  C   UNL A   1      45.494  35.028  30.618  1.00  0.00     0.040 A 
ATOM     46  C   UNL A   1      44.475  35.636  28.523  1.00  0.00     0.040 A 
ATOM     47  F   UNL A   1      43.574  33.978  27.129  1.00  0.00    -0.206 F 
ATOM     48  C   UNL A   1      45.105  36.009  29.708  1.00  0.00     0.006 A 
ENDBRANCH  27  41
BRANCH  28  49
ATOM     49  C   UNL A   1      41.435  23.888  27.614  1.00  0.00     0.057 A 
ATOM     50  C   UNL A   1      40.521  23.500  26.625  1.00  0.00     0.134 A 
ATOM     51  C   UNL A   1      41.922  22.883  28.458  1.00  0.00     0.134 A 
ATOM     52  F   UNL A   1      40.002  24.413  25.790  1.00  0.00    -0.206 F 
ATOM     53  C   UNL A   1      40.096  22.176  26.493  1.00  0.00     0.040 A 
ATOM     54  C   UNL A   1      41.530  21.550  28.319  1.00  0.00     0.040 A 
ATOM     55  F   UNL A   1      42.807  23.180  29.423  1.00  0.00    -0.206 F 
ATOM     56  C   UNL A   1      40.608  21.194  27.339  1.00  0.00     0.006 A 
ENDBRANCH  28  49
BRANCH  40  57
ATOM     57  C   UNL A   1      47.313  27.315  26.141  1.00  0.00     0.057 A 
ATOM     58  C   UNL A   1      48.373  26.769  26.874  1.00  0.00     0.134 A 
ATOM     59  C   UNL A   1      47.459  27.411  24.752  1.00  0.00     0.134 A 
ATOM     60  F   UNL A   1      48.294  26.663  28.209  1.00  0.00    -0.206 F 
ATOM     61  C   UNL A   1      49.547  26.352  26.250  1.00  0.00     0.040 A 
ATOM     62  C   UNL A   1      48.620  26.975  24.114  1.00  0.00     0.040 A 
ATOM     63  F   UNL A   1      46.473  27.917  23.996  1.00  0.00    -0.206 F 
ATOM     64  C   UNL A   1      49.670  26.448  24.864  1.00  0.00     0.006 A 
ENDBRANCH  40  57
ENDBRANCH  14  15
ENDBRANCH   7   9
ENDBRANCH   6   7
ENDBRANCH   5   6
ENDBRANCH   4   5
ENDBRANCH   3   4
ENDBRANCH   2   3
ENDBRANCH   1   2
BRANCH   1  65
ATOM     65  O   UNL A   1      33.782  30.298  27.036  1.00  0.00    -0.376 OA
BRANCH  65  66
ATOM     66  C   UNL A   1      33.986  28.944  26.644  1.00  0.00     0.202 C 
BRANCH  66  67
ATOM     67  C   UNL A   1      32.989  27.881  27.109  1.00  0.00     0.261 C 
BRANCH  67  68
ATOM     68  O   UNL A   1      32.941  26.685  26.309  1.00  0.00    -0.460 OA
BRANCH  68  69
ATOM     69  C   UNL A   1      31.684  26.263  26.005  1.00  0.00     0.340 C 
ATOM     70  O   UNL A   1      30.641  26.749  26.413  1.00  0.00    -0.246 OA
BRANCH  69  71
ATOM     71  C   UNL A   1      31.682  25.111  25.082  1.00  0.00     0.085 A 
ATOM     72  C   UNL A   1      31.567  23.855  25.725  1.00  0.00     0.044 A 
ATOM     73  C   UNL A   1      31.931  25.224  23.699  1.00  0.00     0.051 A 
ATOM     74  C   UNL A   1      31.718  22.671  25.011  1.00  0.00     0.042 A 
ATOM     75  C   UNL A   1      32.081  24.001  23.013  1.00  0.00     0.029 A 
ATOM     76  C   UNL A   1      31.996  22.754  23.651  1.00  0.00     0.028 A 
BRANCH  73  77
ATOM     77  N   UNL A   1      32.112  26.403  22.993  1.00  0.00    -0.370 N 
ATOM     78  C   UNL A   1      33.381  27.129  23.060  1.00  0.00     0.116 C 
ATOM     79  C   UNL A   1      31.179  26.903  21.990  1.00  0.00     0.126 C 
ATOM     80  C   UNL A   1      33.116  28.601  23.366  1.00  0.00     0.022 C 
ATOM     81  C   UNL A   1      30.819  28.366  22.277  1.00  0.00     0.064 C 
ATOM     82  C   UNL A   1      32.111  29.196  22.378  1.00  0.00     0.013 C 
BRANCH  81  83
ATOM     83  C   UNL A   1      29.889  28.421  23.515  1.00  0.00     0.267 C 
BRANCH  83  84
ATOM     84  N   UNL A   1      28.766  29.360  23.522  1.00  0.00    -0.335 N 
ATOM     85  C   UNL A   1      27.856  29.245  22.385  1.00  0.00     0.262 C 
ATOM     86  C   UNL A   1      29.097  30.768  23.682  1.00  0.00     0.262 C 
ATOM     87  H   UNL A   1      28.297  29.047  24.372  1.00  0.00     0.348 HD
ATOM     88  C   UNL A   1      28.219  30.382  21.448  1.00  0.00     0.067 C 
ATOM     89  C   UNL A   1      28.834  31.444  22.343  1.00  0.00     0.067 C 
ENDBRANCH  83  84
ENDBRANCH  81  83
ENDBRANCH  73  77
BRANCH  74  90
ATOM     90  N   UNL A   1      31.711  21.390  25.591  1.00  0.00    -0.322 N 
ATOM     91  C   UNL A   1      32.700  20.443  25.725  1.00  0.00     0.257 C 
ATOM     92  H   UNL A   1      30.841  21.122  25.968  1.00  0.00     0.170 HD
ATOM     93  O   UNL A   1      32.422  19.278  26.002  1.00  0.00    -0.269 OA
BRANCH  91  94
ATOM     94  C   UNL A   1      34.120  20.818  25.646  1.00  0.00     0.058 A 
ATOM     95  C   UNL A   1      34.504  22.069  26.149  1.00  0.00     0.015 A 
ATOM     96  C   UNL A   1      35.056  19.998  25.009  1.00  0.00     0.053 A 
ATOM     97  C   UNL A   1      35.839  22.470  26.075  1.00  0.00     0.001 A 
ATOM     98  C   UNL A   1      36.384  20.418  24.923  1.00  0.00     0.021 A 
ATOM     99  Cl  UNL A   1      34.631  18.498  24.266  1.00  0.00    -0.083 Cl
ATOM    100  C   UNL A   1      36.780  21.641  25.466  1.00  0.00     0.002 A 
ENDBRANCH  91  94
ENDBRANCH  74  90
ENDBRANCH  69  71
ENDBRANCH  68  69
ENDBRANCH  67  68
ENDBRANCH  66  67
ENDBRANCH  65  66
ENDBRANCH   1  65
TORSDOF 22
ENDMDL
MODEL 3
REMARK VINA RESULT:     -10.9      0.648      5.855
REMARK SMILES O=C(OCCOCCOCCOC(=O)c1cc(NC(=O)c2ccccc2Cl)ccc1N1CCC[C@H](C[NH+]2CCCC2)C1)c1ccc(-c2c3nc(c(-c4c(F)cccc4F)c4ccc([nH]4)c(-c4c(F)cccc4F)c4nc(c(-c5c(F)cccc5F)c5ccc2[nH]5)C=C4)C=C3)cc1
REMARK SMILES IDX 8 1 7 2 6 3 5 4 4 5 3 6 2 7 1 8 43 9 44 10 96 11 45 12 95 13
REMARK SMILES IDX 46 14 47 15 48 16 89 17 49 18 94 19 88 20 90 21 50 22 93 23
REMARK SMILES IDX 87 24 86 25 51 27 77 28 60 29 76 30 61 31 64 32 75 33 91 34
REMARK SMILES IDX 62 35 63 36 74 38 92 39 65 40 52 41 53 42 58 43 54 44 55 45
REMARK SMILES IDX 57 46 59 47 56 48 78 49 79 50 84 51 80 52 81 53 83 54 85 55
REMARK SMILES IDX 82 56 66 57 67 58 72 59 68 60 69 61 71 62 73 63 70 64 9 65
REMARK SMILES IDX 10 66 11 67 12 68 13 69 14 70 15 71 16 72 30 73 17 74 29 75
REMARK SMILES IDX 28 76 31 77 32 78 42 79 33 80 35 81 34 82 36 83 37 84 38 85
REMARK SMILES IDX 41 86 39 88 40 89 18 90 19 91 20 93 21 94 22 95 26 96 23 97
REMARK SMILES IDX 25 98 27 99 24 100
REMARK H PARENT 90 26 64 37 37 87 18 92
REMARK Flexibility Score: inf
ROOT
ATOM      1  C   UNL A   1      38.852  22.689  26.093  1.00  0.00     0.188 C 
ENDROOT
BRANCH   1   2
ATOM      2  C   UNL A   1      39.709  21.491  26.518  1.00  0.00     0.188 C 
BRANCH   2   3
ATOM      3  O   UNL A   1      40.654  21.014  25.560  1.00  0.00    -0.376 OA
BRANCH   3   4
ATOM      4  C   UNL A   1      41.880  20.570  26.151  1.00  0.00     0.202 C 
BRANCH   4   5
ATOM      5  C   UNL A   1      43.084  21.479  25.869  1.00  0.00     0.261 C 
BRANCH   5   6
ATOM      6  O   UNL A   1      42.731  22.654  25.120  1.00  0.00    -0.460 OA
BRANCH   6   7
ATOM      7  C   UNL A   1      43.218  23.913  25.201  1.00  0.00     0.338 C 
ATOM      8  O   UNL A   1      44.234  24.167  24.551  1.00  0.00    -0.246 OA
BRANCH   7   9
ATOM      9  C   UNL A   1      42.629  25.028  26.019  1.00  0.00     0.060 A 
ATOM     10  C   UNL A   1      42.922  26.387  25.905  1.00  0.00     0.016 A 
ATOM     11  C   UNL A   1      41.689  24.655  27.003  1.00  0.00     0.016 A 
ATOM     12  C   UNL A   1      42.427  27.317  26.819  1.00  0.00     0.010 A 
ATOM     13  C   UNL A   1      41.140  25.588  27.891  1.00  0.00     0.010 A 
ATOM     14  C   UNL A   1      41.584  26.909  27.852  1.00  0.00    -0.014 A 
BRANCH  14  15
ATOM     15  C   UNL A   1      41.441  27.814  29.013  1.00  0.00     0.031 A 
ATOM     16  C   UNL A   1      40.261  28.746  29.026  1.00  0.00     0.074 A 
ATOM     17  C   UNL A   1      42.236  27.689  30.089  1.00  0.00     0.049 A 
ATOM     18  N   UNL A   1      39.828  29.524  29.983  1.00  0.00    -0.248 NA
ATOM     19  C   UNL A   1      39.458  28.809  27.793  1.00  0.00     0.031 C 
ATOM     20  C   UNL A   1      43.391  26.799  30.179  1.00  0.00     0.029 A 
ATOM     21  N   UNL A   1      42.164  28.275  31.327  1.00  0.00    -0.354 N 
ATOM     22  C   UNL A   1      38.731  30.190  29.452  1.00  0.00     0.074 A 
ATOM     23  C   UNL A   1      38.569  29.740  28.090  1.00  0.00     0.031 C 
ATOM     24  C   UNL A   1      43.882  26.856  31.428  1.00  0.00     0.029 A 
ATOM     25  C   UNL A   1      43.079  27.776  32.222  1.00  0.00     0.049 A 
ATOM     26  H   UNL A   1      41.519  28.984  31.552  1.00  0.00     0.167 HD
ATOM     27  C   UNL A   1      37.928  31.100  30.048  1.00  0.00     0.037 A 
ATOM     28  C   UNL A   1      43.228  28.014  33.539  1.00  0.00     0.037 A 
ATOM     29  C   UNL A   1      38.090  31.528  31.408  1.00  0.00     0.049 A 
ATOM     30  C   UNL A   1      42.299  29.001  34.192  1.00  0.00     0.074 A 
ATOM     31  C   UNL A   1      37.374  32.480  32.108  1.00  0.00     0.029 A 
ATOM     32  N   UNL A   1      39.042  31.016  32.277  1.00  0.00    -0.354 N 
ATOM     33  N   UNL A   1      41.278  29.642  33.675  1.00  0.00    -0.248 NA
ATOM     34  C   UNL A   1      42.552  29.314  35.605  1.00  0.00     0.031 C 
ATOM     35  C   UNL A   1      37.912  32.562  33.398  1.00  0.00     0.029 A 
ATOM     36  C   UNL A   1      38.936  31.632  33.510  1.00  0.00     0.049 A 
ATOM     37  H   UNL A   1      39.697  30.316  32.049  1.00  0.00     0.167 HD
ATOM     38  C   UNL A   1      40.769  30.436  34.694  1.00  0.00     0.074 A 
ATOM     39  C   UNL A   1      41.569  30.161  35.872  1.00  0.00     0.031 C 
ATOM     40  C   UNL A   1      39.749  31.327  34.659  1.00  0.00     0.037 A 
BRANCH  27  41
ATOM     41  C   UNL A   1      36.863  31.717  29.192  1.00  0.00     0.057 A 
ATOM     42  C   UNL A   1      36.988  33.007  28.661  1.00  0.00     0.134 A 
ATOM     43  C   UNL A   1      35.662  31.034  28.961  1.00  0.00     0.134 A 
ATOM     44  F   UNL A   1      38.098  33.729  28.879  1.00  0.00    -0.206 F 
ATOM     45  C   UNL A   1      35.942  33.611  27.960  1.00  0.00     0.040 A 
ATOM     46  C   UNL A   1      34.619  31.618  28.241  1.00  0.00     0.040 A 
ATOM     47  F   UNL A   1      35.476  29.800  29.452  1.00  0.00    -0.206 F 
ATOM     48  C   UNL A   1      34.753  32.914  27.748  1.00  0.00     0.006 A 
ENDBRANCH  27  41
BRANCH  28  49
ATOM     49  C   UNL A   1      44.256  27.286  34.333  1.00  0.00     0.057 A 
ATOM     50  C   UNL A   1      45.537  27.820  34.522  1.00  0.00     0.134 A 
ATOM     51  C   UNL A   1      43.993  26.041  34.919  1.00  0.00     0.134 A 
ATOM     52  F   UNL A   1      45.862  29.002  33.977  1.00  0.00    -0.206 F 
ATOM     53  C   UNL A   1      46.520  27.141  35.246  1.00  0.00     0.040 A 
ATOM     54  C   UNL A   1      44.956  25.364  35.670  1.00  0.00     0.040 A 
ATOM     55  F   UNL A   1      42.786  25.472  34.786  1.00  0.00    -0.206 F 
ATOM     56  C   UNL A   1      46.227  25.910  35.828  1.00  0.00     0.006 A 
ENDBRANCH  28  49
BRANCH  40  57
ATOM     57  C   UNL A   1      39.442  32.054  35.931  1.00  0.00     0.057 A 
ATOM     58  C   UNL A   1      38.477  31.584  36.829  1.00  0.00     0.134 A 
ATOM     59  C   UNL A   1      40.149  33.211  36.278  1.00  0.00     0.134 A 
ATOM     60  F   UNL A   1      37.759  30.486  36.544  1.00  0.00    -0.206 F 
ATOM     61  C   UNL A   1      38.208  32.253  38.022  1.00  0.00     0.040 A 
ATOM     62  C   UNL A   1      39.906  33.876  37.480  1.00  0.00     0.040 A 
ATOM     63  F   UNL A   1      41.093  33.704  35.462  1.00  0.00    -0.206 F 
ATOM     64  C   UNL A   1      38.929  33.399  38.353  1.00  0.00     0.006 A 
ENDBRANCH  40  57
ENDBRANCH  14  15
ENDBRANCH   7   9
ENDBRANCH   6   7
ENDBRANCH   5   6
ENDBRANCH   4   5
ENDBRANCH   3   4
ENDBRANCH   2   3
ENDBRANCH   1   2
BRANCH   1  65
ATOM     65  O   UNL A   1      37.572  22.428  25.542  1.00  0.00    -0.376 OA
BRANCH  65  66
ATOM     66  C   UNL A   1      37.147  23.236  24.450  1.00  0.00     0.202 C 
BRANCH  66  67
ATOM     67  C   UNL A   1      35.876  22.847  23.692  1.00  0.00     0.261 C 
BRANCH  67  68
ATOM     68  O   UNL A   1      34.859  23.864  23.624  1.00  0.00    -0.460 OA
BRANCH  68  69
ATOM     69  C   UNL A   1      33.796  23.544  22.838  1.00  0.00     0.340 C 
ATOM     70  O   UNL A   1      33.806  22.776  21.889  1.00  0.00    -0.246 OA
BRANCH  69  71
ATOM     71  C   UNL A   1      32.559  24.232  23.254  1.00  0.00     0.085 A 
ATOM     72  C   UNL A   1      32.198  25.325  22.428  1.00  0.00     0.044 A 
ATOM     73  C   UNL A   1      31.873  23.942  24.452  1.00  0.00     0.051 A 
ATOM     74  C   UNL A   1      31.155  26.174  22.782  1.00  0.00     0.042 A 
ATOM     75  C   UNL A   1      30.826  24.828  24.775  1.00  0.00     0.029 A 
ATOM     76  C   UNL A   1      30.483  25.928  23.975  1.00  0.00     0.028 A 
BRANCH  73  77
ATOM     77  N   UNL A   1      32.184  22.932  25.349  1.00  0.00    -0.370 N 
ATOM     78  C   UNL A   1      33.197  23.136  26.385  1.00  0.00     0.116 C 
ATOM     79  C   UNL A   1      31.419  21.697  25.483  1.00  0.00     0.126 C 
ATOM     80  C   UNL A   1      34.187  21.974  26.373  1.00  0.00     0.022 C 
ATOM     81  C   UNL A   1      32.351  20.481  25.414  1.00  0.00     0.064 C 
ATOM     82  C   UNL A   1      33.460  20.632  26.471  1.00  0.00     0.013 C 
BRANCH  81  83
ATOM     83  C   UNL A   1      32.837  20.302  23.955  1.00  0.00     0.267 C 
BRANCH  83  84
ATOM     84  N   UNL A   1      33.478  19.044  23.566  1.00  0.00    -0.335 N 
ATOM     85  C   UNL A   1      32.600  18.080  22.905  1.00  0.00     0.262 C 
ATOM     86  C   UNL A   1      34.206  18.336  24.608  1.00  0.00     0.262 C 
ATOM     87  H   UNL A   1      34.158  19.407  22.897  1.00  0.00     0.348 HD
ATOM     88  C   UNL A   1      32.245  17.053  23.963  1.00  0.00     0.067 C 
ATOM     89  C   UNL A   1      33.400  17.089  24.948  1.00  0.00     0.067 C 
ENDBRANCH  83  84
ENDBRANCH  81  83
ENDBRANCH  73  77
BRANCH  74  90
ATOM     90  N   UNL A   1      30.798  27.330  22.067  1.00  0.00    -0.322 N 
ATOM     91  C   UNL A   1      30.740  28.653  22.440  1.00  0.00     0.257 C 
ATOM     92  H   UNL A   1      30.542  27.163  21.130  1.00  0.00     0.170 HD
ATOM     93  O   UNL A   1      30.129  29.473  21.757  1.00  0.00    -0.269 OA
BRANCH  91  94
ATOM     94  C   UNL A   1      31.492  29.143  23.605  1.00  0.00     0.058 A 
ATOM     95  C   UNL A   1      30.787  29.814  24.614  1.00  0.00     0.015 A 
ATOM     96  C   UNL A   1      32.883  29.028  23.676  1.00  0.00     0.053 A 
ATOM     97  C   UNL A   1      31.467  30.312  25.726  1.00  0.00     0.001 A 
ATOM     98  C   UNL A   1      33.555  29.547  24.783  1.00  0.00     0.021 A 
ATOM     99  Cl  UNL A   1      33.826  28.316  22.416  1.00  0.00    -0.083 Cl
ATOM    100  C   UNL A   1      32.851  30.173  25.812  1.00  0.00     0.002 A 
ENDBRANCH  91  94
ENDBRANCH  74  90
ENDBRANCH  69  71
ENDBRANCH  68  69
ENDBRANCH  67  68
ENDBRANCH  66  67
ENDBRANCH  65  66
ENDBRANCH   1  65
TORSDOF 22
ENDMDL
