MODEL 1
REMARK VINA RESULT:     -13.6      0.000      0.000
REMARK SMILES CCC(=O)N1CCC[C@](C[C@H]2CC(c3ccc(C)cc3)=NO2)(C(=O)OCCOCCOCCOC(=O)c2ccc(-c3c4nc(c(-c5c(F)cccc5F)c5ccc([nH]5)c(-c5c(F)cccc5F)c5nc(c(-c6c(F)cccc6F)c6ccc3[nH]6)C=C5)C=C4)cc2)C1
REMARK SMILES IDX 29 1 28 2 27 3 26 4 25 5 23 6 24 7 9 8 5 9 6 10 91 11 7 12
REMARK SMILES IDX 8 13 3 14 4 15 2 16 1 17 10 18 11 19 12 20 22 21 13 22 21 23
REMARK SMILES IDX 14 24 15 25 20 26 16 27 19 28 17 29 18 30 30 31 31 32 32 33
REMARK SMILES IDX 33 34 34 35 35 36 36 37 37 38 38 39 90 40 39 41 89 42 40 43
REMARK SMILES IDX 41 44 42 45 83 46 43 47 88 48 82 49 84 50 44 51 87 52 81 53
REMARK SMILES IDX 80 54 45 56 71 57 54 58 70 59 55 60 58 61 69 62 85 63 56 64
REMARK SMILES IDX 57 65 68 67 86 68 59 69 46 70 47 71 52 72 48 73 49 74 51 75
REMARK SMILES IDX 53 76 50 77 72 78 73 79 78 80 74 81 75 82 77 83 79 84 76 85
REMARK SMILES IDX 60 86 61 87 66 88 62 89 63 90 65 91 67 92 64 93
REMARK H PARENT 84 55 58 66
REMARK Flexibility Score: inf
ROOT
ATOM      1  C   UNL A   1      40.106  21.778  26.215  1.00  0.00     0.188 C 
ENDROOT
BRANCH   1   2
ATOM      2  O   UNL A   1      38.892  21.281  25.626  1.00  0.00    -0.376 OA
BRANCH   2   3
ATOM      3  C   UNL A   1      37.759  22.079  25.267  1.00  0.00     0.202 C 
BRANCH   3   4
ATOM      4  C   UNL A   1      36.131  21.701  24.970  1.00  0.00     0.261 C 
BRANCH   4   5
ATOM      5  O   UNL A   1      34.620  22.572  24.540  1.00  0.00    -0.463 OA
BRANCH   5   6
ATOM      6  C   UNL A   1      33.469  23.285  25.074  1.00  0.00     0.314 C 
ATOM      7  O   UNL A   1      33.473  24.250  25.838  1.00  0.00    -0.252 OA
BRANCH   6   8
ATOM      8  C   UNL A   1      32.032  22.856  24.823  1.00  0.00     0.089 C 
ATOM      9  N   UNL A   1      32.264  20.250  24.127  1.00  0.00    -0.342 N 
ATOM     10  C   UNL A   1      32.132  20.636  22.726  1.00  0.00     0.119 C 
ATOM     11  C   UNL A   1      31.930  21.274  25.175  1.00  0.00     0.138 C 
ATOM     12  C   UNL A   1      32.562  22.048  22.402  1.00  0.00     0.023 C 
ATOM     13  C   UNL A   1      31.842  23.050  23.303  1.00  0.00     0.022 C 
BRANCH   9  14
ATOM     14  C   UNL A   1      32.402  18.868  24.284  1.00  0.00     0.222 C 
ATOM     15  O   UNL A   1      32.284  18.349  25.411  1.00  0.00    -0.275 OA
BRANCH  14  16
ATOM     16  C   UNL A   1      32.687  17.853  23.185  1.00  0.00     0.097 C 
ATOM     17  C   UNL A   1      33.957  17.057  23.050  1.00  0.00     0.014 C 
ENDBRANCH  14  16
ENDBRANCH   9  14
BRANCH   8  18
ATOM     18  C   UNL A   1      31.144  23.739  25.719  1.00  0.00     0.069 C 
BRANCH  18  19
ATOM     19  C   UNL A   1      30.457  25.006  25.194  1.00  0.00     0.212 C 
ATOM     20  C   UNL A   1      30.516  26.240  26.069  1.00  0.00     0.108 C 
ATOM     21  O   UNL A   1      30.951  25.403  23.915  1.00  0.00    -0.392 OA
ATOM     22  C   UNL A   1      31.484  27.039  25.267  1.00  0.00     0.091 C 
ATOM     23  N   UNL A   1      31.680  26.604  24.064  1.00  0.00    -0.090 NA
BRANCH  22  24
ATOM     24  C   UNL A   1      32.170  28.234  25.806  1.00  0.00    -0.001 A 
ATOM     25  C   UNL A   1      31.565  29.497  25.786  1.00  0.00     0.010 A 
ATOM     26  C   UNL A   1      33.404  28.069  26.437  1.00  0.00     0.010 A 
ATOM     27  C   UNL A   1      32.173  30.575  26.431  1.00  0.00     0.004 A 
ATOM     28  C   UNL A   1      34.031  29.160  27.043  1.00  0.00     0.004 A 
ATOM     29  C   UNL A   1      33.408  30.414  27.069  1.00  0.00    -0.051 A 
ATOM     30  C   UNL A   1      34.076  31.582  27.731  1.00  0.00     0.044 C 
ENDBRANCH  22  24
ENDBRANCH  18  19
ENDBRANCH   8  18
ENDBRANCH   6   8
ENDBRANCH   5   6
ENDBRANCH   4   5
ENDBRANCH   3   4
ENDBRANCH   2   3
ENDBRANCH   1   2
BRANCH   1  31
ATOM     31  C   UNL A   1      41.153  20.854  26.832  1.00  0.00     0.188 C 
BRANCH  31  32
ATOM     32  O   UNL A   1      41.762  20.064  25.832  1.00  0.00    -0.376 OA
BRANCH  32  33
ATOM     33  C   UNL A   1      42.475  18.933  26.303  1.00  0.00     0.202 C 
BRANCH  33  34
ATOM     34  C   UNL A   1      43.661  18.581  25.393  1.00  0.00     0.261 C 
BRANCH  34  35
ATOM     35  O   UNL A   1      43.826  19.585  24.364  1.00  0.00    -0.460 OA
BRANCH  35  36
ATOM     36  C   UNL A   1      45.108  20.005  24.110  1.00  0.00     0.338 C 
ATOM     37  O   UNL A   1      46.043  19.271  23.832  1.00  0.00    -0.246 OA
BRANCH  36  38
ATOM     38  C   UNL A   1      45.250  21.448  24.490  1.00  0.00     0.060 A 
ATOM     39  C   UNL A   1      46.111  21.945  25.477  1.00  0.00     0.016 A 
ATOM     40  C   UNL A   1      44.229  22.256  24.133  1.00  0.00     0.016 A 
ATOM     41  C   UNL A   1      45.766  23.103  26.288  1.00  0.00     0.010 A 
ATOM     42  C   UNL A   1      43.841  23.201  25.079  1.00  0.00     0.010 A 
ATOM     43  C   UNL A   1      44.502  23.714  26.262  1.00  0.00    -0.014 A 
BRANCH  43  44
ATOM     44  C   UNL A   1      43.924  24.839  27.529  1.00  0.00     0.031 A 
ATOM     45  C   UNL A   1      42.408  25.779  27.762  1.00  0.00     0.074 A 
ATOM     46  C   UNL A   1      44.860  25.327  28.384  1.00  0.00     0.049 A 
ATOM     47  N   UNL A   1      42.347  26.994  28.298  1.00  0.00    -0.248 NA
ATOM     48  C   UNL A   1      40.968  25.491  27.379  1.00  0.00     0.031 C 
ATOM     49  C   UNL A   1      44.634  26.178  29.549  1.00  0.00     0.029 A 
ATOM     50  N   UNL A   1      46.256  25.290  28.272  1.00  0.00    -0.354 N 
ATOM     51  C   UNL A   1      41.013  27.423  28.427  1.00  0.00     0.074 A 
ATOM     52  C   UNL A   1      40.194  26.426  27.882  1.00  0.00     0.031 C 
ATOM     53  C   UNL A   1      45.758  26.856  29.813  1.00  0.00     0.029 A 
ATOM     54  C   UNL A   1      46.734  26.499  28.808  1.00  0.00     0.049 A 
ATOM     55  H   UNL A   1      46.796  24.560  27.894  1.00  0.00     0.167 HD
ATOM     56  C   UNL A   1      40.566  28.567  29.006  1.00  0.00     0.037 A 
ATOM     57  C   UNL A   1      47.555  27.343  28.132  1.00  0.00     0.037 A 
ATOM     58  C   UNL A   1      41.656  29.347  29.483  1.00  0.00     0.049 A 
ATOM     59  C   UNL A   1      47.086  28.778  28.080  1.00  0.00     0.074 A 
ATOM     60  C   UNL A   1      42.341  29.334  30.680  1.00  0.00     0.029 A 
ATOM     61  N   UNL A   1      42.433  30.013  28.561  1.00  0.00    -0.354 N 
ATOM     62  N   UNL A   1      45.927  29.192  28.510  1.00  0.00    -0.248 NA
ATOM     63  C   UNL A   1      47.873  29.859  27.492  1.00  0.00     0.031 C 
ATOM     64  C   UNL A   1      43.581  29.972  30.462  1.00  0.00     0.029 A 
ATOM     65  C   UNL A   1      43.612  30.409  29.149  1.00  0.00     0.049 A 
ATOM     66  H   UNL A   1      42.183  30.181  27.624  1.00  0.00     0.167 HD
ATOM     67  C   UNL A   1      45.760  30.516  28.174  1.00  0.00     0.074 A 
ATOM     68  C   UNL A   1      47.030  30.900  27.596  1.00  0.00     0.031 C 
ATOM     69  C   UNL A   1      44.573  31.161  28.372  1.00  0.00     0.037 A 
BRANCH  56  70
ATOM     70  C   UNL A   1      39.103  28.761  29.359  1.00  0.00     0.057 A 
ATOM     71  C   UNL A   1      38.238  29.401  28.457  1.00  0.00     0.134 A 
ATOM     72  C   UNL A   1      38.535  28.475  30.620  1.00  0.00     0.134 A 
ATOM     73  F   UNL A   1      38.617  29.659  27.199  1.00  0.00    -0.206 F 
ATOM     74  C   UNL A   1      36.959  29.849  28.821  1.00  0.00     0.040 A 
ATOM     75  C   UNL A   1      37.279  28.968  31.015  1.00  0.00     0.040 A 
ATOM     76  F   UNL A   1      39.209  27.756  31.533  1.00  0.00    -0.206 F 
ATOM     77  C   UNL A   1      36.495  29.679  30.118  1.00  0.00     0.006 A 
ENDBRANCH  56  70
BRANCH  57  78
ATOM     78  C   UNL A   1      48.419  26.672  27.130  1.00  0.00     0.057 A 
ATOM     79  C   UNL A   1      47.969  26.579  25.800  1.00  0.00     0.134 A 
ATOM     80  C   UNL A   1      49.779  26.456  27.352  1.00  0.00     0.134 A 
ATOM     81  F   UNL A   1      46.675  26.789  25.511  1.00  0.00    -0.206 F 
ATOM     82  C   UNL A   1      48.845  26.378  24.729  1.00  0.00     0.040 A 
ATOM     83  C   UNL A   1      50.664  26.251  26.281  1.00  0.00     0.040 A 
ATOM     84  F   UNL A   1      50.294  26.589  28.580  1.00  0.00    -0.206 F 
ATOM     85  C   UNL A   1      50.205  26.241  24.967  1.00  0.00     0.006 A 
ENDBRANCH  57  78
BRANCH  69  86
ATOM     86  C   UNL A   1      44.164  32.544  27.907  1.00  0.00     0.057 A 
ATOM     87  C   UNL A   1      43.877  33.623  28.751  1.00  0.00     0.134 A 
ATOM     88  C   UNL A   1      44.189  32.866  26.524  1.00  0.00     0.134 A 
ATOM     89  F   UNL A   1      43.923  33.507  30.083  1.00  0.00    -0.206 F 
ATOM     90  C   UNL A   1      43.583  34.905  28.259  1.00  0.00     0.040 A 
ATOM     91  C   UNL A   1      43.956  34.151  26.028  1.00  0.00     0.040 A 
ATOM     92  F   UNL A   1      44.467  31.947  25.587  1.00  0.00    -0.206 F 
ATOM     93  C   UNL A   1      43.633  35.176  26.898  1.00  0.00     0.006 A 
ENDBRANCH  69  86
ENDBRANCH  43  44
ENDBRANCH  36  38
ENDBRANCH  35  36
ENDBRANCH  34  35
ENDBRANCH  33  34
ENDBRANCH  32  33
ENDBRANCH  31  32
ENDBRANCH   1  31
TORSDOF 22
ENDMDL
MODEL 2
REMARK VINA RESULT:     -13.2      4.881     11.018
REMARK SMILES CCC(=O)N1CCC[C@](C[C@H]2CC(c3ccc(C)cc3)=NO2)(C(=O)OCCOCCOCCOC(=O)c2ccc(-c3c4nc(c(-c5c(F)cccc5F)c5ccc([nH]5)c(-c5c(F)cccc5F)c5nc(c(-c6c(F)cccc6F)c6ccc3[nH]6)C=C5)C=C4)cc2)C1
REMARK SMILES IDX 29 1 28 2 27 3 26 4 25 5 23 6 24 7 9 8 5 9 6 10 91 11 7 12
REMARK SMILES IDX 8 13 3 14 4 15 2 16 1 17 10 18 11 19 12 20 22 21 13 22 21 23
REMARK SMILES IDX 14 24 15 25 20 26 16 27 19 28 17 29 18 30 30 31 31 32 32 33
REMARK SMILES IDX 33 34 34 35 35 36 36 37 37 38 38 39 90 40 39 41 89 42 40 43
REMARK SMILES IDX 41 44 42 45 83 46 43 47 88 48 82 49 84 50 44 51 87 52 81 53
REMARK SMILES IDX 80 54 45 56 71 57 54 58 70 59 55 60 58 61 69 62 85 63 56 64
REMARK SMILES IDX 57 65 68 67 86 68 59 69 46 70 47 71 52 72 48 73 49 74 51 75
REMARK SMILES IDX 53 76 50 77 72 78 73 79 78 80 74 81 75 82 77 83 79 84 76 85
REMARK SMILES IDX 60 86 61 87 66 88 62 89 63 90 65 91 67 92 64 93
REMARK H PARENT 84 55 58 66
REMARK Flexibility Score: inf
ROOT
ATOM      1  C   UNL A   1      34.773  31.901  28.075  1.00  0.00     0.188 C 
ENDROOT
BRANCH   1   2
ATOM      2  O   UNL A   1      33.850  30.894  27.625  1.00  0.00    -0.376 OA
BRANCH   2   3
ATOM      3  C   UNL A   1      32.675  31.137  26.844  1.00  0.00     0.202 C 
BRANCH   3   4
ATOM      4  C   UNL A   1      31.810  30.184  25.738  1.00  0.00     0.261 C 
BRANCH   4   5
ATOM      5  O   UNL A   1      31.074  28.546  25.684  1.00  0.00    -0.463 OA
BRANCH   5   6
ATOM      6  C   UNL A   1      31.142  27.235  25.054  1.00  0.00     0.314 C 
ATOM      7  O   UNL A   1      31.571  26.190  25.544  1.00  0.00    -0.252 OA
BRANCH   6   8
ATOM      8  C   UNL A   1      30.760  26.984  23.605  1.00  0.00     0.089 C 
ATOM      9  N   UNL A   1      28.852  28.845  23.124  1.00  0.00    -0.342 N 
ATOM     10  C   UNL A   1      27.834  27.817  23.311  1.00  0.00     0.119 C 
ATOM     11  C   UNL A   1      30.281  28.404  22.977  1.00  0.00     0.138 C 
ATOM     12  C   UNL A   1      28.241  26.658  24.192  1.00  0.00     0.023 C 
ATOM     13  C   UNL A   1      29.544  26.036  23.695  1.00  0.00     0.022 C 
BRANCH   9  14
ATOM     14  C   UNL A   1      28.297  30.089  22.812  1.00  0.00     0.222 C 
ATOM     15  O   UNL A   1      27.111  30.338  23.104  1.00  0.00    -0.275 OA
BRANCH  14  16
ATOM     16  C   UNL A   1      29.001  31.253  22.127  1.00  0.00     0.097 C 
ATOM     17  C   UNL A   1      28.776  32.707  22.441  1.00  0.00     0.014 C 
ENDBRANCH  14  16
ENDBRANCH   9  14
BRANCH   8  18
ATOM     18  C   UNL A   1      32.006  26.401  22.913  1.00  0.00     0.069 C 
BRANCH  18  19
ATOM     19  C   UNL A   1      32.031  24.977  22.342  1.00  0.00     0.212 C 
ATOM     20  C   UNL A   1      33.384  24.318  22.182  1.00  0.00     0.108 C 
ATOM     21  O   UNL A   1      31.235  24.070  23.105  1.00  0.00    -0.392 OA
ATOM     22  C   UNL A   1      33.287  23.330  23.292  1.00  0.00     0.091 C 
ATOM     23  N   UNL A   1      32.092  23.159  23.762  1.00  0.00    -0.090 NA
BRANCH  22  24
ATOM     24  C   UNL A   1      34.464  22.606  23.819  1.00  0.00    -0.001 A 
ATOM     25  C   UNL A   1      34.324  21.445  24.590  1.00  0.00     0.010 A 
ATOM     26  C   UNL A   1      35.738  23.042  23.451  1.00  0.00     0.010 A 
ATOM     27  C   UNL A   1      35.451  20.703  24.950  1.00  0.00     0.004 A 
ATOM     28  C   UNL A   1      36.866  22.322  23.851  1.00  0.00     0.004 A 
ATOM     29  C   UNL A   1      36.729  21.133  24.579  1.00  0.00    -0.051 A 
ATOM     30  C   UNL A   1      37.940  20.354  24.997  1.00  0.00     0.044 C 
ENDBRANCH  22  24
ENDBRANCH  18  19
ENDBRANCH   8  18
ENDBRANCH   6   8
ENDBRANCH   5   6
ENDBRANCH   4   5
ENDBRANCH   3   4
ENDBRANCH   2   3
ENDBRANCH   1   2
BRANCH   1  31
ATOM     31  C   UNL A   1      34.434  32.877  29.199  1.00  0.00     0.188 C 
BRANCH  31  32
ATOM     32  O   UNL A   1      35.029  34.135  28.954  1.00  0.00    -0.376 OA
BRANCH  32  33
ATOM     33  C   UNL A   1      34.128  35.224  28.861  1.00  0.00     0.202 C 
BRANCH  33  34
ATOM     34  C   UNL A   1      32.921  35.053  29.794  1.00  0.00     0.261 C 
BRANCH  34  35
ATOM     35  O   UNL A   1      33.121  35.791  31.023  1.00  0.00    -0.460 OA
BRANCH  35  36
ATOM     36  C   UNL A   1      32.959  35.095  32.195  1.00  0.00     0.338 C 
ATOM     37  O   UNL A   1      31.935  35.072  32.859  1.00  0.00    -0.246 OA
BRANCH  36  38
ATOM     38  C   UNL A   1      34.290  34.600  32.674  1.00  0.00     0.060 A 
ATOM     39  C   UNL A   1      35.505  35.284  32.541  1.00  0.00     0.016 A 
ATOM     40  C   UNL A   1      34.379  33.271  32.900  1.00  0.00     0.016 A 
ATOM     41  C   UNL A   1      36.765  34.583  32.344  1.00  0.00     0.010 A 
ATOM     42  C   UNL A   1      35.557  32.661  32.477  1.00  0.00     0.010 A 
ATOM     43  C   UNL A   1      36.852  33.200  32.117  1.00  0.00    -0.014 A 
BRANCH  43  44
ATOM     44  C   UNL A   1      38.311  32.399  31.458  1.00  0.00     0.031 A 
ATOM     45  C   UNL A   1      38.584  30.897  30.507  1.00  0.00     0.074 A 
ATOM     46  C   UNL A   1      39.508  32.812  31.950  1.00  0.00     0.049 A 
ATOM     47  N   UNL A   1      39.633  30.093  30.648  1.00  0.00    -0.248 NA
ATOM     48  C   UNL A   1      37.740  30.192  29.461  1.00  0.00     0.031 C 
ATOM     49  C   UNL A   1      40.836  32.387  31.514  1.00  0.00     0.029 A 
ATOM     50  N   UNL A   1      39.770  33.590  33.085  1.00  0.00    -0.354 N 
ATOM     51  C   UNL A   1      39.605  29.054  29.701  1.00  0.00     0.074 A 
ATOM     52  C   UNL A   1      38.427  29.193  28.955  1.00  0.00     0.031 C 
ATOM     53  C   UNL A   1      41.701  32.579  32.517  1.00  0.00     0.029 A 
ATOM     54  C   UNL A   1      40.959  33.093  33.646  1.00  0.00     0.049 A 
ATOM     55  H   UNL A   1      39.228  34.338  33.422  1.00  0.00     0.167 HD
ATOM     56  C   UNL A   1      40.550  28.101  29.492  1.00  0.00     0.037 A 
ATOM     57  C   UNL A   1      41.066  32.698  34.942  1.00  0.00     0.037 A 
ATOM     58  C   UNL A   1      41.632  28.260  30.402  1.00  0.00     0.049 A 
ATOM     59  C   UNL A   1      41.643  31.316  35.137  1.00  0.00     0.074 A 
ATOM     60  C   UNL A   1      42.781  29.020  30.340  1.00  0.00     0.029 A 
ATOM     61  N   UNL A   1      41.435  27.901  31.717  1.00  0.00    -0.354 N 
ATOM     62  N   UNL A   1      41.898  30.479  34.172  1.00  0.00    -0.248 NA
ATOM     63  C   UNL A   1      41.935  30.748  36.451  1.00  0.00     0.031 C 
ATOM     64  C   UNL A   1      43.264  29.160  31.658  1.00  0.00     0.029 A 
ATOM     65  C   UNL A   1      42.432  28.439  32.497  1.00  0.00     0.049 A 
ATOM     66  H   UNL A   1      40.694  27.344  32.049  1.00  0.00     0.167 HD
ATOM     67  C   UNL A   1      42.267  29.265  34.704  1.00  0.00     0.074 A 
ATOM     68  C   UNL A   1      42.335  29.505  36.129  1.00  0.00     0.031 C 
ATOM     69  C   UNL A   1      42.447  28.163  33.917  1.00  0.00     0.037 A 
BRANCH  56  70
ATOM     70  C   UNL A   1      40.548  27.238  28.243  1.00  0.00     0.057 A 
ATOM     71  C   UNL A   1      39.897  25.994  28.247  1.00  0.00     0.134 A 
ATOM     72  C   UNL A   1      41.290  27.513  27.075  1.00  0.00     0.134 A 
ATOM     73  F   UNL A   1      39.093  25.635  29.255  1.00  0.00    -0.206 F 
ATOM     74  C   UNL A   1      40.080  25.040  27.234  1.00  0.00     0.040 A 
ATOM     75  C   UNL A   1      41.528  26.547  26.082  1.00  0.00     0.040 A 
ATOM     76  F   UNL A   1      41.859  28.715  26.886  1.00  0.00    -0.206 F 
ATOM     77  C   UNL A   1      40.937  25.294  26.172  1.00  0.00     0.006 A 
ENDBRANCH  56  70
BRANCH  57  78
ATOM     78  C   UNL A   1      40.134  33.393  35.864  1.00  0.00     0.057 A 
ATOM     79  C   UNL A   1      38.896  32.793  36.155  1.00  0.00     0.134 A 
ATOM     80  C   UNL A   1      40.561  34.406  36.722  1.00  0.00     0.134 A 
ATOM     81  F   UNL A   1      38.430  31.800  35.380  1.00  0.00    -0.206 F 
ATOM     82  C   UNL A   1      38.161  33.116  37.300  1.00  0.00     0.040 A 
ATOM     83  C   UNL A   1      39.827  34.739  37.872  1.00  0.00     0.040 A 
ATOM     84  F   UNL A   1      41.756  34.983  36.548  1.00  0.00    -0.206 F 
ATOM     85  C   UNL A   1      38.642  34.075  38.180  1.00  0.00     0.006 A 
ENDBRANCH  57  78
BRANCH  69  86
ATOM     86  C   UNL A   1      42.677  26.728  34.346  1.00  0.00     0.057 A 
ATOM     87  C   UNL A   1      41.834  25.996  35.190  1.00  0.00     0.134 A 
ATOM     88  C   UNL A   1      43.739  25.977  33.775  1.00  0.00     0.134 A 
ATOM     89  F   UNL A   1      40.728  26.532  35.718  1.00  0.00    -0.206 F 
ATOM     90  C   UNL A   1      42.058  24.642  35.486  1.00  0.00     0.040 A 
ATOM     91  C   UNL A   1      43.935  24.615  34.017  1.00  0.00     0.040 A 
ATOM     92  F   UNL A   1      44.624  26.528  32.930  1.00  0.00    -0.206 F 
ATOM     93  C   UNL A   1      43.102  23.944  34.892  1.00  0.00     0.006 A 
ENDBRANCH  69  86
ENDBRANCH  43  44
ENDBRANCH  36  38
ENDBRANCH  35  36
ENDBRANCH  34  35
ENDBRANCH  33  34
ENDBRANCH  32  33
ENDBRANCH  31  32
ENDBRANCH   1  31
TORSDOF 22
ENDMDL
MODEL 3
REMARK VINA RESULT:     -13.2      1.236      4.667
REMARK SMILES CCC(=O)N1CCC[C@](C[C@H]2CC(c3ccc(C)cc3)=NO2)(C(=O)OCCOCCOCCOC(=O)c2ccc(-c3c4nc(c(-c5c(F)cccc5F)c5ccc([nH]5)c(-c5c(F)cccc5F)c5nc(c(-c6c(F)cccc6F)c6ccc3[nH]6)C=C5)C=C4)cc2)C1
REMARK SMILES IDX 29 1 28 2 27 3 26 4 25 5 23 6 24 7 9 8 5 9 6 10 91 11 7 12
REMARK SMILES IDX 8 13 3 14 4 15 2 16 1 17 10 18 11 19 12 20 22 21 13 22 21 23
REMARK SMILES IDX 14 24 15 25 20 26 16 27 19 28 17 29 18 30 30 31 31 32 32 33
REMARK SMILES IDX 33 34 34 35 35 36 36 37 37 38 38 39 90 40 39 41 89 42 40 43
REMARK SMILES IDX 41 44 42 45 83 46 43 47 88 48 82 49 84 50 44 51 87 52 81 53
REMARK SMILES IDX 80 54 45 56 71 57 54 58 70 59 55 60 58 61 69 62 85 63 56 64
REMARK SMILES IDX 57 65 68 67 86 68 59 69 46 70 47 71 52 72 48 73 49 74 51 75
REMARK SMILES IDX 53 76 50 77 72 78 73 79 78 80 74 81 75 82 77 83 79 84 76 85
REMARK SMILES IDX 60 86 61 87 66 88 62 89 63 90 65 91 67 92 64 93
REMARK H PARENT 84 55 58 66
REMARK Flexibility Score: inf
ROOT
ATOM      1  C   UNL A   1      39.715  22.000  26.138  1.00  0.00     0.188 C 
ENDROOT
BRANCH   1   2
ATOM      2  O   UNL A   1      38.322  21.665  26.265  1.00  0.00    -0.376 OA
BRANCH   2   3
ATOM      3  C   UNL A   1      37.264  22.204  25.466  1.00  0.00     0.202 C 
BRANCH   3   4
ATOM      4  C   UNL A   1      36.728  23.790  25.182  1.00  0.00     0.261 C 
BRANCH   4   5
ATOM      5  O   UNL A   1      35.191  24.714  25.290  1.00  0.00    -0.463 OA
BRANCH   5   6
ATOM      6  C   UNL A   1      34.198  25.458  24.528  1.00  0.00     0.314 C 
ATOM      7  O   UNL A   1      34.314  26.583  24.045  1.00  0.00    -0.252 OA
BRANCH   6   8
ATOM      8  C   UNL A   1      32.782  24.959  24.294  1.00  0.00     0.089 C 
ATOM      9  N   UNL A   1      31.301  27.226  24.329  1.00  0.00    -0.342 N 
ATOM     10  C   UNL A   1      30.914  26.925  25.704  1.00  0.00     0.119 C 
ATOM     11  C   UNL A   1      31.971  26.143  23.532  1.00  0.00     0.138 C 
ATOM     12  C   UNL A   1      31.892  26.072  26.478  1.00  0.00     0.023 C 
ATOM     13  C   UNL A   1      32.204  24.786  25.716  1.00  0.00     0.022 C 
BRANCH   9  14
ATOM     14  C   UNL A   1      30.714  28.405  23.861  1.00  0.00     0.222 C 
ATOM     15  O   UNL A   1      30.869  29.474  24.482  1.00  0.00    -0.275 OA
BRANCH  14  16
ATOM     16  C   UNL A   1      29.865  28.561  22.606  1.00  0.00     0.097 C 
ATOM     17  C   UNL A   1      29.533  29.870  21.943  1.00  0.00     0.014 C 
ENDBRANCH  14  16
ENDBRANCH   9  14
BRANCH   8  18
ATOM     18  C   UNL A   1      32.898  23.668  23.464  1.00  0.00     0.069 C 
BRANCH  18  19
ATOM     19  C   UNL A   1      31.847  22.552  23.537  1.00  0.00     0.212 C 
ATOM     20  C   UNL A   1      32.247  21.188  23.018  1.00  0.00     0.108 C 
ATOM     21  O   UNL A   1      31.364  22.346  24.865  1.00  0.00    -0.392 OA
ATOM     22  C   UNL A   1      32.362  20.475  24.321  1.00  0.00     0.091 C 
ATOM     23  N   UNL A   1      31.828  21.093  25.326  1.00  0.00    -0.090 NA
BRANCH  22  24
ATOM     24  C   UNL A   1      33.038  19.166  24.456  1.00  0.00    -0.001 A 
ATOM     25  C   UNL A   1      34.428  19.045  24.346  1.00  0.00     0.010 A 
ATOM     26  C   UNL A   1      32.272  18.051  24.800  1.00  0.00     0.010 A 
ATOM     27  C   UNL A   1      35.049  17.826  24.622  1.00  0.00     0.004 A 
ATOM     28  C   UNL A   1      32.893  16.821  25.032  1.00  0.00     0.004 A 
ATOM     29  C   UNL A   1      34.287  16.706  24.972  1.00  0.00    -0.051 A 
ATOM     30  C   UNL A   1      34.954  15.389  25.234  1.00  0.00     0.044 C 
ENDBRANCH  22  24
ENDBRANCH  18  19
ENDBRANCH   8  18
ENDBRANCH   6   8
ENDBRANCH   5   6
ENDBRANCH   4   5
ENDBRANCH   3   4
ENDBRANCH   2   3
ENDBRANCH   1   2
BRANCH   1  31
ATOM     31  C   UNL A   1      40.811  21.227  26.866  1.00  0.00     0.188 C 
BRANCH  31  32
ATOM     32  O   UNL A   1      41.518  20.404  25.960  1.00  0.00    -0.376 OA
BRANCH  32  33
ATOM     33  C   UNL A   1      42.274  19.362  26.551  1.00  0.00     0.202 C 
BRANCH  33  34
ATOM     34  C   UNL A   1      43.233  18.707  25.547  1.00  0.00     0.261 C 
BRANCH  34  35
ATOM     35  O   UNL A   1      43.515  19.609  24.452  1.00  0.00    -0.460 OA
BRANCH  35  36
ATOM     36  C   UNL A   1      44.833  19.933  24.242  1.00  0.00     0.338 C 
ATOM     37  O   UNL A   1      45.715  19.134  23.971  1.00  0.00    -0.246 OA
BRANCH  36  38
ATOM     38  C   UNL A   1      45.075  21.352  24.659  1.00  0.00     0.060 A 
ATOM     39  C   UNL A   1      45.843  21.753  25.760  1.00  0.00     0.016 A 
ATOM     40  C   UNL A   1      44.204  22.266  24.181  1.00  0.00     0.016 A 
ATOM     41  C   UNL A   1      45.517  22.941  26.535  1.00  0.00     0.010 A 
ATOM     42  C   UNL A   1      43.795  23.247  25.081  1.00  0.00     0.010 A 
ATOM     43  C   UNL A   1      44.341  23.685  26.349  1.00  0.00    -0.014 A 
BRANCH  43  44
ATOM     44  C   UNL A   1      43.721  24.865  27.544  1.00  0.00     0.031 A 
ATOM     45  C   UNL A   1      42.215  25.841  27.663  1.00  0.00     0.074 A 
ATOM     46  C   UNL A   1      44.620  25.364  28.431  1.00  0.00     0.049 A 
ATOM     47  N   UNL A   1      42.151  27.075  28.154  1.00  0.00    -0.248 NA
ATOM     48  C   UNL A   1      40.791  25.568  27.214  1.00  0.00     0.031 C 
ATOM     49  C   UNL A   1      44.351  26.260  29.553  1.00  0.00     0.029 A 
ATOM     50  N   UNL A   1      46.019  25.296  28.396  1.00  0.00    -0.354 N 
ATOM     51  C   UNL A   1      40.822  27.534  28.196  1.00  0.00     0.074 A 
ATOM     52  C   UNL A   1      40.012  26.535  27.642  1.00  0.00     0.031 C 
ATOM     53  C   UNL A   1      45.473  26.924  29.853  1.00  0.00     0.029 A 
ATOM     54  C   UNL A   1      46.493  26.513  28.915  1.00  0.00     0.049 A 
ATOM     55  H   UNL A   1      46.563  24.543  28.071  1.00  0.00     0.167 HD
ATOM     56  C   UNL A   1      40.370  28.706  28.711  1.00  0.00     0.037 A 
ATOM     57  C   UNL A   1      47.367  27.317  28.255  1.00  0.00     0.037 A 
ATOM     58  C   UNL A   1      41.449  29.481  29.218  1.00  0.00     0.049 A 
ATOM     59  C   UNL A   1      46.932  28.758  28.129  1.00  0.00     0.074 A 
ATOM     60  C   UNL A   1      42.069  29.498  30.451  1.00  0.00     0.029 A 
ATOM     61  N   UNL A   1      42.288  30.100  28.318  1.00  0.00    -0.354 N 
ATOM     62  N   UNL A   1      45.761  29.210  28.482  1.00  0.00    -0.248 NA
ATOM     63  C   UNL A   1      47.772  29.802  27.547  1.00  0.00     0.031 C 
ATOM     64  C   UNL A   1      43.332  30.103  30.278  1.00  0.00     0.029 A 
ATOM     65  C   UNL A   1      43.441  30.493  28.954  1.00  0.00     0.049 A 
ATOM     66  H   UNL A   1      42.091  30.240  27.363  1.00  0.00     0.167 HD
ATOM     67  C   UNL A   1      45.640  30.524  28.092  1.00  0.00     0.074 A 
ATOM     68  C   UNL A   1      46.947  30.863  27.570  1.00  0.00     0.031 C 
ATOM     69  C   UNL A   1      44.458  31.198  28.204  1.00  0.00     0.037 A 
BRANCH  56  70
ATOM     70  C   UNL A   1      38.894  28.941  28.978  1.00  0.00     0.057 A 
ATOM     71  C   UNL A   1      38.089  29.551  28.004  1.00  0.00     0.134 A 
ATOM     72  C   UNL A   1      38.258  28.726  30.220  1.00  0.00     0.134 A 
ATOM     73  F   UNL A   1      38.536  29.742  26.756  1.00  0.00    -0.206 F 
ATOM     74  C   UNL A   1      36.802  30.037  28.279  1.00  0.00     0.040 A 
ATOM     75  C   UNL A   1      36.993  29.258  30.526  1.00  0.00     0.040 A 
ATOM     76  F   UNL A   1      38.870  28.041  31.200  1.00  0.00    -0.206 F 
ATOM     77  C   UNL A   1      36.268  29.937  29.557  1.00  0.00     0.006 A 
ENDBRANCH  56  70
BRANCH  57  78
ATOM     78  C   UNL A   1      48.269  26.594  27.324  1.00  0.00     0.057 A 
ATOM     79  C   UNL A   1      47.896  26.479  25.973  1.00  0.00     0.134 A 
ATOM     80  C   UNL A   1      49.606  26.345  27.633  1.00  0.00     0.134 A 
ATOM     81  F   UNL A   1      46.629  26.719  25.600  1.00  0.00    -0.206 F 
ATOM     82  C   UNL A   1      48.828  26.224  24.961  1.00  0.00     0.040 A 
ATOM     83  C   UNL A   1      50.546  26.086  26.624  1.00  0.00     0.040 A 
ATOM     84  F   UNL A   1      50.050  26.496  28.887  1.00  0.00    -0.206 F 
ATOM     85  C   UNL A   1      50.167  26.054  25.285  1.00  0.00     0.006 A 
ENDBRANCH  57  78
BRANCH  69  86
ATOM     86  C   UNL A   1      44.105  32.572  27.671  1.00  0.00     0.057 A 
ATOM     87  C   UNL A   1      43.754  33.674  28.460  1.00  0.00     0.134 A 
ATOM     88  C   UNL A   1      44.253  32.858  26.288  1.00  0.00     0.134 A 
ATOM     89  F   UNL A   1      43.682  33.592  29.793  1.00  0.00    -0.206 F 
ATOM     90  C   UNL A   1      43.515  34.945  27.913  1.00  0.00     0.040 A 
ATOM     91  C   UNL A   1      44.076  34.132  25.742  1.00  0.00     0.040 A 
ATOM     92  F   UNL A   1      44.604  31.914  25.402  1.00  0.00    -0.206 F 
ATOM     93  C   UNL A   1      43.687  35.181  26.555  1.00  0.00     0.006 A 
ENDBRANCH  69  86
ENDBRANCH  43  44
ENDBRANCH  36  38
ENDBRANCH  35  36
ENDBRANCH  34  35
ENDBRANCH  33  34
ENDBRANCH  32  33
ENDBRANCH  31  32
ENDBRANCH   1  31
TORSDOF 22
ENDMDL
