MODEL 1
REMARK VINA RESULT:     -11.1      0.000      0.000
REMARK SMILES CC[C@H]1CCC[C@H]([N@H+]2[C@@H](C(=O)OCCOCCOCCOC(=O)c3ccc(-c4c5nc(c(-c6c(F)cccc6F)c6ccc([nH]6)c(-c6c(F)cccc6F)c6nc(c(-c7c(F)cccc7F)c7ccc4[nH]7)C=C6)C=C5)cc3)CC[C@@H]3CCCC[C@H]32)C1
REMARK SMILES IDX 16 1 15 2 14 3 13 4 12 5 10 6 11 7 9 8 8 9 85 10 78 12 80 13
REMARK SMILES IDX 84 14 79 15 81 16 83 17 82 18 7 19 3 20 4 21 86 22 5 23 6 24
REMARK SMILES IDX 2 25 1 26 17 27 18 28 19 29 20 30 21 31 22 32 23 33 24 34
REMARK SMILES IDX 25 35 77 36 26 37 76 38 27 39 28 40 29 41 70 42 30 43 75 44
REMARK SMILES IDX 69 45 71 46 31 47 74 48 68 49 67 50 32 52 58 53 41 54 57 55
REMARK SMILES IDX 42 56 45 57 56 58 72 59 43 60 44 61 55 63 73 64 46 65 33 66
REMARK SMILES IDX 34 67 39 68 35 69 36 70 38 71 40 72 37 73 59 74 60 75 65 76
REMARK SMILES IDX 61 77 62 78 64 79 66 80 63 81 47 82 48 83 53 84 49 85 50 86
REMARK SMILES IDX 52 87 54 88 51 89
REMARK H PARENT 8 11 71 51 45 62
REMARK Flexibility Score: inf
ROOT
ATOM      1  C   UNL A   1      32.218  30.053  26.166  1.00  0.00     0.188 C 
ENDROOT
BRANCH   1   2
ATOM      2  O   UNL A   1      31.415  28.897  26.393  1.00  0.00    -0.376 OA
BRANCH   2   3
ATOM      3  C   UNL A   1      32.002  27.749  26.985  1.00  0.00     0.202 C 
BRANCH   3   4
ATOM      4  C   UNL A   1      31.252  26.425  26.758  1.00  0.00     0.261 C 
BRANCH   4   5
ATOM      5  O   UNL A   1      31.930  25.230  27.187  1.00  0.00    -0.459 OA
BRANCH   5   6
ATOM      6  C   UNL A   1      31.428  24.086  26.661  1.00  0.00     0.365 C 
ATOM      7  O   UNL A   1      30.638  23.347  27.251  1.00  0.00    -0.245 OA
BRANCH   6   8
ATOM      8  C   UNL A   1      32.041  23.638  25.345  1.00  0.00     0.295 C 
ATOM      9  N   UNL A   1      33.393  24.131  24.890  1.00  0.00    -0.318 N 
ATOM     10  C   UNL A   1      34.158  22.864  24.877  1.00  0.00     0.188 C 
ATOM     11  H   UNL A   1      33.704  24.872  25.520  1.00  0.00     0.349 HD
ATOM     12  C   UNL A   1      31.192  22.989  24.277  1.00  0.00     0.078 C 
ATOM     13  C   UNL A   1      33.535  21.744  23.978  1.00  0.00     0.048 C 
ATOM     14  C   UNL A   1      35.683  22.784  24.824  1.00  0.00     0.065 C 
ATOM     15  C   UNL A   1      32.001  21.832  23.639  1.00  0.00     0.016 C 
ATOM     16  C   UNL A   1      33.842  20.413  24.690  1.00  0.00     0.010 C 
ATOM     17  C   UNL A   1      36.070  21.465  25.537  1.00  0.00     0.006 C 
ATOM     18  C   UNL A   1      35.333  20.226  25.001  1.00  0.00     0.001 C 
BRANCH   9  19
ATOM     19  C   UNL A   1      33.594  25.029  23.697  1.00  0.00     0.185 C 
ATOM     20  C   UNL A   1      32.207  27.263  23.013  1.00  0.00    -0.006 C 
ATOM     21  C   UNL A   1      31.699  26.374  21.886  1.00  0.00     0.004 C 
ATOM     22  C   UNL A   1      33.282  26.559  23.899  1.00  0.00     0.068 C 
ATOM     23  C   UNL A   1      32.841  25.594  21.269  1.00  0.00     0.006 C 
ATOM     24  C   UNL A   1      33.282  24.525  22.263  1.00  0.00     0.065 C 
BRANCH  20  25
ATOM     25  C   UNL A   1      32.678  28.643  22.472  1.00  0.00     0.000 C 
ATOM     26  C   UNL A   1      34.153  28.952  22.752  1.00  0.00     0.004 C 
ENDBRANCH  20  25
ENDBRANCH   9  19
ENDBRANCH   6   8
ENDBRANCH   5   6
ENDBRANCH   4   5
ENDBRANCH   3   4
ENDBRANCH   2   3
ENDBRANCH   1   2
BRANCH   1  27
ATOM     27  C   UNL A   1      33.642  30.114  26.721  1.00  0.00     0.188 C 
BRANCH  27  28
ATOM     28  O   UNL A   1      33.746  30.928  27.880  1.00  0.00    -0.376 OA
BRANCH  28  29
ATOM     29  C   UNL A   1      33.612  32.323  27.626  1.00  0.00     0.202 C 
BRANCH  29  30
ATOM     30  C   UNL A   1      34.026  33.166  28.833  1.00  0.00     0.261 C 
BRANCH  30  31
ATOM     31  O   UNL A   1      34.299  32.317  29.973  1.00  0.00    -0.460 OA
BRANCH  31  32
ATOM     32  C   UNL A   1      35.302  32.680  30.800  1.00  0.00     0.338 C 
ATOM     33  O   UNL A   1      35.264  33.546  31.652  1.00  0.00    -0.246 OA
BRANCH  32  34
ATOM     34  C   UNL A   1      36.511  31.863  30.516  1.00  0.00     0.060 A 
ATOM     35  C   UNL A   1      37.190  31.164  31.518  1.00  0.00     0.016 A 
ATOM     36  C   UNL A   1      37.035  31.873  29.225  1.00  0.00     0.016 A 
ATOM     37  C   UNL A   1      38.411  30.536  31.257  1.00  0.00     0.010 A 
ATOM     38  C   UNL A   1      38.218  31.177  28.945  1.00  0.00     0.010 A 
ATOM     39  C   UNL A   1      38.936  30.521  29.964  1.00  0.00    -0.014 A 
BRANCH  39  40
ATOM     40  C   UNL A   1      40.246  29.883  29.648  1.00  0.00     0.031 A 
ATOM     41  C   UNL A   1      41.485  30.736  29.606  1.00  0.00     0.074 A 
ATOM     42  C   UNL A   1      40.350  28.571  29.357  1.00  0.00     0.049 A 
ATOM     43  N   UNL A   1      42.618  30.529  28.988  1.00  0.00    -0.248 NA
ATOM     44  C   UNL A   1      41.424  32.006  30.348  1.00  0.00     0.031 C 
ATOM     45  C   UNL A   1      39.277  27.581  29.452  1.00  0.00     0.029 A 
ATOM     46  N   UNL A   1      41.424  27.850  28.888  1.00  0.00    -0.354 N 
ATOM     47  C   UNL A   1      43.373  31.678  29.191  1.00  0.00     0.074 A 
ATOM     48  C   UNL A   1      42.580  32.565  30.016  1.00  0.00     0.031 C 
ATOM     49  C   UNL A   1      39.742  26.387  29.053  1.00  0.00     0.029 A 
ATOM     50  C   UNL A   1      41.106  26.551  28.566  1.00  0.00     0.049 A 
ATOM     51  H   UNL A   1      42.328  28.226  28.791  1.00  0.00     0.167 HD
ATOM     52  C   UNL A   1      44.604  31.968  28.708  1.00  0.00     0.037 A 
ATOM     53  C   UNL A   1      41.796  25.621  27.877  1.00  0.00     0.037 A 
ATOM     54  C   UNL A   1      45.406  31.050  27.943  1.00  0.00     0.049 A 
ATOM     55  C   UNL A   1      43.139  25.973  27.302  1.00  0.00     0.074 A 
ATOM     56  C   UNL A   1      46.667  31.242  27.405  1.00  0.00     0.029 A 
ATOM     57  N   UNL A   1      45.032  29.752  27.629  1.00  0.00    -0.354 N 
ATOM     58  N   UNL A   1      43.801  27.101  27.383  1.00  0.00    -0.248 NA
ATOM     59  C   UNL A   1      43.813  24.934  26.510  1.00  0.00     0.031 C 
ATOM     60  C   UNL A   1      47.044  30.068  26.743  1.00  0.00     0.029 A 
ATOM     61  C   UNL A   1      46.035  29.134  26.902  1.00  0.00     0.049 A 
ATOM     62  H   UNL A   1      44.179  29.332  27.886  1.00  0.00     0.167 HD
ATOM     63  C   UNL A   1      44.972  26.906  26.661  1.00  0.00     0.074 A 
ATOM     64  C   UNL A   1      44.938  25.546  26.166  1.00  0.00     0.031 C 
ATOM     65  C   UNL A   1      45.982  27.777  26.423  1.00  0.00     0.037 A 
BRANCH  52  66
ATOM     66  C   UNL A   1      45.137  33.350  28.940  1.00  0.00     0.057 A 
ATOM     67  C   UNL A   1      45.961  33.666  30.026  1.00  0.00     0.134 A 
ATOM     68  C   UNL A   1      44.851  34.375  28.027  1.00  0.00     0.134 A 
ATOM     69  F   UNL A   1      46.259  32.736  30.946  1.00  0.00    -0.206 F 
ATOM     70  C   UNL A   1      46.470  34.955  30.203  1.00  0.00     0.040 A 
ATOM     71  C   UNL A   1      45.372  35.660  28.180  1.00  0.00     0.040 A 
ATOM     72  F   UNL A   1      44.068  34.138  26.962  1.00  0.00    -0.206 F 
ATOM     73  C   UNL A   1      46.182  35.953  29.273  1.00  0.00     0.006 A 
ENDBRANCH  52  66
BRANCH  53  74
ATOM     74  C   UNL A   1      41.183  24.294  27.610  1.00  0.00     0.057 A 
ATOM     75  C   UNL A   1      40.144  24.147  26.687  1.00  0.00     0.134 A 
ATOM     76  C   UNL A   1      41.628  23.141  28.270  1.00  0.00     0.134 A 
ATOM     77  F   UNL A   1      39.654  25.218  26.047  1.00  0.00    -0.206 F 
ATOM     78  C   UNL A   1      39.567  22.902  26.429  1.00  0.00     0.040 A 
ATOM     79  C   UNL A   1      41.081  21.885  28.001  1.00  0.00     0.040 A 
ATOM     80  F   UNL A   1      42.619  23.215  29.170  1.00  0.00    -0.206 F 
ATOM     81  C   UNL A   1      40.043  21.765  27.080  1.00  0.00     0.006 A 
ENDBRANCH  53  74
BRANCH  65  82
ATOM     82  C   UNL A   1      47.145  27.270  25.624  1.00  0.00     0.057 A 
ATOM     83  C   UNL A   1      47.260  27.516  24.252  1.00  0.00     0.134 A 
ATOM     84  C   UNL A   1      48.171  26.545  26.243  1.00  0.00     0.134 A 
ATOM     85  F   UNL A   1      46.302  28.193  23.600  1.00  0.00    -0.206 F 
ATOM     86  C   UNL A   1      48.348  27.042  23.517  1.00  0.00     0.040 A 
ATOM     87  C   UNL A   1      49.273  26.084  25.524  1.00  0.00     0.040 A 
ATOM     88  F   UNL A   1      48.120  26.282  27.558  1.00  0.00    -0.206 F 
ATOM     89  C   UNL A   1      49.360  26.327  24.155  1.00  0.00     0.006 A 
ENDBRANCH  65  82
ENDBRANCH  39  40
ENDBRANCH  32  34
ENDBRANCH  31  32
ENDBRANCH  30  31
ENDBRANCH  29  30
ENDBRANCH  28  29
ENDBRANCH  27  28
ENDBRANCH   1  27
TORSDOF 19
ENDMDL
MODEL 2
REMARK VINA RESULT:     -11.0      5.172      9.770
REMARK SMILES CC[C@H]1CCC[C@H]([N@H+]2[C@@H](C(=O)OCCOCCOCCOC(=O)c3ccc(-c4c5nc(c(-c6c(F)cccc6F)c6ccc([nH]6)c(-c6c(F)cccc6F)c6nc(c(-c7c(F)cccc7F)c7ccc4[nH]7)C=C6)C=C5)cc3)CC[C@@H]3CCCC[C@H]32)C1
REMARK SMILES IDX 16 1 15 2 14 3 13 4 12 5 10 6 11 7 9 8 8 9 85 10 78 12 80 13
REMARK SMILES IDX 84 14 79 15 81 16 83 17 82 18 7 19 3 20 4 21 86 22 5 23 6 24
REMARK SMILES IDX 2 25 1 26 17 27 18 28 19 29 20 30 21 31 22 32 23 33 24 34
REMARK SMILES IDX 25 35 77 36 26 37 76 38 27 39 28 40 29 41 70 42 30 43 75 44
REMARK SMILES IDX 69 45 71 46 31 47 74 48 68 49 67 50 32 52 58 53 41 54 57 55
REMARK SMILES IDX 42 56 45 57 56 58 72 59 43 60 44 61 55 63 73 64 46 65 33 66
REMARK SMILES IDX 34 67 39 68 35 69 36 70 38 71 40 72 37 73 59 74 60 75 65 76
REMARK SMILES IDX 61 77 62 78 64 79 66 80 63 81 47 82 48 83 53 84 49 85 50 86
REMARK SMILES IDX 52 87 54 88 51 89
REMARK H PARENT 8 11 71 51 45 62
REMARK Flexibility Score: inf
ROOT
ATOM      1  C   UNL A   1      41.755  21.693  27.475  1.00  0.00     0.188 C 
ENDROOT
BRANCH   1   2
ATOM      2  O   UNL A   1      40.361  21.935  27.302  1.00  0.00    -0.376 OA
BRANCH   2   3
ATOM      3  C   UNL A   1      39.723  21.497  26.113  1.00  0.00     0.202 C 
BRANCH   3   4
ATOM      4  C   UNL A   1      38.350  22.128  25.822  1.00  0.00     0.261 C 
BRANCH   4   5
ATOM      5  O   UNL A   1      37.425  21.317  25.075  1.00  0.00    -0.459 OA
BRANCH   5   6
ATOM      6  C   UNL A   1      36.511  22.025  24.366  1.00  0.00     0.365 C 
ATOM      7  O   UNL A   1      36.801  22.812  23.463  1.00  0.00    -0.245 OA
BRANCH   6   8
ATOM      8  C   UNL A   1      35.079  21.949  24.870  1.00  0.00     0.295 C 
ATOM      9  N   UNL A   1      33.903  22.188  23.956  1.00  0.00    -0.318 N 
ATOM     10  C   UNL A   1      33.251  20.859  23.992  1.00  0.00     0.188 C 
ATOM     11  H   UNL A   1      34.246  22.528  23.057  1.00  0.00     0.349 HD
ATOM     12  C   UNL A   1      34.775  21.997  26.349  1.00  0.00     0.078 C 
ATOM     13  C   UNL A   1      32.873  20.366  25.429  1.00  0.00     0.048 C 
ATOM     14  C   UNL A   1      32.197  20.393  22.988  1.00  0.00     0.065 C 
ATOM     15  C   UNL A   1      33.643  20.986  26.654  1.00  0.00     0.016 C 
ATOM     16  C   UNL A   1      33.056  18.836  25.411  1.00  0.00     0.010 C 
ATOM     17  C   UNL A   1      32.329  18.853  22.909  1.00  0.00     0.006 C 
ATOM     18  C   UNL A   1      32.283  18.150  24.277  1.00  0.00     0.001 C 
BRANCH   9  19
ATOM     19  C   UNL A   1      32.980  23.372  24.079  1.00  0.00     0.185 C 
ATOM     20  C   UNL A   1      33.192  25.511  25.741  1.00  0.00    -0.006 C 
ATOM     21  C   UNL A   1      31.981  24.874  26.408  1.00  0.00     0.004 C 
ATOM     22  C   UNL A   1      33.641  24.751  24.454  1.00  0.00     0.068 C 
ATOM     23  C   UNL A   1      30.977  24.423  25.368  1.00  0.00     0.006 C 
ATOM     24  C   UNL A   1      31.547  23.206  24.648  1.00  0.00     0.065 C 
BRANCH  20  25
ATOM     25  C   UNL A   1      32.966  27.031  25.500  1.00  0.00     0.000 C 
ATOM     26  C   UNL A   1      33.914  27.936  26.293  1.00  0.00     0.004 C 
ENDBRANCH  20  25
ENDBRANCH   9  19
ENDBRANCH   6   8
ENDBRANCH   5   6
ENDBRANCH   4   5
ENDBRANCH   3   4
ENDBRANCH   2   3
ENDBRANCH   1   2
BRANCH   1  27
ATOM     27  C   UNL A   1      42.553  20.996  26.370  1.00  0.00     0.188 C 
BRANCH  27  28
ATOM     28  O   UNL A   1      43.586  21.813  25.840  1.00  0.00    -0.376 OA
BRANCH  28  29
ATOM     29  C   UNL A   1      43.120  22.910  25.060  1.00  0.00     0.202 C 
BRANCH  29  30
ATOM     30  C   UNL A   1      43.966  24.166  25.278  1.00  0.00     0.261 C 
BRANCH  30  31
ATOM     31  O   UNL A   1      43.347  25.029  26.261  1.00  0.00    -0.460 OA
BRANCH  31  32
ATOM     32  C   UNL A   1      42.671  26.107  25.813  1.00  0.00     0.338 C 
ATOM     33  O   UNL A   1      42.522  26.440  24.653  1.00  0.00    -0.246 OA
BRANCH  32  34
ATOM     34  C   UNL A   1      42.122  26.873  26.962  1.00  0.00     0.060 A 
ATOM     35  C   UNL A   1      42.475  28.202  27.209  1.00  0.00     0.016 A 
ATOM     36  C   UNL A   1      41.301  26.211  27.873  1.00  0.00     0.016 A 
ATOM     37  C   UNL A   1      42.073  28.847  28.382  1.00  0.00     0.010 A 
ATOM     38  C   UNL A   1      40.833  26.883  29.009  1.00  0.00     0.010 A 
ATOM     39  C   UNL A   1      41.234  28.203  29.293  1.00  0.00    -0.014 A 
BRANCH  39  40
ATOM     40  C   UNL A   1      40.801  28.847  30.565  1.00  0.00     0.031 A 
ATOM     41  C   UNL A   1      39.633  29.797  30.544  1.00  0.00     0.074 A 
ATOM     42  C   UNL A   1      41.449  28.640  31.728  1.00  0.00     0.049 A 
ATOM     43  N   UNL A   1      39.326  30.756  31.377  1.00  0.00    -0.248 NA
ATOM     44  C   UNL A   1      38.699  29.653  29.416  1.00  0.00     0.031 C 
ATOM     45  C   UNL A   1      42.528  27.677  31.951  1.00  0.00     0.029 A 
ATOM     46  N   UNL A   1      41.304  29.261  32.947  1.00  0.00    -0.354 N 
ATOM     47  C   UNL A   1      38.216  31.388  30.830  1.00  0.00     0.074 A 
ATOM     48  C   UNL A   1      37.885  30.683  29.610  1.00  0.00     0.031 C 
ATOM     49  C   UNL A   1      42.949  27.773  33.222  1.00  0.00     0.029 A 
ATOM     50  C   UNL A   1      42.252  28.879  33.867  1.00  0.00     0.049 A 
ATOM     51  H   UNL A   1      40.594  29.915  33.140  1.00  0.00     0.167 HD
ATOM     52  C   UNL A   1      37.555  32.474  31.296  1.00  0.00     0.037 A 
ATOM     53  C   UNL A   1      42.588  29.411  35.059  1.00  0.00     0.037 A 
ATOM     54  C   UNL A   1      37.854  33.125  32.545  1.00  0.00     0.049 A 
ATOM     55  C   UNL A   1      41.880  30.647  35.540  1.00  0.00     0.074 A 
ATOM     56  C   UNL A   1      37.247  34.232  33.112  1.00  0.00     0.029 A 
ATOM     57  N   UNL A   1      38.835  32.710  33.432  1.00  0.00    -0.354 N 
ATOM     58  N   UNL A   1      40.915  31.323  34.966  1.00  0.00    -0.248 NA
ATOM     59  C   UNL A   1      42.333  31.213  36.820  1.00  0.00     0.031 C 
ATOM     60  C   UNL A   1      37.879  34.501  34.331  1.00  0.00     0.029 A 
ATOM     61  C   UNL A   1      38.853  33.540  34.539  1.00  0.00     0.049 A 
ATOM     62  H   UNL A   1      39.432  31.937  33.294  1.00  0.00     0.167 HD
ATOM     63  C   UNL A   1      40.641  32.388  35.815  1.00  0.00     0.074 A 
ATOM     64  C   UNL A   1      41.527  32.257  36.952  1.00  0.00     0.031 C 
ATOM     65  C   UNL A   1      39.740  33.389  35.663  1.00  0.00     0.037 A 
BRANCH  52  66
ATOM     66  C   UNL A   1      36.481  33.063  30.431  1.00  0.00     0.057 A 
ATOM     67  C   UNL A   1      36.765  33.874  29.327  1.00  0.00     0.134 A 
ATOM     68  C   UNL A   1      35.134  32.770  30.688  1.00  0.00     0.134 A 
ATOM     69  F   UNL A   1      38.032  34.207  29.036  1.00  0.00    -0.206 F 
ATOM     70  C   UNL A   1      35.747  34.386  28.518  1.00  0.00     0.040 A 
ATOM     71  C   UNL A   1      34.110  33.256  29.873  1.00  0.00     0.040 A 
ATOM     72  F   UNL A   1      34.793  31.996  31.730  1.00  0.00    -0.206 F 
ATOM     73  C   UNL A   1      34.416  34.069  28.786  1.00  0.00     0.006 A 
ENDBRANCH  52  66
BRANCH  53  74
ATOM     74  C   UNL A   1      43.713  28.832  35.836  1.00  0.00     0.057 A 
ATOM     75  C   UNL A   1      43.511  27.777  36.730  1.00  0.00     0.134 A 
ATOM     76  C   UNL A   1      45.020  29.319  35.698  1.00  0.00     0.134 A 
ATOM     77  F   UNL A   1      42.278  27.288  36.929  1.00  0.00    -0.206 F 
ATOM     78  C   UNL A   1      44.566  27.226  37.461  1.00  0.00     0.040 A 
ATOM     79  C   UNL A   1      46.088  28.760  36.400  1.00  0.00     0.040 A 
ATOM     80  F   UNL A   1      45.280  30.333  34.860  1.00  0.00    -0.206 F 
ATOM     81  C   UNL A   1      45.861  27.712  37.288  1.00  0.00     0.006 A 
ENDBRANCH  53  74
BRANCH  65  82
ATOM     82  C   UNL A   1      39.647  34.394  36.771  1.00  0.00     0.057 A 
ATOM     83  C   UNL A   1      38.885  34.155  37.921  1.00  0.00     0.134 A 
ATOM     84  C   UNL A   1      40.346  35.604  36.694  1.00  0.00     0.134 A 
ATOM     85  F   UNL A   1      38.181  33.020  38.046  1.00  0.00    -0.206 F 
ATOM     86  C   UNL A   1      38.806  35.097  38.948  1.00  0.00     0.040 A 
ATOM     87  C   UNL A   1      40.292  36.543  37.723  1.00  0.00     0.040 A 
ATOM     88  F   UNL A   1      41.099  35.888  35.620  1.00  0.00    -0.206 F 
ATOM     89  C   UNL A   1      39.515  36.293  38.852  1.00  0.00     0.006 A 
ENDBRANCH  65  82
ENDBRANCH  39  40
ENDBRANCH  32  34
ENDBRANCH  31  32
ENDBRANCH  30  31
ENDBRANCH  29  30
ENDBRANCH  28  29
ENDBRANCH  27  28
ENDBRANCH   1  27
TORSDOF 19
ENDMDL
MODEL 3
REMARK VINA RESULT:     -10.9      1.842      3.664
REMARK SMILES CC[C@H]1CCC[C@H]([N@H+]2[C@@H](C(=O)OCCOCCOCCOC(=O)c3ccc(-c4c5nc(c(-c6c(F)cccc6F)c6ccc([nH]6)c(-c6c(F)cccc6F)c6nc(c(-c7c(F)cccc7F)c7ccc4[nH]7)C=C6)C=C5)cc3)CC[C@@H]3CCCC[C@H]32)C1
REMARK SMILES IDX 16 1 15 2 14 3 13 4 12 5 10 6 11 7 9 8 8 9 85 10 78 12 80 13
REMARK SMILES IDX 84 14 79 15 81 16 83 17 82 18 7 19 3 20 4 21 86 22 5 23 6 24
REMARK SMILES IDX 2 25 1 26 17 27 18 28 19 29 20 30 21 31 22 32 23 33 24 34
REMARK SMILES IDX 25 35 77 36 26 37 76 38 27 39 28 40 29 41 70 42 30 43 75 44
REMARK SMILES IDX 69 45 71 46 31 47 74 48 68 49 67 50 32 52 58 53 41 54 57 55
REMARK SMILES IDX 42 56 45 57 56 58 72 59 43 60 44 61 55 63 73 64 46 65 33 66
REMARK SMILES IDX 34 67 39 68 35 69 36 70 38 71 40 72 37 73 59 74 60 75 65 76
REMARK SMILES IDX 61 77 62 78 64 79 66 80 63 81 47 82 48 83 53 84 49 85 50 86
REMARK SMILES IDX 52 87 54 88 51 89
REMARK H PARENT 8 11 71 51 45 62
REMARK Flexibility Score: inf
ROOT
ATOM      1  C   UNL A   1      33.607  26.827  24.437  1.00  0.00     0.188 C 
ENDROOT
BRANCH   1   2
ATOM      2  O   UNL A   1      32.787  27.343  23.391  1.00  0.00    -0.376 OA
BRANCH   2   3
ATOM      3  C   UNL A   1      33.145  27.094  22.042  1.00  0.00     0.202 C 
BRANCH   3   4
ATOM      4  C   UNL A   1      32.468  25.878  21.387  1.00  0.00     0.261 C 
BRANCH   4   5
ATOM      5  O   UNL A   1      32.111  24.798  22.269  1.00  0.00    -0.459 OA
BRANCH   5   6
ATOM      6  C   UNL A   1      32.986  23.762  22.263  1.00  0.00     0.365 C 
ATOM      7  O   UNL A   1      33.487  23.291  21.240  1.00  0.00    -0.245 OA
BRANCH   6   8
ATOM      8  C   UNL A   1      33.190  23.061  23.596  1.00  0.00     0.295 C 
ATOM      9  N   UNL A   1      33.932  21.751  23.698  1.00  0.00    -0.318 N 
ATOM     10  C   UNL A   1      35.092  22.155  24.523  1.00  0.00     0.188 C 
ATOM     11  H   UNL A   1      34.113  21.399  22.757  1.00  0.00     0.349 HD
ATOM     12  C   UNL A   1      32.362  23.436  24.802  1.00  0.00     0.078 C 
ATOM     13  C   UNL A   1      34.711  22.799  25.898  1.00  0.00     0.048 C 
ATOM     14  C   UNL A   1      36.368  21.327  24.672  1.00  0.00     0.065 C 
ATOM     15  C   UNL A   1      33.279  23.432  26.051  1.00  0.00     0.016 C 
ATOM     16  C   UNL A   1      35.790  23.863  26.178  1.00  0.00     0.010 C 
ATOM     17  C   UNL A   1      37.508  22.338  24.947  1.00  0.00     0.006 C 
ATOM     18  C   UNL A   1      37.218  23.306  26.108  1.00  0.00     0.001 C 
BRANCH   9  19
ATOM     19  C   UNL A   1      33.276  20.450  24.083  1.00  0.00     0.185 C 
ATOM     20  C   UNL A   1      34.401  17.985  24.280  1.00  0.00    -0.006 C 
ATOM     21  C   UNL A   1      33.551  17.707  23.047  1.00  0.00     0.004 C 
ATOM     22  C   UNL A   1      34.163  19.412  24.866  1.00  0.00     0.068 C 
ATOM     23  C   UNL A   1      32.153  18.262  23.229  1.00  0.00     0.006 C 
ATOM     24  C   UNL A   1      32.229  19.783  23.153  1.00  0.00     0.065 C 
BRANCH  20  25
ATOM     25  C   UNL A   1      34.238  16.859  25.340  1.00  0.00     0.000 C 
ATOM     26  C   UNL A   1      35.281  15.742  25.228  1.00  0.00     0.004 C 
ENDBRANCH  20  25
ENDBRANCH   9  19
ENDBRANCH   6   8
ENDBRANCH   5   6
ENDBRANCH   4   5
ENDBRANCH   3   4
ENDBRANCH   2   3
ENDBRANCH   1   2
BRANCH   1  27
ATOM     27  C   UNL A   1      33.391  27.294  25.878  1.00  0.00     0.188 C 
BRANCH  27  28
ATOM     28  O   UNL A   1      34.079  28.500  26.173  1.00  0.00    -0.376 OA
BRANCH  28  29
ATOM     29  C   UNL A   1      33.298  29.677  25.989  1.00  0.00     0.202 C 
BRANCH  29  30
ATOM     30  C   UNL A   1      33.325  30.579  27.224  1.00  0.00     0.261 C 
BRANCH  30  31
ATOM     31  O   UNL A   1      34.220  30.040  28.226  1.00  0.00    -0.460 OA
BRANCH  31  32
ATOM     32  C   UNL A   1      35.146  30.868  28.752  1.00  0.00     0.338 C 
ATOM     33  O   UNL A   1      34.966  32.007  29.139  1.00  0.00    -0.246 OA
BRANCH  32  34
ATOM     34  C   UNL A   1      36.468  30.190  28.788  1.00  0.00     0.060 A 
ATOM     35  C   UNL A   1      37.029  29.714  29.976  1.00  0.00     0.016 A 
ATOM     36  C   UNL A   1      37.210  30.111  27.611  1.00  0.00     0.016 A 
ATOM     37  C   UNL A   1      38.338  29.226  30.009  1.00  0.00     0.010 A 
ATOM     38  C   UNL A   1      38.493  29.550  27.629  1.00  0.00     0.010 A 
ATOM     39  C   UNL A   1      39.085  29.123  28.833  1.00  0.00    -0.014 A 
BRANCH  39  40
ATOM     40  C   UNL A   1      40.492  28.630  28.829  1.00  0.00     0.031 A 
ATOM     41  C   UNL A   1      41.614  29.620  28.989  1.00  0.00     0.074 A 
ATOM     42  C   UNL A   1      40.793  27.330  28.643  1.00  0.00     0.049 A 
ATOM     43  N   UNL A   1      42.867  29.524  28.628  1.00  0.00    -0.248 NA
ATOM     44  C   UNL A   1      41.266  30.900  29.627  1.00  0.00     0.031 C 
ATOM     45  C   UNL A   1      39.835  26.227  28.576  1.00  0.00     0.029 A 
ATOM     46  N   UNL A   1      42.011  26.722  28.445  1.00  0.00    -0.354 N 
ATOM     47  C   UNL A   1      43.437  30.759  28.912  1.00  0.00     0.074 A 
ATOM     48  C   UNL A   1      42.400  31.577  29.504  1.00  0.00     0.031 C 
ATOM     49  C   UNL A   1      40.497  25.081  28.351  1.00  0.00     0.029 A 
ATOM     50  C   UNL A   1      41.908  25.384  28.143  1.00  0.00     0.049 A 
ATOM     51  H   UNL A   1      42.871  27.197  28.512  1.00  0.00     0.167 HD
ATOM     52  C   UNL A   1      44.704  31.172  28.672  1.00  0.00     0.037 A 
ATOM     53  C   UNL A   1      42.820  24.516  27.664  1.00  0.00     0.037 A 
ATOM     54  C   UNL A   1      45.741  30.326  28.143  1.00  0.00     0.049 A 
ATOM     55  C   UNL A   1      44.209  25.001  27.354  1.00  0.00     0.074 A 
ATOM     56  C   UNL A   1      47.059  30.644  27.862  1.00  0.00     0.029 A 
ATOM     57  N   UNL A   1      45.580  28.984  27.836  1.00  0.00    -0.354 N 
ATOM     58  N   UNL A   1      44.716  26.201  27.502  1.00  0.00    -0.248 NA
ATOM     59  C   UNL A   1      45.140  24.020  26.780  1.00  0.00     0.031 C 
ATOM     60  C   UNL A   1      47.687  29.499  27.360  1.00  0.00     0.029 A 
ATOM     61  C   UNL A   1      46.772  28.461  27.366  1.00  0.00     0.049 A 
ATOM     62  H   UNL A   1      44.741  28.477  27.939  1.00  0.00     0.167 HD
ATOM     63  C   UNL A   1      46.026  26.117  27.046  1.00  0.00     0.074 A 
ATOM     64  C   UNL A   1      46.240  24.745  26.635  1.00  0.00     0.031 C 
ATOM     65  C   UNL A   1      46.965  27.090  26.967  1.00  0.00     0.037 A 
BRANCH  52  66
ATOM     66  C   UNL A   1      45.027  32.614  28.926  1.00  0.00     0.057 A 
ATOM     67  C   UNL A   1      45.583  33.060  30.130  1.00  0.00     0.134 A 
ATOM     68  C   UNL A   1      44.815  33.568  27.920  1.00  0.00     0.134 A 
ATOM     69  F   UNL A   1      45.794  32.202  31.140  1.00  0.00    -0.206 F 
ATOM     70  C   UNL A   1      45.903  34.405  30.331  1.00  0.00     0.040 A 
ATOM     71  C   UNL A   1      45.153  34.910  28.100  1.00  0.00     0.040 A 
ATOM     72  F   UNL A   1      44.286  33.207  26.740  1.00  0.00    -0.206 F 
ATOM     73  C   UNL A   1      45.696  35.332  29.310  1.00  0.00     0.006 A 
ENDBRANCH  52  66
BRANCH  53  74
ATOM     74  C   UNL A   1      42.421  23.119  27.358  1.00  0.00     0.057 A 
ATOM     75  C   UNL A   1      42.287  22.164  28.370  1.00  0.00     0.134 A 
ATOM     76  C   UNL A   1      42.160  22.708  26.044  1.00  0.00     0.134 A 
ATOM     77  F   UNL A   1      42.554  22.488  29.643  1.00  0.00    -0.206 F 
ATOM     78  C   UNL A   1      41.909  20.849  28.088  1.00  0.00     0.040 A 
ATOM     79  C   UNL A   1      41.753  21.405  25.751  1.00  0.00     0.040 A 
ATOM     80  F   UNL A   1      42.274  23.575  25.027  1.00  0.00    -0.206 F 
ATOM     81  C   UNL A   1      41.630  20.471  26.776  1.00  0.00     0.006 A 
ENDBRANCH  53  74
BRANCH  65  82
ATOM     82  C   UNL A   1      48.316  26.693  26.453  1.00  0.00     0.057 A 
ATOM     83  C   UNL A   1      48.679  26.879  25.114  1.00  0.00     0.134 A 
ATOM     84  C   UNL A   1      49.270  26.138  27.315  1.00  0.00     0.134 A 
ATOM     85  F   UNL A   1      47.803  27.393  24.237  1.00  0.00    -0.206 F 
ATOM     86  C   UNL A   1      49.940  26.508  24.645  1.00  0.00     0.040 A 
ATOM     87  C   UNL A   1      50.540  25.783  26.862  1.00  0.00     0.040 A 
ATOM     88  F   UNL A   1      48.983  25.941  28.610  1.00  0.00    -0.206 F 
ATOM     89  C   UNL A   1      50.876  25.962  25.522  1.00  0.00     0.006 A 
ENDBRANCH  65  82
ENDBRANCH  39  40
ENDBRANCH  32  34
ENDBRANCH  31  32
ENDBRANCH  30  31
ENDBRANCH  29  30
ENDBRANCH  28  29
ENDBRANCH  27  28
ENDBRANCH   1  27
TORSDOF 19
ENDMDL
