MODEL 1
REMARK VINA RESULT:     -10.7      0.000      0.000
REMARK SMILES C[C@H]1OCC[C@@H]1C(=O)Nc1sc2c(c1C(=O)OCCOCCOCCOC(=O)c1ccc(-c3c4nc(c(-c5c(F)cccc5F)c5ccc([nH]5)c(-c5c(F)cccc5F)c5nc(c(-c6c(F)cccc6F)c6ccc3[nH]6)C=C5)C=C4)cc1)CCC2
REMARK SMILES IDX 21 1 20 2 19 3 18 4 17 5 15 6 16 7 14 8 10 9 11 10 12 11
REMARK SMILES IDX 13 12 85 13 83 14 84 15 9 16 7 17 8 18 6 20 1 21 2 22 3 23
REMARK SMILES IDX 4 24 5 25 22 26 23 27 24 28 25 29 26 30 27 31 28 32 29 33
REMARK SMILES IDX 30 34 82 35 31 36 81 37 32 38 33 39 34 40 75 41 35 42 80 43
REMARK SMILES IDX 74 44 76 45 36 46 79 47 73 48 72 49 37 51 63 52 46 53 62 54
REMARK SMILES IDX 47 55 50 56 61 57 77 58 48 59 49 60 60 62 78 63 51 64 38 65
REMARK SMILES IDX 39 66 44 67 40 68 41 69 43 70 45 71 42 72 64 73 65 74 70 75
REMARK SMILES IDX 66 76 67 77 69 78 71 79 68 80 52 81 53 82 58 83 54 84 55 85
REMARK SMILES IDX 57 86 59 87 56 88
REMARK H PARENT 9 19 76 50 50 61
REMARK Flexibility Score: inf
ROOT
ATOM      1  C   UNL A   1      35.117  31.883  27.627  1.00  0.00     0.188 C 
ENDROOT
BRANCH   1   2
ATOM      2  O   UNL A   1      33.941  31.131  27.892  1.00  0.00    -0.376 OA
BRANCH   2   3
ATOM      3  C   UNL A   1      33.635  30.164  26.879  1.00  0.00     0.202 C 
BRANCH   3   4
ATOM      4  C   UNL A   1      33.890  28.720  27.339  1.00  0.00     0.261 C 
BRANCH   4   5
ATOM      5  O   UNL A   1      33.206  27.748  26.507  1.00  0.00    -0.460 OA
BRANCH   5   6
ATOM      6  C   UNL A   1      31.895  27.503  26.820  1.00  0.00     0.341 C 
ATOM      7  O   UNL A   1      31.465  27.467  27.970  1.00  0.00    -0.246 OA
BRANCH   6   8
ATOM      8  C   UNL A   1      31.033  27.281  25.659  1.00  0.00     0.098 A 
ATOM      9  C   UNL A   1      30.329  26.102  25.429  1.00  0.00     0.110 A 
ATOM     10  S   UNL A   1      29.676  25.970  23.848  1.00  0.00    -0.122 S 
ATOM     11  C   UNL A   1      29.949  27.597  23.621  1.00  0.00     0.011 A 
ATOM     12  C   UNL A   1      30.686  28.191  24.613  1.00  0.00    -0.017 A 
ATOM     13  C   UNL A   1      29.487  28.512  22.557  1.00  0.00     0.047 C 
ATOM     14  C   UNL A   1      30.868  29.635  24.314  1.00  0.00     0.038 C 
ATOM     15  C   UNL A   1      29.758  29.885  23.239  1.00  0.00     0.010 C 
BRANCH   9  16
ATOM     16  N   UNL A   1      30.105  24.998  26.215  1.00  0.00    -0.317 N 
ATOM     17  C   UNL A   1      31.063  24.039  26.435  1.00  0.00     0.230 C 
ATOM     18  O   UNL A   1      31.063  23.487  27.543  1.00  0.00    -0.274 OA
ATOM     19  H   UNL A   1      29.224  24.891  26.639  1.00  0.00     0.170 HD
BRANCH  17  20
ATOM     20  C   UNL A   1      32.102  23.597  25.393  1.00  0.00     0.110 C 
ATOM     21  C   UNL A   1      32.670  21.523  24.066  1.00  0.00     0.039 C 
ATOM     22  C   UNL A   1      32.506  22.134  25.458  1.00  0.00     0.127 C 
ATOM     23  O   UNL A   1      33.798  22.109  26.086  1.00  0.00    -0.378 OA
ATOM     24  C   UNL A   1      34.477  23.318  25.731  1.00  0.00     0.161 C 
ATOM     25  C   UNL A   1      33.411  24.347  25.408  1.00  0.00     0.044 C 
ENDBRANCH  17  20
ENDBRANCH   9  16
ENDBRANCH   6   8
ENDBRANCH   5   6
ENDBRANCH   4   5
ENDBRANCH   3   4
ENDBRANCH   2   3
ENDBRANCH   1   2
BRANCH   1  26
ATOM     26  C   UNL A   1      34.952  33.347  28.013  1.00  0.00     0.188 C 
BRANCH  26  27
ATOM     27  O   UNL A   1      35.588  33.619  29.267  1.00  0.00    -0.376 OA
BRANCH  27  28
ATOM     28  C   UNL A   1      34.818  33.259  30.419  1.00  0.00     0.202 C 
BRANCH  28  29
ATOM     29  C   UNL A   1      35.494  32.322  31.425  1.00  0.00     0.261 C 
BRANCH  29  30
ATOM     30  O   UNL A   1      36.104  31.214  30.796  1.00  0.00    -0.460 OA
BRANCH  30  31
ATOM     31  C   UNL A   1      36.645  30.294  31.630  1.00  0.00     0.338 C 
ATOM     32  O   UNL A   1      36.660  30.303  32.845  1.00  0.00    -0.246 OA
BRANCH  31  33
ATOM     33  C   UNL A   1      37.335  29.320  30.769  1.00  0.00     0.060 A 
ATOM     34  C   UNL A   1      37.808  28.157  31.377  1.00  0.00     0.016 A 
ATOM     35  C   UNL A   1      37.740  29.710  29.482  1.00  0.00     0.016 A 
ATOM     36  C   UNL A   1      38.893  27.530  30.815  1.00  0.00     0.010 A 
ATOM     37  C   UNL A   1      38.857  29.128  28.953  1.00  0.00     0.010 A 
ATOM     38  C   UNL A   1      39.473  28.122  29.694  1.00  0.00    -0.014 A 
BRANCH  38  39
ATOM     39  C   UNL A   1      40.851  27.806  29.398  1.00  0.00     0.031 A 
ATOM     40  C   UNL A   1      41.057  26.485  28.778  1.00  0.00     0.074 A 
ATOM     41  C   UNL A   1      41.774  28.779  29.548  1.00  0.00     0.049 A 
ATOM     42  N   UNL A   1      41.814  25.521  29.181  1.00  0.00    -0.248 NA
ATOM     43  C   UNL A   1      40.205  26.142  27.625  1.00  0.00     0.031 C 
ATOM     44  C   UNL A   1      41.524  30.196  29.858  1.00  0.00     0.029 A 
ATOM     45  N   UNL A   1      43.110  28.757  29.310  1.00  0.00    -0.354 N 
ATOM     46  C   UNL A   1      41.691  24.536  28.206  1.00  0.00     0.074 A 
ATOM     47  C   UNL A   1      40.545  24.874  27.411  1.00  0.00     0.031 C 
ATOM     48  C   UNL A   1      42.622  30.919  29.549  1.00  0.00     0.029 A 
ATOM     49  C   UNL A   1      43.667  30.012  29.111  1.00  0.00     0.049 A 
ATOM     50  H   UNL A   1      43.637  27.925  29.283  1.00  0.00     0.167 HD
ATOM     51  C   UNL A   1      42.724  23.700  27.924  1.00  0.00     0.037 A 
ATOM     52  C   UNL A   1      44.853  30.274  28.506  1.00  0.00     0.037 A 
ATOM     53  C   UNL A   1      43.640  23.605  29.031  1.00  0.00     0.049 A 
ATOM     54  C   UNL A   1      45.611  28.996  28.438  1.00  0.00     0.074 A 
ATOM     55  C   UNL A   1      43.513  23.253  30.362  1.00  0.00     0.029 A 
ATOM     56  N   UNL A   1      44.852  24.240  28.925  1.00  0.00    -0.354 N 
ATOM     57  N   UNL A   1      46.122  28.385  29.470  1.00  0.00    -0.248 NA
ATOM     58  C   UNL A   1      45.421  28.163  27.257  1.00  0.00     0.031 C 
ATOM     59  C   UNL A   1      44.435  24.084  31.060  1.00  0.00     0.029 A 
ATOM     60  C   UNL A   1      45.093  24.873  30.116  1.00  0.00     0.049 A 
ATOM     61  H   UNL A   1      45.442  24.239  28.137  1.00  0.00     0.167 HD
ATOM     62  C   UNL A   1      45.935  27.031  29.214  1.00  0.00     0.074 A 
ATOM     63  C   UNL A   1      45.594  26.954  27.799  1.00  0.00     0.031 C 
ATOM     64  C   UNL A   1      45.787  26.135  30.233  1.00  0.00     0.037 A 
BRANCH  51  65
ATOM     65  C   UNL A   1      43.095  23.311  26.513  1.00  0.00     0.057 A 
ATOM     66  C   UNL A   1      43.215  21.947  26.198  1.00  0.00     0.134 A 
ATOM     67  C   UNL A   1      43.615  24.195  25.541  1.00  0.00     0.134 A 
ATOM     68  F   UNL A   1      42.771  21.005  27.044  1.00  0.00    -0.206 F 
ATOM     69  C   UNL A   1      43.877  21.500  25.050  1.00  0.00     0.040 A 
ATOM     70  C   UNL A   1      44.225  23.758  24.363  1.00  0.00     0.040 A 
ATOM     71  F   UNL A   1      43.659  25.521  25.710  1.00  0.00    -0.206 F 
ATOM     72  C   UNL A   1      44.392  22.406  24.131  1.00  0.00     0.006 A 
ENDBRANCH  51  65
BRANCH  52  73
ATOM     73  C   UNL A   1      45.222  31.466  27.706  1.00  0.00     0.057 A 
ATOM     74  C   UNL A   1      44.438  31.880  26.621  1.00  0.00     0.134 A 
ATOM     75  C   UNL A   1      46.226  32.366  28.115  1.00  0.00     0.134 A 
ATOM     76  F   UNL A   1      43.423  31.120  26.186  1.00  0.00    -0.206 F 
ATOM     77  C   UNL A   1      44.638  33.113  25.984  1.00  0.00     0.040 A 
ATOM     78  C   UNL A   1      46.448  33.590  27.478  1.00  0.00     0.040 A 
ATOM     79  F   UNL A   1      46.974  32.130  29.202  1.00  0.00    -0.206 F 
ATOM     80  C   UNL A   1      45.644  33.973  26.412  1.00  0.00     0.006 A 
ENDBRANCH  52  73
BRANCH  64  81
ATOM     81  C   UNL A   1      46.108  26.599  31.625  1.00  0.00     0.057 A 
ATOM     82  C   UNL A   1      45.179  27.229  32.466  1.00  0.00     0.134 A 
ATOM     83  C   UNL A   1      47.341  26.255  32.186  1.00  0.00     0.134 A 
ATOM     84  F   UNL A   1      43.936  27.497  32.046  1.00  0.00    -0.206 F 
ATOM     85  C   UNL A   1      45.484  27.549  33.792  1.00  0.00     0.040 A 
ATOM     86  C   UNL A   1      47.646  26.536  33.520  1.00  0.00     0.040 A 
ATOM     87  F   UNL A   1      48.255  25.592  31.459  1.00  0.00    -0.206 F 
ATOM     88  C   UNL A   1      46.720  27.196  34.324  1.00  0.00     0.006 A 
ENDBRANCH  64  81
ENDBRANCH  38  39
ENDBRANCH  31  33
ENDBRANCH  30  31
ENDBRANCH  29  30
ENDBRANCH  28  29
ENDBRANCH  27  28
ENDBRANCH  26  27
ENDBRANCH   1  26
TORSDOF 19
ENDMDL
MODEL 2
REMARK VINA RESULT:     -10.7      1.232      2.682
REMARK SMILES C[C@H]1OCC[C@@H]1C(=O)Nc1sc2c(c1C(=O)OCCOCCOCCOC(=O)c1ccc(-c3c4nc(c(-c5c(F)cccc5F)c5ccc([nH]5)c(-c5c(F)cccc5F)c5nc(c(-c6c(F)cccc6F)c6ccc3[nH]6)C=C5)C=C4)cc1)CCC2
REMARK SMILES IDX 21 1 20 2 19 3 18 4 17 5 15 6 16 7 14 8 10 9 11 10 12 11
REMARK SMILES IDX 13 12 85 13 83 14 84 15 9 16 7 17 8 18 6 20 1 21 2 22 3 23
REMARK SMILES IDX 4 24 5 25 22 26 23 27 24 28 25 29 26 30 27 31 28 32 29 33
REMARK SMILES IDX 30 34 82 35 31 36 81 37 32 38 33 39 34 40 75 41 35 42 80 43
REMARK SMILES IDX 74 44 76 45 36 46 79 47 73 48 72 49 37 51 63 52 46 53 62 54
REMARK SMILES IDX 47 55 50 56 61 57 77 58 48 59 49 60 60 62 78 63 51 64 38 65
REMARK SMILES IDX 39 66 44 67 40 68 41 69 43 70 45 71 42 72 64 73 65 74 70 75
REMARK SMILES IDX 66 76 67 77 69 78 71 79 68 80 52 81 53 82 58 83 54 84 55 85
REMARK SMILES IDX 57 86 59 87 56 88
REMARK H PARENT 9 19 76 50 50 61
REMARK Flexibility Score: inf
ROOT
ATOM      1  C   UNL A   1      33.640  31.573  27.969  1.00  0.00     0.188 C 
ENDROOT
BRANCH   1   2
ATOM      2  O   UNL A   1      34.558  30.777  27.231  1.00  0.00    -0.376 OA
BRANCH   2   3
ATOM      3  C   UNL A   1      34.407  29.369  27.453  1.00  0.00     0.202 C 
BRANCH   3   4
ATOM      4  C   UNL A   1      33.492  28.698  26.416  1.00  0.00     0.261 C 
BRANCH   4   5
ATOM      5  O   UNL A   1      33.499  27.252  26.528  1.00  0.00    -0.460 OA
BRANCH   5   6
ATOM      6  C   UNL A   1      32.272  26.643  26.537  1.00  0.00     0.341 C 
ATOM      7  O   UNL A   1      31.387  26.908  27.346  1.00  0.00    -0.246 OA
BRANCH   6   8
ATOM      8  C   UNL A   1      32.096  25.633  25.493  1.00  0.00     0.098 A 
ATOM      9  C   UNL A   1      30.862  25.284  24.949  1.00  0.00     0.110 A 
ATOM     10  S   UNL A   1      30.889  23.854  24.004  1.00  0.00    -0.122 S 
ATOM     11  C   UNL A   1      32.552  23.934  23.965  1.00  0.00     0.011 A 
ATOM     12  C   UNL A   1      33.092  24.884  24.794  1.00  0.00    -0.017 A 
ATOM     13  C   UNL A   1      33.533  23.190  23.150  1.00  0.00     0.047 C 
ATOM     14  C   UNL A   1      34.573  24.873  24.680  1.00  0.00     0.038 C 
ATOM     15  C   UNL A   1      34.789  24.089  23.342  1.00  0.00     0.010 C 
BRANCH   9  16
ATOM     16  N   UNL A   1      29.614  25.845  25.073  1.00  0.00    -0.317 N 
ATOM     17  C   UNL A   1      29.056  26.632  24.096  1.00  0.00     0.230 C 
ATOM     18  O   UNL A   1      27.827  26.569  23.956  1.00  0.00    -0.274 OA
ATOM     19  H   UNL A   1      29.098  25.674  25.893  1.00  0.00     0.170 HD
BRANCH  17  20
ATOM     20  C   UNL A   1      29.851  27.593  23.198  1.00  0.00     0.110 C 
ATOM     21  C   UNL A   1      32.195  28.526  23.056  1.00  0.00     0.039 C 
ATOM     22  C   UNL A   1      30.929  28.398  23.904  1.00  0.00     0.127 C 
ATOM     23  O   UNL A   1      30.391  29.722  24.063  1.00  0.00    -0.378 OA
ATOM     24  C   UNL A   1      29.520  29.972  22.956  1.00  0.00     0.161 C 
ATOM     25  C   UNL A   1      29.040  28.624  22.454  1.00  0.00     0.044 C 
ENDBRANCH  17  20
ENDBRANCH   9  16
ENDBRANCH   6   8
ENDBRANCH   5   6
ENDBRANCH   4   5
ENDBRANCH   3   4
ENDBRANCH   2   3
ENDBRANCH   1   2
BRANCH   1  26
ATOM     26  C   UNL A   1      34.005  33.051  27.919  1.00  0.00     0.188 C 
BRANCH  26  27
ATOM     27  O   UNL A   1      35.415  33.223  27.737  1.00  0.00    -0.376 OA
BRANCH  27  28
ATOM     28  C   UNL A   1      36.081  33.885  28.818  1.00  0.00     0.202 C 
BRANCH  28  29
ATOM     29  C   UNL A   1      36.905  32.998  29.757  1.00  0.00     0.261 C 
BRANCH  29  30
ATOM     30  O   UNL A   1      37.132  31.714  29.214  1.00  0.00    -0.460 OA
BRANCH  30  31
ATOM     31  C   UNL A   1      36.738  30.675  29.988  1.00  0.00     0.338 C 
ATOM     32  O   UNL A   1      36.005  30.701  30.958  1.00  0.00    -0.246 OA
BRANCH  31  33
ATOM     33  C   UNL A   1      37.477  29.500  29.499  1.00  0.00     0.060 A 
ATOM     34  C   UNL A   1      37.909  28.578  30.454  1.00  0.00     0.016 A 
ATOM     35  C   UNL A   1      37.961  29.495  28.181  1.00  0.00     0.016 A 
ATOM     36  C   UNL A   1      39.025  27.830  30.170  1.00  0.00     0.010 A 
ATOM     37  C   UNL A   1      39.108  28.800  27.917  1.00  0.00     0.010 A 
ATOM     38  C   UNL A   1      39.674  28.070  28.959  1.00  0.00    -0.014 A 
BRANCH  38  39
ATOM     39  C   UNL A   1      41.067  27.703  28.853  1.00  0.00     0.031 A 
ATOM     40  C   UNL A   1      41.307  26.383  28.244  1.00  0.00     0.074 A 
ATOM     41  C   UNL A   1      41.996  28.635  29.150  1.00  0.00     0.049 A 
ATOM     42  N   UNL A   1      41.963  25.384  28.729  1.00  0.00    -0.248 NA
ATOM     43  C   UNL A   1      40.614  26.091  26.975  1.00  0.00     0.031 C 
ATOM     44  C   UNL A   1      41.760  30.057  29.450  1.00  0.00     0.029 A 
ATOM     45  N   UNL A   1      43.350  28.561  29.102  1.00  0.00    -0.354 N 
ATOM     46  C   UNL A   1      41.941  24.418  27.728  1.00  0.00     0.074 A 
ATOM     47  C   UNL A   1      40.931  24.813  26.787  1.00  0.00     0.031 C 
ATOM     48  C   UNL A   1      42.918  30.738  29.312  1.00  0.00     0.029 A 
ATOM     49  C   UNL A   1      43.978  29.796  29.007  1.00  0.00     0.049 A 
ATOM     50  H   UNL A   1      43.844  27.709  29.133  1.00  0.00     0.167 HD
ATOM     51  C   UNL A   1      42.970  23.544  27.577  1.00  0.00     0.037 A 
ATOM     52  C   UNL A   1      45.246  30.017  28.580  1.00  0.00     0.037 A 
ATOM     53  C   UNL A   1      43.716  23.397  28.800  1.00  0.00     0.049 A 
ATOM     54  C   UNL A   1      45.957  28.711  28.594  1.00  0.00     0.074 A 
ATOM     55  C   UNL A   1      43.390  23.032  30.093  1.00  0.00     0.029 A 
ATOM     56  N   UNL A   1      44.955  23.983  28.877  1.00  0.00    -0.354 N 
ATOM     57  N   UNL A   1      46.293  28.065  29.676  1.00  0.00    -0.248 NA
ATOM     58  C   UNL A   1      45.904  27.903  27.382  1.00  0.00     0.031 C 
ATOM     59  C   UNL A   1      44.235  23.815  30.929  1.00  0.00     0.029 A 
ATOM     60  C   UNL A   1      45.049  24.590  30.103  1.00  0.00     0.049 A 
ATOM     61  H   UNL A   1      45.649  23.969  28.180  1.00  0.00     0.167 HD
ATOM     62  C   UNL A   1      46.093  26.724  29.370  1.00  0.00     0.074 A 
ATOM     63  C   UNL A   1      45.951  26.680  27.919  1.00  0.00     0.031 C 
ATOM     64  C   UNL A   1      45.768  25.821  30.340  1.00  0.00     0.037 A 
BRANCH  51  65
ATOM     65  C   UNL A   1      43.520  23.160  26.225  1.00  0.00     0.057 A 
ATOM     66  C   UNL A   1      43.621  21.797  25.900  1.00  0.00     0.134 A 
ATOM     67  C   UNL A   1      44.215  24.033  25.357  1.00  0.00     0.134 A 
ATOM     68  F   UNL A   1      43.018  20.865  26.652  1.00  0.00    -0.206 F 
ATOM     69  C   UNL A   1      44.420  21.336  24.848  1.00  0.00     0.040 A 
ATOM     70  C   UNL A   1      44.966  23.585  24.269  1.00  0.00     0.040 A 
ATOM     71  F   UNL A   1      44.296  25.352  25.561  1.00  0.00    -0.206 F 
ATOM     72  C   UNL A   1      45.102  22.230  24.033  1.00  0.00     0.006 A 
ENDBRANCH  51  65
BRANCH  52  73
ATOM     73  C   UNL A   1      45.770  31.204  27.863  1.00  0.00     0.057 A 
ATOM     74  C   UNL A   1      45.073  31.763  26.784  1.00  0.00     0.134 A 
ATOM     75  C   UNL A   1      46.852  31.963  28.352  1.00  0.00     0.134 A 
ATOM     76  F   UNL A   1      43.996  31.146  26.277  1.00  0.00    -0.206 F 
ATOM     77  C   UNL A   1      45.428  33.001  26.227  1.00  0.00     0.040 A 
ATOM     78  C   UNL A   1      47.228  33.189  27.795  1.00  0.00     0.040 A 
ATOM     79  F   UNL A   1      47.533  31.584  29.443  1.00  0.00    -0.206 F 
ATOM     80  C   UNL A   1      46.507  33.718  26.733  1.00  0.00     0.006 A 
ENDBRANCH  52  73
BRANCH  64  81
ATOM     81  C   UNL A   1      45.907  26.252  31.772  1.00  0.00     0.057 A 
ATOM     82  C   UNL A   1      44.862  26.818  32.516  1.00  0.00     0.134 A 
ATOM     83  C   UNL A   1      47.081  25.938  32.463  1.00  0.00     0.134 A 
ATOM     84  F   UNL A   1      43.666  27.051  31.963  1.00  0.00    -0.206 F 
ATOM     85  C   UNL A   1      44.999  27.107  33.877  1.00  0.00     0.040 A 
ATOM     86  C   UNL A   1      47.219  26.188  33.830  1.00  0.00     0.040 A 
ATOM     87  F   UNL A   1      48.099  25.334  31.829  1.00  0.00    -0.206 F 
ATOM     88  C   UNL A   1      46.179  26.785  34.539  1.00  0.00     0.006 A 
ENDBRANCH  64  81
ENDBRANCH  38  39
ENDBRANCH  31  33
ENDBRANCH  30  31
ENDBRANCH  29  30
ENDBRANCH  28  29
ENDBRANCH  27  28
ENDBRANCH  26  27
ENDBRANCH   1  26
TORSDOF 19
ENDMDL
MODEL 3
REMARK VINA RESULT:     -10.6      3.204      7.839
REMARK SMILES C[C@H]1OCC[C@@H]1C(=O)Nc1sc2c(c1C(=O)OCCOCCOCCOC(=O)c1ccc(-c3c4nc(c(-c5c(F)cccc5F)c5ccc([nH]5)c(-c5c(F)cccc5F)c5nc(c(-c6c(F)cccc6F)c6ccc3[nH]6)C=C5)C=C4)cc1)CCC2
REMARK SMILES IDX 21 1 20 2 19 3 18 4 17 5 15 6 16 7 14 8 10 9 11 10 12 11
REMARK SMILES IDX 13 12 85 13 83 14 84 15 9 16 7 17 8 18 6 20 1 21 2 22 3 23
REMARK SMILES IDX 4 24 5 25 22 26 23 27 24 28 25 29 26 30 27 31 28 32 29 33
REMARK SMILES IDX 30 34 82 35 31 36 81 37 32 38 33 39 34 40 75 41 35 42 80 43
REMARK SMILES IDX 74 44 76 45 36 46 79 47 73 48 72 49 37 51 63 52 46 53 62 54
REMARK SMILES IDX 47 55 50 56 61 57 77 58 48 59 49 60 60 62 78 63 51 64 38 65
REMARK SMILES IDX 39 66 44 67 40 68 41 69 43 70 45 71 42 72 64 73 65 74 70 75
REMARK SMILES IDX 66 76 67 77 69 78 71 79 68 80 52 81 53 82 58 83 54 84 55 85
REMARK SMILES IDX 57 86 59 87 56 88
REMARK H PARENT 9 19 76 50 50 61
REMARK Flexibility Score: inf
ROOT
ATOM      1  C   UNL A   1      38.891  21.020  25.807  1.00  0.00     0.188 C 
ENDROOT
BRANCH   1   2
ATOM      2  O   UNL A   1      37.570  21.540  25.748  1.00  0.00    -0.376 OA
BRANCH   2   3
ATOM      3  C   UNL A   1      37.452  22.721  24.944  1.00  0.00     0.202 C 
BRANCH   3   4
ATOM      4  C   UNL A   1      36.603  23.813  25.614  1.00  0.00     0.261 C 
BRANCH   4   5
ATOM      5  O   UNL A   1      35.303  23.961  24.989  1.00  0.00    -0.460 OA
BRANCH   5   6
ATOM      6  C   UNL A   1      35.197  23.498  23.704  1.00  0.00     0.341 C 
ATOM      7  O   UNL A   1      35.983  23.792  22.807  1.00  0.00    -0.246 OA
BRANCH   6   8
ATOM      8  C   UNL A   1      34.053  22.614  23.477  1.00  0.00     0.098 A 
ATOM      9  C   UNL A   1      33.039  22.876  22.559  1.00  0.00     0.110 A 
ATOM     10  S   UNL A   1      31.659  21.871  22.729  1.00  0.00    -0.122 S 
ATOM     11  C   UNL A   1      32.547  20.850  23.700  1.00  0.00     0.011 A 
ATOM     12  C   UNL A   1      33.779  21.336  24.054  1.00  0.00    -0.017 A 
ATOM     13  C   UNL A   1      32.248  19.491  24.197  1.00  0.00     0.047 C 
ATOM     14  C   UNL A   1      34.485  20.350  24.913  1.00  0.00     0.038 C 
ATOM     15  C   UNL A   1      33.670  19.042  24.640  1.00  0.00     0.010 C 
BRANCH   9  16
ATOM     16  N   UNL A   1      32.915  23.826  21.574  1.00  0.00    -0.317 N 
ATOM     17  C   UNL A   1      32.821  25.169  21.849  1.00  0.00     0.230 C 
ATOM     18  O   UNL A   1      33.331  25.947  21.032  1.00  0.00    -0.274 OA
ATOM     19  H   UNL A   1      32.893  23.534  20.635  1.00  0.00     0.170 HD
BRANCH  17  20
ATOM     20  C   UNL A   1      32.110  25.754  23.079  1.00  0.00     0.110 C 
ATOM     21  C   UNL A   1      29.777  26.470  23.737  1.00  0.00     0.039 C 
ATOM     22  C   UNL A   1      30.946  26.683  22.773  1.00  0.00     0.127 C 
ATOM     23  O   UNL A   1      31.437  28.015  22.992  1.00  0.00    -0.378 OA
ATOM     24  C   UNL A   1      32.418  27.952  24.031  1.00  0.00     0.161 C 
ATOM     25  C   UNL A   1      32.976  26.541  24.030  1.00  0.00     0.044 C 
ENDBRANCH  17  20
ENDBRANCH   9  16
ENDBRANCH   6   8
ENDBRANCH   5   6
ENDBRANCH   4   5
ENDBRANCH   3   4
ENDBRANCH   2   3
ENDBRANCH   1   2
BRANCH   1  26
ATOM     26  C   UNL A   1      39.828  21.941  26.579  1.00  0.00     0.188 C 
BRANCH  26  27
ATOM     27  O   UNL A   1      40.504  21.225  27.619  1.00  0.00    -0.376 OA
BRANCH  27  28
ATOM     28  C   UNL A   1      40.958  19.918  27.248  1.00  0.00     0.202 C 
BRANCH  28  29
ATOM     29  C   UNL A   1      42.418  19.805  26.799  1.00  0.00     0.261 C 
BRANCH  29  30
ATOM     30  O   UNL A   1      42.590  20.181  25.447  1.00  0.00    -0.460 OA
BRANCH  30  31
ATOM     31  C   UNL A   1      43.861  20.121  24.982  1.00  0.00     0.338 C 
ATOM     32  O   UNL A   1      44.514  19.131  24.715  1.00  0.00    -0.246 OA
BRANCH  31  33
ATOM     33  C   UNL A   1      44.358  21.506  24.978  1.00  0.00     0.060 A 
ATOM     34  C   UNL A   1      45.558  21.752  25.646  1.00  0.00     0.016 A 
ATOM     35  C   UNL A   1      43.498  22.541  24.578  1.00  0.00     0.016 A 
ATOM     36  C   UNL A   1      45.766  23.010  26.158  1.00  0.00     0.010 A 
ATOM     37  C   UNL A   1      43.669  23.776  25.138  1.00  0.00     0.010 A 
ATOM     38  C   UNL A   1      44.743  23.946  26.008  1.00  0.00    -0.014 A 
BRANCH  38  39
ATOM     39  C   UNL A   1      44.701  25.056  26.931  1.00  0.00     0.031 A 
ATOM     40  C   UNL A   1      45.834  25.991  26.817  1.00  0.00     0.074 A 
ATOM     41  C   UNL A   1      43.585  25.229  27.669  1.00  0.00     0.049 A 
ATOM     42  N   UNL A   1      46.660  26.366  27.735  1.00  0.00    -0.248 NA
ATOM     43  C   UNL A   1      46.175  26.475  25.466  1.00  0.00     0.031 C 
ATOM     44  C   UNL A   1      42.321  24.483  27.551  1.00  0.00     0.029 A 
ATOM     45  N   UNL A   1      43.278  26.194  28.572  1.00  0.00    -0.354 N 
ATOM     46  C   UNL A   1      47.486  27.299  27.118  1.00  0.00     0.074 A 
ATOM     47  C   UNL A   1      47.290  27.160  25.703  1.00  0.00     0.031 C 
ATOM     48  C   UNL A   1      41.338  25.176  28.164  1.00  0.00     0.029 A 
ATOM     49  C   UNL A   1      41.916  26.353  28.786  1.00  0.00     0.049 A 
ATOM     50  H   UNL A   1      43.960  26.734  29.035  1.00  0.00     0.167 HD
ATOM     51  C   UNL A   1      48.023  28.330  27.820  1.00  0.00     0.037 A 
ATOM     52  C   UNL A   1      41.312  27.443  29.322  1.00  0.00     0.037 A 
ATOM     53  C   UNL A   1      48.084  28.031  29.227  1.00  0.00     0.049 A 
ATOM     54  C   UNL A   1      42.367  28.262  29.976  1.00  0.00     0.074 A 
ATOM     55  C   UNL A   1      48.655  27.018  29.976  1.00  0.00     0.029 A 
ATOM     56  N   UNL A   1      47.191  28.655  30.061  1.00  0.00    -0.354 N 
ATOM     57  N   UNL A   1      43.002  27.916  31.061  1.00  0.00    -0.248 NA
ATOM     58  C   UNL A   1      43.030  29.276  29.167  1.00  0.00     0.031 C 
ATOM     59  C   UNL A   1      47.759  26.803  31.061  1.00  0.00     0.029 A 
ATOM     60  C   UNL A   1      46.710  27.713  30.933  1.00  0.00     0.049 A 
ATOM     61  H   UNL A   1      46.942  29.608  30.038  1.00  0.00     0.167 HD
ATOM     62  C   UNL A   1      44.308  28.350  30.866  1.00  0.00     0.074 A 
ATOM     63  C   UNL A   1      44.240  29.265  29.732  1.00  0.00     0.031 C 
ATOM     64  C   UNL A   1      45.361  27.705  31.448  1.00  0.00     0.037 A 
BRANCH  51  65
ATOM     65  C   UNL A   1      48.101  29.735  27.273  1.00  0.00     0.057 A 
ATOM     66  C   UNL A   1      49.323  30.423  27.351  1.00  0.00     0.134 A 
ATOM     67  C   UNL A   1      46.985  30.538  26.944  1.00  0.00     0.134 A 
ATOM     68  F   UNL A   1      50.456  29.778  27.668  1.00  0.00    -0.206 F 
ATOM     69  C   UNL A   1      49.411  31.811  27.200  1.00  0.00     0.040 A 
ATOM     70  C   UNL A   1      47.074  31.915  26.733  1.00  0.00     0.040 A 
ATOM     71  F   UNL A   1      45.734  30.066  26.906  1.00  0.00    -0.206 F 
ATOM     72  C   UNL A   1      48.283  32.563  26.898  1.00  0.00     0.006 A 
ENDBRANCH  51  65
BRANCH  52  73
ATOM     73  C   UNL A   1      39.959  27.972  29.023  1.00  0.00     0.057 A 
ATOM     74  C   UNL A   1      38.960  27.997  30.004  1.00  0.00     0.134 A 
ATOM     75  C   UNL A   1      39.672  28.675  27.836  1.00  0.00     0.134 A 
ATOM     76  F   UNL A   1      39.155  27.403  31.190  1.00  0.00    -0.206 F 
ATOM     77  C   UNL A   1      37.749  28.681  29.818  1.00  0.00     0.040 A 
ATOM     78  C   UNL A   1      38.462  29.345  27.631  1.00  0.00     0.040 A 
ATOM     79  F   UNL A   1      40.585  28.809  26.865  1.00  0.00    -0.206 F 
ATOM     80  C   UNL A   1      37.498  29.359  28.630  1.00  0.00     0.006 A 
ENDBRANCH  52  73
BRANCH  64  81
ATOM     81  C   UNL A   1      45.057  26.697  32.520  1.00  0.00     0.057 A 
ATOM     82  C   UNL A   1      44.863  27.034  33.867  1.00  0.00     0.134 A 
ATOM     83  C   UNL A   1      44.796  25.374  32.152  1.00  0.00     0.134 A 
ATOM     84  F   UNL A   1      44.983  28.298  34.289  1.00  0.00    -0.206 F 
ATOM     85  C   UNL A   1      44.475  26.082  34.816  1.00  0.00     0.040 A 
ATOM     86  C   UNL A   1      44.374  24.422  33.082  1.00  0.00     0.040 A 
ATOM     87  F   UNL A   1      44.898  24.996  30.867  1.00  0.00    -0.206 F 
ATOM     88  C   UNL A   1      44.224  24.773  34.422  1.00  0.00     0.006 A 
ENDBRANCH  64  81
ENDBRANCH  38  39
ENDBRANCH  31  33
ENDBRANCH  30  31
ENDBRANCH  29  30
ENDBRANCH  28  29
ENDBRANCH  27  28
ENDBRANCH  26  27
ENDBRANCH   1  26
TORSDOF 19
ENDMDL
