MODEL 1
REMARK VINA RESULT:     -10.9      0.000      0.000
REMARK SMILES O=C(C[C@@H](NS(=O)(=O)c1ccc(Cl)cc1)c1ccc(F)cc1)OCCOCCOCCOC(=O)c1ccc(-c2c3nc(c(-c4c(F)cccc4F)c4ccc([nH]4)c(-c4c(F)cccc4F)c4nc(c(-c5c(F)cccc5F)c5ccc2[nH]5)C=C4)C=C3)cc1
REMARK SMILES IDX 27 1 26 2 25 3 24 4 23 5 2 6 1 7 3 8 4 9 5 10 6 12 7 13 8 14
REMARK SMILES IDX 9 15 10 16 15 17 11 18 14 19 12 20 13 21 16 22 17 23 22 24
REMARK SMILES IDX 18 25 21 26 19 27 20 28 28 29 29 30 30 31 31 32 32 33 33 34
REMARK SMILES IDX 34 35 35 36 36 37 88 38 37 39 87 40 38 41 39 42 40 43 81 44
REMARK SMILES IDX 41 45 86 46 80 47 82 48 42 49 85 50 79 51 78 52 43 54 69 55
REMARK SMILES IDX 52 56 68 57 53 58 56 59 67 60 83 61 54 62 55 63 66 65 84 66
REMARK SMILES IDX 57 67 44 68 45 69 50 70 46 71 47 72 49 73 51 74 48 75 70 76
REMARK SMILES IDX 71 77 76 78 72 79 73 80 75 81 77 82 74 83 58 84 59 85 64 86
REMARK SMILES IDX 60 87 61 88 63 89 65 90 62 91
REMARK H PARENT 5 11 82 53 56 64
REMARK Flexibility Score: inf
ROOT
ATOM      1  C   UNL A   1      39.458  21.719  26.273  1.00  0.00     0.188 C 
ENDROOT
BRANCH   1   2
ATOM      2  O   UNL A   1      38.312  21.921  25.469  1.00  0.00    -0.376 OA
BRANCH   2   3
ATOM      3  C   UNL A   1      37.556  23.119  25.615  1.00  0.00     0.202 C 
BRANCH   3   4
ATOM      4  C   UNL A   1      36.038  23.026  25.805  1.00  0.00     0.261 C 
BRANCH   4   5
ATOM      5  O   UNL A   1      35.285  24.270  25.664  1.00  0.00    -0.463 OA
BRANCH   5   6
ATOM      6  C   UNL A   1      34.769  24.703  24.485  1.00  0.00     0.307 C 
ATOM      7  O   UNL A   1      34.824  24.033  23.462  1.00  0.00    -0.252 OA
BRANCH   6   8
ATOM      8  C   UNL A   1      34.058  26.030  24.549  1.00  0.00     0.147 C 
BRANCH   8   9
ATOM      9  C   UNL A   1      32.612  25.972  25.059  1.00  0.00     0.111 C 
BRANCH   9  10
ATOM     10  N   UNL A   1      32.456  24.945  26.118  1.00  0.00    -0.203 NA
ATOM     11  H   UNL A   1      32.283  25.450  26.988  1.00  0.00     0.142 HD
BRANCH  10  12
ATOM     12  S   UNL A   1      31.268  23.764  26.007  1.00  0.00     0.241 S 
ATOM     13  O   UNL A   1      30.724  23.572  27.333  1.00  0.00    -0.207 OA
ATOM     14  O   UNL A   1      30.436  24.169  24.897  1.00  0.00    -0.207 OA
BRANCH  12  15
ATOM     15  C   UNL A   1      32.181  22.338  25.523  1.00  0.00     0.082 A 
ATOM     16  C   UNL A   1      32.126  21.929  24.189  1.00  0.00     0.023 A 
ATOM     17  C   UNL A   1      32.887  21.601  26.480  1.00  0.00     0.023 A 
ATOM     18  C   UNL A   1      32.726  20.729  23.819  1.00  0.00     0.022 A 
ATOM     19  C   UNL A   1      33.497  20.405  26.099  1.00  0.00     0.022 A 
ATOM     20  C   UNL A   1      33.399  19.969  24.774  1.00  0.00     0.041 A 
ATOM     21  Cl  UNL A   1      34.095  18.464  24.320  1.00  0.00    -0.084 Cl
ENDBRANCH  12  15
ENDBRANCH  10  12
ENDBRANCH   9  10
BRANCH   9  22
ATOM     22  C   UNL A   1      32.293  27.385  25.556  1.00  0.00    -0.029 A 
ATOM     23  C   UNL A   1      32.451  27.743  26.911  1.00  0.00     0.008 A 
ATOM     24  C   UNL A   1      31.892  28.379  24.648  1.00  0.00     0.008 A 
ATOM     25  C   UNL A   1      32.157  29.033  27.355  1.00  0.00     0.039 A 
ATOM     26  C   UNL A   1      31.605  29.672  25.094  1.00  0.00     0.039 A 
ATOM     27  C   UNL A   1      31.727  29.983  26.443  1.00  0.00     0.123 A 
ATOM     28  F   UNL A   1      31.423  31.216  26.869  1.00  0.00    -0.207 F 
ENDBRANCH   9  22
ENDBRANCH   8   9
ENDBRANCH   6   8
ENDBRANCH   5   6
ENDBRANCH   4   5
ENDBRANCH   3   4
ENDBRANCH   2   3
ENDBRANCH   1   2
BRANCH   1  29
ATOM     29  C   UNL A   1      40.176  20.376  26.103  1.00  0.00     0.188 C 
BRANCH  29  30
ATOM     30  O   UNL A   1      41.432  20.202  26.732  1.00  0.00    -0.376 OA
BRANCH  30  31
ATOM     31  C   UNL A   1      42.614  20.304  25.942  1.00  0.00     0.202 C 
BRANCH  31  32
ATOM     32  C   UNL A   1      43.409  21.622  25.888  1.00  0.00     0.261 C 
BRANCH  32  33
ATOM     33  O   UNL A   1      42.913  22.607  24.959  1.00  0.00    -0.460 OA
BRANCH  33  34
ATOM     34  C   UNL A   1      43.602  23.772  24.925  1.00  0.00     0.338 C 
ATOM     35  O   UNL A   1      44.635  24.001  24.316  1.00  0.00    -0.246 OA
BRANCH  34  36
ATOM     36  C   UNL A   1      42.877  24.840  25.640  1.00  0.00     0.060 A 
ATOM     37  C   UNL A   1      43.527  26.065  25.850  1.00  0.00     0.016 A 
ATOM     38  C   UNL A   1      41.655  24.574  26.257  1.00  0.00     0.016 A 
ATOM     39  C   UNL A   1      42.979  27.009  26.721  1.00  0.00     0.010 A 
ATOM     40  C   UNL A   1      41.117  25.514  27.144  1.00  0.00     0.010 A 
ATOM     41  C   UNL A   1      41.802  26.712  27.419  1.00  0.00    -0.014 A 
BRANCH  41  42
ATOM     42  C   UNL A   1      41.419  27.538  28.594  1.00  0.00     0.031 A 
ATOM     43  C   UNL A   1      42.224  27.406  29.860  1.00  0.00     0.074 A 
ATOM     44  C   UNL A   1      40.404  28.417  28.539  1.00  0.00     0.049 A 
ATOM     45  N   UNL A   1      42.062  27.998  31.016  1.00  0.00    -0.248 NA
ATOM     46  C   UNL A   1      43.365  26.477  29.814  1.00  0.00     0.031 C 
ATOM     47  C   UNL A   1      39.576  28.681  27.367  1.00  0.00     0.029 A 
ATOM     48  N   UNL A   1      39.899  29.251  29.508  1.00  0.00    -0.354 N 
ATOM     49  C   UNL A   1      43.075  27.512  31.834  1.00  0.00     0.074 A 
ATOM     50  C   UNL A   1      43.822  26.548  31.055  1.00  0.00     0.031 C 
ATOM     51  C   UNL A   1      38.661  29.613  27.684  1.00  0.00     0.029 A 
ATOM     52  C   UNL A   1      38.819  29.989  29.090  1.00  0.00     0.049 A 
ATOM     53  H   UNL A   1      40.275  29.313  30.415  1.00  0.00     0.167 HD
ATOM     54  C   UNL A   1      43.369  27.846  33.112  1.00  0.00     0.037 A 
ATOM     55  C   UNL A   1      38.041  30.858  29.766  1.00  0.00     0.037 A 
ATOM     56  C   UNL A   1      42.627  28.800  33.894  1.00  0.00     0.049 A 
ATOM     57  C   UNL A   1      38.335  31.160  31.213  1.00  0.00     0.074 A 
ATOM     58  C   UNL A   1      42.849  29.203  35.198  1.00  0.00     0.029 A 
ATOM     59  N   UNL A   1      41.515  29.496  33.444  1.00  0.00    -0.354 N 
ATOM     60  N   UNL A   1      39.296  30.699  31.976  1.00  0.00    -0.248 NA
ATOM     61  C   UNL A   1      37.438  32.109  31.891  1.00  0.00     0.031 C 
ATOM     62  C   UNL A   1      41.840  30.102  35.557  1.00  0.00     0.029 A 
ATOM     63  C   UNL A   1      41.029  30.311  34.453  1.00  0.00     0.049 A 
ATOM     64  H   UNL A   1      41.129  29.422  32.541  1.00  0.00     0.167 HD
ATOM     65  C   UNL A   1      39.143  31.326  33.208  1.00  0.00     0.074 A 
ATOM     66  C   UNL A   1      37.995  32.200  33.091  1.00  0.00     0.031 C 
ATOM     67  C   UNL A   1      39.893  31.192  34.329  1.00  0.00     0.037 A 
BRANCH  54  68
ATOM     68  C   UNL A   1      44.537  27.155  33.756  1.00  0.00     0.057 A 
ATOM     69  C   UNL A   1      45.824  27.703  33.678  1.00  0.00     0.134 A 
ATOM     70  C   UNL A   1      44.397  25.933  34.426  1.00  0.00     0.134 A 
ATOM     71  F   UNL A   1      46.032  28.868  33.046  1.00  0.00    -0.206 F 
ATOM     72  C   UNL A   1      46.928  27.059  34.239  1.00  0.00     0.040 A 
ATOM     73  C   UNL A   1      45.488  25.294  35.017  1.00  0.00     0.040 A 
ATOM     74  F   UNL A   1      43.190  25.360  34.549  1.00  0.00    -0.206 F 
ATOM     75  C   UNL A   1      46.760  25.854  34.917  1.00  0.00     0.006 A 
ENDBRANCH  54  68
BRANCH  55  76
ATOM     76  C   UNL A   1      36.916  31.523  29.063  1.00  0.00     0.057 A 
ATOM     77  C   UNL A   1      37.002  32.857  28.645  1.00  0.00     0.134 A 
ATOM     78  C   UNL A   1      35.715  30.848  28.822  1.00  0.00     0.134 A 
ATOM     79  F   UNL A   1      38.128  33.558  28.847  1.00  0.00    -0.206 F 
ATOM     80  C   UNL A   1      35.925  33.503  28.037  1.00  0.00     0.040 A 
ATOM     81  C   UNL A   1      34.637  31.475  28.195  1.00  0.00     0.040 A 
ATOM     82  F   UNL A   1      35.580  29.562  29.178  1.00  0.00    -0.206 F 
ATOM     83  C   UNL A   1      34.738  32.811  27.809  1.00  0.00     0.006 A 
ENDBRANCH  55  76
BRANCH  67  84
ATOM     84  C   UNL A   1      39.544  32.038  35.522  1.00  0.00     0.057 A 
ATOM     85  C   UNL A   1      38.594  31.593  36.451  1.00  0.00     0.134 A 
ATOM     86  C   UNL A   1      40.073  33.321  35.705  1.00  0.00     0.134 A 
ATOM     87  F   UNL A   1      38.036  30.379  36.329  1.00  0.00    -0.206 F 
ATOM     88  C   UNL A   1      38.169  32.400  37.509  1.00  0.00     0.040 A 
ATOM     89  C   UNL A   1      39.677  34.128  36.776  1.00  0.00     0.040 A 
ATOM     90  F   UNL A   1      40.992  33.806  34.857  1.00  0.00    -0.206 F 
ATOM     91  C   UNL A   1      38.714  33.671  37.674  1.00  0.00     0.006 A 
ENDBRANCH  67  84
ENDBRANCH  41  42
ENDBRANCH  34  36
ENDBRANCH  33  34
ENDBRANCH  32  33
ENDBRANCH  31  32
ENDBRANCH  30  31
ENDBRANCH  29  30
ENDBRANCH   1  29
TORSDOF 22
ENDMDL
MODEL 2
REMARK VINA RESULT:     -10.9      2.137      3.836
REMARK SMILES O=C(C[C@@H](NS(=O)(=O)c1ccc(Cl)cc1)c1ccc(F)cc1)OCCOCCOCCOC(=O)c1ccc(-c2c3nc(c(-c4c(F)cccc4F)c4ccc([nH]4)c(-c4c(F)cccc4F)c4nc(c(-c5c(F)cccc5F)c5ccc2[nH]5)C=C4)C=C3)cc1
REMARK SMILES IDX 27 1 26 2 25 3 24 4 23 5 2 6 1 7 3 8 4 9 5 10 6 12 7 13 8 14
REMARK SMILES IDX 9 15 10 16 15 17 11 18 14 19 12 20 13 21 16 22 17 23 22 24
REMARK SMILES IDX 18 25 21 26 19 27 20 28 28 29 29 30 30 31 31 32 32 33 33 34
REMARK SMILES IDX 34 35 35 36 36 37 88 38 37 39 87 40 38 41 39 42 40 43 81 44
REMARK SMILES IDX 41 45 86 46 80 47 82 48 42 49 85 50 79 51 78 52 43 54 69 55
REMARK SMILES IDX 52 56 68 57 53 58 56 59 67 60 83 61 54 62 55 63 66 65 84 66
REMARK SMILES IDX 57 67 44 68 45 69 50 70 46 71 47 72 49 73 51 74 48 75 70 76
REMARK SMILES IDX 71 77 76 78 72 79 73 80 75 81 77 82 74 83 58 84 59 85 64 86
REMARK SMILES IDX 60 87 61 88 63 89 65 90 62 91
REMARK H PARENT 5 11 82 53 56 64
REMARK Flexibility Score: inf
ROOT
ATOM      1  C   UNL A   1      40.352  21.490  26.682  1.00  0.00     0.188 C 
ENDROOT
BRANCH   1   2
ATOM      2  O   UNL A   1      39.079  21.304  26.093  1.00  0.00    -0.376 OA
BRANCH   2   3
ATOM      3  C   UNL A   1      38.344  22.437  25.640  1.00  0.00     0.202 C 
BRANCH   3   4
ATOM      4  C   UNL A   1      36.815  22.421  25.731  1.00  0.00     0.261 C 
BRANCH   4   5
ATOM      5  O   UNL A   1      36.102  23.388  24.899  1.00  0.00    -0.463 OA
BRANCH   5   6
ATOM      6  C   UNL A   1      35.656  23.115  23.646  1.00  0.00     0.307 C 
ATOM      7  O   UNL A   1      36.418  22.990  22.696  1.00  0.00    -0.252 OA
BRANCH   6   8
ATOM      8  C   UNL A   1      34.170  22.900  23.530  1.00  0.00     0.147 C 
BRANCH   8   9
ATOM      9  C   UNL A   1      33.513  22.206  24.730  1.00  0.00     0.111 C 
BRANCH   9  10
ATOM     10  N   UNL A   1      32.219  22.841  25.077  1.00  0.00    -0.203 NA
ATOM     11  H   UNL A   1      31.616  22.097  25.429  1.00  0.00     0.142 HD
BRANCH  10  12
ATOM     12  S   UNL A   1      32.141  24.089  26.197  1.00  0.00     0.241 S 
ATOM     13  O   UNL A   1      31.194  23.697  27.216  1.00  0.00    -0.207 OA
ATOM     14  O   UNL A   1      33.517  24.394  26.517  1.00  0.00    -0.207 OA
BRANCH  12  15
ATOM     15  C   UNL A   1      31.484  25.422  25.251  1.00  0.00     0.082 A 
ATOM     16  C   UNL A   1      31.101  25.179  23.930  1.00  0.00     0.023 A 
ATOM     17  C   UNL A   1      31.419  26.705  25.803  1.00  0.00     0.023 A 
ATOM     18  C   UNL A   1      30.713  26.246  23.127  1.00  0.00     0.022 A 
ATOM     19  C   UNL A   1      31.016  27.769  24.994  1.00  0.00     0.022 A 
ATOM     20  C   UNL A   1      30.680  27.536  23.658  1.00  0.00     0.041 A 
ATOM     21  Cl  UNL A   1      30.247  28.856  22.645  1.00  0.00    -0.084 Cl
ENDBRANCH  12  15
ENDBRANCH  10  12
ENDBRANCH   9  10
BRANCH   9  22
ATOM     22  C   UNL A   1      33.361  20.738  24.324  1.00  0.00    -0.029 A 
ATOM     23  C   UNL A   1      32.348  20.320  23.435  1.00  0.00     0.008 A 
ATOM     24  C   UNL A   1      34.275  19.778  24.788  1.00  0.00     0.008 A 
ATOM     25  C   UNL A   1      32.215  18.980  23.071  1.00  0.00     0.039 A 
ATOM     26  C   UNL A   1      34.145  18.436  24.416  1.00  0.00     0.039 A 
ATOM     27  C   UNL A   1      33.110  18.048  23.574  1.00  0.00     0.123 A 
ATOM     28  F   UNL A   1      32.973  16.758  23.245  1.00  0.00    -0.207 F 
ENDBRANCH   9  22
ENDBRANCH   8   9
ENDBRANCH   6   8
ENDBRANCH   5   6
ENDBRANCH   4   5
ENDBRANCH   3   4
ENDBRANCH   2   3
ENDBRANCH   1   2
BRANCH   1  29
ATOM     29  C   UNL A   1      41.110  20.216  27.069  1.00  0.00     0.188 C 
BRANCH  29  30
ATOM     30  O   UNL A   1      42.521  20.212  26.948  1.00  0.00    -0.376 OA
BRANCH  30  31
ATOM     31  C   UNL A   1      43.099  20.433  25.664  1.00  0.00     0.202 C 
BRANCH  31  32
ATOM     32  C   UNL A   1      43.945  21.690  25.391  1.00  0.00     0.261 C 
BRANCH  32  33
ATOM     33  O   UNL A   1      43.229  22.811  24.834  1.00  0.00    -0.460 OA
BRANCH  33  34
ATOM     34  C   UNL A   1      43.870  24.002  24.902  1.00  0.00     0.338 C 
ATOM     35  O   UNL A   1      44.923  24.305  24.364  1.00  0.00    -0.246 OA
BRANCH  34  36
ATOM     36  C   UNL A   1      43.063  24.999  25.632  1.00  0.00     0.060 A 
ATOM     37  C   UNL A   1      43.573  26.297  25.776  1.00  0.00     0.016 A 
ATOM     38  C   UNL A   1      41.916  24.610  26.324  1.00  0.00     0.016 A 
ATOM     39  C   UNL A   1      42.966  27.196  26.654  1.00  0.00     0.010 A 
ATOM     40  C   UNL A   1      41.319  25.507  27.218  1.00  0.00     0.010 A 
ATOM     41  C   UNL A   1      41.872  26.785  27.425  1.00  0.00    -0.014 A 
BRANCH  41  42
ATOM     42  C   UNL A   1      41.458  27.595  28.600  1.00  0.00     0.031 A 
ATOM     43  C   UNL A   1      42.251  27.472  29.875  1.00  0.00     0.074 A 
ATOM     44  C   UNL A   1      40.426  28.453  28.539  1.00  0.00     0.049 A 
ATOM     45  N   UNL A   1      42.062  28.053  31.032  1.00  0.00    -0.248 NA
ATOM     46  C   UNL A   1      43.411  26.567  29.837  1.00  0.00     0.031 C 
ATOM     47  C   UNL A   1      39.606  28.707  27.358  1.00  0.00     0.029 A 
ATOM     48  N   UNL A   1      39.891  29.270  29.506  1.00  0.00    -0.354 N 
ATOM     49  C   UNL A   1      43.076  27.583  31.860  1.00  0.00     0.074 A 
ATOM     50  C   UNL A   1      43.851  26.640  31.083  1.00  0.00     0.031 C 
ATOM     51  C   UNL A   1      38.668  29.618  27.670  1.00  0.00     0.029 A 
ATOM     52  C   UNL A   1      38.802  29.988  29.080  1.00  0.00     0.049 A 
ATOM     53  H   UNL A   1      40.255  29.335  30.418  1.00  0.00     0.167 HD
ATOM     54  C   UNL A   1      43.348  27.915  33.143  1.00  0.00     0.037 A 
ATOM     55  C   UNL A   1      37.998  30.836  29.752  1.00  0.00     0.037 A 
ATOM     56  C   UNL A   1      42.576  28.849  33.921  1.00  0.00     0.049 A 
ATOM     57  C   UNL A   1      38.268  31.136  31.204  1.00  0.00     0.074 A 
ATOM     58  C   UNL A   1      42.775  29.248  35.231  1.00  0.00     0.029 A 
ATOM     59  N   UNL A   1      41.456  29.524  33.462  1.00  0.00    -0.354 N 
ATOM     60  N   UNL A   1      39.229  30.690  31.976  1.00  0.00    -0.248 NA
ATOM     61  C   UNL A   1      37.344  32.061  31.877  1.00  0.00     0.031 C 
ATOM     62  C   UNL A   1      41.743  30.123  35.583  1.00  0.00     0.029 A 
ATOM     63  C   UNL A   1      40.941  30.323  34.471  1.00  0.00     0.049 A 
ATOM     64  H   UNL A   1      41.082  29.448  32.555  1.00  0.00     0.167 HD
ATOM     65  C   UNL A   1      39.048  31.306  33.210  1.00  0.00     0.074 A 
ATOM     66  C   UNL A   1      37.884  32.156  33.085  1.00  0.00     0.031 C 
ATOM     67  C   UNL A   1      39.788  31.180  34.339  1.00  0.00     0.037 A 
BRANCH  54  68
ATOM     68  C   UNL A   1      44.522  27.245  33.797  1.00  0.00     0.057 A 
ATOM     69  C   UNL A   1      44.365  26.030  34.475  1.00  0.00     0.134 A 
ATOM     70  C   UNL A   1      45.802  27.814  33.782  1.00  0.00     0.134 A 
ATOM     71  F   UNL A   1      43.166  25.431  34.534  1.00  0.00    -0.206 F 
ATOM     72  C   UNL A   1      45.437  25.408  35.119  1.00  0.00     0.040 A 
ATOM     73  C   UNL A   1      46.888  27.188  34.396  1.00  0.00     0.040 A 
ATOM     74  F   UNL A   1      46.025  28.970  33.138  1.00  0.00    -0.206 F 
ATOM     75  C   UNL A   1      46.704  25.985  35.074  1.00  0.00     0.006 A 
ENDBRANCH  54  68
BRANCH  55  76
ATOM     76  C   UNL A   1      36.867  31.483  29.040  1.00  0.00     0.057 A 
ATOM     77  C   UNL A   1      36.931  32.820  28.629  1.00  0.00     0.134 A 
ATOM     78  C   UNL A   1      35.683  30.785  28.781  1.00  0.00     0.134 A 
ATOM     79  F   UNL A   1      38.039  33.542  28.848  1.00  0.00    -0.206 F 
ATOM     80  C   UNL A   1      35.848  33.448  28.013  1.00  0.00     0.040 A 
ATOM     81  C   UNL A   1      34.599  31.393  28.145  1.00  0.00     0.040 A 
ATOM     82  F   UNL A   1      35.571  29.494  29.129  1.00  0.00    -0.206 F 
ATOM     83  C   UNL A   1      34.678  32.733  27.768  1.00  0.00     0.006 A 
ENDBRANCH  55  76
BRANCH  67  84
ATOM     84  C   UNL A   1      39.408  32.011  35.532  1.00  0.00     0.057 A 
ATOM     85  C   UNL A   1      38.498  31.517  36.478  1.00  0.00     0.134 A 
ATOM     86  C   UNL A   1      39.864  33.324  35.702  1.00  0.00     0.134 A 
ATOM     87  F   UNL A   1      38.011  30.272  36.369  1.00  0.00    -0.206 F 
ATOM     88  C   UNL A   1      38.042  32.304  37.537  1.00  0.00     0.040 A 
ATOM     89  C   UNL A   1      39.436  34.112  36.775  1.00  0.00     0.040 A 
ATOM     90  F   UNL A   1      40.741  33.857  34.838  1.00  0.00    -0.206 F 
ATOM     91  C   UNL A   1      38.514  33.605  37.688  1.00  0.00     0.006 A 
ENDBRANCH  67  84
ENDBRANCH  41  42
ENDBRANCH  34  36
ENDBRANCH  33  34
ENDBRANCH  32  33
ENDBRANCH  31  32
ENDBRANCH  30  31
ENDBRANCH  29  30
ENDBRANCH   1  29
TORSDOF 22
ENDMDL
MODEL 3
REMARK VINA RESULT:     -10.5      2.205      6.993
REMARK SMILES O=C(C[C@@H](NS(=O)(=O)c1ccc(Cl)cc1)c1ccc(F)cc1)OCCOCCOCCOC(=O)c1ccc(-c2c3nc(c(-c4c(F)cccc4F)c4ccc([nH]4)c(-c4c(F)cccc4F)c4nc(c(-c5c(F)cccc5F)c5ccc2[nH]5)C=C4)C=C3)cc1
REMARK SMILES IDX 27 1 26 2 25 3 24 4 23 5 2 6 1 7 3 8 4 9 5 10 6 12 7 13 8 14
REMARK SMILES IDX 9 15 10 16 15 17 11 18 14 19 12 20 13 21 16 22 17 23 22 24
REMARK SMILES IDX 18 25 21 26 19 27 20 28 28 29 29 30 30 31 31 32 32 33 33 34
REMARK SMILES IDX 34 35 35 36 36 37 88 38 37 39 87 40 38 41 39 42 40 43 81 44
REMARK SMILES IDX 41 45 86 46 80 47 82 48 42 49 85 50 79 51 78 52 43 54 69 55
REMARK SMILES IDX 52 56 68 57 53 58 56 59 67 60 83 61 54 62 55 63 66 65 84 66
REMARK SMILES IDX 57 67 44 68 45 69 50 70 46 71 47 72 49 73 51 74 48 75 70 76
REMARK SMILES IDX 71 77 76 78 72 79 73 80 75 81 77 82 74 83 58 84 59 85 64 86
REMARK SMILES IDX 60 87 61 88 63 89 65 90 62 91
REMARK H PARENT 5 11 82 53 56 64
REMARK Flexibility Score: inf
ROOT
ATOM      1  C   UNL A   1      40.266  21.856  26.223  1.00  0.00     0.188 C 
ENDROOT
BRANCH   1   2
ATOM      2  O   UNL A   1      38.856  21.887  26.117  1.00  0.00    -0.376 OA
BRANCH   2   3
ATOM      3  C   UNL A   1      38.181  23.141  26.103  1.00  0.00     0.202 C 
BRANCH   3   4
ATOM      4  C   UNL A   1      36.669  23.173  25.856  1.00  0.00     0.261 C 
BRANCH   4   5
ATOM      5  O   UNL A   1      36.219  23.868  24.651  1.00  0.00    -0.463 OA
BRANCH   5   6
ATOM      6  C   UNL A   1      35.746  23.229  23.551  1.00  0.00     0.307 C 
ATOM      7  O   UNL A   1      36.488  22.779  22.687  1.00  0.00    -0.252 OA
BRANCH   6   8
ATOM      8  C   UNL A   1      34.252  23.046  23.512  1.00  0.00     0.147 C 
BRANCH   8   9
ATOM      9  C   UNL A   1      33.640  22.392  24.758  1.00  0.00     0.111 C 
BRANCH   9  10
ATOM     10  N   UNL A   1      32.316  22.979  25.077  1.00  0.00    -0.203 NA
ATOM     11  H   UNL A   1      31.782  22.248  25.551  1.00  0.00     0.142 HD
BRANCH  10  12
ATOM     12  S   UNL A   1      32.186  24.356  26.028  1.00  0.00     0.241 S 
ATOM     13  O   UNL A   1      31.273  24.053  27.107  1.00  0.00    -0.207 OA
ATOM     14  O   UNL A   1      33.548  24.769  26.280  1.00  0.00    -0.207 OA
BRANCH  12  15
ATOM     15  C   UNL A   1      31.449  25.519  24.930  1.00  0.00     0.082 A 
ATOM     16  C   UNL A   1      32.259  26.157  23.988  1.00  0.00     0.023 A 
ATOM     17  C   UNL A   1      30.092  25.837  25.057  1.00  0.00     0.023 A 
ATOM     18  C   UNL A   1      31.723  27.177  23.209  1.00  0.00     0.022 A 
ATOM     19  C   UNL A   1      29.559  26.853  24.262  1.00  0.00     0.022 A 
ATOM     20  C   UNL A   1      30.381  27.527  23.355  1.00  0.00     0.041 A 
ATOM     21  Cl  UNL A   1      29.739  28.823  22.424  1.00  0.00    -0.084 Cl
ENDBRANCH  12  15
ENDBRANCH  10  12
ENDBRANCH   9  10
BRANCH   9  22
ATOM     22  C   UNL A   1      33.564  20.896  24.445  1.00  0.00    -0.029 A 
ATOM     23  C   UNL A   1      32.496  20.353  23.701  1.00  0.00     0.008 A 
ATOM     24  C   UNL A   1      34.600  20.037  24.845  1.00  0.00     0.008 A 
ATOM     25  C   UNL A   1      32.434  18.987  23.420  1.00  0.00     0.039 A 
ATOM     26  C   UNL A   1      34.540  18.670  24.557  1.00  0.00     0.039 A 
ATOM     27  C   UNL A   1      33.453  18.157  23.860  1.00  0.00     0.123 A 
ATOM     28  F   UNL A   1      33.386  16.843  23.612  1.00  0.00    -0.207 F 
ENDBRANCH   9  22
ENDBRANCH   8   9
ENDBRANCH   6   8
ENDBRANCH   5   6
ENDBRANCH   4   5
ENDBRANCH   3   4
ENDBRANCH   2   3
ENDBRANCH   1   2
BRANCH   1  29
ATOM     29  C   UNL A   1      40.895  20.485  26.492  1.00  0.00     0.188 C 
BRANCH  29  30
ATOM     30  O   UNL A   1      42.286  20.422  26.746  1.00  0.00    -0.376 OA
BRANCH  30  31
ATOM     31  C   UNL A   1      43.189  20.787  25.705  1.00  0.00     0.202 C 
BRANCH  31  32
ATOM     32  C   UNL A   1      43.944  22.128  25.756  1.00  0.00     0.261 C 
BRANCH  32  33
ATOM     33  O   UNL A   1      43.281  23.238  25.118  1.00  0.00    -0.460 OA
BRANCH  33  34
ATOM     34  C   UNL A   1      43.918  24.429  25.215  1.00  0.00     0.338 C 
ATOM     35  O   UNL A   1      44.942  24.767  24.643  1.00  0.00    -0.246 OA
BRANCH  34  36
ATOM     36  C   UNL A   1      43.143  25.381  26.034  1.00  0.00     0.060 A 
ATOM     37  C   UNL A   1      43.659  26.671  26.228  1.00  0.00     0.016 A 
ATOM     38  C   UNL A   1      42.027  24.951  26.752  1.00  0.00     0.016 A 
ATOM     39  C   UNL A   1      43.090  27.518  27.180  1.00  0.00     0.010 A 
ATOM     40  C   UNL A   1      41.469  25.795  27.720  1.00  0.00     0.010 A 
ATOM     41  C   UNL A   1      42.030  27.061  27.974  1.00  0.00    -0.014 A 
BRANCH  41  42
ATOM     42  C   UNL A   1      41.667  27.804  29.209  1.00  0.00     0.031 A 
ATOM     43  C   UNL A   1      40.464  28.710  29.177  1.00  0.00     0.074 A 
ATOM     44  C   UNL A   1      42.359  27.657  30.351  1.00  0.00     0.049 A 
ATOM     45  N   UNL A   1      39.974  29.477  30.117  1.00  0.00    -0.248 NA
ATOM     46  C   UNL A   1      39.716  28.757  27.909  1.00  0.00     0.031 C 
ATOM     47  C   UNL A   1      43.510  26.779  30.535  1.00  0.00     0.029 A 
ATOM     48  N   UNL A   1      42.188  28.256  31.576  1.00  0.00    -0.354 N 
ATOM     49  C   UNL A   1      38.865  30.099  29.555  1.00  0.00     0.074 A 
ATOM     50  C   UNL A   1      38.778  29.650  28.182  1.00  0.00     0.031 C 
ATOM     51  C   UNL A   1      43.947  26.897  31.801  1.00  0.00     0.029 A 
ATOM     52  C   UNL A   1      43.124  27.882  32.507  1.00  0.00     0.049 A 
ATOM     53  H   UNL A   1      41.463  28.893  31.768  1.00  0.00     0.167 HD
ATOM     54  C   UNL A   1      37.988  30.955  30.131  1.00  0.00     0.037 A 
ATOM     55  C   UNL A   1      43.305  28.293  33.778  1.00  0.00     0.037 A 
ATOM     56  C   UNL A   1      38.073  31.409  31.495  1.00  0.00     0.049 A 
ATOM     57  C   UNL A   1      42.366  29.307  34.380  1.00  0.00     0.074 A 
ATOM     58  C   UNL A   1      37.231  32.277  32.166  1.00  0.00     0.029 A 
ATOM     59  N   UNL A   1      39.061  31.035  32.392  1.00  0.00    -0.354 N 
ATOM     60  N   UNL A   1      41.320  29.886  33.843  1.00  0.00    -0.248 NA
ATOM     61  C   UNL A   1      42.630  29.718  35.767  1.00  0.00     0.031 C 
ATOM     62  C   UNL A   1      37.740  32.471  33.454  1.00  0.00     0.029 A 
ATOM     63  C   UNL A   1      38.860  31.671  33.606  1.00  0.00     0.049 A 
ATOM     64  H   UNL A   1      39.796  30.410  32.196  1.00  0.00     0.167 HD
ATOM     65  C   UNL A   1      40.781  30.700  34.834  1.00  0.00     0.074 A 
ATOM     66  C   UNL A   1      41.617  30.541  36.005  1.00  0.00     0.031 C 
ATOM     67  C   UNL A   1      39.687  31.500  34.776  1.00  0.00     0.037 A 
BRANCH  54  68
ATOM     68  C   UNL A   1      36.868  31.475  29.277  1.00  0.00     0.057 A 
ATOM     69  C   UNL A   1      35.779  30.658  28.950  1.00  0.00     0.134 A 
ATOM     70  C   UNL A   1      36.880  32.774  28.751  1.00  0.00     0.134 A 
ATOM     71  F   UNL A   1      35.705  29.402  29.415  1.00  0.00    -0.206 F 
ATOM     72  C   UNL A   1      34.745  31.111  28.129  1.00  0.00     0.040 A 
ATOM     73  C   UNL A   1      35.838  33.249  27.953  1.00  0.00     0.040 A 
ATOM     74  F   UNL A   1      37.887  33.614  29.035  1.00  0.00    -0.206 F 
ATOM     75  C   UNL A   1      34.770  32.413  27.634  1.00  0.00     0.006 A 
ENDBRANCH  54  68
BRANCH  55  76
ATOM     76  C   UNL A   1      44.420  27.722  34.575  1.00  0.00     0.057 A 
ATOM     77  C   UNL A   1      45.690  28.309  34.581  1.00  0.00     0.134 A 
ATOM     78  C   UNL A   1      44.246  26.554  35.325  1.00  0.00     0.134 A 
ATOM     79  F   UNL A   1      45.921  29.430  33.881  1.00  0.00    -0.206 F 
ATOM     80  C   UNL A   1      46.755  27.741  35.281  1.00  0.00     0.040 A 
ATOM     81  C   UNL A   1      45.295  25.987  36.049  1.00  0.00     0.040 A 
ATOM     82  F   UNL A   1      43.045  25.959  35.379  1.00  0.00    -0.206 F 
ATOM     83  C   UNL A   1      46.559  26.577  36.019  1.00  0.00     0.006 A 
ENDBRANCH  55  76
BRANCH  67  84
ATOM     84  C   UNL A   1      39.282  32.239  36.021  1.00  0.00     0.057 A 
ATOM     85  C   UNL A   1      38.354  31.675  36.908  1.00  0.00     0.134 A 
ATOM     86  C   UNL A   1      39.733  33.535  36.298  1.00  0.00     0.134 A 
ATOM     87  F   UNL A   1      37.870  30.442  36.695  1.00  0.00    -0.206 F 
ATOM     88  C   UNL A   1      37.875  32.380  38.014  1.00  0.00     0.040 A 
ATOM     89  C   UNL A   1      39.283  34.239  37.418  1.00  0.00     0.040 A 
ATOM     90  F   UNL A   1      40.626  34.131  35.495  1.00  0.00    -0.206 F 
ATOM     91  C   UNL A   1      38.343  33.666  38.273  1.00  0.00     0.006 A 
ENDBRANCH  67  84
ENDBRANCH  41  42
ENDBRANCH  34  36
ENDBRANCH  33  34
ENDBRANCH  32  33
ENDBRANCH  31  32
ENDBRANCH  30  31
ENDBRANCH  29  30
ENDBRANCH   1  29
TORSDOF 22
ENDMDL
