MODEL 1
REMARK VINA RESULT:     -10.0      0.000      0.000
REMARK SMILES O=C(OCCOCCOCCOC(=O)[C@H]1CCCCN1C(=O)CSCc1ccccc1)c1ccc(-c2c3nc(c(-c4c(F)cccc4F)c4ccc([nH]4)c(-c4c(F)cccc4F)c4nc(c(-c5c(F)cccc5F)c5ccc2[nH]5)C=C4)C=C3)cc1
REMARK SMILES IDX 9 1 8 2 7 3 6 4 5 5 4 6 3 7 2 8 1 9 32 10 33 11 85 12 34 13
REMARK SMILES IDX 84 14 35 15 36 16 37 17 78 18 38 19 83 20 77 21 79 22 39 23
REMARK SMILES IDX 82 24 76 25 75 26 40 28 66 29 49 30 65 31 50 32 53 33 64 34
REMARK SMILES IDX 80 35 51 36 52 37 63 39 81 40 54 41 41 42 42 43 47 44 43 45
REMARK SMILES IDX 44 46 46 47 48 48 45 49 67 50 68 51 73 52 69 53 70 54 72 55
REMARK SMILES IDX 74 56 71 57 55 58 56 59 61 60 57 61 58 62 60 63 62 64 59 65
REMARK SMILES IDX 10 66 11 67 12 68 13 69 14 70 15 71 16 72 20 73 17 74 19 75
REMARK SMILES IDX 18 76 21 77 22 78 23 79 24 80 25 81 26 82 27 83 31 84 28 85
REMARK SMILES IDX 30 86 29 87
REMARK H PARENT 79 27 53 38
REMARK Flexibility Score: inf
ROOT
ATOM      1  O   UNL A   1      39.284  22.967  26.701  1.00  0.00    -0.376 OA
ENDROOT
BRANCH   1   2
ATOM      2  C   UNL A   1      39.334  21.684  26.078  1.00  0.00     0.188 C 
BRANCH   2   3
ATOM      3  C   UNL A   1      40.506  20.789  26.482  1.00  0.00     0.188 C 
BRANCH   3   4
ATOM      4  O   UNL A   1      41.605  20.912  25.565  1.00  0.00    -0.376 OA
BRANCH   4   5
ATOM      5  C   UNL A   1      42.841  20.451  26.105  1.00  0.00     0.202 C 
BRANCH   5   6
ATOM      6  C   UNL A   1      44.109  21.072  25.505  1.00  0.00     0.261 C 
BRANCH   6   7
ATOM      7  O   UNL A   1      44.382  22.429  25.889  1.00  0.00    -0.460 OA
BRANCH   7   8
ATOM      8  C   UNL A   1      43.849  23.602  25.483  1.00  0.00     0.338 C 
ATOM      9  O   UNL A   1      43.833  23.833  24.274  1.00  0.00    -0.246 OA
BRANCH   8  10
ATOM     10  C   UNL A   1      43.269  24.641  26.395  1.00  0.00     0.060 A 
ATOM     11  C   UNL A   1      43.596  25.998  26.407  1.00  0.00     0.016 A 
ATOM     12  C   UNL A   1      42.331  24.191  27.346  1.00  0.00     0.016 A 
ATOM     13  C   UNL A   1      43.013  26.885  27.314  1.00  0.00     0.010 A 
ATOM     14  C   UNL A   1      41.736  25.075  28.256  1.00  0.00     0.010 A 
ATOM     15  C   UNL A   1      42.079  26.436  28.243  1.00  0.00    -0.014 A 
BRANCH  15  16
ATOM     16  C   UNL A   1      41.600  27.350  29.301  1.00  0.00     0.031 A 
ATOM     17  C   UNL A   1      42.327  27.313  30.607  1.00  0.00     0.074 A 
ATOM     18  C   UNL A   1      40.682  28.313  29.083  1.00  0.00     0.049 A 
ATOM     19  N   UNL A   1      42.135  28.045  31.670  1.00  0.00    -0.248 NA
ATOM     20  C   UNL A   1      43.496  26.417  30.688  1.00  0.00     0.031 C 
ATOM     21  C   UNL A   1      40.149  28.707  27.783  1.00  0.00     0.029 A 
ATOM     22  N   UNL A   1      40.032  29.149  29.955  1.00  0.00    -0.354 N 
ATOM     23  C   UNL A   1      43.232  27.801  32.478  1.00  0.00     0.074 A 
ATOM     24  C   UNL A   1      44.009  26.752  31.860  1.00  0.00     0.031 C 
ATOM     25  C   UNL A   1      39.183  29.628  27.948  1.00  0.00     0.029 A 
ATOM     26  C   UNL A   1      39.015  29.876  29.370  1.00  0.00     0.049 A 
ATOM     27  H   UNL A   1      40.268  29.224  30.908  1.00  0.00     0.167 HD
ATOM     28  C   UNL A   1      43.597  28.469  33.593  1.00  0.00     0.037 A 
ATOM     29  C   UNL A   1      38.047  30.616  29.944  1.00  0.00     0.037 A 
ATOM     30  C   UNL A   1      42.772  29.455  34.228  1.00  0.00     0.049 A 
ATOM     31  C   UNL A   1      38.125  30.810  31.421  1.00  0.00     0.074 A 
ATOM     32  C   UNL A   1      43.002  30.171  35.386  1.00  0.00     0.029 A 
ATOM     33  N   UNL A   1      41.516  29.828  33.766  1.00  0.00    -0.354 N 
ATOM     34  N   UNL A   1      39.122  30.525  32.220  1.00  0.00    -0.248 NA
ATOM     35  C   UNL A   1      36.982  31.456  32.073  1.00  0.00     0.031 C 
ATOM     36  C   UNL A   1      41.851  30.921  35.665  1.00  0.00     0.029 A 
ATOM     37  C   UNL A   1      40.929  30.714  34.650  1.00  0.00     0.049 A 
ATOM     38  H   UNL A   1      41.104  29.508  32.930  1.00  0.00     0.167 HD
ATOM     39  C   UNL A   1      38.799  31.099  33.433  1.00  0.00     0.074 A 
ATOM     40  C   UNL A   1      37.454  31.630  33.300  1.00  0.00     0.031 C 
ATOM     41  C   UNL A   1      39.601  31.260  34.512  1.00  0.00     0.037 A 
BRANCH  28  42
ATOM     42  C   UNL A   1      44.934  28.114  34.159  1.00  0.00     0.057 A 
ATOM     43  C   UNL A   1      45.071  27.113  35.134  1.00  0.00     0.134 A 
ATOM     44  C   UNL A   1      46.077  28.831  33.799  1.00  0.00     0.134 A 
ATOM     45  F   UNL A   1      44.001  26.415  35.550  1.00  0.00    -0.206 F 
ATOM     46  C   UNL A   1      46.296  26.859  35.751  1.00  0.00     0.040 A 
ATOM     47  C   UNL A   1      47.312  28.574  34.396  1.00  0.00     0.040 A 
ATOM     48  F   UNL A   1      46.004  29.814  32.890  1.00  0.00    -0.206 F 
ATOM     49  C   UNL A   1      47.421  27.593  35.381  1.00  0.00     0.006 A 
ENDBRANCH  28  42
BRANCH  29  50
ATOM     50  C   UNL A   1      36.917  31.201  29.180  1.00  0.00     0.057 A 
ATOM     51  C   UNL A   1      35.850  30.433  28.709  1.00  0.00     0.134 A 
ATOM     52  C   UNL A   1      36.949  32.543  28.792  1.00  0.00     0.134 A 
ATOM     53  F   UNL A   1      35.814  29.114  28.942  1.00  0.00    -0.206 F 
ATOM     54  C   UNL A   1      34.829  30.997  27.935  1.00  0.00     0.040 A 
ATOM     55  C   UNL A   1      35.914  33.133  28.064  1.00  0.00     0.040 A 
ATOM     56  F   UNL A   1      38.040  33.277  29.032  1.00  0.00    -0.206 F 
ATOM     57  C   UNL A   1      34.844  32.357  27.634  1.00  0.00     0.006 A 
ENDBRANCH  29  50
BRANCH  41  58
ATOM     58  C   UNL A   1      39.116  32.214  35.551  1.00  0.00     0.057 A 
ATOM     59  C   UNL A   1      39.449  33.571  35.555  1.00  0.00     0.134 A 
ATOM     60  C   UNL A   1      38.303  31.734  36.587  1.00  0.00     0.134 A 
ATOM     61  F   UNL A   1      40.256  34.077  34.611  1.00  0.00    -0.206 F 
ATOM     62  C   UNL A   1      39.003  34.417  36.569  1.00  0.00     0.040 A 
ATOM     63  C   UNL A   1      37.824  32.575  37.586  1.00  0.00     0.040 A 
ATOM     64  F   UNL A   1      37.959  30.437  36.640  1.00  0.00    -0.206 F 
ATOM     65  C   UNL A   1      38.180  33.922  37.582  1.00  0.00     0.006 A 
ENDBRANCH  41  58
ENDBRANCH  15  16
ENDBRANCH   8  10
ENDBRANCH   7   8
ENDBRANCH   6   7
ENDBRANCH   5   6
ENDBRANCH   4   5
ENDBRANCH   3   4
ENDBRANCH   2   3
ENDBRANCH   1   2
BRANCH   1  66
ATOM     66  C   UNL A   1      38.200  23.816  26.357  1.00  0.00     0.202 C 
BRANCH  66  67
ATOM     67  C   UNL A   1      37.055  23.231  25.518  1.00  0.00     0.261 C 
BRANCH  67  68
ATOM     68  O   UNL A   1      36.338  24.149  24.682  1.00  0.00    -0.462 OA
BRANCH  68  69
ATOM     69  C   UNL A   1      35.385  23.599  23.875  1.00  0.00     0.328 C 
ATOM     70  O   UNL A   1      35.632  22.817  22.966  1.00  0.00    -0.250 OA
BRANCH  69  71
ATOM     71  C   UNL A   1      33.942  23.947  24.303  1.00  0.00     0.195 C 
ATOM     72  C   UNL A   1      33.857  25.255  25.118  1.00  0.00     0.037 C 
ATOM     73  N   UNL A   1      32.920  23.973  23.241  1.00  0.00    -0.328 N 
ATOM     74  C   UNL A   1      33.737  26.527  24.271  1.00  0.00     0.005 C 
ATOM     75  C   UNL A   1      32.972  25.116  22.352  1.00  0.00     0.120 C 
ATOM     76  C   UNL A   1      32.723  26.377  23.150  1.00  0.00     0.022 C 
BRANCH  73  77
ATOM     77  C   UNL A   1      31.818  23.129  23.349  1.00  0.00     0.233 C 
ATOM     78  O   UNL A   1      30.696  23.552  23.642  1.00  0.00    -0.274 OA
BRANCH  77  79
ATOM     79  C   UNL A   1      32.003  21.641  23.099  1.00  0.00     0.170 C 
BRANCH  79  80
ATOM     80  S   UNL A   1      32.162  20.686  24.646  1.00  0.00    -0.147 SA
BRANCH  80  81
ATOM     81  C   UNL A   1      33.756  19.848  24.440  1.00  0.00     0.105 C 
BRANCH  81  82
ATOM     82  C   UNL A   1      33.725  18.369  24.734  1.00  0.00    -0.038 A 
ATOM     83  C   UNL A   1      32.552  17.722  25.145  1.00  0.00     0.004 A 
ATOM     84  C   UNL A   1      34.880  17.590  24.557  1.00  0.00     0.004 A 
ATOM     85  C   UNL A   1      32.542  16.358  25.435  1.00  0.00     0.000 A 
ATOM     86  C   UNL A   1      34.862  16.216  24.813  1.00  0.00     0.000 A 
ATOM     87  C   UNL A   1      33.697  15.604  25.267  1.00  0.00     0.000 A 
ENDBRANCH  81  82
ENDBRANCH  80  81
ENDBRANCH  79  80
ENDBRANCH  77  79
ENDBRANCH  73  77
ENDBRANCH  69  71
ENDBRANCH  68  69
ENDBRANCH  67  68
ENDBRANCH  66  67
ENDBRANCH   1  66
TORSDOF 22
ENDMDL
MODEL 2
REMARK VINA RESULT:      -9.9      1.723      4.063
REMARK SMILES O=C(OCCOCCOCCOC(=O)[C@H]1CCCCN1C(=O)CSCc1ccccc1)c1ccc(-c2c3nc(c(-c4c(F)cccc4F)c4ccc([nH]4)c(-c4c(F)cccc4F)c4nc(c(-c5c(F)cccc5F)c5ccc2[nH]5)C=C4)C=C3)cc1
REMARK SMILES IDX 9 1 8 2 7 3 6 4 5 5 4 6 3 7 2 8 1 9 32 10 33 11 85 12 34 13
REMARK SMILES IDX 84 14 35 15 36 16 37 17 78 18 38 19 83 20 77 21 79 22 39 23
REMARK SMILES IDX 82 24 76 25 75 26 40 28 66 29 49 30 65 31 50 32 53 33 64 34
REMARK SMILES IDX 80 35 51 36 52 37 63 39 81 40 54 41 41 42 42 43 47 44 43 45
REMARK SMILES IDX 44 46 46 47 48 48 45 49 67 50 68 51 73 52 69 53 70 54 72 55
REMARK SMILES IDX 74 56 71 57 55 58 56 59 61 60 57 61 58 62 60 63 62 64 59 65
REMARK SMILES IDX 10 66 11 67 12 68 13 69 14 70 15 71 16 72 20 73 17 74 19 75
REMARK SMILES IDX 18 76 21 77 22 78 23 79 24 80 25 81 26 82 27 83 31 84 28 85
REMARK SMILES IDX 30 86 29 87
REMARK H PARENT 79 27 53 38
REMARK Flexibility Score: inf
ROOT
ATOM      1  O   UNL A   1      38.141  22.312  25.980  1.00  0.00    -0.376 OA
ENDROOT
BRANCH   1   2
ATOM      2  C   UNL A   1      39.461  22.329  26.519  1.00  0.00     0.188 C 
BRANCH   2   3
ATOM      3  C   UNL A   1      40.311  21.086  26.248  1.00  0.00     0.188 C 
BRANCH   3   4
ATOM      4  O   UNL A   1      41.674  21.281  26.656  1.00  0.00    -0.376 OA
BRANCH   4   5
ATOM      5  C   UNL A   1      42.601  20.491  25.914  1.00  0.00     0.202 C 
BRANCH   5   6
ATOM      6  C   UNL A   1      43.681  21.265  25.148  1.00  0.00     0.261 C 
BRANCH   6   7
ATOM      7  O   UNL A   1      43.328  22.599  24.745  1.00  0.00    -0.460 OA
BRANCH   7   8
ATOM      8  C   UNL A   1      43.880  23.798  25.028  1.00  0.00     0.338 C 
ATOM      9  O   UNL A   1      44.936  24.086  24.465  1.00  0.00    -0.246 OA
BRANCH   8  10
ATOM     10  C   UNL A   1      43.299  24.808  25.971  1.00  0.00     0.060 A 
ATOM     11  C   UNL A   1      43.639  26.160  26.040  1.00  0.00     0.016 A 
ATOM     12  C   UNL A   1      42.345  24.332  26.894  1.00  0.00     0.016 A 
ATOM     13  C   UNL A   1      43.054  27.018  26.973  1.00  0.00     0.010 A 
ATOM     14  C   UNL A   1      41.747  25.187  27.829  1.00  0.00     0.010 A 
ATOM     15  C   UNL A   1      42.104  26.544  27.872  1.00  0.00    -0.014 A 
BRANCH  15  16
ATOM     16  C   UNL A   1      41.621  27.422  28.958  1.00  0.00     0.031 A 
ATOM     17  C   UNL A   1      42.359  27.359  30.258  1.00  0.00     0.074 A 
ATOM     18  C   UNL A   1      40.689  28.378  28.774  1.00  0.00     0.049 A 
ATOM     19  N   UNL A   1      42.165  28.059  31.342  1.00  0.00    -0.248 NA
ATOM     20  C   UNL A   1      43.541  26.478  30.305  1.00  0.00     0.031 C 
ATOM     21  C   UNL A   1      40.141  28.800  27.489  1.00  0.00     0.029 A 
ATOM     22  N   UNL A   1      40.035  29.181  29.673  1.00  0.00    -0.354 N 
ATOM     23  C   UNL A   1      43.272  27.808  32.135  1.00  0.00     0.074 A 
ATOM     24  C   UNL A   1      44.058  26.787  31.482  1.00  0.00     0.031 C 
ATOM     25  C   UNL A   1      39.163  29.704  27.687  1.00  0.00     0.029 A 
ATOM     26  C   UNL A   1      39.004  29.910  29.116  1.00  0.00     0.049 A 
ATOM     27  H   UNL A   1      40.277  29.233  30.626  1.00  0.00     0.167 HD
ATOM     28  C   UNL A   1      43.637  28.450  33.265  1.00  0.00     0.037 A 
ATOM     29  C   UNL A   1      38.030  30.621  29.717  1.00  0.00     0.037 A 
ATOM     30  C   UNL A   1      42.803  29.407  33.933  1.00  0.00     0.049 A 
ATOM     31  C   UNL A   1      38.118  30.775  31.199  1.00  0.00     0.074 A 
ATOM     32  C   UNL A   1      43.034  30.094  35.108  1.00  0.00     0.029 A 
ATOM     33  N   UNL A   1      41.539  29.776  33.491  1.00  0.00    -0.354 N 
ATOM     34  N   UNL A   1      39.124  30.482  31.982  1.00  0.00    -0.248 NA
ATOM     35  C   UNL A   1      36.971  31.388  31.876  1.00  0.00     0.031 C 
ATOM     36  C   UNL A   1      41.874  30.821  35.416  1.00  0.00     0.029 A 
ATOM     37  C   UNL A   1      40.948  30.629  34.403  1.00  0.00     0.049 A 
ATOM     38  H   UNL A   1      41.125  29.473  32.650  1.00  0.00     0.167 HD
ATOM     39  C   UNL A   1      38.803  31.019  33.213  1.00  0.00     0.074 A 
ATOM     40  C   UNL A   1      37.450  31.535  33.104  1.00  0.00     0.031 C 
ATOM     41  C   UNL A   1      39.611  31.160  34.289  1.00  0.00     0.037 A 
BRANCH  28  42
ATOM     42  C   UNL A   1      44.983  28.098  33.811  1.00  0.00     0.057 A 
ATOM     43  C   UNL A   1      45.155  27.013  34.685  1.00  0.00     0.134 A 
ATOM     44  C   UNL A   1      46.097  28.895  33.538  1.00  0.00     0.134 A 
ATOM     45  F   UNL A   1      44.112  26.233  35.017  1.00  0.00    -0.206 F 
ATOM     46  C   UNL A   1      46.384  26.752  35.290  1.00  0.00     0.040 A 
ATOM     47  C   UNL A   1      47.336  28.633  34.123  1.00  0.00     0.040 A 
ATOM     48  F   UNL A   1      45.990  29.959  32.728  1.00  0.00    -0.206 F 
ATOM     49  C   UNL A   1      47.480  27.565  35.008  1.00  0.00     0.006 A 
ENDBRANCH  28  42
BRANCH  29  50
ATOM     50  C   UNL A   1      36.886  31.211  28.978  1.00  0.00     0.057 A 
ATOM     51  C   UNL A   1      36.799  32.574  28.691  1.00  0.00     0.134 A 
ATOM     52  C   UNL A   1      35.778  30.424  28.652  1.00  0.00     0.134 A 
ATOM     53  F   UNL A   1      37.773  33.409  29.080  1.00  0.00    -0.206 F 
ATOM     54  C   UNL A   1      35.679  33.116  28.050  1.00  0.00     0.040 A 
ATOM     55  C   UNL A   1      34.675  30.938  27.968  1.00  0.00     0.040 A 
ATOM     56  F   UNL A   1      35.710  29.161  29.085  1.00  0.00    -0.206 F 
ATOM     57  C   UNL A   1      34.624  32.293  27.660  1.00  0.00     0.006 A 
ENDBRANCH  29  50
BRANCH  41  58
ATOM     58  C   UNL A   1      39.122  32.079  35.358  1.00  0.00     0.057 A 
ATOM     59  C   UNL A   1      38.360  31.646  36.446  1.00  0.00     0.134 A 
ATOM     60  C   UNL A   1      39.420  33.446  35.267  1.00  0.00     0.134 A 
ATOM     61  F   UNL A   1      38.011  30.357  36.564  1.00  0.00    -0.206 F 
ATOM     62  C   UNL A   1      37.893  32.549  37.401  1.00  0.00     0.040 A 
ATOM     63  C   UNL A   1      38.988  34.351  36.231  1.00  0.00     0.040 A 
ATOM     64  F   UNL A   1      40.140  33.920  34.238  1.00  0.00    -0.206 F 
ATOM     65  C   UNL A   1      38.215  33.903  37.300  1.00  0.00     0.006 A 
ENDBRANCH  41  58
ENDBRANCH  15  16
ENDBRANCH   8  10
ENDBRANCH   7   8
ENDBRANCH   6   7
ENDBRANCH   5   6
ENDBRANCH   4   5
ENDBRANCH   3   4
ENDBRANCH   2   3
ENDBRANCH   1   2
BRANCH   1  66
ATOM     66  C   UNL A   1      37.844  21.317  25.012  1.00  0.00     0.202 C 
BRANCH  66  67
ATOM     67  C   UNL A   1      36.465  20.646  25.057  1.00  0.00     0.261 C 
BRANCH  67  68
ATOM     68  O   UNL A   1      35.351  21.488  25.386  1.00  0.00    -0.462 OA
BRANCH  68  69
ATOM     69  C   UNL A   1      34.126  21.034  24.994  1.00  0.00     0.328 C 
ATOM     70  O   UNL A   1      33.745  19.882  25.151  1.00  0.00    -0.250 OA
BRANCH  69  71
ATOM     71  C   UNL A   1      33.202  22.148  24.453  1.00  0.00     0.195 C 
ATOM     72  C   UNL A   1      31.756  22.038  24.982  1.00  0.00     0.037 C 
ATOM     73  N   UNL A   1      33.669  23.537  24.612  1.00  0.00    -0.328 N 
ATOM     74  C   UNL A   1      31.517  22.724  26.332  1.00  0.00     0.005 C 
ATOM     75  C   UNL A   1      33.590  24.073  25.956  1.00  0.00     0.120 C 
ATOM     76  C   UNL A   1      32.142  24.107  26.392  1.00  0.00     0.022 C 
BRANCH  73  77
ATOM     77  C   UNL A   1      33.831  24.325  23.475  1.00  0.00     0.233 C 
ATOM     78  O   UNL A   1      34.437  23.921  22.479  1.00  0.00    -0.274 OA
BRANCH  77  79
ATOM     79  C   UNL A   1      33.243  25.727  23.462  1.00  0.00     0.170 C 
BRANCH  79  80
ATOM     80  S   UNL A   1      31.592  25.786  22.687  1.00  0.00    -0.147 SA
BRANCH  80  81
ATOM     81  C   UNL A   1      30.543  26.419  24.023  1.00  0.00     0.105 C 
BRANCH  81  82
ATOM     82  C   UNL A   1      29.653  27.570  23.624  1.00  0.00    -0.038 A 
ATOM     83  C   UNL A   1      28.262  27.433  23.536  1.00  0.00     0.004 A 
ATOM     84  C   UNL A   1      30.207  28.835  23.371  1.00  0.00     0.004 A 
ATOM     85  C   UNL A   1      27.453  28.499  23.145  1.00  0.00     0.000 A 
ATOM     86  C   UNL A   1      29.393  29.914  23.015  1.00  0.00     0.000 A 
ATOM     87  C   UNL A   1      28.019  29.741  22.886  1.00  0.00     0.000 A 
ENDBRANCH  81  82
ENDBRANCH  80  81
ENDBRANCH  79  80
ENDBRANCH  77  79
ENDBRANCH  73  77
ENDBRANCH  69  71
ENDBRANCH  68  69
ENDBRANCH  67  68
ENDBRANCH  66  67
ENDBRANCH   1  66
TORSDOF 22
ENDMDL
MODEL 3
REMARK VINA RESULT:      -9.9      1.613      3.292
REMARK SMILES O=C(OCCOCCOCCOC(=O)[C@H]1CCCCN1C(=O)CSCc1ccccc1)c1ccc(-c2c3nc(c(-c4c(F)cccc4F)c4ccc([nH]4)c(-c4c(F)cccc4F)c4nc(c(-c5c(F)cccc5F)c5ccc2[nH]5)C=C4)C=C3)cc1
REMARK SMILES IDX 9 1 8 2 7 3 6 4 5 5 4 6 3 7 2 8 1 9 32 10 33 11 85 12 34 13
REMARK SMILES IDX 84 14 35 15 36 16 37 17 78 18 38 19 83 20 77 21 79 22 39 23
REMARK SMILES IDX 82 24 76 25 75 26 40 28 66 29 49 30 65 31 50 32 53 33 64 34
REMARK SMILES IDX 80 35 51 36 52 37 63 39 81 40 54 41 41 42 42 43 47 44 43 45
REMARK SMILES IDX 44 46 46 47 48 48 45 49 67 50 68 51 73 52 69 53 70 54 72 55
REMARK SMILES IDX 74 56 71 57 55 58 56 59 61 60 57 61 58 62 60 63 62 64 59 65
REMARK SMILES IDX 10 66 11 67 12 68 13 69 14 70 15 71 16 72 20 73 17 74 19 75
REMARK SMILES IDX 18 76 21 77 22 78 23 79 24 80 25 81 26 82 27 83 31 84 28 85
REMARK SMILES IDX 30 86 29 87
REMARK H PARENT 79 27 53 38
REMARK Flexibility Score: inf
ROOT
ATOM      1  O   UNL A   1      40.313  22.295  26.234  1.00  0.00    -0.376 OA
ENDROOT
BRANCH   1   2
ATOM      2  C   UNL A   1      40.364  20.869  26.256  1.00  0.00     0.188 C 
BRANCH   2   3
ATOM      3  C   UNL A   1      41.751  20.252  26.439  1.00  0.00     0.188 C 
BRANCH   3   4
ATOM      4  O   UNL A   1      42.636  20.617  25.368  1.00  0.00    -0.376 OA
BRANCH   4   5
ATOM      5  C   UNL A   1      44.011  20.405  25.679  1.00  0.00     0.202 C 
BRANCH   5   6
ATOM      6  C   UNL A   1      44.998  21.420  25.088  1.00  0.00     0.261 C 
BRANCH   6   7
ATOM      7  O   UNL A   1      45.006  22.718  25.705  1.00  0.00    -0.460 OA
BRANCH   7   8
ATOM      8  C   UNL A   1      44.154  23.761  25.613  1.00  0.00     0.338 C 
ATOM      9  O   UNL A   1      43.761  24.079  24.491  1.00  0.00    -0.246 OA
BRANCH   8  10
ATOM     10  C   UNL A   1      43.647  24.558  26.777  1.00  0.00     0.060 A 
ATOM     11  C   UNL A   1      42.633  24.175  27.656  1.00  0.00     0.016 A 
ATOM     12  C   UNL A   1      44.232  25.826  26.975  1.00  0.00     0.016 A 
ATOM     13  C   UNL A   1      42.215  25.002  28.701  1.00  0.00     0.010 A 
ATOM     14  C   UNL A   1      43.825  26.659  28.025  1.00  0.00     0.010 A 
ATOM     15  C   UNL A   1      42.806  26.246  28.898  1.00  0.00    -0.014 A 
BRANCH  15  16
ATOM     16  C   UNL A   1      42.240  27.175  29.899  1.00  0.00     0.031 A 
ATOM     17  C   UNL A   1      42.861  27.164  31.260  1.00  0.00     0.074 A 
ATOM     18  C   UNL A   1      41.337  28.128  29.592  1.00  0.00     0.049 A 
ATOM     19  N   UNL A   1      42.582  27.912  32.291  1.00  0.00    -0.248 NA
ATOM     20  C   UNL A   1      44.025  26.278  31.448  1.00  0.00     0.031 C 
ATOM     21  C   UNL A   1      40.907  28.497  28.248  1.00  0.00     0.029 A 
ATOM     22  N   UNL A   1      40.616  28.974  30.396  1.00  0.00    -0.354 N 
ATOM     23  C   UNL A   1      43.612  27.689  33.188  1.00  0.00     0.074 A 
ATOM     24  C   UNL A   1      44.441  26.635  32.650  1.00  0.00     0.031 C 
ATOM     25  C   UNL A   1      39.926  29.415  28.321  1.00  0.00     0.029 A 
ATOM     26  C   UNL A   1      39.645  29.684  29.720  1.00  0.00     0.049 A 
ATOM     27  H   UNL A   1      40.775  29.066  31.363  1.00  0.00     0.167 HD
ATOM     28  C   UNL A   1      43.884  28.377  34.316  1.00  0.00     0.037 A 
ATOM     29  C   UNL A   1      38.630  30.428  30.202  1.00  0.00     0.037 A 
ATOM     30  C   UNL A   1      43.006  29.368  34.867  1.00  0.00     0.049 A 
ATOM     31  C   UNL A   1      38.590  30.647  31.678  1.00  0.00     0.074 A 
ATOM     32  C   UNL A   1      43.141  30.105  36.027  1.00  0.00     0.029 A 
ATOM     33  N   UNL A   1      41.789  29.726  34.301  1.00  0.00    -0.354 N 
ATOM     34  N   UNL A   1      39.522  30.382  32.558  1.00  0.00    -0.248 NA
ATOM     35  C   UNL A   1      37.396  31.296  32.226  1.00  0.00     0.031 C 
ATOM     36  C   UNL A   1      41.967  30.852  36.201  1.00  0.00     0.029 A 
ATOM     37  C   UNL A   1      41.129  30.623  35.120  1.00  0.00     0.049 A 
ATOM     38  H   UNL A   1      41.447  29.389  33.441  1.00  0.00     0.167 HD
ATOM     39  C   UNL A   1      39.100  30.974  33.732  1.00  0.00     0.074 A 
ATOM     40  C   UNL A   1      37.768  31.494  33.483  1.00  0.00     0.031 C 
ATOM     41  C   UNL A   1      39.814  31.157  34.868  1.00  0.00     0.037 A 
BRANCH  28  42
ATOM     42  C   UNL A   1      45.174  28.041  34.993  1.00  0.00     0.057 A 
ATOM     43  C   UNL A   1      45.239  27.054  35.989  1.00  0.00     0.134 A 
ATOM     44  C   UNL A   1      46.337  28.762  34.715  1.00  0.00     0.134 A 
ATOM     45  F   UNL A   1      44.144  26.353  36.328  1.00  0.00    -0.206 F 
ATOM     46  C   UNL A   1      46.413  26.818  36.705  1.00  0.00     0.040 A 
ATOM     47  C   UNL A   1      47.522  28.523  35.413  1.00  0.00     0.040 A 
ATOM     48  F   UNL A   1      46.331  29.732  33.789  1.00  0.00    -0.206 F 
ATOM     49  C   UNL A   1      47.559  27.556  36.416  1.00  0.00     0.006 A 
ENDBRANCH  28  42
BRANCH  29  50
ATOM     50  C   UNL A   1      37.561  30.992  29.342  1.00  0.00     0.057 A 
ATOM     51  C   UNL A   1      37.556  32.325  28.926  1.00  0.00     0.134 A 
ATOM     52  C   UNL A   1      36.438  30.225  29.019  1.00  0.00     0.134 A 
ATOM     53  F   UNL A   1      38.542  33.152  29.299  1.00  0.00    -0.206 F 
ATOM     54  C   UNL A   1      36.502  32.851  28.168  1.00  0.00     0.040 A 
ATOM     55  C   UNL A   1      35.404  30.718  28.222  1.00  0.00     0.040 A 
ATOM     56  F   UNL A   1      36.286  29.012  29.560  1.00  0.00    -0.206 F 
ATOM     57  C   UNL A   1      35.435  32.038  27.789  1.00  0.00     0.006 A 
ENDBRANCH  29  50
BRANCH  41  58
ATOM     58  C   UNL A   1      39.243  32.125  35.848  1.00  0.00     0.057 A 
ATOM     59  C   UNL A   1      38.327  31.759  36.837  1.00  0.00     0.134 A 
ATOM     60  C   UNL A   1      39.624  33.472  35.774  1.00  0.00     0.134 A 
ATOM     61  F   UNL A   1      37.896  30.492  36.931  1.00  0.00    -0.206 F 
ATOM     62  C   UNL A   1      37.791  32.707  37.708  1.00  0.00     0.040 A 
ATOM     63  C   UNL A   1      39.123  34.421  36.658  1.00  0.00     0.040 A 
ATOM     64  F   UNL A   1      40.494  33.884  34.837  1.00  0.00    -0.206 F 
ATOM     65  C   UNL A   1      38.197  34.040  37.626  1.00  0.00     0.006 A 
ENDBRANCH  41  58
ENDBRANCH  15  16
ENDBRANCH   8  10
ENDBRANCH   7   8
ENDBRANCH   6   7
ENDBRANCH   5   6
ENDBRANCH   4   5
ENDBRANCH   3   4
ENDBRANCH   2   3
ENDBRANCH   1   2
BRANCH   1  66
ATOM     66  C   UNL A   1      39.065  22.907  26.523  1.00  0.00     0.202 C 
BRANCH  66  67
ATOM     67  C   UNL A   1      37.870  22.589  25.613  1.00  0.00     0.261 C 
BRANCH  67  68
ATOM     68  O   UNL A   1      37.389  23.659  24.789  1.00  0.00    -0.462 OA
BRANCH  68  69
ATOM     69  C   UNL A   1      36.421  23.326  23.887  1.00  0.00     0.328 C 
ATOM     70  O   UNL A   1      36.655  22.939  22.749  1.00  0.00    -0.250 OA
BRANCH  69  71
ATOM     71  C   UNL A   1      34.994  23.351  24.479  1.00  0.00     0.195 C 
ATOM     72  C   UNL A   1      34.430  24.780  24.626  1.00  0.00     0.037 C 
ATOM     73  N   UNL A   1      33.985  22.500  23.823  1.00  0.00    -0.328 N 
ATOM     74  C   UNL A   1      33.741  25.326  23.370  1.00  0.00     0.005 C 
ATOM     75  C   UNL A   1      33.503  22.978  22.542  1.00  0.00     0.120 C 
ATOM     76  C   UNL A   1      32.808  24.308  22.739  1.00  0.00     0.022 C 
BRANCH  73  77
ATOM     77  C   UNL A   1      33.339  21.523  24.575  1.00  0.00     0.233 C 
ATOM     78  O   UNL A   1      33.304  20.341  24.222  1.00  0.00    -0.274 OA
BRANCH  77  79
ATOM     79  C   UNL A   1      32.655  21.925  25.872  1.00  0.00     0.170 C 
BRANCH  79  80
ATOM     80  S   UNL A   1      30.985  22.608  25.599  1.00  0.00    -0.147 SA
BRANCH  80  81
ATOM     81  C   UNL A   1      30.950  24.041  26.709  1.00  0.00     0.105 C 
BRANCH  81  82
ATOM     82  C   UNL A   1      30.992  25.375  26.005  1.00  0.00    -0.038 A 
ATOM     83  C   UNL A   1      30.168  25.658  24.908  1.00  0.00     0.004 A 
ATOM     84  C   UNL A   1      31.841  26.392  26.471  1.00  0.00     0.004 A 
ATOM     85  C   UNL A   1      30.232  26.887  24.253  1.00  0.00     0.000 A 
ATOM     86  C   UNL A   1      31.879  27.637  25.837  1.00  0.00     0.000 A 
ATOM     87  C   UNL A   1      31.087  27.878  24.719  1.00  0.00     0.000 A 
ENDBRANCH  81  82
ENDBRANCH  80  81
ENDBRANCH  79  80
ENDBRANCH  77  79
ENDBRANCH  73  77
ENDBRANCH  69  71
ENDBRANCH  68  69
ENDBRANCH  67  68
ENDBRANCH  66  67
ENDBRANCH   1  66
TORSDOF 22
ENDMDL
