MODEL 1
REMARK VINA RESULT:     -11.2      0.000      0.000
REMARK SMILES COc1cc2c(CC(=O)OCCOCCOCCOC(=O)c3ccc(-c4c5nc(c(-c6c(F)cccc6F)c6ccc([nH]6)c(-c6c(F)cccc6F)c6nc(c(-c7c(F)cccc7F)c7ccc4[nH]7)C=C6)C=C5)cc3)c(C)n(C(=O)c3ccc(Cl)cc3)c2cc1Cl
REMARK SMILES IDX 14 1 13 2 12 3 11 4 10 5 8 6 9 7 7 8 6 9 3 10 4 11 90 12
REMARK SMILES IDX 5 13 89 14 91 15 88 16 76 17 78 18 77 19 2 20 1 21 79 22
REMARK SMILES IDX 80 23 81 24 82 25 87 26 83 27 86 28 84 29 85 30 15 31 16 32
REMARK SMILES IDX 17 33 18 34 19 35 20 36 21 37 22 38 23 39 75 40 24 41 74 42
REMARK SMILES IDX 25 43 26 44 27 45 68 46 28 47 73 48 67 49 69 50 29 51 72 52
REMARK SMILES IDX 66 53 65 54 30 56 56 57 39 58 55 59 40 60 43 61 54 62 70 63
REMARK SMILES IDX 41 64 42 65 53 67 71 68 44 69 31 70 32 71 37 72 33 73 34 74
REMARK SMILES IDX 36 75 38 76 35 77 57 78 58 79 63 80 59 81 60 82 62 83 64 84
REMARK SMILES IDX 61 85 45 86 46 87 51 88 47 89 48 90 50 91 52 92 49 93
REMARK H PARENT 69 55 43 66
REMARK Flexibility Score: inf
ROOT
ATOM      1  C   UNL A   1      41.946  19.978  26.969  1.00  0.00     0.188 C 
ENDROOT
BRANCH   1   2
ATOM      2  O   UNL A   1      41.425  20.761  25.916  1.00  0.00    -0.376 OA
BRANCH   2   3
ATOM      3  C   UNL A   1      40.528  21.802  26.273  1.00  0.00     0.202 C 
BRANCH   3   4
ATOM      4  C   UNL A   1      39.035  21.473  26.117  1.00  0.00     0.261 C 
BRANCH   4   5
ATOM      5  O   UNL A   1      38.425  22.216  25.024  1.00  0.00    -0.463 OA
BRANCH   5   6
ATOM      6  C   UNL A   1      37.476  23.125  25.367  1.00  0.00     0.310 C 
ATOM      7  O   UNL A   1      37.530  23.759  26.421  1.00  0.00    -0.252 OA
BRANCH   6   8
ATOM      8  C   UNL A   1      36.511  23.526  24.248  1.00  0.00     0.160 C 
BRANCH   8   9
ATOM      9  C   UNL A   1      35.028  23.252  24.215  1.00  0.00    -0.008 A 
ATOM     10  C   UNL A   1      32.722  26.205  23.094  1.00  0.00     0.138 A 
ATOM     11  C   UNL A   1      33.850  25.352  23.110  1.00  0.00     0.058 A 
ATOM     12  C   UNL A   1      31.606  25.787  23.779  1.00  0.00     0.085 A 
ATOM     13  C   UNL A   1      33.960  24.141  23.821  1.00  0.00     0.008 A 
ATOM     14  C   UNL A   1      31.634  24.542  24.435  1.00  0.00     0.051 A 
ATOM     15  Cl  UNL A   1      30.115  26.654  23.837  1.00  0.00    -0.080 Cl
ATOM     16  C   UNL A   1      32.791  23.706  24.422  1.00  0.00     0.058 A 
ATOM     17  C   UNL A   1      34.423  22.254  24.973  1.00  0.00     0.028 A 
ATOM     18  N   UNL A   1      33.040  22.402  24.867  1.00  0.00    -0.280 N 
ATOM     19  C   UNL A   1      35.131  21.238  25.811  1.00  0.00     0.065 C 
BRANCH  10  20
ATOM     20  O   UNL A   1      32.958  27.337  22.378  1.00  0.00    -0.495 OA
ATOM     21  C   UNL A   1      32.756  28.658  22.853  1.00  0.00     0.278 C 
ENDBRANCH  10  20
BRANCH  18  22
ATOM     22  C   UNL A   1      32.046  21.415  25.118  1.00  0.00     0.262 C 
ATOM     23  O   UNL A   1      31.062  21.675  25.750  1.00  0.00    -0.268 OA
BRANCH  22  24
ATOM     24  C   UNL A   1      32.248  20.027  24.640  1.00  0.00     0.040 A 
ATOM     25  C   UNL A   1      32.638  19.045  25.561  1.00  0.00     0.015 A 
ATOM     26  C   UNL A   1      32.297  19.803  23.263  1.00  0.00     0.015 A 
ATOM     27  C   UNL A   1      33.154  17.840  25.087  1.00  0.00     0.021 A 
ATOM     28  C   UNL A   1      32.826  18.598  22.800  1.00  0.00     0.021 A 
ATOM     29  C   UNL A   1      33.266  17.633  23.711  1.00  0.00     0.041 A 
ATOM     30  Cl  UNL A   1      34.018  16.199  23.130  1.00  0.00    -0.084 Cl
ENDBRANCH  22  24
ENDBRANCH  18  22
ENDBRANCH   8   9
ENDBRANCH   6   8
ENDBRANCH   5   6
ENDBRANCH   4   5
ENDBRANCH   3   4
ENDBRANCH   2   3
ENDBRANCH   1   2
BRANCH   1  31
ATOM     31  C   UNL A   1      42.586  18.624  26.636  1.00  0.00     0.188 C 
BRANCH  31  32
ATOM     32  O   UNL A   1      43.114  18.423  25.354  1.00  0.00    -0.376 OA
BRANCH  32  33
ATOM     33  C   UNL A   1      44.451  18.822  25.129  1.00  0.00     0.202 C 
BRANCH  33  34
ATOM     34  C   UNL A   1      44.886  19.581  23.842  1.00  0.00     0.261 C 
BRANCH  34  35
ATOM     35  O   UNL A   1      45.607  20.830  24.048  1.00  0.00    -0.460 OA
BRANCH  35  36
ATOM     36  C   UNL A   1      44.902  21.985  23.817  1.00  0.00     0.338 C 
ATOM     37  O   UNL A   1      44.245  22.211  22.812  1.00  0.00    -0.246 OA
BRANCH  36  38
ATOM     38  C   UNL A   1      44.690  22.751  25.100  1.00  0.00     0.060 A 
ATOM     39  C   UNL A   1      45.365  22.600  26.304  1.00  0.00     0.016 A 
ATOM     40  C   UNL A   1      43.621  23.647  25.088  1.00  0.00     0.016 A 
ATOM     41  C   UNL A   1      44.864  23.241  27.471  1.00  0.00     0.010 A 
ATOM     42  C   UNL A   1      43.076  24.229  26.232  1.00  0.00     0.010 A 
ATOM     43  C   UNL A   1      43.669  24.002  27.461  1.00  0.00    -0.014 A 
BRANCH  43  44
ATOM     44  C   UNL A   1      43.267  24.892  28.576  1.00  0.00     0.031 A 
ATOM     45  C   UNL A   1      41.982  25.532  28.273  1.00  0.00     0.074 A 
ATOM     46  C   UNL A   1      43.768  25.126  29.815  1.00  0.00     0.049 A 
ATOM     47  N   UNL A   1      41.887  26.667  27.673  1.00  0.00    -0.248 NA
ATOM     48  C   UNL A   1      40.715  24.818  28.450  1.00  0.00     0.031 C 
ATOM     49  C   UNL A   1      44.940  24.543  30.432  1.00  0.00     0.029 A 
ATOM     50  N   UNL A   1      43.319  25.959  30.818  1.00  0.00    -0.354 N 
ATOM     51  C   UNL A   1      40.542  26.948  27.653  1.00  0.00     0.074 A 
ATOM     52  C   UNL A   1      39.868  25.696  27.903  1.00  0.00     0.031 C 
ATOM     53  C   UNL A   1      44.997  24.817  31.758  1.00  0.00     0.029 A 
ATOM     54  C   UNL A   1      43.991  25.825  32.042  1.00  0.00     0.049 A 
ATOM     55  H   UNL A   1      42.583  26.599  30.685  1.00  0.00     0.167 HD
ATOM     56  C   UNL A   1      40.135  28.239  27.758  1.00  0.00     0.037 A 
ATOM     57  C   UNL A   1      43.920  26.612  33.152  1.00  0.00     0.037 A 
ATOM     58  C   UNL A   1      41.241  29.162  27.570  1.00  0.00     0.049 A 
ATOM     59  C   UNL A   1      43.537  27.956  32.680  1.00  0.00     0.074 A 
ATOM     60  C   UNL A   1      42.200  29.354  26.590  1.00  0.00     0.029 A 
ATOM     61  N   UNL A   1      41.735  29.791  28.687  1.00  0.00    -0.354 N 
ATOM     62  N   UNL A   1      44.323  28.735  31.996  1.00  0.00    -0.248 NA
ATOM     63  C   UNL A   1      42.127  28.293  32.640  1.00  0.00     0.031 C 
ATOM     64  C   UNL A   1      43.402  29.689  27.287  1.00  0.00     0.029 A 
ATOM     65  C   UNL A   1      43.108  29.749  28.648  1.00  0.00     0.049 A 
ATOM     66  H   UNL A   1      41.195  30.203  29.399  1.00  0.00     0.167 HD
ATOM     67  C   UNL A   1      43.485  29.323  31.066  1.00  0.00     0.074 A 
ATOM     68  C   UNL A   1      42.139  29.124  31.597  1.00  0.00     0.031 C 
ATOM     69  C   UNL A   1      43.947  29.660  29.826  1.00  0.00     0.037 A 
BRANCH  56  70
ATOM     70  C   UNL A   1      38.850  28.632  28.425  1.00  0.00     0.057 A 
ATOM     71  C   UNL A   1      38.548  28.390  29.782  1.00  0.00     0.134 A 
ATOM     72  C   UNL A   1      37.978  29.501  27.757  1.00  0.00     0.134 A 
ATOM     73  F   UNL A   1      39.359  27.695  30.588  1.00  0.00    -0.206 F 
ATOM     74  C   UNL A   1      37.438  28.945  30.419  1.00  0.00     0.040 A 
ATOM     75  C   UNL A   1      36.899  30.113  28.403  1.00  0.00     0.040 A 
ATOM     76  F   UNL A   1      38.194  29.839  26.477  1.00  0.00    -0.206 F 
ATOM     77  C   UNL A   1      36.623  29.831  29.736  1.00  0.00     0.006 A 
ENDBRANCH  56  70
BRANCH  57  78
ATOM     78  C   UNL A   1      44.092  26.341  34.603  1.00  0.00     0.057 A 
ATOM     79  C   UNL A   1      42.975  26.136  35.425  1.00  0.00     0.134 A 
ATOM     80  C   UNL A   1      45.300  26.617  35.273  1.00  0.00     0.134 A 
ATOM     81  F   UNL A   1      41.766  25.912  34.889  1.00  0.00    -0.206 F 
ATOM     82  C   UNL A   1      43.038  26.254  36.822  1.00  0.00     0.040 A 
ATOM     83  C   UNL A   1      45.379  26.737  36.668  1.00  0.00     0.040 A 
ATOM     84  F   UNL A   1      46.426  26.855  34.584  1.00  0.00    -0.206 F 
ATOM     85  C   UNL A   1      44.239  26.576  37.448  1.00  0.00     0.006 A 
ENDBRANCH  57  78
BRANCH  69  86
ATOM     86  C   UNL A   1      45.446  29.739  29.640  1.00  0.00     0.057 A 
ATOM     87  C   UNL A   1      46.122  28.600  29.184  1.00  0.00     0.134 A 
ATOM     88  C   UNL A   1      46.242  30.855  29.947  1.00  0.00     0.134 A 
ATOM     89  F   UNL A   1      45.441  27.478  28.906  1.00  0.00    -0.206 F 
ATOM     90  C   UNL A   1      47.511  28.574  29.024  1.00  0.00     0.040 A 
ATOM     91  C   UNL A   1      47.630  30.853  29.758  1.00  0.00     0.040 A 
ATOM     92  F   UNL A   1      45.710  31.965  30.471  1.00  0.00    -0.206 F 
ATOM     93  C   UNL A   1      48.270  29.707  29.298  1.00  0.00     0.006 A 
ENDBRANCH  69  86
ENDBRANCH  43  44
ENDBRANCH  36  38
ENDBRANCH  35  36
ENDBRANCH  34  35
ENDBRANCH  33  34
ENDBRANCH  32  33
ENDBRANCH  31  32
ENDBRANCH   1  31
TORSDOF 21
ENDMDL
MODEL 2
REMARK VINA RESULT:     -11.0      1.883      5.107
REMARK SMILES COc1cc2c(CC(=O)OCCOCCOCCOC(=O)c3ccc(-c4c5nc(c(-c6c(F)cccc6F)c6ccc([nH]6)c(-c6c(F)cccc6F)c6nc(c(-c7c(F)cccc7F)c7ccc4[nH]7)C=C6)C=C5)cc3)c(C)n(C(=O)c3ccc(Cl)cc3)c2cc1Cl
REMARK SMILES IDX 14 1 13 2 12 3 11 4 10 5 8 6 9 7 7 8 6 9 3 10 4 11 90 12
REMARK SMILES IDX 5 13 89 14 91 15 88 16 76 17 78 18 77 19 2 20 1 21 79 22
REMARK SMILES IDX 80 23 81 24 82 25 87 26 83 27 86 28 84 29 85 30 15 31 16 32
REMARK SMILES IDX 17 33 18 34 19 35 20 36 21 37 22 38 23 39 75 40 24 41 74 42
REMARK SMILES IDX 25 43 26 44 27 45 68 46 28 47 73 48 67 49 69 50 29 51 72 52
REMARK SMILES IDX 66 53 65 54 30 56 56 57 39 58 55 59 40 60 43 61 54 62 70 63
REMARK SMILES IDX 41 64 42 65 53 67 71 68 44 69 31 70 32 71 37 72 33 73 34 74
REMARK SMILES IDX 36 75 38 76 35 77 57 78 58 79 63 80 59 81 60 82 62 83 64 84
REMARK SMILES IDX 61 85 45 86 46 87 51 88 47 89 48 90 50 91 52 92 49 93
REMARK H PARENT 69 55 43 66
REMARK Flexibility Score: inf
ROOT
ATOM      1  C   UNL A   1      42.245  20.361  26.890  1.00  0.00     0.188 C 
ENDROOT
BRANCH   1   2
ATOM      2  O   UNL A   1      41.755  21.055  25.763  1.00  0.00    -0.376 OA
BRANCH   2   3
ATOM      3  C   UNL A   1      41.061  22.270  26.010  1.00  0.00     0.202 C 
BRANCH   3   4
ATOM      4  C   UNL A   1      39.818  22.151  26.906  1.00  0.00     0.261 C 
BRANCH   4   5
ATOM      5  O   UNL A   1      38.589  22.092  26.128  1.00  0.00    -0.463 OA
BRANCH   5   6
ATOM      6  C   UNL A   1      37.846  23.227  26.086  1.00  0.00     0.310 C 
ATOM      7  O   UNL A   1      37.968  24.119  26.925  1.00  0.00    -0.252 OA
BRANCH   6   8
ATOM      8  C   UNL A   1      37.072  23.461  24.786  1.00  0.00     0.160 C 
BRANCH   8   9
ATOM      9  C   UNL A   1      35.645  23.049  24.516  1.00  0.00    -0.008 A 
ATOM     10  C   UNL A   1      32.867  25.645  25.430  1.00  0.00     0.138 A 
ATOM     11  C   UNL A   1      34.106  25.161  24.951  1.00  0.00     0.058 A 
ATOM     12  C   UNL A   1      31.868  24.723  25.638  1.00  0.00     0.085 A 
ATOM     13  C   UNL A   1      34.437  23.810  24.730  1.00  0.00     0.008 A 
ATOM     14  C   UNL A   1      32.119  23.368  25.349  1.00  0.00     0.051 A 
ATOM     15  Cl  UNL A   1      30.273  25.115  26.165  1.00  0.00    -0.080 Cl
ATOM     16  C   UNL A   1      33.383  22.921  24.859  1.00  0.00     0.058 A 
ATOM     17  C   UNL A   1      35.241  21.720  24.434  1.00  0.00     0.028 A 
ATOM     18  N   UNL A   1      33.848  21.689  24.382  1.00  0.00    -0.280 N 
ATOM     19  C   UNL A   1      36.140  20.526  24.464  1.00  0.00     0.065 C 
BRANCH  10  20
ATOM     20  O   UNL A   1      32.889  26.993  25.613  1.00  0.00    -0.495 OA
ATOM     21  C   UNL A   1      33.818  27.880  25.010  1.00  0.00     0.278 C 
ENDBRANCH  10  20
BRANCH  18  22
ATOM     22  C   UNL A   1      33.027  20.632  23.898  1.00  0.00     0.262 C 
ATOM     23  O   UNL A   1      32.137  20.846  23.125  1.00  0.00    -0.268 OA
BRANCH  22  24
ATOM     24  C   UNL A   1      33.233  19.251  24.393  1.00  0.00     0.040 A 
ATOM     25  C   UNL A   1      33.578  18.249  23.477  1.00  0.00     0.015 A 
ATOM     26  C   UNL A   1      32.826  18.949  25.694  1.00  0.00     0.015 A 
ATOM     27  C   UNL A   1      33.444  16.913  23.853  1.00  0.00     0.021 A 
ATOM     28  C   UNL A   1      32.684  17.608  26.056  1.00  0.00     0.021 A 
ATOM     29  C   UNL A   1      32.977  16.601  25.131  1.00  0.00     0.041 A 
ATOM     30  Cl  UNL A   1      32.693  14.957  25.550  1.00  0.00    -0.084 Cl
ENDBRANCH  22  24
ENDBRANCH  18  22
ENDBRANCH   8   9
ENDBRANCH   6   8
ENDBRANCH   5   6
ENDBRANCH   4   5
ENDBRANCH   3   4
ENDBRANCH   2   3
ENDBRANCH   1   2
BRANCH   1  31
ATOM     31  C   UNL A   1      42.302  18.827  26.844  1.00  0.00     0.188 C 
BRANCH  31  32
ATOM     32  O   UNL A   1      42.989  18.208  25.793  1.00  0.00    -0.376 OA
BRANCH  32  33
ATOM     33  C   UNL A   1      44.398  18.141  25.882  1.00  0.00     0.202 C 
BRANCH  33  34
ATOM     34  C   UNL A   1      45.328  18.687  24.761  1.00  0.00     0.261 C 
BRANCH  34  35
ATOM     35  O   UNL A   1      45.861  20.028  24.965  1.00  0.00    -0.460 OA
BRANCH  35  36
ATOM     36  C   UNL A   1      45.293  21.029  24.217  1.00  0.00     0.338 C 
ATOM     37  O   UNL A   1      44.715  20.861  23.154  1.00  0.00    -0.246 OA
BRANCH  36  38
ATOM     38  C   UNL A   1      45.100  22.276  25.045  1.00  0.00     0.060 A 
ATOM     39  C   UNL A   1      45.618  22.550  26.304  1.00  0.00     0.016 A 
ATOM     40  C   UNL A   1      44.216  23.213  24.512  1.00  0.00     0.016 A 
ATOM     41  C   UNL A   1      45.130  23.673  27.031  1.00  0.00     0.010 A 
ATOM     42  C   UNL A   1      43.678  24.278  25.233  1.00  0.00     0.010 A 
ATOM     43  C   UNL A   1      44.098  24.505  26.531  1.00  0.00    -0.014 A 
BRANCH  43  44
ATOM     44  C   UNL A   1      43.758  25.818  27.128  1.00  0.00     0.031 A 
ATOM     45  C   UNL A   1      44.734  26.831  26.708  1.00  0.00     0.074 A 
ATOM     46  C   UNL A   1      42.704  26.275  27.851  1.00  0.00     0.049 A 
ATOM     47  N   UNL A   1      45.804  27.095  27.374  1.00  0.00    -0.248 NA
ATOM     48  C   UNL A   1      44.655  27.463  25.388  1.00  0.00     0.031 C 
ATOM     49  C   UNL A   1      41.539  25.541  28.296  1.00  0.00     0.029 A 
ATOM     50  N   UNL A   1      42.443  27.531  28.353  1.00  0.00    -0.354 N 
ATOM     51  C   UNL A   1      46.394  28.138  26.701  1.00  0.00     0.074 A 
ATOM     52  C   UNL A   1      45.801  28.152  25.384  1.00  0.00     0.031 C 
ATOM     53  C   UNL A   1      40.579  26.369  28.775  1.00  0.00     0.029 A 
ATOM     54  C   UNL A   1      41.166  27.689  28.913  1.00  0.00     0.049 A 
ATOM     55  H   UNL A   1      43.101  28.262  28.321  1.00  0.00     0.167 HD
ATOM     56  C   UNL A   1      47.069  29.080  27.406  1.00  0.00     0.037 A 
ATOM     57  C   UNL A   1      40.672  28.725  29.648  1.00  0.00     0.037 A 
ATOM     58  C   UNL A   1      47.310  28.651  28.773  1.00  0.00     0.049 A 
ATOM     59  C   UNL A   1      41.834  29.355  30.304  1.00  0.00     0.074 A 
ATOM     60  C   UNL A   1      47.887  27.537  29.361  1.00  0.00     0.029 A 
ATOM     61  N   UNL A   1      46.550  29.229  29.760  1.00  0.00    -0.354 N 
ATOM     62  N   UNL A   1      42.512  28.801  31.266  1.00  0.00    -0.248 NA
ATOM     63  C   UNL A   1      42.489  30.458  29.627  1.00  0.00     0.031 C 
ATOM     64  C   UNL A   1      47.093  27.259  30.517  1.00  0.00     0.029 A 
ATOM     65  C   UNL A   1      46.115  28.246  30.616  1.00  0.00     0.049 A 
ATOM     66  H   UNL A   1      46.350  30.189  29.841  1.00  0.00     0.167 HD
ATOM     67  C   UNL A   1      43.825  29.134  30.986  1.00  0.00     0.074 A 
ATOM     68  C   UNL A   1      43.735  30.259  30.058  1.00  0.00     0.031 C 
ATOM     69  C   UNL A   1      44.844  28.285  31.311  1.00  0.00     0.037 A 
BRANCH  56  70
ATOM     70  C   UNL A   1      47.138  30.517  26.979  1.00  0.00     0.057 A 
ATOM     71  C   UNL A   1      46.015  31.353  26.804  1.00  0.00     0.134 A 
ATOM     72  C   UNL A   1      48.380  31.165  26.979  1.00  0.00     0.134 A 
ATOM     73  F   UNL A   1      44.759  30.905  26.918  1.00  0.00    -0.206 F 
ATOM     74  C   UNL A   1      46.121  32.730  26.608  1.00  0.00     0.040 A 
ATOM     75  C   UNL A   1      48.494  32.553  26.846  1.00  0.00     0.040 A 
ATOM     76  F   UNL A   1      49.512  30.476  27.183  1.00  0.00    -0.206 F 
ATOM     77  C   UNL A   1      47.363  33.338  26.654  1.00  0.00     0.006 A 
ENDBRANCH  56  70
BRANCH  57  78
ATOM     78  C   UNL A   1      39.308  29.288  29.823  1.00  0.00     0.057 A 
ATOM     79  C   UNL A   1      38.650  29.183  31.057  1.00  0.00     0.134 A 
ATOM     80  C   UNL A   1      38.494  29.620  28.723  1.00  0.00     0.134 A 
ATOM     81  F   UNL A   1      39.323  28.826  32.161  1.00  0.00    -0.206 F 
ATOM     82  C   UNL A   1      37.261  29.341  31.183  1.00  0.00     0.040 A 
ATOM     83  C   UNL A   1      37.104  29.782  28.835  1.00  0.00     0.040 A 
ATOM     84  F   UNL A   1      39.014  29.721  27.492  1.00  0.00    -0.206 F 
ATOM     85  C   UNL A   1      36.480  29.621  30.066  1.00  0.00     0.006 A 
ENDBRANCH  57  78
BRANCH  69  86
ATOM     86  C   UNL A   1      44.545  27.191  32.311  1.00  0.00     0.057 A 
ATOM     87  C   UNL A   1      44.261  25.907  31.830  1.00  0.00     0.134 A 
ATOM     88  C   UNL A   1      44.467  27.366  33.703  1.00  0.00     0.134 A 
ATOM     89  F   UNL A   1      44.274  25.663  30.511  1.00  0.00    -0.206 F 
ATOM     90  C   UNL A   1      43.934  24.848  32.683  1.00  0.00     0.040 A 
ATOM     91  C   UNL A   1      44.175  26.306  34.571  1.00  0.00     0.040 A 
ATOM     92  F   UNL A   1      44.635  28.570  34.262  1.00  0.00    -0.206 F 
ATOM     93  C   UNL A   1      43.903  25.041  34.060  1.00  0.00     0.006 A 
ENDBRANCH  69  86
ENDBRANCH  43  44
ENDBRANCH  36  38
ENDBRANCH  35  36
ENDBRANCH  34  35
ENDBRANCH  33  34
ENDBRANCH  32  33
ENDBRANCH  31  32
ENDBRANCH   1  31
TORSDOF 21
ENDMDL
MODEL 3
REMARK VINA RESULT:     -11.0      2.767      8.476
REMARK SMILES COc1cc2c(CC(=O)OCCOCCOCCOC(=O)c3ccc(-c4c5nc(c(-c6c(F)cccc6F)c6ccc([nH]6)c(-c6c(F)cccc6F)c6nc(c(-c7c(F)cccc7F)c7ccc4[nH]7)C=C6)C=C5)cc3)c(C)n(C(=O)c3ccc(Cl)cc3)c2cc1Cl
REMARK SMILES IDX 14 1 13 2 12 3 11 4 10 5 8 6 9 7 7 8 6 9 3 10 4 11 90 12
REMARK SMILES IDX 5 13 89 14 91 15 88 16 76 17 78 18 77 19 2 20 1 21 79 22
REMARK SMILES IDX 80 23 81 24 82 25 87 26 83 27 86 28 84 29 85 30 15 31 16 32
REMARK SMILES IDX 17 33 18 34 19 35 20 36 21 37 22 38 23 39 75 40 24 41 74 42
REMARK SMILES IDX 25 43 26 44 27 45 68 46 28 47 73 48 67 49 69 50 29 51 72 52
REMARK SMILES IDX 66 53 65 54 30 56 56 57 39 58 55 59 40 60 43 61 54 62 70 63
REMARK SMILES IDX 41 64 42 65 53 67 71 68 44 69 31 70 32 71 37 72 33 73 34 74
REMARK SMILES IDX 36 75 38 76 35 77 57 78 58 79 63 80 59 81 60 82 62 83 64 84
REMARK SMILES IDX 61 85 45 86 46 87 51 88 47 89 48 90 50 91 52 92 49 93
REMARK H PARENT 69 55 43 66
REMARK Flexibility Score: inf
ROOT
ATOM      1  C   UNL A   1      31.596  28.867  23.667  1.00  0.00     0.188 C 
ENDROOT
BRANCH   1   2
ATOM      2  O   UNL A   1      30.350  28.467  24.196  1.00  0.00    -0.376 OA
BRANCH   2   3
ATOM      3  C   UNL A   1      29.504  27.711  23.343  1.00  0.00     0.202 C 
BRANCH   3   4
ATOM      4  C   UNL A   1      29.091  26.329  23.876  1.00  0.00     0.261 C 
BRANCH   4   5
ATOM      5  O   UNL A   1      30.153  25.704  24.651  1.00  0.00    -0.463 OA
BRANCH   5   6
ATOM      6  C   UNL A   1      30.897  24.767  24.009  1.00  0.00     0.310 C 
ATOM      7  O   UNL A   1      31.131  24.832  22.803  1.00  0.00    -0.252 OA
BRANCH   6   8
ATOM      8  C   UNL A   1      31.665  23.801  24.916  1.00  0.00     0.160 C 
BRANCH   8   9
ATOM      9  C   UNL A   1      32.998  23.164  24.608  1.00  0.00    -0.008 A 
ATOM     10  C   UNL A   1      33.046  19.269  24.266  1.00  0.00     0.138 A 
ATOM     11  C   UNL A   1      32.568  20.594  24.135  1.00  0.00     0.058 A 
ATOM     12  C   UNL A   1      34.362  19.107  24.626  1.00  0.00     0.085 A 
ATOM     13  C   UNL A   1      33.299  21.767  24.405  1.00  0.00     0.008 A 
ATOM     14  C   UNL A   1      35.162  20.248  24.823  1.00  0.00     0.051 A 
ATOM     15  Cl  UNL A   1      35.149  17.579  24.784  1.00  0.00    -0.080 Cl
ATOM     16  C   UNL A   1      34.643  21.570  24.674  1.00  0.00     0.058 A 
ATOM     17  C   UNL A   1      34.215  23.770  24.905  1.00  0.00     0.028 A 
ATOM     18  N   UNL A   1      35.231  22.840  24.683  1.00  0.00    -0.280 N 
ATOM     19  C   UNL A   1      34.400  25.155  25.435  1.00  0.00     0.065 C 
BRANCH  10  20
ATOM     20  O   UNL A   1      32.071  18.355  24.007  1.00  0.00    -0.495 OA
ATOM     21  C   UNL A   1      32.153  17.336  23.025  1.00  0.00     0.278 C 
ENDBRANCH  10  20
BRANCH  18  22
ATOM     22  C   UNL A   1      36.611  23.109  24.461  1.00  0.00     0.262 C 
ATOM     23  O   UNL A   1      37.015  23.406  23.373  1.00  0.00    -0.268 OA
BRANCH  22  24
ATOM     24  C   UNL A   1      37.579  22.970  25.574  1.00  0.00     0.040 A 
ATOM     25  C   UNL A   1      37.846  24.084  26.381  1.00  0.00     0.015 A 
ATOM     26  C   UNL A   1      38.376  21.824  25.617  1.00  0.00     0.015 A 
ATOM     27  C   UNL A   1      38.977  24.074  27.196  1.00  0.00     0.021 A 
ATOM     28  C   UNL A   1      39.512  21.829  26.427  1.00  0.00     0.021 A 
ATOM     29  C   UNL A   1      39.815  22.956  27.197  1.00  0.00     0.041 A 
ATOM     30  Cl  UNL A   1      41.274  22.995  28.107  1.00  0.00    -0.084 Cl
ENDBRANCH  22  24
ENDBRANCH  18  22
ENDBRANCH   8   9
ENDBRANCH   6   8
ENDBRANCH   5   6
ENDBRANCH   4   5
ENDBRANCH   3   4
ENDBRANCH   2   3
ENDBRANCH   1   2
BRANCH   1  31
ATOM     31  C   UNL A   1      32.673  29.389  24.628  1.00  0.00     0.188 C 
BRANCH  31  32
ATOM     32  O   UNL A   1      32.275  29.958  25.844  1.00  0.00    -0.376 OA
BRANCH  32  33
ATOM     33  C   UNL A   1      33.271  30.172  26.823  1.00  0.00     0.202 C 
BRANCH  33  34
ATOM     34  C   UNL A   1      33.490  31.557  27.498  1.00  0.00     0.261 C 
BRANCH  34  35
ATOM     35  O   UNL A   1      34.875  31.963  27.695  1.00  0.00    -0.460 OA
BRANCH  35  36
ATOM     36  C   UNL A   1      35.333  31.957  28.989  1.00  0.00     0.338 C 
ATOM     37  O   UNL A   1      34.728  32.422  29.943  1.00  0.00    -0.246 OA
BRANCH  36  38
ATOM     38  C   UNL A   1      36.450  30.957  29.160  1.00  0.00     0.060 A 
ATOM     39  C   UNL A   1      36.379  29.687  29.716  1.00  0.00     0.016 A 
ATOM     40  C   UNL A   1      37.717  31.415  28.801  1.00  0.00     0.016 A 
ATOM     41  C   UNL A   1      37.581  28.986  30.014  1.00  0.00     0.010 A 
ATOM     42  C   UNL A   1      38.907  30.773  29.145  1.00  0.00     0.010 A 
ATOM     43  C   UNL A   1      38.860  29.556  29.801  1.00  0.00    -0.014 A 
BRANCH  43  44
ATOM     44  C   UNL A   1      40.114  28.768  29.844  1.00  0.00     0.031 A 
ATOM     45  C   UNL A   1      40.575  28.628  31.230  1.00  0.00     0.074 A 
ATOM     46  C   UNL A   1      40.820  28.078  28.913  1.00  0.00     0.049 A 
ATOM     47  N   UNL A   1      41.382  29.460  31.790  1.00  0.00    -0.248 NA
ATOM     48  C   UNL A   1      39.979  27.641  32.135  1.00  0.00     0.031 C 
ATOM     49  C   UNL A   1      40.534  27.929  27.502  1.00  0.00     0.029 A 
ATOM     50  N   UNL A   1      41.977  27.338  29.035  1.00  0.00    -0.354 N 
ATOM     51  C   UNL A   1      41.624  28.938  33.038  1.00  0.00     0.074 A 
ATOM     52  C   UNL A   1      40.566  27.987  33.286  1.00  0.00     0.031 C 
ATOM     53  C   UNL A   1      41.308  26.973  26.932  1.00  0.00     0.029 A 
ATOM     54  C   UNL A   1      42.339  26.614  27.890  1.00  0.00     0.049 A 
ATOM     55  H   UNL A   1      42.508  27.318  29.864  1.00  0.00     0.167 HD
ATOM     56  C   UNL A   1      42.848  29.105  33.598  1.00  0.00     0.037 A 
ATOM     57  C   UNL A   1      43.499  25.949  27.624  1.00  0.00     0.037 A 
ATOM     58  C   UNL A   1      43.631  30.096  32.880  1.00  0.00     0.049 A 
ATOM     59  C   UNL A   1      44.546  26.614  28.422  1.00  0.00     0.074 A 
ATOM     60  C   UNL A   1      43.429  31.411  32.494  1.00  0.00     0.029 A 
ATOM     61  N   UNL A   1      44.652  29.638  32.083  1.00  0.00    -0.354 N 
ATOM     62  N   UNL A   1      44.999  27.808  28.173  1.00  0.00    -0.248 NA
ATOM     63  C   UNL A   1      44.831  26.097  29.747  1.00  0.00     0.031 C 
ATOM     64  C   UNL A   1      44.019  31.526  31.197  1.00  0.00     0.029 A 
ATOM     65  C   UNL A   1      44.608  30.303  30.881  1.00  0.00     0.049 A 
ATOM     66  H   UNL A   1      45.307  28.947  32.331  1.00  0.00     0.167 HD
ATOM     67  C   UNL A   1      45.169  28.370  29.425  1.00  0.00     0.074 A 
ATOM     68  C   UNL A   1      45.185  27.236  30.344  1.00  0.00     0.031 C 
ATOM     69  C   UNL A   1      44.995  29.711  29.616  1.00  0.00     0.037 A 
BRANCH  56  70
ATOM     70  C   UNL A   1      43.463  28.092  34.519  1.00  0.00     0.057 A 
ATOM     71  C   UNL A   1      43.788  26.770  34.149  1.00  0.00     0.134 A 
ATOM     72  C   UNL A   1      43.977  28.520  35.750  1.00  0.00     0.134 A 
ATOM     73  F   UNL A   1      43.488  26.264  32.947  1.00  0.00    -0.206 F 
ATOM     74  C   UNL A   1      44.540  25.921  34.962  1.00  0.00     0.040 A 
ATOM     75  C   UNL A   1      44.785  27.699  36.543  1.00  0.00     0.040 A 
ATOM     76  F   UNL A   1      43.770  29.773  36.181  1.00  0.00    -0.206 F 
ATOM     77  C   UNL A   1      45.064  26.394  36.152  1.00  0.00     0.006 A 
ENDBRANCH  56  70
BRANCH  57  78
ATOM     78  C   UNL A   1      43.821  24.759  26.794  1.00  0.00     0.057 A 
ATOM     79  C   UNL A   1      44.382  23.616  27.381  1.00  0.00     0.134 A 
ATOM     80  C   UNL A   1      43.914  24.834  25.391  1.00  0.00     0.134 A 
ATOM     81  F   UNL A   1      44.390  23.466  28.714  1.00  0.00    -0.206 F 
ATOM     82  C   UNL A   1      45.046  22.634  26.628  1.00  0.00     0.040 A 
ATOM     83  C   UNL A   1      44.574  23.860  24.626  1.00  0.00     0.040 A 
ATOM     84  F   UNL A   1      43.434  25.896  24.729  1.00  0.00    -0.206 F 
ATOM     85  C   UNL A   1      45.162  22.765  25.247  1.00  0.00     0.006 A 
ENDBRANCH  57  78
BRANCH  69  86
ATOM     86  C   UNL A   1      45.005  30.596  28.390  1.00  0.00     0.057 A 
ATOM     87  C   UNL A   1      46.213  31.189  28.005  1.00  0.00     0.134 A 
ATOM     88  C   UNL A   1      43.876  30.930  27.624  1.00  0.00     0.134 A 
ATOM     89  F   UNL A   1      47.333  30.955  28.707  1.00  0.00    -0.206 F 
ATOM     90  C   UNL A   1      46.303  32.053  26.909  1.00  0.00     0.040 A 
ATOM     91  C   UNL A   1      43.957  31.766  26.503  1.00  0.00     0.040 A 
ATOM     92  F   UNL A   1      42.656  30.489  27.955  1.00  0.00    -0.206 F 
ATOM     93  C   UNL A   1      45.175  32.334  26.144  1.00  0.00     0.006 A 
ENDBRANCH  69  86
ENDBRANCH  43  44
ENDBRANCH  36  38
ENDBRANCH  35  36
ENDBRANCH  34  35
ENDBRANCH  33  34
ENDBRANCH  32  33
ENDBRANCH  31  32
ENDBRANCH   1  31
TORSDOF 21
ENDMDL
