MODEL 1
REMARK VINA RESULT:     -10.9      0.000      0.000
REMARK SMILES CN(C)C(=O)CCc1cccc(NC(=O)[C@H]2CCCC[C@@H]2C(=O)OCCOCCOCCOC(=O)c2ccc(-c3c4nc(c(-c5c(F)cccc5F)c5ccc([nH]5)c(-c5c(F)cccc5F)c5nc(c(-c6c(F)cccc6F)c6ccc3[nH]6)C=C5)C=C4)cc2)c1
REMARK SMILES IDX 27 1 26 2 25 3 24 4 22 5 23 6 21 7 16 8 17 9 18 10 20 11
REMARK SMILES IDX 19 12 14 13 13 14 15 16 12 17 8 18 9 19 90 20 10 21 11 22
REMARK SMILES IDX 7 23 6 24 4 25 1 26 2 27 3 28 5 29 28 30 29 31 30 32 31 33
REMARK SMILES IDX 32 34 33 35 34 36 35 37 36 38 37 39 89 40 38 41 88 42 39 43
REMARK SMILES IDX 40 44 41 45 82 46 42 47 87 48 81 49 83 50 43 51 86 52 80 53
REMARK SMILES IDX 79 54 44 56 70 57 53 58 69 59 54 60 57 61 68 62 84 63 55 64
REMARK SMILES IDX 56 65 67 67 85 68 58 69 45 70 46 71 51 72 47 73 48 74 50 75
REMARK SMILES IDX 52 76 49 77 71 78 72 79 77 80 73 81 74 82 76 83 78 84 75 85
REMARK SMILES IDX 59 86 60 87 65 88 61 89 62 90 64 91 66 92 63 93
REMARK H PARENT 13 15 83 55 57 66
REMARK Flexibility Score: inf
ROOT
ATOM      1  O   UNL A   1      38.833  22.251  26.604  1.00  0.00    -0.376 OA
ENDROOT
BRANCH   1   2
ATOM      2  C   UNL A   1      38.166  22.174  25.345  1.00  0.00     0.202 C 
BRANCH   2   3
ATOM      3  C   UNL A   1      37.276  20.941  25.134  1.00  0.00     0.261 C 
BRANCH   3   4
ATOM      4  O   UNL A   1      35.990  21.031  25.787  1.00  0.00    -0.463 OA
BRANCH   4   5
ATOM      5  C   UNL A   1      34.936  20.537  25.065  1.00  0.00     0.309 C 
ATOM      6  O   UNL A   1      34.834  19.373  24.700  1.00  0.00    -0.252 OA
BRANCH   5   7
ATOM      7  C   UNL A   1      33.808  21.565  24.900  1.00  0.00     0.111 C 
ATOM      8  C   UNL A   1      33.788  22.263  23.533  1.00  0.00     0.093 C 
ATOM      9  C   UNL A   1      34.856  23.317  23.350  1.00  0.00     0.014 C 
ATOM     10  C   UNL A   1      35.199  24.147  24.573  1.00  0.00     0.001 C 
ATOM     11  C   UNL A   1      33.842  22.494  26.107  1.00  0.00     0.016 C 
ATOM     12  C   UNL A   1      34.805  23.673  25.978  1.00  0.00     0.001 C 
BRANCH   8  13
ATOM     13  C   UNL A   1      32.395  22.559  22.925  1.00  0.00     0.228 C 
ATOM     14  N   UNL A   1      31.726  23.751  22.921  1.00  0.00    -0.326 N 
ATOM     15  H   UNL A   1      31.262  23.919  22.069  1.00  0.00     0.169 HD
ATOM     16  O   UNL A   1      31.849  21.653  22.276  1.00  0.00    -0.274 OA
BRANCH  14  17
ATOM     17  C   UNL A   1      31.545  24.799  23.848  1.00  0.00     0.041 A 
ATOM     18  C   UNL A   1      31.739  27.173  24.338  1.00  0.00    -0.045 A 
ATOM     19  C   UNL A   1      30.905  27.045  25.452  1.00  0.00     0.004 A 
ATOM     20  C   UNL A   1      32.155  26.032  23.615  1.00  0.00     0.029 A 
ATOM     21  C   UNL A   1      30.313  25.827  25.696  1.00  0.00     0.002 A 
ATOM     22  C   UNL A   1      30.584  24.765  24.834  1.00  0.00     0.026 A 
BRANCH  18  23
ATOM     23  C   UNL A   1      31.898  28.551  23.743  1.00  0.00     0.045 C 
BRANCH  23  24
ATOM     24  C   UNL A   1      30.617  29.378  23.959  1.00  0.00     0.105 C 
BRANCH  24  25
ATOM     25  C   UNL A   1      29.790  29.572  22.684  1.00  0.00     0.222 C 
ATOM     26  C   UNL A   1      28.060  30.736  21.396  1.00  0.00     0.146 C 
ATOM     27  N   UNL A   1      28.903  30.640  22.579  1.00  0.00    -0.349 N 
ATOM     28  C   UNL A   1      28.733  31.737  23.521  1.00  0.00     0.146 C 
ATOM     29  O   UNL A   1      29.919  28.751  21.770  1.00  0.00    -0.275 OA
ENDBRANCH  24  25
ENDBRANCH  23  24
ENDBRANCH  18  23
ENDBRANCH  14  17
ENDBRANCH   8  13
ENDBRANCH   5   7
ENDBRANCH   4   5
ENDBRANCH   3   4
ENDBRANCH   2   3
ENDBRANCH   1   2
BRANCH   1  30
ATOM     30  C   UNL A   1      40.251  22.379  26.572  1.00  0.00     0.188 C 
BRANCH  30  31
ATOM     31  C   UNL A   1      41.045  21.380  27.423  1.00  0.00     0.188 C 
BRANCH  31  32
ATOM     32  O   UNL A   1      42.057  20.679  26.707  1.00  0.00    -0.376 OA
BRANCH  32  33
ATOM     33  C   UNL A   1      42.168  19.287  27.015  1.00  0.00     0.202 C 
BRANCH  33  34
ATOM     34  C   UNL A   1      43.030  18.505  26.019  1.00  0.00     0.261 C 
BRANCH  34  35
ATOM     35  O   UNL A   1      43.137  19.193  24.752  1.00  0.00    -0.460 OA
BRANCH  35  36
ATOM     36  C   UNL A   1      44.422  19.349  24.344  1.00  0.00     0.338 C 
ATOM     37  O   UNL A   1      45.124  18.486  23.828  1.00  0.00    -0.246 OA
BRANCH  36  38
ATOM     38  C   UNL A   1      44.921  20.721  24.584  1.00  0.00     0.060 A 
ATOM     39  C   UNL A   1      45.541  21.057  25.786  1.00  0.00     0.016 A 
ATOM     40  C   UNL A   1      44.609  21.730  23.676  1.00  0.00     0.016 A 
ATOM     41  C   UNL A   1      45.766  22.397  26.128  1.00  0.00     0.010 A 
ATOM     42  C   UNL A   1      44.898  23.067  23.985  1.00  0.00     0.010 A 
ATOM     43  C   UNL A   1      45.429  23.427  25.240  1.00  0.00    -0.014 A 
BRANCH  43  44
ATOM     44  C   UNL A   1      45.484  24.870  25.635  1.00  0.00     0.031 A 
ATOM     45  C   UNL A   1      46.779  25.631  25.465  1.00  0.00     0.074 A 
ATOM     46  C   UNL A   1      44.418  25.542  26.116  1.00  0.00     0.049 A 
ATOM     47  N   UNL A   1      47.159  26.764  25.999  1.00  0.00    -0.248 NA
ATOM     48  C   UNL A   1      47.782  25.021  24.578  1.00  0.00     0.031 C 
ATOM     49  C   UNL A   1      43.059  25.021  26.239  1.00  0.00     0.029 A 
ATOM     50  N   UNL A   1      44.323  26.830  26.594  1.00  0.00    -0.354 N 
ATOM     51  C   UNL A   1      48.471  26.958  25.584  1.00  0.00     0.074 A 
ATOM     52  C   UNL A   1      48.813  25.840  24.730  1.00  0.00     0.031 C 
ATOM     53  C   UNL A   1      42.259  25.991  26.716  1.00  0.00     0.029 A 
ATOM     54  C   UNL A   1      43.065  27.166  27.035  1.00  0.00     0.049 A 
ATOM     55  H   UNL A   1      45.085  27.453  26.615  1.00  0.00     0.167 HD
ATOM     56  C   UNL A   1      49.322  27.964  25.900  1.00  0.00     0.037 A 
ATOM     57  C   UNL A   1      42.622  28.267  27.675  1.00  0.00     0.037 A 
ATOM     58  C   UNL A   1      48.971  29.118  26.683  1.00  0.00     0.049 A 
ATOM     59  C   UNL A   1      43.594  29.345  28.078  1.00  0.00     0.074 A 
ATOM     60  C   UNL A   1      49.774  30.175  27.076  1.00  0.00     0.029 A 
ATOM     61  N   UNL A   1      47.700  29.382  27.167  1.00  0.00    -0.354 N 
ATOM     62  N   UNL A   1      44.872  29.450  27.813  1.00  0.00    -0.248 NA
ATOM     63  C   UNL A   1      43.064  30.433  28.917  1.00  0.00     0.031 C 
ATOM     64  C   UNL A   1      48.995  31.067  27.821  1.00  0.00     0.029 A 
ATOM     65  C   UNL A   1      47.700  30.579  27.863  1.00  0.00     0.049 A 
ATOM     66  H   UNL A   1      46.915  28.804  27.035  1.00  0.00     0.167 HD
ATOM     67  C   UNL A   1      45.297  30.616  28.443  1.00  0.00     0.074 A 
ATOM     68  C   UNL A   1      44.137  31.194  29.086  1.00  0.00     0.031 C 
ATOM     69  C   UNL A   1      46.540  31.151  28.495  1.00  0.00     0.037 A 
BRANCH  56  70
ATOM     70  C   UNL A   1      50.746  27.826  25.449  1.00  0.00     0.057 A 
ATOM     71  C   UNL A   1      51.766  27.393  26.302  1.00  0.00     0.134 A 
ATOM     72  C   UNL A   1      51.088  28.118  24.121  1.00  0.00     0.134 A 
ATOM     73  F   UNL A   1      51.505  27.114  27.588  1.00  0.00    -0.206 F 
ATOM     74  C   UNL A   1      53.085  27.275  25.855  1.00  0.00     0.040 A 
ATOM     75  C   UNL A   1      52.396  27.983  23.658  1.00  0.00     0.040 A 
ATOM     76  F   UNL A   1      50.153  28.533  23.253  1.00  0.00    -0.206 F 
ATOM     77  C   UNL A   1      53.401  27.565  24.528  1.00  0.00     0.006 A 
ENDBRANCH  56  70
BRANCH  57  78
ATOM     78  C   UNL A   1      41.188  28.393  28.046  1.00  0.00     0.057 A 
ATOM     79  C   UNL A   1      40.261  28.940  27.149  1.00  0.00     0.134 A 
ATOM     80  C   UNL A   1      40.716  28.017  29.309  1.00  0.00     0.134 A 
ATOM     81  F   UNL A   1      40.661  29.360  25.941  1.00  0.00    -0.206 F 
ATOM     82  C   UNL A   1      38.920  29.111  27.496  1.00  0.00     0.040 A 
ATOM     83  C   UNL A   1      39.373  28.158  29.661  1.00  0.00     0.040 A 
ATOM     84  F   UNL A   1      41.554  27.501  30.219  1.00  0.00    -0.206 F 
ATOM     85  C   UNL A   1      38.471  28.713  28.754  1.00  0.00     0.006 A 
ENDBRANCH  57  78
BRANCH  69  86
ATOM     86  C   UNL A   1      46.710  32.432  29.254  1.00  0.00     0.057 A 
ATOM     87  C   UNL A   1      46.561  33.678  28.633  1.00  0.00     0.134 A 
ATOM     88  C   UNL A   1      46.987  32.423  30.627  1.00  0.00     0.134 A 
ATOM     89  F   UNL A   1      46.308  33.756  27.318  1.00  0.00    -0.206 F 
ATOM     90  C   UNL A   1      46.697  34.871  29.346  1.00  0.00     0.040 A 
ATOM     91  C   UNL A   1      47.106  33.607  31.355  1.00  0.00     0.040 A 
ATOM     92  F   UNL A   1      47.134  31.262  31.284  1.00  0.00    -0.206 F 
ATOM     93  C   UNL A   1      46.966  34.837  30.713  1.00  0.00     0.006 A 
ENDBRANCH  69  86
ENDBRANCH  43  44
ENDBRANCH  36  38
ENDBRANCH  35  36
ENDBRANCH  34  35
ENDBRANCH  33  34
ENDBRANCH  32  33
ENDBRANCH  31  32
ENDBRANCH  30  31
ENDBRANCH   1  30
TORSDOF 22
ENDMDL
MODEL 2
REMARK VINA RESULT:     -10.7      5.279      9.050
REMARK SMILES CN(C)C(=O)CCc1cccc(NC(=O)[C@H]2CCCC[C@@H]2C(=O)OCCOCCOCCOC(=O)c2ccc(-c3c4nc(c(-c5c(F)cccc5F)c5ccc([nH]5)c(-c5c(F)cccc5F)c5nc(c(-c6c(F)cccc6F)c6ccc3[nH]6)C=C5)C=C4)cc2)c1
REMARK SMILES IDX 27 1 26 2 25 3 24 4 22 5 23 6 21 7 16 8 17 9 18 10 20 11
REMARK SMILES IDX 19 12 14 13 13 14 15 16 12 17 8 18 9 19 90 20 10 21 11 22
REMARK SMILES IDX 7 23 6 24 4 25 1 26 2 27 3 28 5 29 28 30 29 31 30 32 31 33
REMARK SMILES IDX 32 34 33 35 34 36 35 37 36 38 37 39 89 40 38 41 88 42 39 43
REMARK SMILES IDX 40 44 41 45 82 46 42 47 87 48 81 49 83 50 43 51 86 52 80 53
REMARK SMILES IDX 79 54 44 56 70 57 53 58 69 59 54 60 57 61 68 62 84 63 55 64
REMARK SMILES IDX 56 65 67 67 85 68 58 69 45 70 46 71 51 72 47 73 48 74 50 75
REMARK SMILES IDX 52 76 49 77 71 78 72 79 77 80 73 81 74 82 76 83 78 84 75 85
REMARK SMILES IDX 59 86 60 87 65 88 61 89 62 90 64 91 66 92 63 93
REMARK H PARENT 13 15 83 55 57 66
REMARK Flexibility Score: inf
ROOT
ATOM      1  O   UNL A   1      40.253  20.591  25.729  1.00  0.00    -0.376 OA
ENDROOT
BRANCH   1   2
ATOM      2  C   UNL A   1      39.474  21.650  26.285  1.00  0.00     0.202 C 
BRANCH   2   3
ATOM      3  C   UNL A   1      38.287  22.124  25.435  1.00  0.00     0.261 C 
BRANCH   3   4
ATOM      4  O   UNL A   1      37.001  21.930  26.067  1.00  0.00    -0.463 OA
BRANCH   4   5
ATOM      5  C   UNL A   1      36.129  21.132  25.376  1.00  0.00     0.309 C 
ATOM      6  O   UNL A   1      36.420  20.044  24.896  1.00  0.00    -0.252 OA
BRANCH   5   7
ATOM      7  C   UNL A   1      34.693  21.672  25.408  1.00  0.00     0.111 C 
ATOM      8  C   UNL A   1      34.062  21.863  24.022  1.00  0.00     0.093 C 
ATOM      9  C   UNL A   1      34.564  23.072  23.263  1.00  0.00     0.014 C 
ATOM     10  C   UNL A   1      34.864  24.308  24.091  1.00  0.00     0.001 C 
ATOM     11  C   UNL A   1      34.676  22.902  26.308  1.00  0.00     0.016 C 
ATOM     12  C   UNL A   1      35.050  24.209  25.611  1.00  0.00     0.001 C 
BRANCH   8  13
ATOM     13  C   UNL A   1      32.557  21.527  23.891  1.00  0.00     0.228 C 
ATOM     14  N   UNL A   1      31.510  22.404  23.836  1.00  0.00    -0.326 N 
ATOM     15  H   UNL A   1      30.821  22.127  23.189  1.00  0.00     0.169 HD
ATOM     16  O   UNL A   1      32.249  20.336  23.715  1.00  0.00    -0.274 OA
BRANCH  14  17
ATOM     17  C   UNL A   1      31.183  23.612  24.485  1.00  0.00     0.041 A 
ATOM     18  C   UNL A   1      29.974  25.721  24.427  1.00  0.00    -0.045 A 
ATOM     19  C   UNL A   1      30.151  25.899  25.802  1.00  0.00     0.004 A 
ATOM     20  C   UNL A   1      30.596  24.645  23.755  1.00  0.00     0.029 A 
ATOM     21  C   UNL A   1      30.744  24.890  26.526  1.00  0.00     0.002 A 
ATOM     22  C   UNL A   1      31.163  23.741  25.856  1.00  0.00     0.026 A 
BRANCH  18  23
ATOM     23  C   UNL A   1      28.856  26.490  23.765  1.00  0.00     0.045 C 
BRANCH  23  24
ATOM     24  C   UNL A   1      29.295  27.939  23.487  1.00  0.00     0.105 C 
BRANCH  24  25
ATOM     25  C   UNL A   1      30.669  28.046  22.819  1.00  0.00     0.222 C 
ATOM     26  C   UNL A   1      32.978  28.869  22.760  1.00  0.00     0.146 C 
ATOM     27  N   UNL A   1      31.716  28.697  23.466  1.00  0.00    -0.349 N 
ATOM     28  C   UNL A   1      31.722  29.211  24.828  1.00  0.00     0.146 C 
ATOM     29  O   UNL A   1      30.813  27.561  21.691  1.00  0.00    -0.275 OA
ENDBRANCH  24  25
ENDBRANCH  23  24
ENDBRANCH  18  23
ENDBRANCH  14  17
ENDBRANCH   8  13
ENDBRANCH   5   7
ENDBRANCH   4   5
ENDBRANCH   3   4
ENDBRANCH   2   3
ENDBRANCH   1   2
BRANCH   1  30
ATOM     30  C   UNL A   1      41.238  20.008  26.576  1.00  0.00     0.188 C 
BRANCH  30  31
ATOM     31  C   UNL A   1      42.662  20.566  26.451  1.00  0.00     0.188 C 
BRANCH  31  32
ATOM     32  O   UNL A   1      42.930  21.208  25.208  1.00  0.00    -0.376 OA
BRANCH  32  33
ATOM     33  C   UNL A   1      43.369  22.565  25.306  1.00  0.00     0.202 C 
BRANCH  33  34
ATOM     34  C   UNL A   1      42.754  23.325  26.486  1.00  0.00     0.261 C 
BRANCH  34  35
ATOM     35  O   UNL A   1      43.318  24.650  26.620  1.00  0.00    -0.460 OA
BRANCH  35  36
ATOM     36  C   UNL A   1      42.579  25.604  26.000  1.00  0.00     0.338 C 
ATOM     37  O   UNL A   1      42.417  25.715  24.789  1.00  0.00    -0.246 OA
BRANCH  36  38
ATOM     38  C   UNL A   1      41.954  26.538  26.961  1.00  0.00     0.060 A 
ATOM     39  C   UNL A   1      42.447  27.830  27.127  1.00  0.00     0.016 A 
ATOM     40  C   UNL A   1      40.979  26.066  27.837  1.00  0.00     0.016 A 
ATOM     41  C   UNL A   1      42.044  28.620  28.213  1.00  0.00     0.010 A 
ATOM     42  C   UNL A   1      40.522  26.880  28.883  1.00  0.00     0.010 A 
ATOM     43  C   UNL A   1      41.088  28.148  29.122  1.00  0.00    -0.014 A 
BRANCH  43  44
ATOM     44  C   UNL A   1      40.765  28.878  30.389  1.00  0.00     0.031 A 
ATOM     45  C   UNL A   1      39.595  29.835  30.408  1.00  0.00     0.074 A 
ATOM     46  C   UNL A   1      41.454  28.703  31.535  1.00  0.00     0.049 A 
ATOM     47  N   UNL A   1      39.307  30.786  31.261  1.00  0.00    -0.248 NA
ATOM     48  C   UNL A   1      38.627  29.705  29.308  1.00  0.00     0.031 C 
ATOM     49  C   UNL A   1      42.532  27.741  31.750  1.00  0.00     0.029 A 
ATOM     50  N   UNL A   1      41.338  29.346  32.747  1.00  0.00    -0.354 N 
ATOM     51  C   UNL A   1      38.178  31.420  30.756  1.00  0.00     0.074 A 
ATOM     52  C   UNL A   1      37.817  30.728  29.536  1.00  0.00     0.031 C 
ATOM     53  C   UNL A   1      42.947  27.825  33.027  1.00  0.00     0.029 A 
ATOM     54  C   UNL A   1      42.243  28.920  33.689  1.00  0.00     0.049 A 
ATOM     55  H   UNL A   1      40.666  30.045  32.923  1.00  0.00     0.167 HD
ATOM     56  C   UNL A   1      37.514  32.493  31.250  1.00  0.00     0.037 A 
ATOM     57  C   UNL A   1      42.517  29.390  34.923  1.00  0.00     0.037 A 
ATOM     58  C   UNL A   1      37.817  33.139  32.499  1.00  0.00     0.049 A 
ATOM     59  C   UNL A   1      41.817  30.625  35.429  1.00  0.00     0.074 A 
ATOM     60  C   UNL A   1      37.215  34.249  33.067  1.00  0.00     0.029 A 
ATOM     61  N   UNL A   1      38.788  32.713  33.389  1.00  0.00    -0.354 N 
ATOM     62  N   UNL A   1      40.850  31.315  34.878  1.00  0.00    -0.248 NA
ATOM     63  C   UNL A   1      42.288  31.173  36.712  1.00  0.00     0.031 C 
ATOM     64  C   UNL A   1      37.840  34.510  34.291  1.00  0.00     0.029 A 
ATOM     65  C   UNL A   1      38.810  33.543  34.497  1.00  0.00     0.049 A 
ATOM     66  H   UNL A   1      39.376  31.935  33.253  1.00  0.00     0.167 HD
ATOM     67  C   UNL A   1      40.592  32.370  35.747  1.00  0.00     0.074 A 
ATOM     68  C   UNL A   1      41.489  32.219  36.871  1.00  0.00     0.031 C 
ATOM     69  C   UNL A   1      39.701  33.383  35.616  1.00  0.00     0.037 A 
BRANCH  56  70
ATOM     70  C   UNL A   1      36.427  33.079  30.398  1.00  0.00     0.057 A 
ATOM     71  C   UNL A   1      36.695  33.895  29.295  1.00  0.00     0.134 A 
ATOM     72  C   UNL A   1      35.086  32.796  30.689  1.00  0.00     0.134 A 
ATOM     73  F   UNL A   1      37.958  34.216  28.976  1.00  0.00    -0.206 F 
ATOM     74  C   UNL A   1      35.663  34.430  28.520  1.00  0.00     0.040 A 
ATOM     75  C   UNL A   1      34.048  33.306  29.909  1.00  0.00     0.040 A 
ATOM     76  F   UNL A   1      34.764  32.015  31.731  1.00  0.00    -0.206 F 
ATOM     77  C   UNL A   1      34.335  34.130  28.823  1.00  0.00     0.006 A 
ENDBRANCH  56  70
BRANCH  57  78
ATOM     78  C   UNL A   1      43.557  28.739  35.761  1.00  0.00     0.057 A 
ATOM     79  C   UNL A   1      44.902  29.118  35.657  1.00  0.00     0.134 A 
ATOM     80  C   UNL A   1      43.249  27.700  36.646  1.00  0.00     0.134 A 
ATOM     81  F   UNL A   1      45.266  30.077  34.794  1.00  0.00    -0.206 F 
ATOM     82  C   UNL A   1      45.900  28.486  36.400  1.00  0.00     0.040 A 
ATOM     83  C   UNL A   1      44.232  27.076  37.415  1.00  0.00     0.040 A 
ATOM     84  F   UNL A   1      41.982  27.278  36.781  1.00  0.00    -0.206 F 
ATOM     85  C   UNL A   1      45.565  27.465  37.288  1.00  0.00     0.006 A 
ENDBRANCH  57  78
BRANCH  69  86
ATOM     86  C   UNL A   1      39.635  34.393  36.721  1.00  0.00     0.057 A 
ATOM     87  C   UNL A   1      38.921  34.146  37.899  1.00  0.00     0.134 A 
ATOM     88  C   UNL A   1      40.324  35.608  36.624  1.00  0.00     0.134 A 
ATOM     89  F   UNL A   1      38.229  33.006  38.048  1.00  0.00    -0.206 F 
ATOM     90  C   UNL A   1      38.879  35.079  38.937  1.00  0.00     0.040 A 
ATOM     91  C   UNL A   1      40.306  36.541  37.662  1.00  0.00     0.040 A 
ATOM     92  F   UNL A   1      41.034  35.903  35.525  1.00  0.00    -0.206 F 
ATOM     93  C   UNL A   1      39.578  36.279  38.822  1.00  0.00     0.006 A 
ENDBRANCH  69  86
ENDBRANCH  43  44
ENDBRANCH  36  38
ENDBRANCH  35  36
ENDBRANCH  34  35
ENDBRANCH  33  34
ENDBRANCH  32  33
ENDBRANCH  31  32
ENDBRANCH  30  31
ENDBRANCH   1  30
TORSDOF 22
ENDMDL
MODEL 3
REMARK VINA RESULT:     -10.7      3.609      9.361
REMARK SMILES CN(C)C(=O)CCc1cccc(NC(=O)[C@H]2CCCC[C@@H]2C(=O)OCCOCCOCCOC(=O)c2ccc(-c3c4nc(c(-c5c(F)cccc5F)c5ccc([nH]5)c(-c5c(F)cccc5F)c5nc(c(-c6c(F)cccc6F)c6ccc3[nH]6)C=C5)C=C4)cc2)c1
REMARK SMILES IDX 27 1 26 2 25 3 24 4 22 5 23 6 21 7 16 8 17 9 18 10 20 11
REMARK SMILES IDX 19 12 14 13 13 14 15 16 12 17 8 18 9 19 90 20 10 21 11 22
REMARK SMILES IDX 7 23 6 24 4 25 1 26 2 27 3 28 5 29 28 30 29 31 30 32 31 33
REMARK SMILES IDX 32 34 33 35 34 36 35 37 36 38 37 39 89 40 38 41 88 42 39 43
REMARK SMILES IDX 40 44 41 45 82 46 42 47 87 48 81 49 83 50 43 51 86 52 80 53
REMARK SMILES IDX 79 54 44 56 70 57 53 58 69 59 54 60 57 61 68 62 84 63 55 64
REMARK SMILES IDX 56 65 67 67 85 68 58 69 45 70 46 71 51 72 47 73 48 74 50 75
REMARK SMILES IDX 52 76 49 77 71 78 72 79 77 80 73 81 74 82 76 83 78 84 75 85
REMARK SMILES IDX 59 86 60 87 65 88 61 89 62 90 64 91 66 92 63 93
REMARK H PARENT 13 15 83 55 57 66
REMARK Flexibility Score: inf
ROOT
ATOM      1  O   UNL A   1      32.642  31.485  27.628  1.00  0.00    -0.376 OA
ENDROOT
BRANCH   1   2
ATOM      2  C   UNL A   1      33.191  30.196  27.356  1.00  0.00     0.202 C 
BRANCH   2   3
ATOM      3  C   UNL A   1      32.948  29.650  25.942  1.00  0.00     0.261 C 
BRANCH   3   4
ATOM      4  O   UNL A   1      32.251  28.383  25.917  1.00  0.00    -0.463 OA
BRANCH   4   5
ATOM      5  C   UNL A   1      33.003  27.315  25.505  1.00  0.00     0.309 C 
ATOM      6  O   UNL A   1      33.976  26.881  26.109  1.00  0.00    -0.252 OA
BRANCH   5   7
ATOM      7  C   UNL A   1      32.396  26.610  24.285  1.00  0.00     0.111 C 
ATOM      8  C   UNL A   1      33.060  26.979  22.951  1.00  0.00     0.093 C 
ATOM      9  C   UNL A   1      32.688  28.346  22.421  1.00  0.00     0.014 C 
ATOM     10  C   UNL A   1      31.257  28.793  22.658  1.00  0.00     0.001 C 
ATOM     11  C   UNL A   1      30.885  26.801  24.338  1.00  0.00     0.016 C 
ATOM     12  C   UNL A   1      30.385  28.102  23.714  1.00  0.00     0.001 C 
BRANCH   8  13
ATOM     13  C   UNL A   1      33.214  25.841  21.913  1.00  0.00     0.228 C 
ATOM     14  N   UNL A   1      33.153  24.495  22.141  1.00  0.00    -0.326 N 
ATOM     15  H   UNL A   1      32.675  24.014  21.426  1.00  0.00     0.169 HD
ATOM     16  O   UNL A   1      33.305  26.164  20.717  1.00  0.00    -0.274 OA
BRANCH  14  17
ATOM     17  C   UNL A   1      33.611  23.631  23.157  1.00  0.00     0.041 A 
ATOM     18  C   UNL A   1      33.173  21.710  24.582  1.00  0.00    -0.045 A 
ATOM     19  C   UNL A   1      34.526  21.608  24.918  1.00  0.00     0.004 A 
ATOM     20  C   UNL A   1      32.704  22.793  23.804  1.00  0.00     0.029 A 
ATOM     21  C   UNL A   1      35.424  22.443  24.294  1.00  0.00     0.002 A 
ATOM     22  C   UNL A   1      34.948  23.369  23.368  1.00  0.00     0.026 A 
BRANCH  18  23
ATOM     23  C   UNL A   1      32.313  20.484  24.778  1.00  0.00     0.045 C 
BRANCH  23  24
ATOM     24  C   UNL A   1      32.971  19.259  24.117  1.00  0.00     0.105 C 
BRANCH  24  25
ATOM     25  C   UNL A   1      32.873  17.982  24.957  1.00  0.00     0.222 C 
ATOM     26  C   UNL A   1      33.094  15.555  25.222  1.00  0.00     0.146 C 
ATOM     27  N   UNL A   1      33.295  16.763  24.434  1.00  0.00    -0.349 N 
ATOM     28  C   UNL A   1      33.975  16.539  23.166  1.00  0.00     0.146 C 
ATOM     29  O   UNL A   1      32.395  18.063  26.094  1.00  0.00    -0.275 OA
ENDBRANCH  24  25
ENDBRANCH  23  24
ENDBRANCH  18  23
ENDBRANCH  14  17
ENDBRANCH   8  13
ENDBRANCH   5   7
ENDBRANCH   4   5
ENDBRANCH   3   4
ENDBRANCH   2   3
ENDBRANCH   1   2
BRANCH   1  30
ATOM     30  C   UNL A   1      33.490  32.604  27.396  1.00  0.00     0.188 C 
BRANCH  30  31
ATOM     31  C   UNL A   1      33.031  33.943  27.989  1.00  0.00     0.188 C 
BRANCH  31  32
ATOM     32  O   UNL A   1      34.044  34.644  28.702  1.00  0.00    -0.376 OA
BRANCH  32  33
ATOM     33  C   UNL A   1      33.661  35.119  29.995  1.00  0.00     0.202 C 
BRANCH  33  34
ATOM     34  C   UNL A   1      34.049  34.172  31.136  1.00  0.00     0.261 C 
BRANCH  34  35
ATOM     35  O   UNL A   1      34.716  32.988  30.643  1.00  0.00    -0.460 OA
BRANCH  35  36
ATOM     36  C   UNL A   1      35.365  32.303  31.618  1.00  0.00     0.338 C 
ATOM     37  O   UNL A   1      35.156  32.394  32.823  1.00  0.00    -0.246 OA
BRANCH  36  38
ATOM     38  C   UNL A   1      36.392  31.391  31.069  1.00  0.00     0.060 A 
ATOM     39  C   UNL A   1      37.045  30.473  31.889  1.00  0.00     0.016 A 
ATOM     40  C   UNL A   1      36.839  31.573  29.762  1.00  0.00     0.016 A 
ATOM     41  C   UNL A   1      38.196  29.805  31.446  1.00  0.00     0.010 A 
ATOM     42  C   UNL A   1      37.948  30.853  29.293  1.00  0.00     0.010 A 
ATOM     43  C   UNL A   1      38.677  30.000  30.145  1.00  0.00    -0.014 A 
BRANCH  43  44
ATOM     44  C   UNL A   1      39.995  29.452  29.693  1.00  0.00     0.031 A 
ATOM     45  C   UNL A   1      41.207  30.355  29.697  1.00  0.00     0.074 A 
ATOM     46  C   UNL A   1      40.166  28.171  29.305  1.00  0.00     0.049 A 
ATOM     47  N   UNL A   1      42.356  30.215  29.084  1.00  0.00    -0.248 NA
ATOM     48  C   UNL A   1      41.101  31.587  30.494  1.00  0.00     0.031 C 
ATOM     49  C   UNL A   1      39.153  27.120  29.346  1.00  0.00     0.029 A 
ATOM     50  N   UNL A   1      41.277  27.540  28.794  1.00  0.00    -0.354 N 
ATOM     51  C   UNL A   1      43.073  31.376  29.350  1.00  0.00     0.074 A 
ATOM     52  C   UNL A   1      42.240  32.199  30.203  1.00  0.00     0.031 C 
ATOM     53  C   UNL A   1      39.700  25.967  28.923  1.00  0.00     0.029 A 
ATOM     54  C   UNL A   1      41.068  26.219  28.477  1.00  0.00     0.049 A 
ATOM     55  H   UNL A   1      42.143  27.993  28.668  1.00  0.00     0.167 HD
ATOM     56  C   UNL A   1      44.302  31.735  28.909  1.00  0.00     0.037 A 
ATOM     57  C   UNL A   1      41.861  25.328  27.849  1.00  0.00     0.037 A 
ATOM     58  C   UNL A   1      45.169  30.895  28.126  1.00  0.00     0.049 A 
ATOM     59  C   UNL A   1      43.197  25.763  27.305  1.00  0.00     0.074 A 
ATOM     60  C   UNL A   1      46.421  31.185  27.612  1.00  0.00     0.029 A 
ATOM     61  N   UNL A   1      44.885  29.588  27.772  1.00  0.00    -0.354 N 
ATOM     62  N   UNL A   1      43.808  26.915  27.429  1.00  0.00    -0.248 NA
ATOM     63  C   UNL A   1      43.931  24.781  26.489  1.00  0.00     0.031 C 
ATOM     64  C   UNL A   1      46.885  30.059  26.922  1.00  0.00     0.029 A 
ATOM     65  C   UNL A   1      45.933  29.060  27.036  1.00  0.00     0.049 A 
ATOM     66  H   UNL A   1      44.060  29.105  28.008  1.00  0.00     0.167 HD
ATOM     67  C   UNL A   1      44.996  26.794  26.715  1.00  0.00     0.074 A 
ATOM     68  C   UNL A   1      45.031  25.452  26.179  1.00  0.00     0.031 C 
ATOM     69  C   UNL A   1      45.964  27.721  26.511  1.00  0.00     0.037 A 
BRANCH  56  70
ATOM     70  C   UNL A   1      44.758  33.132  29.211  1.00  0.00     0.057 A 
ATOM     71  C   UNL A   1      45.434  33.464  30.390  1.00  0.00     0.134 A 
ATOM     72  C   UNL A   1      44.528  34.156  28.283  1.00  0.00     0.134 A 
ATOM     73  F   UNL A   1      45.669  32.531  31.325  1.00  0.00    -0.206 F 
ATOM     74  C   UNL A   1      45.847  34.774  30.646  1.00  0.00     0.040 A 
ATOM     75  C   UNL A   1      44.954  35.463  28.517  1.00  0.00     0.040 A 
ATOM     76  F   UNL A   1      43.889  33.901  27.131  1.00  0.00    -0.206 F 
ATOM     77  C   UNL A   1      45.612  35.776  29.706  1.00  0.00     0.006 A 
ENDBRANCH  56  70
BRANCH  57  78
ATOM     78  C   UNL A   1      41.396  23.934  27.628  1.00  0.00     0.057 A 
ATOM     79  C   UNL A   1      40.410  23.650  26.673  1.00  0.00     0.134 A 
ATOM     80  C   UNL A   1      41.883  22.863  28.386  1.00  0.00     0.134 A 
ATOM     81  F   UNL A   1      39.873  24.640  25.947  1.00  0.00    -0.206 F 
ATOM     82  C   UNL A   1      39.925  22.355  26.485  1.00  0.00     0.040 A 
ATOM     83  C   UNL A   1      41.427  21.559  28.190  1.00  0.00     0.040 A 
ATOM     84  F   UNL A   1      42.817  23.069  29.327  1.00  0.00    -0.206 F 
ATOM     85  C   UNL A   1      40.439  21.303  27.240  1.00  0.00     0.006 A 
ENDBRANCH  57  78
BRANCH  69  86
ATOM     86  C   UNL A   1      47.151  27.310  25.693  1.00  0.00     0.057 A 
ATOM     87  C   UNL A   1      47.236  27.602  24.327  1.00  0.00     0.134 A 
ATOM     88  C   UNL A   1      48.236  26.650  26.283  1.00  0.00     0.134 A 
ATOM     89  F   UNL A   1      46.225  28.220  23.699  1.00  0.00    -0.206 F 
ATOM     90  C   UNL A   1      48.353  27.237  23.571  1.00  0.00     0.040 A 
ATOM     91  C   UNL A   1      49.366  26.298  25.543  1.00  0.00     0.040 A 
ATOM     92  F   UNL A   1      48.220  26.348  27.591  1.00  0.00    -0.206 F 
ATOM     93  C   UNL A   1      49.424  26.588  24.181  1.00  0.00     0.006 A 
ENDBRANCH  69  86
ENDBRANCH  43  44
ENDBRANCH  36  38
ENDBRANCH  35  36
ENDBRANCH  34  35
ENDBRANCH  33  34
ENDBRANCH  32  33
ENDBRANCH  31  32
ENDBRANCH  30  31
ENDBRANCH   1  30
TORSDOF 22
ENDMDL
