MODEL 1
REMARK VINA RESULT:     -10.7      0.000      0.000
REMARK SMILES O=C(OCCOCCOCCOC(=O)c1cc(-c2ccn(C(F)F)c(=O)c2)ccc1O)c1ccc(-c2c3nc(c(-c4c(F)cccc4F)c4ccc([nH]4)c(-c4c(F)cccc4F)c4nc(c(-c5c(F)cccc5F)c5ccc2[nH]5)C=C4)C=C3)cc1
REMARK SMILES IDX 7 1 6 2 5 3 4 4 3 5 2 6 1 7 32 8 33 9 85 10 34 11 84 12
REMARK SMILES IDX 35 13 36 14 37 15 78 16 38 17 83 18 77 19 79 20 39 21 82 22
REMARK SMILES IDX 76 23 75 24 40 26 66 27 49 28 65 29 50 30 53 31 64 32 80 33
REMARK SMILES IDX 51 34 52 35 63 37 81 38 54 39 41 40 42 41 47 42 43 43 44 44
REMARK SMILES IDX 46 45 48 46 45 47 67 48 68 49 73 50 69 51 70 52 72 53 74 54
REMARK SMILES IDX 71 55 55 56 56 57 61 58 57 59 58 60 60 61 62 62 59 63 8 64
REMARK SMILES IDX 9 65 10 66 11 67 12 68 13 69 14 70 15 71 16 72 30 73 17 74
REMARK SMILES IDX 29 75 28 76 31 77 18 79 19 80 27 81 20 82 25 83 21 84 26 85
REMARK SMILES IDX 22 86 23 87 24 88
REMARK H PARENT 79 25 53 36 31 78
REMARK Flexibility Score: inf
ROOT
ATOM      1  C   UNL A   1      37.035  22.834  25.017  1.00  0.00     0.188 C 
ENDROOT
BRANCH   1   2
ATOM      2  O   UNL A   1      37.716  21.797  25.740  1.00  0.00    -0.376 OA
BRANCH   2   3
ATOM      3  C   UNL A   1      37.353  20.480  25.309  1.00  0.00     0.202 C 
BRANCH   3   4
ATOM      4  C   UNL A   1      38.538  19.626  24.848  1.00  0.00     0.261 C 
BRANCH   4   5
ATOM      5  O   UNL A   1      39.378  19.238  25.941  1.00  0.00    -0.460 OA
BRANCH   5   6
ATOM      6  C   UNL A   1      40.644  19.641  26.203  1.00  0.00     0.338 C 
ATOM      7  O   UNL A   1      41.542  18.812  26.060  1.00  0.00    -0.246 OA
BRANCH   6   8
ATOM      8  C   UNL A   1      41.039  21.022  26.653  1.00  0.00     0.060 A 
ATOM      9  C   UNL A   1      41.110  21.995  25.645  1.00  0.00     0.016 A 
ATOM     10  C   UNL A   1      41.429  21.413  27.937  1.00  0.00     0.016 A 
ATOM     11  C   UNL A   1      41.607  23.282  25.896  1.00  0.00     0.010 A 
ATOM     12  C   UNL A   1      41.854  22.720  28.211  1.00  0.00     0.010 A 
ATOM     13  C   UNL A   1      41.985  23.661  27.188  1.00  0.00    -0.014 A 
BRANCH  13  14
ATOM     14  C   UNL A   1      42.416  25.049  27.487  1.00  0.00     0.031 A 
ATOM     15  C   UNL A   1      41.471  26.089  28.031  1.00  0.00     0.074 A 
ATOM     16  C   UNL A   1      43.673  25.407  27.166  1.00  0.00     0.049 A 
ATOM     17  N   UNL A   1      41.737  27.311  28.427  1.00  0.00    -0.248 NA
ATOM     18  C   UNL A   1      40.049  25.732  28.134  1.00  0.00     0.031 C 
ATOM     19  C   UNL A   1      44.669  24.529  26.547  1.00  0.00     0.029 A 
ATOM     20  N   UNL A   1      44.313  26.614  27.272  1.00  0.00    -0.354 N 
ATOM     21  C   UNL A   1      40.537  27.834  28.891  1.00  0.00     0.074 A 
ATOM     22  C   UNL A   1      39.521  26.849  28.618  1.00  0.00     0.031 C 
ATOM     23  C   UNL A   1      45.778  25.237  26.292  1.00  0.00     0.029 A 
ATOM     24  C   UNL A   1      45.562  26.618  26.707  1.00  0.00     0.049 A 
ATOM     25  H   UNL A   1      43.914  27.401  27.710  1.00  0.00     0.167 HD
ATOM     26  C   UNL A   1      40.311  29.012  29.516  1.00  0.00     0.037 A 
ATOM     27  C   UNL A   1      46.427  27.628  26.511  1.00  0.00     0.037 A 
ATOM     28  C   UNL A   1      41.296  30.047  29.663  1.00  0.00     0.049 A 
ATOM     29  C   UNL A   1      46.091  28.995  27.029  1.00  0.00     0.074 A 
ATOM     30  C   UNL A   1      41.193  31.255  30.328  1.00  0.00     0.029 A 
ATOM     31  N   UNL A   1      42.539  30.023  29.057  1.00  0.00    -0.354 N 
ATOM     32  N   UNL A   1      45.037  29.385  27.701  1.00  0.00    -0.248 NA
ATOM     33  C   UNL A   1      47.071  30.058  26.774  1.00  0.00     0.031 C 
ATOM     34  C   UNL A   1      42.343  32.001  30.049  1.00  0.00     0.029 A 
ATOM     35  C   UNL A   1      43.176  31.235  29.250  1.00  0.00     0.049 A 
ATOM     36  H   UNL A   1      42.914  29.259  28.561  1.00  0.00     0.167 HD
ATOM     37  C   UNL A   1      45.241  30.728  27.981  1.00  0.00     0.074 A 
ATOM     38  C   UNL A   1      46.519  31.088  27.402  1.00  0.00     0.031 C 
ATOM     39  C   UNL A   1      44.446  31.583  28.669  1.00  0.00     0.037 A 
BRANCH  26  40
ATOM     40  C   UNL A   1      38.963  29.258  30.119  1.00  0.00     0.057 A 
ATOM     41  C   UNL A   1      37.968  29.960  29.433  1.00  0.00     0.134 A 
ATOM     42  C   UNL A   1      38.699  28.891  31.445  1.00  0.00     0.134 A 
ATOM     43  F   UNL A   1      38.168  30.360  28.169  1.00  0.00    -0.206 F 
ATOM     44  C   UNL A   1      36.752  30.280  30.042  1.00  0.00     0.040 A 
ATOM     45  C   UNL A   1      37.485  29.201  32.064  1.00  0.00     0.040 A 
ATOM     46  F   UNL A   1      39.607  28.205  32.155  1.00  0.00    -0.206 F 
ATOM     47  C   UNL A   1      36.507  29.900  31.360  1.00  0.00     0.006 A 
ENDBRANCH  26  40
BRANCH  27  48
ATOM     48  C   UNL A   1      47.681  27.371  25.763  1.00  0.00     0.057 A 
ATOM     49  C   UNL A   1      47.728  27.502  24.370  1.00  0.00     0.134 A 
ATOM     50  C   UNL A   1      48.847  26.962  26.417  1.00  0.00     0.134 A 
ATOM     51  F   UNL A   1      46.637  27.882  23.688  1.00  0.00    -0.206 F 
ATOM     52  C   UNL A   1      48.887  27.219  23.649  1.00  0.00     0.040 A 
ATOM     53  C   UNL A   1      50.021  26.700  25.710  1.00  0.00     0.040 A 
ATOM     54  F   UNL A   1      48.865  26.835  27.751  1.00  0.00    -0.206 F 
ATOM     55  C   UNL A   1      50.040  26.821  24.321  1.00  0.00     0.006 A 
ENDBRANCH  27  48
BRANCH  39  56
ATOM     56  C   UNL A   1      44.936  32.983  28.852  1.00  0.00     0.057 A 
ATOM     57  C   UNL A   1      45.742  33.319  29.947  1.00  0.00     0.134 A 
ATOM     58  C   UNL A   1      44.573  34.009  27.971  1.00  0.00     0.134 A 
ATOM     59  F   UNL A   1      46.114  32.382  30.833  1.00  0.00    -0.206 F 
ATOM     60  C   UNL A   1      46.166  34.630  30.163  1.00  0.00     0.040 A 
ATOM     61  C   UNL A   1      45.011  35.319  28.163  1.00  0.00     0.040 A 
ATOM     62  F   UNL A   1      43.811  33.746  26.899  1.00  0.00    -0.206 F 
ATOM     63  C   UNL A   1      45.803  35.633  29.266  1.00  0.00     0.006 A 
ENDBRANCH  39  56
ENDBRANCH  13  14
ENDBRANCH   6   8
ENDBRANCH   5   6
ENDBRANCH   4   5
ENDBRANCH   3   4
ENDBRANCH   2   3
ENDBRANCH   1   2
BRANCH   1  64
ATOM     64  C   UNL A   1      36.103  22.263  23.946  1.00  0.00     0.188 C 
BRANCH  64  65
ATOM     65  O   UNL A   1      34.710  22.514  24.121  1.00  0.00    -0.376 OA
BRANCH  65  66
ATOM     66  C   UNL A   1      33.877  21.406  24.443  1.00  0.00     0.202 C 
BRANCH  66  67
ATOM     67  C   UNL A   1      32.465  21.358  23.841  1.00  0.00     0.261 C 
BRANCH  67  68
ATOM     68  O   UNL A   1      31.795  22.620  23.680  1.00  0.00    -0.460 OA
BRANCH  68  69
ATOM     69  C   UNL A   1      31.294  23.121  24.836  1.00  0.00     0.342 C 
ATOM     70  O   UNL A   1      30.739  22.495  25.735  1.00  0.00    -0.246 OA
BRANCH  69  71
ATOM     71  C   UNL A   1      31.440  24.580  24.887  1.00  0.00     0.102 A 
ATOM     72  C   UNL A   1      30.598  25.435  24.148  1.00  0.00     0.028 A 
ATOM     73  C   UNL A   1      32.549  25.090  25.563  1.00  0.00     0.130 A 
ATOM     74  C   UNL A   1      30.874  26.814  24.082  1.00  0.00    -0.017 A 
ATOM     75  C   UNL A   1      32.846  26.440  25.475  1.00  0.00     0.048 A 
ATOM     76  C   UNL A   1      32.004  27.296  24.766  1.00  0.00     0.012 A 
BRANCH  73  77
ATOM     77  O   UNL A   1      33.326  24.274  26.335  1.00  0.00    -0.507 OA
ATOM     78  H   UNL A   1      34.242  24.194  26.156  1.00  0.00     0.293 HD
ENDBRANCH  73  77
BRANCH  74  79
ATOM     79  C   UNL A   1      30.054  27.801  23.325  1.00  0.00    -0.011 A 
ATOM     80  C   UNL A   1      30.656  28.822  22.477  1.00  0.00     0.027 A 
ATOM     81  C   UNL A   1      28.719  27.831  23.484  1.00  0.00     0.080 A 
ATOM     82  C   UNL A   1      29.927  29.820  21.964  1.00  0.00     0.095 A 
ATOM     83  C   UNL A   1      27.888  28.931  22.906  1.00  0.00     0.255 A 
ATOM     84  N   UNL A   1      28.569  29.894  22.186  1.00  0.00    -0.258 N 
ATOM     85  O   UNL A   1      26.681  28.947  23.128  1.00  0.00    -0.269 OA
BRANCH  84  86
ATOM     86  C   UNL A   1      27.806  31.020  21.708  1.00  0.00     0.451 C 
ATOM     87  F   UNL A   1      27.602  31.935  22.686  1.00  0.00    -0.185 F 
ATOM     88  F   UNL A   1      28.448  31.636  20.685  1.00  0.00    -0.185 F 
ENDBRANCH  84  86
ENDBRANCH  74  79
ENDBRANCH  69  71
ENDBRANCH  68  69
ENDBRANCH  67  68
ENDBRANCH  66  67
ENDBRANCH  65  66
ENDBRANCH  64  65
ENDBRANCH   1  64
TORSDOF 20
ENDMDL
MODEL 2
REMARK VINA RESULT:     -10.6      4.031      6.512
REMARK SMILES O=C(OCCOCCOCCOC(=O)c1cc(-c2ccn(C(F)F)c(=O)c2)ccc1O)c1ccc(-c2c3nc(c(-c4c(F)cccc4F)c4ccc([nH]4)c(-c4c(F)cccc4F)c4nc(c(-c5c(F)cccc5F)c5ccc2[nH]5)C=C4)C=C3)cc1
REMARK SMILES IDX 7 1 6 2 5 3 4 4 3 5 2 6 1 7 32 8 33 9 85 10 34 11 84 12
REMARK SMILES IDX 35 13 36 14 37 15 78 16 38 17 83 18 77 19 79 20 39 21 82 22
REMARK SMILES IDX 76 23 75 24 40 26 66 27 49 28 65 29 50 30 53 31 64 32 80 33
REMARK SMILES IDX 51 34 52 35 63 37 81 38 54 39 41 40 42 41 47 42 43 43 44 44
REMARK SMILES IDX 46 45 48 46 45 47 67 48 68 49 73 50 69 51 70 52 72 53 74 54
REMARK SMILES IDX 71 55 55 56 56 57 61 58 57 59 58 60 60 61 62 62 59 63 8 64
REMARK SMILES IDX 9 65 10 66 11 67 12 68 13 69 14 70 15 71 16 72 30 73 17 74
REMARK SMILES IDX 29 75 28 76 31 77 18 79 19 80 27 81 20 82 25 83 21 84 26 85
REMARK SMILES IDX 22 86 23 87 24 88
REMARK H PARENT 79 25 53 36 31 78
REMARK Flexibility Score: inf
ROOT
ATOM      1  C   UNL A   1      41.411  20.889  27.413  1.00  0.00     0.188 C 
ENDROOT
BRANCH   1   2
ATOM      2  O   UNL A   1      42.713  21.386  27.068  1.00  0.00    -0.376 OA
BRANCH   2   3
ATOM      3  C   UNL A   1      43.179  20.909  25.800  1.00  0.00     0.202 C 
BRANCH   3   4
ATOM      4  C   UNL A   1      44.123  21.876  25.079  1.00  0.00     0.261 C 
BRANCH   4   5
ATOM      5  O   UNL A   1      43.512  23.149  24.846  1.00  0.00    -0.460 OA
BRANCH   5   6
ATOM      6  C   UNL A   1      43.918  24.363  25.287  1.00  0.00     0.338 C 
ATOM      7  O   UNL A   1      44.890  24.870  24.728  1.00  0.00    -0.246 OA
BRANCH   6   8
ATOM      8  C   UNL A   1      43.275  25.140  26.403  1.00  0.00     0.060 A 
ATOM      9  C   UNL A   1      43.776  26.433  26.615  1.00  0.00     0.016 A 
ATOM     10  C   UNL A   1      42.307  24.683  27.302  1.00  0.00     0.016 A 
ATOM     11  C   UNL A   1      43.374  27.210  27.710  1.00  0.00     0.010 A 
ATOM     12  C   UNL A   1      41.843  25.485  28.355  1.00  0.00     0.010 A 
ATOM     13  C   UNL A   1      42.398  26.743  28.595  1.00  0.00    -0.014 A 
BRANCH  13  14
ATOM     14  C   UNL A   1      41.889  27.596  29.699  1.00  0.00     0.031 A 
ATOM     15  C   UNL A   1      40.773  28.589  29.505  1.00  0.00     0.074 A 
ATOM     16  C   UNL A   1      42.519  27.539  30.887  1.00  0.00     0.049 A 
ATOM     17  N   UNL A   1      40.167  29.327  30.404  1.00  0.00    -0.248 NA
ATOM     18  C   UNL A   1      40.278  28.800  28.136  1.00  0.00     0.031 C 
ATOM     19  C   UNL A   1      43.674  26.691  31.191  1.00  0.00     0.029 A 
ATOM     20  N   UNL A   1      42.308  28.242  32.044  1.00  0.00    -0.354 N 
ATOM     21  C   UNL A   1      39.179  30.027  29.723  1.00  0.00     0.074 A 
ATOM     22  C   UNL A   1      39.342  29.722  28.325  1.00  0.00     0.031 C 
ATOM     23  C   UNL A   1      44.093  26.952  32.437  1.00  0.00     0.029 A 
ATOM     24  C   UNL A   1      43.254  27.999  33.007  1.00  0.00     0.049 A 
ATOM     25  H   UNL A   1      41.553  28.861  32.171  1.00  0.00     0.167 HD
ATOM     26  C   UNL A   1      38.207  30.823  30.224  1.00  0.00     0.037 A 
ATOM     27  C   UNL A   1      43.448  28.580  34.204  1.00  0.00     0.037 A 
ATOM     28  C   UNL A   1      38.131  31.234  31.598  1.00  0.00     0.049 A 
ATOM     29  C   UNL A   1      42.479  29.618  34.684  1.00  0.00     0.074 A 
ATOM     30  C   UNL A   1      37.158  31.992  32.224  1.00  0.00     0.029 A 
ATOM     31  N   UNL A   1      39.119  30.989  32.534  1.00  0.00    -0.354 N 
ATOM     32  N   UNL A   1      41.395  30.066  34.100  1.00  0.00    -0.248 NA
ATOM     33  C   UNL A   1      42.751  30.222  35.995  1.00  0.00     0.031 C 
ATOM     34  C   UNL A   1      37.603  32.279  33.519  1.00  0.00     0.029 A 
ATOM     35  C   UNL A   1      38.828  31.660  33.707  1.00  0.00     0.049 A 
ATOM     36  H   UNL A   1      39.911  30.421  32.387  1.00  0.00     0.167 HD
ATOM     37  C   UNL A   1      40.835  30.976  34.985  1.00  0.00     0.074 A 
ATOM     38  C   UNL A   1      41.702  31.020  36.145  1.00  0.00     0.031 C 
ATOM     39  C   UNL A   1      39.697  31.699  34.853  1.00  0.00     0.037 A 
BRANCH  26  40
ATOM     40  C   UNL A   1      37.121  31.294  29.306  1.00  0.00     0.057 A 
ATOM     41  C   UNL A   1      37.099  32.598  28.801  1.00  0.00     0.134 A 
ATOM     42  C   UNL A   1      36.025  30.471  29.020  1.00  0.00     0.134 A 
ATOM     43  F   UNL A   1      38.108  33.442  29.059  1.00  0.00    -0.206 F 
ATOM     44  C   UNL A   1      36.028  33.063  28.035  1.00  0.00     0.040 A 
ATOM     45  C   UNL A   1      34.949  30.923  28.251  1.00  0.00     0.040 A 
ATOM     46  F   UNL A   1      35.990  29.205  29.464  1.00  0.00    -0.206 F 
ATOM     47  C   UNL A   1      34.949  32.224  27.757  1.00  0.00     0.006 A 
ENDBRANCH  26  40
BRANCH  27  48
ATOM     48  C   UNL A   1      44.632  28.196  35.010  1.00  0.00     0.057 A 
ATOM     49  C   UNL A   1      45.871  28.817  34.808  1.00  0.00     0.134 A 
ATOM     50  C   UNL A   1      44.561  27.186  35.973  1.00  0.00     0.134 A 
ATOM     51  F   UNL A   1      46.002  29.787  33.891  1.00  0.00    -0.206 F 
ATOM     52  C   UNL A   1      47.004  28.435  35.526  1.00  0.00     0.040 A 
ATOM     53  C   UNL A   1      45.680  26.811  36.715  1.00  0.00     0.040 A 
ATOM     54  F   UNL A   1      43.397  26.568  36.219  1.00  0.00    -0.206 F 
ATOM     55  C   UNL A   1      46.909  27.432  36.487  1.00  0.00     0.006 A 
ENDBRANCH  27  48
BRANCH  39  56
ATOM     56  C   UNL A   1      39.309  32.587  35.992  1.00  0.00     0.057 A 
ATOM     57  C   UNL A   1      38.433  32.132  36.984  1.00  0.00     0.134 A 
ATOM     58  C   UNL A   1      39.768  33.907  36.082  1.00  0.00     0.134 A 
ATOM     59  F   UNL A   1      37.950  30.880  36.946  1.00  0.00    -0.206 F 
ATOM     60  C   UNL A   1      38.019  32.962  38.026  1.00  0.00     0.040 A 
ATOM     61  C   UNL A   1      39.380  34.739  37.133  1.00  0.00     0.040 A 
ATOM     62  F   UNL A   1      40.618  34.395  35.167  1.00  0.00    -0.206 F 
ATOM     63  C   UNL A   1      38.497  34.268  38.103  1.00  0.00     0.006 A 
ENDBRANCH  39  56
ENDBRANCH  13  14
ENDBRANCH   6   8
ENDBRANCH   5   6
ENDBRANCH   4   5
ENDBRANCH   3   4
ENDBRANCH   2   3
ENDBRANCH   1   2
BRANCH   1  64
ATOM     64  C   UNL A   1      40.540  20.666  26.175  1.00  0.00     0.188 C 
BRANCH  64  65
ATOM     65  O   UNL A   1      39.603  21.696  25.866  1.00  0.00    -0.376 OA
BRANCH  65  66
ATOM     66  C   UNL A   1      39.483  22.774  26.787  1.00  0.00     0.202 C 
BRANCH  66  67
ATOM     67  C   UNL A   1      38.695  24.018  26.351  1.00  0.00     0.261 C 
BRANCH  67  68
ATOM     68  O   UNL A   1      37.266  23.956  26.502  1.00  0.00    -0.460 OA
BRANCH  68  69
ATOM     69  C   UNL A   1      36.612  23.662  25.352  1.00  0.00     0.342 C 
ATOM     70  O   UNL A   1      37.109  23.318  24.283  1.00  0.00    -0.246 OA
BRANCH  69  71
ATOM     71  C   UNL A   1      35.165  23.861  25.501  1.00  0.00     0.102 A 
ATOM     72  C   UNL A   1      34.498  24.938  24.884  1.00  0.00     0.028 A 
ATOM     73  C   UNL A   1      34.497  23.044  26.413  1.00  0.00     0.130 A 
ATOM     74  C   UNL A   1      33.149  25.200  25.187  1.00  0.00    -0.017 A 
ATOM     75  C   UNL A   1      33.179  23.315  26.742  1.00  0.00     0.048 A 
ATOM     76  C   UNL A   1      32.505  24.364  26.117  1.00  0.00     0.012 A 
BRANCH  73  77
ATOM     77  O   UNL A   1      35.121  21.959  26.959  1.00  0.00    -0.507 OA
ATOM     78  H   UNL A   1      35.848  22.080  27.538  1.00  0.00     0.293 HD
ENDBRANCH  73  77
BRANCH  74  79
ATOM     79  C   UNL A   1      32.354  26.314  24.597  1.00  0.00    -0.011 A 
ATOM     80  C   UNL A   1      32.898  27.657  24.442  1.00  0.00     0.027 A 
ATOM     81  C   UNL A   1      31.063  26.123  24.274  1.00  0.00     0.080 A 
ATOM     82  C   UNL A   1      32.118  28.690  24.100  1.00  0.00     0.095 A 
ATOM     83  C   UNL A   1      30.181  27.263  23.876  1.00  0.00     0.255 A 
ATOM     84  N   UNL A   1      30.777  28.510  23.839  1.00  0.00    -0.258 N 
ATOM     85  O   UNL A   1      28.995  27.048  23.648  1.00  0.00    -0.269 OA
BRANCH  84  86
ATOM     86  C   UNL A   1      29.924  29.638  23.560  1.00  0.00     0.451 C 
ATOM     87  F   UNL A   1      30.154  30.661  24.418  1.00  0.00    -0.185 F 
ATOM     88  F   UNL A   1      30.128  30.094  22.299  1.00  0.00    -0.185 F 
ENDBRANCH  84  86
ENDBRANCH  74  79
ENDBRANCH  69  71
ENDBRANCH  68  69
ENDBRANCH  67  68
ENDBRANCH  66  67
ENDBRANCH  65  66
ENDBRANCH  64  65
ENDBRANCH   1  64
TORSDOF 20
ENDMDL
MODEL 3
REMARK VINA RESULT:     -10.4      4.146      7.824
REMARK SMILES O=C(OCCOCCOCCOC(=O)c1cc(-c2ccn(C(F)F)c(=O)c2)ccc1O)c1ccc(-c2c3nc(c(-c4c(F)cccc4F)c4ccc([nH]4)c(-c4c(F)cccc4F)c4nc(c(-c5c(F)cccc5F)c5ccc2[nH]5)C=C4)C=C3)cc1
REMARK SMILES IDX 7 1 6 2 5 3 4 4 3 5 2 6 1 7 32 8 33 9 85 10 34 11 84 12
REMARK SMILES IDX 35 13 36 14 37 15 78 16 38 17 83 18 77 19 79 20 39 21 82 22
REMARK SMILES IDX 76 23 75 24 40 26 66 27 49 28 65 29 50 30 53 31 64 32 80 33
REMARK SMILES IDX 51 34 52 35 63 37 81 38 54 39 41 40 42 41 47 42 43 43 44 44
REMARK SMILES IDX 46 45 48 46 45 47 67 48 68 49 73 50 69 51 70 52 72 53 74 54
REMARK SMILES IDX 71 55 55 56 56 57 61 58 57 59 58 60 60 61 62 62 59 63 8 64
REMARK SMILES IDX 9 65 10 66 11 67 12 68 13 69 14 70 15 71 16 72 30 73 17 74
REMARK SMILES IDX 29 75 28 76 31 77 18 79 19 80 27 81 20 82 25 83 21 84 26 85
REMARK SMILES IDX 22 86 23 87 24 88
REMARK H PARENT 79 25 53 36 31 78
REMARK Flexibility Score: inf
ROOT
ATOM      1  C   UNL A   1      42.023  21.388  27.617  1.00  0.00     0.188 C 
ENDROOT
BRANCH   1   2
ATOM      2  O   UNL A   1      43.217  21.857  26.972  1.00  0.00    -0.376 OA
BRANCH   2   3
ATOM      3  C   UNL A   1      43.471  21.210  25.720  1.00  0.00     0.202 C 
BRANCH   3   4
ATOM      4  C   UNL A   1      43.946  22.157  24.614  1.00  0.00     0.261 C 
BRANCH   4   5
ATOM      5  O   UNL A   1      43.481  23.495  24.816  1.00  0.00    -0.460 OA
BRANCH   5   6
ATOM      6  C   UNL A   1      44.193  24.573  25.220  1.00  0.00     0.338 C 
ATOM      7  O   UNL A   1      45.214  24.844  24.589  1.00  0.00    -0.246 OA
BRANCH   6   8
ATOM      8  C   UNL A   1      43.833  25.467  26.376  1.00  0.00     0.060 A 
ATOM      9  C   UNL A   1      42.760  25.035  27.171  1.00  0.00     0.016 A 
ATOM     10  C   UNL A   1      44.386  26.713  26.685  1.00  0.00     0.016 A 
ATOM     11  C   UNL A   1      42.224  25.839  28.186  1.00  0.00     0.010 A 
ATOM     12  C   UNL A   1      43.905  27.488  27.750  1.00  0.00     0.010 A 
ATOM     13  C   UNL A   1      42.794  27.079  28.489  1.00  0.00    -0.014 A 
BRANCH  13  14
ATOM     14  C   UNL A   1      42.302  27.894  29.628  1.00  0.00     0.031 A 
ATOM     15  C   UNL A   1      42.850  27.749  31.024  1.00  0.00     0.074 A 
ATOM     16  C   UNL A   1      41.262  28.722  29.414  1.00  0.00     0.049 A 
ATOM     17  N   UNL A   1      42.579  28.462  32.090  1.00  0.00    -0.248 NA
ATOM     18  C   UNL A   1      43.809  26.661  31.269  1.00  0.00     0.031 C 
ATOM     19  C   UNL A   1      40.571  28.896  28.134  1.00  0.00     0.029 A 
ATOM     20  N   UNL A   1      40.575  29.535  30.277  1.00  0.00    -0.354 N 
ATOM     21  C   UNL A   1      43.385  27.961  33.103  1.00  0.00     0.074 A 
ATOM     22  C   UNL A   1      44.063  26.809  32.564  1.00  0.00     0.031 C 
ATOM     23  C   UNL A   1      39.536  29.730  28.305  1.00  0.00     0.029 A 
ATOM     24  C   UNL A   1      39.478  30.128  29.707  1.00  0.00     0.049 A 
ATOM     25  H   UNL A   1      40.843  29.678  31.214  1.00  0.00     0.167 HD
ATOM     26  C   UNL A   1      43.566  28.436  34.357  1.00  0.00     0.037 A 
ATOM     27  C   UNL A   1      38.509  30.880  30.258  1.00  0.00     0.037 A 
ATOM     28  C   UNL A   1      42.790  29.497  34.935  1.00  0.00     0.049 A 
ATOM     29  C   UNL A   1      38.598  31.248  31.709  1.00  0.00     0.074 A 
ATOM     30  C   UNL A   1      42.926  30.096  36.174  1.00  0.00     0.029 A 
ATOM     31  N   UNL A   1      41.673  30.053  34.337  1.00  0.00    -0.354 N 
ATOM     32  N   UNL A   1      39.535  30.955  32.576  1.00  0.00    -0.248 NA
ATOM     33  C   UNL A   1      37.505  32.062  32.253  1.00  0.00     0.031 C 
ATOM     34  C   UNL A   1      41.836  30.954  36.360  1.00  0.00     0.029 A 
ATOM     35  C   UNL A   1      41.053  30.919  35.217  1.00  0.00     0.049 A 
ATOM     36  H   UNL A   1      41.366  29.861  33.421  1.00  0.00     0.167 HD
ATOM     37  C   UNL A   1      39.164  31.578  33.759  1.00  0.00     0.074 A 
ATOM     38  C   UNL A   1      37.914  32.262  33.499  1.00  0.00     0.031 C 
ATOM     39  C   UNL A   1      39.810  31.592  34.950  1.00  0.00     0.037 A 
BRANCH  26  40
ATOM     40  C   UNL A   1      44.657  27.847  35.197  1.00  0.00     0.057 A 
ATOM     41  C   UNL A   1      45.969  28.325  35.138  1.00  0.00     0.134 A 
ATOM     42  C   UNL A   1      44.415  26.714  35.983  1.00  0.00     0.134 A 
ATOM     43  F   UNL A   1      46.270  29.392  34.385  1.00  0.00    -0.206 F 
ATOM     44  C   UNL A   1      47.002  27.701  35.842  1.00  0.00     0.040 A 
ATOM     45  C   UNL A   1      45.439  26.083  36.695  1.00  0.00     0.040 A 
ATOM     46  F   UNL A   1      43.175  26.212  36.092  1.00  0.00    -0.206 F 
ATOM     47  C   UNL A   1      46.739  26.577  36.624  1.00  0.00     0.006 A 
ENDBRANCH  26  40
BRANCH  27  48
ATOM     48  C   UNL A   1      37.361  31.306  29.421  1.00  0.00     0.057 A 
ATOM     49  C   UNL A   1      37.336  32.574  28.827  1.00  0.00     0.134 A 
ATOM     50  C   UNL A   1      36.256  30.473  29.223  1.00  0.00     0.134 A 
ATOM     51  F   UNL A   1      38.364  33.420  28.990  1.00  0.00    -0.206 F 
ATOM     52  C   UNL A   1      36.244  33.006  28.075  1.00  0.00     0.040 A 
ATOM     53  C   UNL A   1      35.168  30.883  28.453  1.00  0.00     0.040 A 
ATOM     54  F   UNL A   1      36.233  29.243  29.755  1.00  0.00    -0.206 F 
ATOM     55  C   UNL A   1      35.157  32.156  27.883  1.00  0.00     0.006 A 
ENDBRANCH  27  48
BRANCH  39  56
ATOM     56  C   UNL A   1      39.193  32.384  36.059  1.00  0.00     0.057 A 
ATOM     57  C   UNL A   1      38.220  31.811  36.887  1.00  0.00     0.134 A 
ATOM     58  C   UNL A   1      39.529  33.725  36.277  1.00  0.00     0.134 A 
ATOM     59  F   UNL A   1      37.847  30.533  36.720  1.00  0.00    -0.206 F 
ATOM     60  C   UNL A   1      37.595  32.549  37.892  1.00  0.00     0.040 A 
ATOM     61  C   UNL A   1      38.929  34.466  37.295  1.00  0.00     0.040 A 
ATOM     62  F   UNL A   1      40.461  34.324  35.522  1.00  0.00    -0.206 F 
ATOM     63  C   UNL A   1      37.954  33.880  38.100  1.00  0.00     0.006 A 
ENDBRANCH  39  56
ENDBRANCH  13  14
ENDBRANCH   6   8
ENDBRANCH   5   6
ENDBRANCH   4   5
ENDBRANCH   3   4
ENDBRANCH   2   3
ENDBRANCH   1   2
BRANCH   1  64
ATOM     64  C   UNL A   1      40.947  20.991  26.605  1.00  0.00     0.188 C 
BRANCH  64  65
ATOM     65  O   UNL A   1      39.701  21.678  26.704  1.00  0.00    -0.376 OA
BRANCH  65  66
ATOM     66  C   UNL A   1      39.731  23.038  27.120  1.00  0.00     0.202 C 
BRANCH  66  67
ATOM     67  C   UNL A   1      38.930  24.066  26.307  1.00  0.00     0.261 C 
BRANCH  67  68
ATOM     68  O   UNL A   1      37.509  24.084  26.520  1.00  0.00    -0.460 OA
BRANCH  68  69
ATOM     69  C   UNL A   1      36.805  23.459  25.545  1.00  0.00     0.342 C 
ATOM     70  O   UNL A   1      37.257  22.821  24.597  1.00  0.00    -0.246 OA
BRANCH  69  71
ATOM     71  C   UNL A   1      35.363  23.679  25.709  1.00  0.00     0.102 A 
ATOM     72  C   UNL A   1      34.719  24.806  25.162  1.00  0.00     0.028 A 
ATOM     73  C   UNL A   1      34.678  22.821  26.569  1.00  0.00     0.130 A 
ATOM     74  C   UNL A   1      33.376  25.078  25.484  1.00  0.00    -0.017 A 
ATOM     75  C   UNL A   1      33.367  23.099  26.917  1.00  0.00     0.048 A 
ATOM     76  C   UNL A   1      32.715  24.199  26.361  1.00  0.00     0.012 A 
BRANCH  73  77
ATOM     77  O   UNL A   1      35.279  21.691  27.045  1.00  0.00    -0.507 OA
ATOM     78  H   UNL A   1      35.550  21.647  27.941  1.00  0.00     0.293 HD
ENDBRANCH  73  77
BRANCH  74  79
ATOM     79  C   UNL A   1      32.605  26.243  24.967  1.00  0.00    -0.011 A 
ATOM     80  C   UNL A   1      31.161  26.353  25.130  1.00  0.00     0.027 A 
ATOM     81  C   UNL A   1      33.223  27.192  24.243  1.00  0.00     0.080 A 
ATOM     82  C   UNL A   1      30.457  27.296  24.494  1.00  0.00     0.095 A 
ATOM     83  C   UNL A   1      32.454  28.262  23.536  1.00  0.00     0.255 A 
ATOM     84  N   UNL A   1      31.081  28.228  23.691  1.00  0.00    -0.258 N 
ATOM     85  O   UNL A   1      33.058  29.071  22.839  1.00  0.00    -0.269 OA
BRANCH  84  86
ATOM     86  C   UNL A   1      30.310  29.183  22.936  1.00  0.00     0.451 C 
ATOM     87  F   UNL A   1      29.201  28.618  22.401  1.00  0.00    -0.185 F 
ATOM     88  F   UNL A   1      29.915  30.213  23.726  1.00  0.00    -0.185 F 
ENDBRANCH  84  86
ENDBRANCH  74  79
ENDBRANCH  69  71
ENDBRANCH  68  69
ENDBRANCH  67  68
ENDBRANCH  66  67
ENDBRANCH  65  66
ENDBRANCH  64  65
ENDBRANCH   1  64
TORSDOF 20
ENDMDL
