MODEL 1
REMARK VINA RESULT:     -12.6      0.000      0.000
REMARK SMILES O=C(OCCOCCOCCOC(=O)c1ccc(-c2c3nc(c(-c4c(F)cccc4F)c4ccc([nH]4)c(-c4c(F)cccc4F)c4nc(c(-c5c(F)cccc5F)c5ccc2[nH]5)C=C4)C=C3)cc1)C1=Cc2c(Cl)ccc(Cl)c2O[C@@H]1C(F)(F)F
REMARK SMILES IDX 8 1 7 2 6 3 5 4 4 5 3 6 2 7 1 8 69 9 70 10 80 11 71 12 79 13
REMARK SMILES IDX 72 14 78 15 73 16 74 17 76 18 75 19 77 20 81 21 82 22 83 23
REMARK SMILES IDX 84 24 9 25 10 26 11 27 12 28 13 29 14 30 15 31 16 32 68 33
REMARK SMILES IDX 17 34 67 35 18 36 19 37 20 38 61 39 21 40 66 41 60 42 62 43
REMARK SMILES IDX 22 44 65 45 59 46 58 47 23 49 49 50 32 51 48 52 33 53 36 54
REMARK SMILES IDX 47 55 63 56 34 57 35 58 46 60 64 61 37 62 24 63 25 64 30 65
REMARK SMILES IDX 26 66 27 67 29 68 31 69 28 70 50 71 51 72 56 73 52 74 53 75
REMARK SMILES IDX 55 76 57 77 54 78 38 79 39 80 44 81 40 82 41 83 43 84 45 85
REMARK SMILES IDX 42 86
REMARK H PARENT 62 48 36 59
REMARK Flexibility Score: inf
ROOT
ATOM      1  C   UNL A   1      40.575  19.943  26.106  1.00  0.00     0.188 C 
ENDROOT
BRANCH   1   2
ATOM      2  C   UNL A   1      40.006  21.317  26.494  1.00  0.00     0.188 C 
BRANCH   2   3
ATOM      3  O   UNL A   1      38.863  21.956  25.784  1.00  0.00    -0.376 OA
BRANCH   3   4
ATOM      4  C   UNL A   1      37.502  21.204  25.042  1.00  0.00     0.202 C 
BRANCH   4   5
ATOM      5  C   UNL A   1      35.781  22.253  24.224  1.00  0.00     0.261 C 
BRANCH   5   6
ATOM      6  O   UNL A   1      34.595  22.795  25.018  1.00  0.00    -0.460 OA
BRANCH   6   7
ATOM      7  C   UNL A   1      33.834  23.622  24.286  1.00  0.00     0.338 C 
ATOM      8  O   UNL A   1      34.013  24.006  23.157  1.00  0.00    -0.246 OA
BRANCH   7   9
ATOM      9  C   UNL A   1      33.148  24.237  25.407  1.00  0.00     0.087 C 
ATOM     10  C   UNL A   1      33.541  25.609  25.716  1.00  0.00     0.029 C 
ATOM     11  C   UNL A   1      31.409  23.700  24.800  1.00  0.00     0.316 C 
ATOM     12  C   UNL A   1      32.560  27.067  25.290  1.00  0.00     0.037 A 
ATOM     13  O   UNL A   1      30.392  25.245  24.175  1.00  0.00    -0.474 OA
ATOM     14  C   UNL A   1      33.052  28.335  25.493  1.00  0.00     0.052 A 
ATOM     15  C   UNL A   1      31.038  26.933  24.471  1.00  0.00     0.148 A 
ATOM     16  Cl  UNL A   1      34.585  28.655  26.189  1.00  0.00    -0.084 Cl
ATOM     17  C   UNL A   1      32.238  29.395  25.051  1.00  0.00     0.023 A 
ATOM     18  C   UNL A   1      30.324  28.024  24.051  1.00  0.00     0.083 A 
ATOM     19  C   UNL A   1      30.953  29.247  24.379  1.00  0.00     0.026 A 
ATOM     20  Cl  UNL A   1      28.878  27.993  23.163  1.00  0.00    -0.080 Cl
BRANCH  11  21
ATOM     21  C   UNL A   1      31.202  22.644  26.087  1.00  0.00     0.430 C 
ATOM     22  F   UNL A   1      31.500  22.985  27.338  1.00  0.00    -0.167 F 
ATOM     23  F   UNL A   1      29.901  22.248  26.105  1.00  0.00    -0.167 F 
ATOM     24  F   UNL A   1      31.907  21.483  25.903  1.00  0.00    -0.167 F 
ENDBRANCH  11  21
ENDBRANCH   7   9
ENDBRANCH   6   7
ENDBRANCH   5   6
ENDBRANCH   4   5
ENDBRANCH   3   4
ENDBRANCH   2   3
ENDBRANCH   1   2
BRANCH   1  25
ATOM     25  O   UNL A   1      41.963  19.765  26.030  1.00  0.00    -0.376 OA
BRANCH  25  26
ATOM     26  C   UNL A   1      42.754  20.885  26.397  1.00  0.00     0.202 C 
BRANCH  26  27
ATOM     27  C   UNL A   1      43.523  21.608  25.282  1.00  0.00     0.261 C 
BRANCH  27  28
ATOM     28  O   UNL A   1      42.926  22.859  24.883  1.00  0.00    -0.460 OA
BRANCH  28  29
ATOM     29  C   UNL A   1      43.696  23.971  24.977  1.00  0.00     0.338 C 
ATOM     30  O   UNL A   1      44.752  24.194  24.412  1.00  0.00    -0.246 OA
BRANCH  29  31
ATOM     31  C   UNL A   1      42.999  24.978  25.799  1.00  0.00     0.060 A 
ATOM     32  C   UNL A   1      43.421  26.316  25.766  1.00  0.00     0.016 A 
ATOM     33  C   UNL A   1      41.973  24.579  26.653  1.00  0.00     0.016 A 
ATOM     34  C   UNL A   1      42.800  27.266  26.580  1.00  0.00     0.010 A 
ATOM     35  C   UNL A   1      41.386  25.518  27.502  1.00  0.00     0.010 A 
ATOM     36  C   UNL A   1      41.813  26.858  27.487  1.00  0.00    -0.014 A 
BRANCH  36  37
ATOM     37  C   UNL A   1      41.432  27.744  28.611  1.00  0.00     0.031 A 
ATOM     38  C   UNL A   1      42.210  27.603  29.891  1.00  0.00     0.074 A 
ATOM     39  C   UNL A   1      40.415  28.617  28.524  1.00  0.00     0.049 A 
ATOM     40  N   UNL A   1      42.026  28.179  31.049  1.00  0.00    -0.248 NA
ATOM     41  C   UNL A   1      43.348  26.667  29.856  1.00  0.00     0.031 C 
ATOM     42  C   UNL A   1      39.615  28.869  27.329  1.00  0.00     0.029 A 
ATOM     43  N   UNL A   1      39.873  29.444  29.477  1.00  0.00    -0.354 N 
ATOM     44  C   UNL A   1      43.018  27.673  31.879  1.00  0.00     0.074 A 
ATOM     45  C   UNL A   1      43.778  26.718  31.104  1.00  0.00     0.031 C 
ATOM     46  C   UNL A   1      38.667  29.777  27.626  1.00  0.00     0.029 A 
ATOM     47  C   UNL A   1      38.774  30.141  29.040  1.00  0.00     0.049 A 
ATOM     48  H   UNL A   1      40.238  29.527  30.387  1.00  0.00     0.167 HD
ATOM     49  C   UNL A   1      43.276  27.980  33.171  1.00  0.00     0.037 A 
ATOM     50  C   UNL A   1      37.941  30.957  29.716  1.00  0.00     0.037 A 
ATOM     51  C   UNL A   1      42.496  28.906  33.943  1.00  0.00     0.049 A 
ATOM     52  C   UNL A   1      38.193  31.216  31.182  1.00  0.00     0.074 A 
ATOM     53  C   UNL A   1      42.672  29.295  35.259  1.00  0.00     0.029 A 
ATOM     54  N   UNL A   1      41.374  29.575  33.473  1.00  0.00    -0.354 N 
ATOM     55  N   UNL A   1      39.153  30.762  31.954  1.00  0.00    -0.248 NA
ATOM     56  C   UNL A   1      37.246  32.105  31.872  1.00  0.00     0.031 C 
ATOM     57  C   UNL A   1      41.616  30.142  35.606  1.00  0.00     0.029 A 
ATOM     58  C   UNL A   1      40.829  30.348  34.483  1.00  0.00     0.049 A 
ATOM     59  H   UNL A   1      41.018  29.509  32.557  1.00  0.00     0.167 HD
ATOM     60  C   UNL A   1      38.948  31.340  33.202  1.00  0.00     0.074 A 
ATOM     61  C   UNL A   1      37.779  32.184  33.084  1.00  0.00     0.031 C 
ATOM     62  C   UNL A   1      39.667  31.191  34.344  1.00  0.00     0.037 A 
BRANCH  49  63
ATOM     63  C   UNL A   1      44.421  27.265  33.831  1.00  0.00     0.057 A 
ATOM     64  C   UNL A   1      44.251  26.045  34.499  1.00  0.00     0.134 A 
ATOM     65  C   UNL A   1      45.712  27.807  33.797  1.00  0.00     0.134 A 
ATOM     66  F   UNL A   1      43.038  25.479  34.585  1.00  0.00    -0.206 F 
ATOM     67  C   UNL A   1      45.316  25.408  35.139  1.00  0.00     0.040 A 
ATOM     68  C   UNL A   1      46.791  27.163  34.404  1.00  0.00     0.040 A 
ATOM     69  F   UNL A   1      45.947  28.972  33.175  1.00  0.00    -0.206 F 
ATOM     70  C   UNL A   1      46.592  25.964  35.086  1.00  0.00     0.006 A 
ENDBRANCH  49  63
BRANCH  50  71
ATOM     71  C   UNL A   1      36.781  31.584  29.028  1.00  0.00     0.057 A 
ATOM     72  C   UNL A   1      36.819  32.919  28.608  1.00  0.00     0.134 A 
ATOM     73  C   UNL A   1      35.594  30.876  28.801  1.00  0.00     0.134 A 
ATOM     74  F   UNL A   1      37.915  33.663  28.819  1.00  0.00    -0.206 F 
ATOM     75  C   UNL A   1      35.716  33.533  28.009  1.00  0.00     0.040 A 
ATOM     76  C   UNL A   1      34.494  31.467  28.175  1.00  0.00     0.040 A 
ATOM     77  F   UNL A   1      35.486  29.594  29.182  1.00  0.00    -0.206 F 
ATOM     78  C   UNL A   1      34.551  32.803  27.785  1.00  0.00     0.006 A 
ENDBRANCH  50  71
BRANCH  62  79
ATOM     79  C   UNL A   1      39.247  31.996  35.544  1.00  0.00     0.057 A 
ATOM     80  C   UNL A   1      38.422  31.472  36.547  1.00  0.00     0.134 A 
ATOM     81  C   UNL A   1      39.727  33.302  35.721  1.00  0.00     0.134 A 
ATOM     82  F   UNL A   1      37.923  30.232  36.440  1.00  0.00    -0.206 F 
ATOM     83  C   UNL A   1      38.066  32.228  37.667  1.00  0.00     0.040 A 
ATOM     84  C   UNL A   1      39.408  34.052  36.853  1.00  0.00     0.040 A 
ATOM     85  F   UNL A   1      40.535  33.862  34.807  1.00  0.00    -0.206 F 
ATOM     86  C   UNL A   1      38.568  33.519  37.826  1.00  0.00     0.006 A 
ENDBRANCH  62  79
ENDBRANCH  36  37
ENDBRANCH  29  31
ENDBRANCH  28  29
ENDBRANCH  27  28
ENDBRANCH  26  27
ENDBRANCH  25  26
ENDBRANCH   1  25
TORSDOF 18
ENDMDL
MODEL 2
REMARK VINA RESULT:     -12.3      4.855      9.939
REMARK SMILES O=C(OCCOCCOCCOC(=O)c1ccc(-c2c3nc(c(-c4c(F)cccc4F)c4ccc([nH]4)c(-c4c(F)cccc4F)c4nc(c(-c5c(F)cccc5F)c5ccc2[nH]5)C=C4)C=C3)cc1)C1=Cc2c(Cl)ccc(Cl)c2O[C@@H]1C(F)(F)F
REMARK SMILES IDX 8 1 7 2 6 3 5 4 4 5 3 6 2 7 1 8 69 9 70 10 80 11 71 12 79 13
REMARK SMILES IDX 72 14 78 15 73 16 74 17 76 18 75 19 77 20 81 21 82 22 83 23
REMARK SMILES IDX 84 24 9 25 10 26 11 27 12 28 13 29 14 30 15 31 16 32 68 33
REMARK SMILES IDX 17 34 67 35 18 36 19 37 20 38 61 39 21 40 66 41 60 42 62 43
REMARK SMILES IDX 22 44 65 45 59 46 58 47 23 49 49 50 32 51 48 52 33 53 36 54
REMARK SMILES IDX 47 55 63 56 34 57 35 58 46 60 64 61 37 62 24 63 25 64 30 65
REMARK SMILES IDX 26 66 27 67 29 68 31 69 28 70 50 71 51 72 56 73 52 74 53 75
REMARK SMILES IDX 55 76 57 77 54 78 38 79 39 80 44 81 40 82 41 83 43 84 45 85
REMARK SMILES IDX 42 86
REMARK H PARENT 62 48 36 59
REMARK Flexibility Score: inf
ROOT
ATOM      1  C   UNL A   1      33.110  35.377  29.719  1.00  0.00     0.188 C 
ENDROOT
BRANCH   1   2
ATOM      2  C   UNL A   1      34.289  34.636  29.068  1.00  0.00     0.188 C 
BRANCH   2   3
ATOM      3  O   UNL A   1      34.396  33.151  29.029  1.00  0.00    -0.376 OA
BRANCH   3   4
ATOM      4  C   UNL A   1      34.088  32.084  27.712  1.00  0.00     0.202 C 
BRANCH   4   5
ATOM      5  C   UNL A   1      34.892  30.073  27.514  1.00  0.00     0.261 C 
BRANCH   5   6
ATOM      6  O   UNL A   1      34.439  29.015  26.511  1.00  0.00    -0.460 OA
BRANCH   6   7
ATOM      7  C   UNL A   1      33.263  28.469  26.851  1.00  0.00     0.338 C 
ATOM      8  O   UNL A   1      32.759  28.389  27.945  1.00  0.00    -0.246 OA
BRANCH   7   9
ATOM      9  C   UNL A   1      33.136  27.624  25.678  1.00  0.00     0.087 C 
ATOM     10  C   UNL A   1      33.986  26.437  25.655  1.00  0.00     0.029 C 
ATOM     11  C   UNL A   1      31.218  27.605  25.744  1.00  0.00     0.316 C 
ATOM     12  C   UNL A   1      33.398  24.761  25.993  1.00  0.00     0.037 A 
ATOM     13  O   UNL A   1      30.567  25.843  26.274  1.00  0.00    -0.474 OA
ATOM     14  C   UNL A   1      34.277  23.708  26.085  1.00  0.00     0.052 A 
ATOM     15  C   UNL A   1      31.736  24.437  26.369  1.00  0.00     0.148 A 
ATOM     16  Cl  UNL A   1      35.968  23.864  25.853  1.00  0.00    -0.084 Cl
ATOM     17  C   UNL A   1      33.720  22.462  26.431  1.00  0.00     0.023 A 
ATOM     18  C   UNL A   1      31.286  23.193  26.724  1.00  0.00     0.083 A 
ATOM     19  C   UNL A   1      32.313  22.221  26.725  1.00  0.00     0.026 A 
ATOM     20  Cl  UNL A   1      29.705  22.798  27.198  1.00  0.00    -0.080 Cl
BRANCH  11  21
ATOM     21  C   UNL A   1      31.084  28.491  24.325  1.00  0.00     0.430 C 
ATOM     22  F   UNL A   1      32.046  28.505  23.406  1.00  0.00    -0.167 F 
ATOM     23  F   UNL A   1      29.954  28.091  23.681  1.00  0.00    -0.167 F 
ATOM     24  F   UNL A   1      30.877  29.821  24.581  1.00  0.00    -0.167 F 
ENDBRANCH  11  21
ENDBRANCH   7   9
ENDBRANCH   6   7
ENDBRANCH   5   6
ENDBRANCH   4   5
ENDBRANCH   3   4
ENDBRANCH   2   3
ENDBRANCH   1   2
BRANCH   1  25
ATOM     25  O   UNL A   1      32.800  35.135  31.064  1.00  0.00    -0.376 OA
BRANCH  25  26
ATOM     26  C   UNL A   1      33.895  35.141  31.966  1.00  0.00     0.202 C 
BRANCH  26  27
ATOM     27  C   UNL A   1      34.286  33.808  32.620  1.00  0.00     0.261 C 
BRANCH  27  28
ATOM     28  O   UNL A   1      35.507  33.242  32.097  1.00  0.00    -0.460 OA
BRANCH  28  29
ATOM     29  C   UNL A   1      36.294  32.562  32.966  1.00  0.00     0.338 C 
ATOM     30  O   UNL A   1      36.237  32.566  34.183  1.00  0.00    -0.246 OA
BRANCH  29  31
ATOM     31  C   UNL A   1      37.200  31.676  32.210  1.00  0.00     0.060 A 
ATOM     32  C   UNL A   1      38.008  30.757  32.898  1.00  0.00     0.016 A 
ATOM     33  C   UNL A   1      37.295  31.808  30.826  1.00  0.00     0.016 A 
ATOM     34  C   UNL A   1      38.906  29.951  32.194  1.00  0.00     0.010 A 
ATOM     35  C   UNL A   1      38.227  31.038  30.129  1.00  0.00     0.010 A 
ATOM     36  C   UNL A   1      39.053  30.126  30.811  1.00  0.00    -0.014 A 
BRANCH  36  37
ATOM     37  C   UNL A   1      40.246  29.585  30.120  1.00  0.00     0.031 A 
ATOM     38  C   UNL A   1      41.395  30.529  29.895  1.00  0.00     0.074 A 
ATOM     39  C   UNL A   1      40.305  28.320  29.676  1.00  0.00     0.049 A 
ATOM     40  N   UNL A   1      42.510  30.347  29.238  1.00  0.00    -0.248 NA
ATOM     41  C   UNL A   1      41.254  31.872  30.484  1.00  0.00     0.031 C 
ATOM     42  C   UNL A   1      39.274  27.304  29.868  1.00  0.00     0.029 A 
ATOM     43  N   UNL A   1      41.280  27.680  28.950  1.00  0.00    -0.354 N 
ATOM     44  C   UNL A   1      43.198  31.550  29.332  1.00  0.00     0.074 A 
ATOM     45  C   UNL A   1      42.362  32.465  30.074  1.00  0.00     0.031 C 
ATOM     46  C   UNL A   1      39.662  26.171  29.255  1.00  0.00     0.029 A 
ATOM     47  C   UNL A   1      40.952  26.394  28.601  1.00  0.00     0.049 A 
ATOM     48  H   UNL A   1      42.133  28.105  28.703  1.00  0.00     0.167 HD
ATOM     49  C   UNL A   1      44.421  31.863  28.844  1.00  0.00     0.037 A 
ATOM     50  C   UNL A   1      41.610  25.514  27.819  1.00  0.00     0.037 A 
ATOM     51  C   UNL A   1      45.232  30.958  28.078  1.00  0.00     0.049 A 
ATOM     52  C   UNL A   1      42.932  25.915  27.210  1.00  0.00     0.074 A 
ATOM     53  C   UNL A   1      46.488  31.170  27.540  1.00  0.00     0.029 A 
ATOM     54  N   UNL A   1      44.854  29.670  27.723  1.00  0.00    -0.354 N 
ATOM     55  N   UNL A   1      43.595  27.042  27.329  1.00  0.00    -0.248 NA
ATOM     56  C   UNL A   1      43.600  24.920  26.358  1.00  0.00     0.031 C 
ATOM     57  C   UNL A   1      46.839  30.038  26.799  1.00  0.00     0.029 A 
ATOM     58  C   UNL A   1      45.840  29.088  26.944  1.00  0.00     0.049 A 
ATOM     59  H   UNL A   1      44.010  29.236  27.984  1.00  0.00     0.167 HD
ATOM     60  C   UNL A   1      44.770  26.875  26.604  1.00  0.00     0.074 A 
ATOM     61  C   UNL A   1      44.734  25.536  26.055  1.00  0.00     0.031 C 
ATOM     62  C   UNL A   1      45.791  27.748  26.413  1.00  0.00     0.037 A 
BRANCH  49  63
ATOM     63  C   UNL A   1      44.921  33.258  29.089  1.00  0.00     0.057 A 
ATOM     64  C   UNL A   1      44.692  34.302  28.182  1.00  0.00     0.134 A 
ATOM     65  C   UNL A   1      45.642  33.561  30.251  1.00  0.00     0.134 A 
ATOM     66  F   UNL A   1      44.025  34.077  27.040  1.00  0.00    -0.206 F 
ATOM     67  C   UNL A   1      45.193  35.585  28.405  1.00  0.00     0.040 A 
ATOM     68  C   UNL A   1      46.117  34.849  30.501  1.00  0.00     0.040 A 
ATOM     69  F   UNL A   1      45.897  32.611  31.163  1.00  0.00    -0.206 F 
ATOM     70  C   UNL A   1      45.902  35.863  29.571  1.00  0.00     0.006 A 
ENDBRANCH  49  63
BRANCH  50  71
ATOM     71  C   UNL A   1      41.033  24.169  27.552  1.00  0.00     0.057 A 
ATOM     72  C   UNL A   1      41.544  23.022  28.174  1.00  0.00     0.134 A 
ATOM     73  C   UNL A   1      39.980  23.990  26.648  1.00  0.00     0.134 A 
ATOM     74  F   UNL A   1      42.571  23.119  29.031  1.00  0.00    -0.206 F 
ATOM     75  C   UNL A   1      41.046  21.749  27.891  1.00  0.00     0.040 A 
ATOM     76  C   UNL A   1      39.450  22.726  26.378  1.00  0.00     0.040 A 
ATOM     77  F   UNL A   1      39.446  25.044  26.013  1.00  0.00    -0.206 F 
ATOM     78  C   UNL A   1      39.990  21.599  26.993  1.00  0.00     0.006 A 
ENDBRANCH  50  71
BRANCH  62  79
ATOM     79  C   UNL A   1      46.980  27.271  25.625  1.00  0.00     0.057 A 
ATOM     80  C   UNL A   1      47.153  27.578  24.270  1.00  0.00     0.134 A 
ATOM     81  C   UNL A   1      47.997  26.538  26.254  1.00  0.00     0.134 A 
ATOM     82  F   UNL A   1      46.219  28.272  23.603  1.00  0.00    -0.206 F 
ATOM     83  C   UNL A   1      48.279  27.149  23.563  1.00  0.00     0.040 A 
ATOM     84  C   UNL A   1      49.142  26.136  25.568  1.00  0.00     0.040 A 
ATOM     85  F   UNL A   1      47.905  26.222  27.555  1.00  0.00    -0.206 F 
ATOM     86  C   UNL A   1      49.282  26.433  24.215  1.00  0.00     0.006 A 
ENDBRANCH  62  79
ENDBRANCH  36  37
ENDBRANCH  29  31
ENDBRANCH  28  29
ENDBRANCH  27  28
ENDBRANCH  26  27
ENDBRANCH  25  26
ENDBRANCH   1  25
TORSDOF 18
ENDMDL
MODEL 3
REMARK VINA RESULT:     -11.9      3.805      8.958
REMARK SMILES O=C(OCCOCCOCCOC(=O)c1ccc(-c2c3nc(c(-c4c(F)cccc4F)c4ccc([nH]4)c(-c4c(F)cccc4F)c4nc(c(-c5c(F)cccc5F)c5ccc2[nH]5)C=C4)C=C3)cc1)C1=Cc2c(Cl)ccc(Cl)c2O[C@@H]1C(F)(F)F
REMARK SMILES IDX 8 1 7 2 6 3 5 4 4 5 3 6 2 7 1 8 69 9 70 10 80 11 71 12 79 13
REMARK SMILES IDX 72 14 78 15 73 16 74 17 76 18 75 19 77 20 81 21 82 22 83 23
REMARK SMILES IDX 84 24 9 25 10 26 11 27 12 28 13 29 14 30 15 31 16 32 68 33
REMARK SMILES IDX 17 34 67 35 18 36 19 37 20 38 61 39 21 40 66 41 60 42 62 43
REMARK SMILES IDX 22 44 65 45 59 46 58 47 23 49 49 50 32 51 48 52 33 53 36 54
REMARK SMILES IDX 47 55 63 56 34 57 35 58 46 60 64 61 37 62 24 63 25 64 30 65
REMARK SMILES IDX 26 66 27 67 29 68 31 69 28 70 50 71 51 72 56 73 52 74 53 75
REMARK SMILES IDX 55 76 57 77 54 78 38 79 39 80 44 81 40 82 41 83 43 84 45 85
REMARK SMILES IDX 42 86
REMARK H PARENT 62 48 36 59
REMARK Flexibility Score: inf
ROOT
ATOM      1  C   UNL A   1      35.425  33.370  28.239  1.00  0.00     0.188 C 
ENDROOT
BRANCH   1   2
ATOM      2  C   UNL A   1      34.586  32.087  28.123  1.00  0.00     0.188 C 
BRANCH   2   3
ATOM      3  O   UNL A   1      35.152  30.723  28.316  1.00  0.00    -0.376 OA
BRANCH   3   4
ATOM      4  C   UNL A   1      35.043  29.355  27.274  1.00  0.00     0.202 C 
BRANCH   4   5
ATOM      5  C   UNL A   1      33.215  28.265  26.824  1.00  0.00     0.261 C 
BRANCH   5   6
ATOM      6  O   UNL A   1      32.810  27.707  25.462  1.00  0.00    -0.460 OA
BRANCH   6   7
ATOM      7  C   UNL A   1      32.463  26.414  25.530  1.00  0.00     0.338 C 
ATOM      8  O   UNL A   1      31.921  25.828  26.434  1.00  0.00    -0.246 OA
BRANCH   7   9
ATOM      9  C   UNL A   1      33.380  25.950  24.505  1.00  0.00     0.087 C 
ATOM     10  C   UNL A   1      34.570  25.256  24.986  1.00  0.00     0.029 C 
ATOM     11  C   UNL A   1      31.992  25.155  23.445  1.00  0.00     0.316 C 
ATOM     12  C   UNL A   1      34.792  23.462  24.928  1.00  0.00     0.037 A 
ATOM     13  O   UNL A   1      32.112  23.207  23.508  1.00  0.00    -0.474 OA
ATOM     14  C   UNL A   1      35.879  22.863  25.519  1.00  0.00     0.052 A 
ATOM     15  C   UNL A   1      33.575  22.415  24.271  1.00  0.00     0.148 A 
ATOM     16  Cl  UNL A   1      37.124  23.736  26.311  1.00  0.00    -0.084 Cl
ATOM     17  C   UNL A   1      35.910  21.457  25.484  1.00  0.00     0.023 A 
ATOM     18  C   UNL A   1      33.677  21.049  24.305  1.00  0.00     0.083 A 
ATOM     19  C   UNL A   1      34.877  20.606  24.907  1.00  0.00     0.026 A 
ATOM     20  Cl  UNL A   1      32.502  19.945  23.775  1.00  0.00    -0.080 Cl
BRANCH  11  21
ATOM     21  C   UNL A   1      32.192  26.270  22.208  1.00  0.00     0.430 C 
ATOM     22  F   UNL A   1      31.976  27.571  22.386  1.00  0.00    -0.167 F 
ATOM     23  F   UNL A   1      33.465  26.160  21.740  1.00  0.00    -0.167 F 
ATOM     24  F   UNL A   1      31.406  25.967  21.127  1.00  0.00    -0.167 F 
ENDBRANCH  11  21
ENDBRANCH   7   9
ENDBRANCH   6   7
ENDBRANCH   5   6
ENDBRANCH   4   5
ENDBRANCH   3   4
ENDBRANCH   2   3
ENDBRANCH   1   2
BRANCH   1  25
ATOM     25  O   UNL A   1      34.957  34.434  29.022  1.00  0.00    -0.376 OA
BRANCH  25  26
ATOM     26  C   UNL A   1      34.027  35.304  28.397  1.00  0.00     0.202 C 
BRANCH  26  27
ATOM     27  C   UNL A   1      32.939  35.934  29.278  1.00  0.00     0.261 C 
BRANCH  27  28
ATOM     28  O   UNL A   1      32.550  35.108  30.397  1.00  0.00    -0.460 OA
BRANCH  28  29
ATOM     29  C   UNL A   1      32.703  35.634  31.637  1.00  0.00     0.338 C 
ATOM     30  O   UNL A   1      31.985  36.444  32.196  1.00  0.00    -0.246 OA
BRANCH  29  31
ATOM     31  C   UNL A   1      33.842  34.978  32.306  1.00  0.00     0.060 A 
ATOM     32  C   UNL A   1      35.111  35.578  32.271  1.00  0.00     0.016 A 
ATOM     33  C   UNL A   1      33.664  33.733  32.906  1.00  0.00     0.016 A 
ATOM     34  C   UNL A   1      36.205  34.938  32.857  1.00  0.00     0.010 A 
ATOM     35  C   UNL A   1      34.765  33.071  33.448  1.00  0.00     0.010 A 
ATOM     36  C   UNL A   1      36.043  33.658  33.404  1.00  0.00    -0.014 A 
BRANCH  36  37
ATOM     37  C   UNL A   1      37.230  32.810  33.664  1.00  0.00     0.031 A 
ATOM     38  C   UNL A   1      37.999  33.077  34.928  1.00  0.00     0.074 A 
ATOM     39  C   UNL A   1      37.637  31.863  32.804  1.00  0.00     0.049 A 
ATOM     40  N   UNL A   1      39.119  32.553  35.351  1.00  0.00    -0.248 NA
ATOM     41  C   UNL A   1      37.426  34.088  35.834  1.00  0.00     0.031 C 
ATOM     42  C   UNL A   1      36.954  31.489  31.569  1.00  0.00     0.029 A 
ATOM     43  N   UNL A   1      38.745  31.053  32.838  1.00  0.00    -0.354 N 
ATOM     44  C   UNL A   1      39.386  33.173  36.565  1.00  0.00     0.074 A 
ATOM     45  C   UNL A   1      38.333  34.137  36.794  1.00  0.00     0.031 C 
ATOM     46  C   UNL A   1      37.671  30.533  30.950  1.00  0.00     0.029 A 
ATOM     47  C   UNL A   1      38.879  30.255  31.729  1.00  0.00     0.049 A 
ATOM     48  H   UNL A   1      39.384  31.045  33.587  1.00  0.00     0.167 HD
ATOM     49  C   UNL A   1      40.415  32.957  37.415  1.00  0.00     0.037 A 
ATOM     50  C   UNL A   1      39.877  29.420  31.377  1.00  0.00     0.037 A 
ATOM     51  C   UNL A   1      41.476  32.021  37.165  1.00  0.00     0.049 A 
ATOM     52  C   UNL A   1      41.062  29.260  32.299  1.00  0.00     0.074 A 
ATOM     53  C   UNL A   1      42.565  31.718  37.962  1.00  0.00     0.029 A 
ATOM     54  N   UNL A   1      41.590  31.248  36.018  1.00  0.00    -0.354 N 
ATOM     55  N   UNL A   1      41.294  29.823  33.462  1.00  0.00    -0.248 NA
ATOM     56  C   UNL A   1      42.127  28.345  31.860  1.00  0.00     0.031 C 
ATOM     57  C   UNL A   1      43.376  30.818  37.265  1.00  0.00     0.029 A 
ATOM     58  C   UNL A   1      42.750  30.494  36.071  1.00  0.00     0.049 A 
ATOM     59  H   UNL A   1      40.943  31.239  35.276  1.00  0.00     0.167 HD
ATOM     60  C   UNL A   1      42.503  29.302  33.908  1.00  0.00     0.074 A 
ATOM     61  C   UNL A   1      42.954  28.371  32.896  1.00  0.00     0.031 C 
ATOM     62  C   UNL A   1      43.178  29.564  35.055  1.00  0.00     0.037 A 
BRANCH  49  63
ATOM     63  C   UNL A   1      40.458  33.787  38.667  1.00  0.00     0.057 A 
ATOM     64  C   UNL A   1      39.754  33.427  39.824  1.00  0.00     0.134 A 
ATOM     65  C   UNL A   1      41.217  34.963  38.714  1.00  0.00     0.134 A 
ATOM     66  F   UNL A   1      38.993  32.322  39.841  1.00  0.00    -0.206 F 
ATOM     67  C   UNL A   1      39.774  34.225  40.969  1.00  0.00     0.040 A 
ATOM     68  C   UNL A   1      41.273  35.751  39.865  1.00  0.00     0.040 A 
ATOM     69  F   UNL A   1      41.917  35.368  37.644  1.00  0.00    -0.206 F 
ATOM     70  C   UNL A   1      40.541  35.388  40.994  1.00  0.00     0.006 A 
ENDBRANCH  49  63
BRANCH  50  71
ATOM     71  C   UNL A   1      39.815  28.675  30.091  1.00  0.00     0.057 A 
ATOM     72  C   UNL A   1      39.164  27.439  29.997  1.00  0.00     0.134 A 
ATOM     73  C   UNL A   1      40.432  29.162  28.932  1.00  0.00     0.134 A 
ATOM     74  F   UNL A   1      38.576  26.901  31.077  1.00  0.00    -0.206 F 
ATOM     75  C   UNL A   1      39.146  26.706  28.809  1.00  0.00     0.040 A 
ATOM     76  C   UNL A   1      40.396  28.455  27.728  1.00  0.00     0.040 A 
ATOM     77  F   UNL A   1      41.078  30.337  28.952  1.00  0.00    -0.206 F 
ATOM     78  C   UNL A   1      39.759  27.218  27.667  1.00  0.00     0.006 A 
ENDBRANCH  50  71
BRANCH  62  79
ATOM     79  C   UNL A   1      44.448  28.798  35.310  1.00  0.00     0.057 A 
ATOM     80  C   UNL A   1      45.705  29.279  34.922  1.00  0.00     0.134 A 
ATOM     81  C   UNL A   1      44.411  27.581  36.007  1.00  0.00     0.134 A 
ATOM     82  F   UNL A   1      45.814  30.433  34.247  1.00  0.00    -0.206 F 
ATOM     83  C   UNL A   1      46.874  28.564  35.192  1.00  0.00     0.040 A 
ATOM     84  C   UNL A   1      45.575  26.878  36.315  1.00  0.00     0.040 A 
ATOM     85  F   UNL A   1      43.243  27.069  36.423  1.00  0.00    -0.206 F 
ATOM     86  C   UNL A   1      46.812  27.364  35.899  1.00  0.00     0.006 A 
ENDBRANCH  62  79
ENDBRANCH  36  37
ENDBRANCH  29  31
ENDBRANCH  28  29
ENDBRANCH  27  28
ENDBRANCH  26  27
ENDBRANCH  25  26
ENDBRANCH   1  25
TORSDOF 18
ENDMDL
