MODEL 1
REMARK VINA RESULT:     -11.6      0.000      0.000
REMARK SMILES Cn1c(C[NH+]2CCC3(CC2)NC(=O)C[C@@H]3C(=O)OCCOCCOCCOC(=O)c2ccc(-c3c4nc(c(-c5c(F)cccc5F)c5ccc([nH]5)c(-c5c(F)cccc5F)c5nc(c(-c6c(F)cccc6F)c6ccc3[nH]6)C=C5)C=C4)cc2)nc2ccccc21
REMARK SMILES IDX 22 1 21 2 20 3 19 4 18 5 16 6 17 7 15 8 5 9 6 10 10 11 7 13
REMARK SMILES IDX 9 14 8 15 11 16 12 17 14 19 13 20 4 21 3 22 1 23 2 24 90 25
REMARK SMILES IDX 84 26 85 27 89 28 86 29 88 30 87 31 23 32 24 33 25 34 26 35
REMARK SMILES IDX 27 36 28 37 29 38 30 39 31 40 83 41 32 42 82 43 33 44 34 45
REMARK SMILES IDX 35 46 76 47 36 48 81 49 75 50 77 51 37 52 80 53 74 54 73 55
REMARK SMILES IDX 38 57 64 58 47 59 63 60 48 61 51 62 62 63 78 64 49 65 50 66
REMARK SMILES IDX 61 68 79 69 52 70 39 71 40 72 45 73 41 74 42 75 44 76 46 77
REMARK SMILES IDX 43 78 65 79 66 80 71 81 67 82 68 83 70 84 72 85 69 86 53 87
REMARK SMILES IDX 54 88 59 89 55 90 56 91 58 92 60 93 57 94
REMARK H PARENT 5 12 11 18 77 56 51 67
REMARK Flexibility Score: inf
ROOT
ATOM      1  C   UNL A   1      32.793  30.255  26.801  1.00  0.00     0.188 C 
ENDROOT
BRANCH   1   2
ATOM      2  O   UNL A   1      31.614  30.788  26.222  1.00  0.00    -0.376 OA
BRANCH   2   3
ATOM      3  C   UNL A   1      31.175  30.223  25.000  1.00  0.00     0.202 C 
BRANCH   3   4
ATOM      4  C   UNL A   1      31.638  28.794  24.682  1.00  0.00     0.261 C 
BRANCH   4   5
ATOM      5  O   UNL A   1      30.972  28.085  23.606  1.00  0.00    -0.463 OA
BRANCH   5   6
ATOM      6  C   UNL A   1      30.527  26.833  23.918  1.00  0.00     0.311 C 
ATOM      7  O   UNL A   1      29.991  26.554  24.983  1.00  0.00    -0.252 OA
BRANCH   6   8
ATOM      8  C   UNL A   1      30.940  25.794  22.883  1.00  0.00     0.134 C 
ATOM      9  N   UNL A   1      32.074  23.548  25.984  1.00  0.00    -0.328 N 
ATOM     10  C   UNL A   1      32.783  24.752  25.609  1.00  0.00     0.265 C 
ATOM     11  C   UNL A   1      31.038  23.128  25.059  1.00  0.00     0.265 C 
ATOM     12  H   UNL A   1      31.513  23.845  26.783  1.00  0.00     0.348 HD
ATOM     13  C   UNL A   1      33.102  25.033  24.154  1.00  0.00     0.091 C 
ATOM     14  C   UNL A   1      31.366  23.306  23.582  1.00  0.00     0.091 C 
ATOM     15  C   UNL A   1      31.971  24.667  23.193  1.00  0.00     0.064 C 
ATOM     16  N   UNL A   1      32.590  24.497  21.877  1.00  0.00    -0.349 N 
ATOM     17  C   UNL A   1      32.481  25.583  21.049  1.00  0.00     0.221 C 
ATOM     18  H   UNL A   1      33.047  23.668  21.608  1.00  0.00     0.164 HD
ATOM     19  C   UNL A   1      31.596  26.584  21.718  1.00  0.00     0.117 C 
ATOM     20  O   UNL A   1      33.049  25.717  19.983  1.00  0.00    -0.275 OA
BRANCH   9  21
ATOM     21  C   UNL A   1      32.881  22.492  26.630  1.00  0.00     0.339 C 
BRANCH  21  22
ATOM     22  C   UNL A   1      33.862  21.855  25.695  1.00  0.00     0.165 A 
ATOM     23  C   UNL A   1      32.539  19.785  25.053  1.00  0.00     0.152 C 
ATOM     24  N   UNL A   1      33.736  20.580  25.177  1.00  0.00    -0.326 N 
ATOM     25  C   UNL A   1      35.014  20.097  24.995  1.00  0.00     0.068 A 
ATOM     26  N   UNL A   1      35.075  22.322  25.463  1.00  0.00    -0.227 NA
ATOM     27  C   UNL A   1      35.818  21.224  25.132  1.00  0.00     0.089 A 
ATOM     28  C   UNL A   1      35.535  18.816  24.790  1.00  0.00     0.028 A 
ATOM     29  C   UNL A   1      37.209  21.102  25.045  1.00  0.00     0.030 A 
ATOM     30  C   UNL A   1      36.930  18.703  24.772  1.00  0.00     0.002 A 
ATOM     31  C   UNL A   1      37.755  19.825  24.892  1.00  0.00     0.002 A 
ENDBRANCH  21  22
ENDBRANCH   9  21
ENDBRANCH   6   8
ENDBRANCH   5   6
ENDBRANCH   4   5
ENDBRANCH   3   4
ENDBRANCH   2   3
ENDBRANCH   1   2
BRANCH   1  32
ATOM     32  C   UNL A   1      33.732  31.203  27.570  1.00  0.00     0.188 C 
BRANCH  32  33
ATOM     33  O   UNL A   1      33.274  32.529  27.775  1.00  0.00    -0.376 OA
BRANCH  33  34
ATOM     34  C   UNL A   1      34.235  33.457  28.272  1.00  0.00     0.202 C 
BRANCH  34  35
ATOM     35  C   UNL A   1      34.111  33.826  29.759  1.00  0.00     0.261 C 
BRANCH  35  36
ATOM     36  O   UNL A   1      34.442  32.705  30.618  1.00  0.00    -0.460 OA
BRANCH  36  37
ATOM     37  C   UNL A   1      35.655  32.794  31.208  1.00  0.00     0.338 C 
ATOM     38  O   UNL A   1      35.991  33.604  32.061  1.00  0.00    -0.246 OA
BRANCH  37  39
ATOM     39  C   UNL A   1      36.606  31.755  30.759  1.00  0.00     0.060 A 
ATOM     40  C   UNL A   1      37.331  31.032  31.699  1.00  0.00     0.016 A 
ATOM     41  C   UNL A   1      37.034  31.764  29.434  1.00  0.00     0.016 A 
ATOM     42  C   UNL A   1      38.581  30.495  31.371  1.00  0.00     0.010 A 
ATOM     43  C   UNL A   1      38.213  31.095  29.075  1.00  0.00     0.010 A 
ATOM     44  C   UNL A   1      39.042  30.508  30.049  1.00  0.00    -0.014 A 
BRANCH  44  45
ATOM     45  C   UNL A   1      40.375  29.942  29.665  1.00  0.00     0.031 A 
ATOM     46  C   UNL A   1      41.596  30.833  29.594  1.00  0.00     0.074 A 
ATOM     47  C   UNL A   1      40.514  28.638  29.350  1.00  0.00     0.049 A 
ATOM     48  N   UNL A   1      42.755  30.618  29.021  1.00  0.00    -0.248 NA
ATOM     49  C   UNL A   1      41.495  32.142  30.256  1.00  0.00     0.031 C 
ATOM     50  C   UNL A   1      39.472  27.618  29.456  1.00  0.00     0.029 A 
ATOM     51  N   UNL A   1      41.597  27.950  28.852  1.00  0.00    -0.354 N 
ATOM     52  C   UNL A   1      43.496  31.782  29.199  1.00  0.00     0.074 A 
ATOM     53  C   UNL A   1      42.656  32.699  29.943  1.00  0.00     0.031 C 
ATOM     54  C   UNL A   1      39.964  26.438  29.058  1.00  0.00     0.029 A 
ATOM     55  C   UNL A   1      41.316  26.638  28.551  1.00  0.00     0.049 A 
ATOM     56  H   UNL A   1      42.484  28.356  28.725  1.00  0.00     0.167 HD
ATOM     57  C   UNL A   1      44.750  32.067  28.768  1.00  0.00     0.037 A 
ATOM     58  C   UNL A   1      42.020  25.712  27.873  1.00  0.00     0.037 A 
ATOM     59  C   UNL A   1      45.590  31.141  28.047  1.00  0.00     0.049 A 
ATOM     60  C   UNL A   1      43.359  26.077  27.301  1.00  0.00     0.074 A 
ATOM     61  C   UNL A   1      46.874  31.335  27.561  1.00  0.00     0.029 A 
ATOM     62  N   UNL A   1      45.232  29.844  27.709  1.00  0.00    -0.354 N 
ATOM     63  N   UNL A   1      44.018  27.206  27.397  1.00  0.00    -0.248 NA
ATOM     64  C   UNL A   1      44.037  25.048  26.502  1.00  0.00     0.031 C 
ATOM     65  C   UNL A   1      47.266  30.176  26.880  1.00  0.00     0.029 A 
ATOM     66  C   UNL A   1      46.254  29.238  26.995  1.00  0.00     0.049 A 
ATOM     67  H   UNL A   1      44.376  29.417  27.942  1.00  0.00     0.167 HD
ATOM     68  C   UNL A   1      45.199  27.017  26.691  1.00  0.00     0.074 A 
ATOM     69  C   UNL A   1      45.169  25.660  26.181  1.00  0.00     0.031 C 
ATOM     70  C   UNL A   1      46.216  27.890  26.487  1.00  0.00     0.037 A 
BRANCH  57  71
ATOM     71  C   UNL A   1      45.268  33.460  29.005  1.00  0.00     0.057 A 
ATOM     72  C   UNL A   1      45.053  34.510  28.102  1.00  0.00     0.134 A 
ATOM     73  C   UNL A   1      45.987  33.758  30.172  1.00  0.00     0.134 A 
ATOM     74  F   UNL A   1      44.384  34.296  26.959  1.00  0.00    -0.206 F 
ATOM     75  C   UNL A   1      45.565  35.790  28.332  1.00  0.00     0.040 A 
ATOM     76  C   UNL A   1      46.476  35.040  30.428  1.00  0.00     0.040 A 
ATOM     77  F   UNL A   1      46.222  32.806  31.088  1.00  0.00    -0.206 F 
ATOM     78  C   UNL A   1      46.275  36.059  29.500  1.00  0.00     0.006 A 
ENDBRANCH  57  71
BRANCH  58  79
ATOM     79  C   UNL A   1      41.436  24.365  27.649  1.00  0.00     0.057 A 
ATOM     80  C   UNL A   1      41.876  23.257  28.380  1.00  0.00     0.134 A 
ATOM     81  C   UNL A   1      40.403  24.159  26.724  1.00  0.00     0.134 A 
ATOM     82  F   UNL A   1      42.880  23.385  29.259  1.00  0.00    -0.206 F 
ATOM     83  C   UNL A   1      41.307  21.995  28.204  1.00  0.00     0.040 A 
ATOM     84  C   UNL A   1      39.805  22.909  26.560  1.00  0.00     0.040 A 
ATOM     85  F   UNL A   1      39.937  25.180  25.990  1.00  0.00    -0.206 F 
ATOM     86  C   UNL A   1      40.260  21.821  27.301  1.00  0.00     0.006 A 
ENDBRANCH  58  79
BRANCH  70  87
ATOM     87  C   UNL A   1      47.400  27.389  25.711  1.00  0.00     0.057 A 
ATOM     88  C   UNL A   1      48.458  26.708  26.326  1.00  0.00     0.134 A 
ATOM     89  C   UNL A   1      47.471  27.576  24.324  1.00  0.00     0.134 A 
ATOM     90  F   UNL A   1      48.459  26.510  27.653  1.00  0.00    -0.206 F 
ATOM     91  C   UNL A   1      49.556  26.251  25.594  1.00  0.00     0.040 A 
ATOM     92  C   UNL A   1      48.550  27.100  23.577  1.00  0.00     0.040 A 
ATOM     93  F   UNL A   1      46.490  28.215  23.671  1.00  0.00    -0.206 F 
ATOM     94  C   UNL A   1      49.600  26.442  24.214  1.00  0.00     0.006 A 
ENDBRANCH  70  87
ENDBRANCH  44  45
ENDBRANCH  37  39
ENDBRANCH  36  37
ENDBRANCH  35  36
ENDBRANCH  34  35
ENDBRANCH  33  34
ENDBRANCH  32  33
ENDBRANCH   1  32
TORSDOF 19
ENDMDL
MODEL 2
REMARK VINA RESULT:     -11.5      4.511      9.063
REMARK SMILES Cn1c(C[NH+]2CCC3(CC2)NC(=O)C[C@@H]3C(=O)OCCOCCOCCOC(=O)c2ccc(-c3c4nc(c(-c5c(F)cccc5F)c5ccc([nH]5)c(-c5c(F)cccc5F)c5nc(c(-c6c(F)cccc6F)c6ccc3[nH]6)C=C5)C=C4)cc2)nc2ccccc21
REMARK SMILES IDX 22 1 21 2 20 3 19 4 18 5 16 6 17 7 15 8 5 9 6 10 10 11 7 13
REMARK SMILES IDX 9 14 8 15 11 16 12 17 14 19 13 20 4 21 3 22 1 23 2 24 90 25
REMARK SMILES IDX 84 26 85 27 89 28 86 29 88 30 87 31 23 32 24 33 25 34 26 35
REMARK SMILES IDX 27 36 28 37 29 38 30 39 31 40 83 41 32 42 82 43 33 44 34 45
REMARK SMILES IDX 35 46 76 47 36 48 81 49 75 50 77 51 37 52 80 53 74 54 73 55
REMARK SMILES IDX 38 57 64 58 47 59 63 60 48 61 51 62 62 63 78 64 49 65 50 66
REMARK SMILES IDX 61 68 79 69 52 70 39 71 40 72 45 73 41 74 42 75 44 76 46 77
REMARK SMILES IDX 43 78 65 79 66 80 71 81 67 82 68 83 70 84 72 85 69 86 53 87
REMARK SMILES IDX 54 88 59 89 55 90 56 91 58 92 60 93 57 94
REMARK H PARENT 5 12 11 18 77 56 51 67
REMARK Flexibility Score: inf
ROOT
ATOM      1  C   UNL A   1      37.858  21.575  25.233  1.00  0.00     0.188 C 
ENDROOT
BRANCH   1   2
ATOM      2  O   UNL A   1      36.589  22.193  25.096  1.00  0.00    -0.376 OA
BRANCH   2   3
ATOM      3  C   UNL A   1      36.297  23.280  25.954  1.00  0.00     0.202 C 
BRANCH   3   4
ATOM      4  C   UNL A   1      35.502  24.450  25.360  1.00  0.00     0.261 C 
BRANCH   4   5
ATOM      5  O   UNL A   1      34.180  24.718  25.893  1.00  0.00    -0.463 OA
BRANCH   5   6
ATOM      6  C   UNL A   1      33.429  25.604  25.177  1.00  0.00     0.311 C 
ATOM      7  O   UNL A   1      33.896  26.593  24.625  1.00  0.00    -0.252 OA
BRANCH   6   8
ATOM      8  C   UNL A   1      31.934  25.335  25.301  1.00  0.00     0.134 C 
ATOM      9  N   UNL A   1      32.796  21.581  24.243  1.00  0.00    -0.328 N 
ATOM     10  C   UNL A   1      32.901  22.684  23.312  1.00  0.00     0.265 C 
ATOM     11  C   UNL A   1      32.196  21.909  25.522  1.00  0.00     0.265 C 
ATOM     12  H   UNL A   1      33.764  21.413  24.518  1.00  0.00     0.348 HD
ATOM     13  C   UNL A   1      31.806  23.730  23.233  1.00  0.00     0.091 C 
ATOM     14  C   UNL A   1      31.026  22.884  25.470  1.00  0.00     0.091 C 
ATOM     15  C   UNL A   1      31.239  24.133  24.594  1.00  0.00     0.064 C 
ATOM     16  N   UNL A   1      29.914  24.700  24.334  1.00  0.00    -0.349 N 
ATOM     17  C   UNL A   1      29.876  26.069  24.296  1.00  0.00     0.221 C 
ATOM     18  H   UNL A   1      29.114  24.143  24.199  1.00  0.00     0.164 HD
ATOM     19  C   UNL A   1      31.222  26.578  24.701  1.00  0.00     0.117 C 
ATOM     20  O   UNL A   1      28.925  26.739  23.946  1.00  0.00    -0.275 OA
BRANCH   9  21
ATOM     21  C   UNL A   1      32.475  20.264  23.657  1.00  0.00     0.339 C 
BRANCH  21  22
ATOM     22  C   UNL A   1      32.817  19.123  24.565  1.00  0.00     0.165 A 
ATOM     23  C   UNL A   1      35.349  19.305  24.522  1.00  0.00     0.152 C 
ATOM     24  N   UNL A   1      34.094  18.634  24.762  1.00  0.00    -0.326 N 
ATOM     25  C   UNL A   1      33.968  17.288  25.024  1.00  0.00     0.068 A 
ATOM     26  N   UNL A   1      31.928  18.292  25.077  1.00  0.00    -0.227 NA
ATOM     27  C   UNL A   1      32.609  17.122  25.265  1.00  0.00     0.089 A 
ATOM     28  C   UNL A   1      34.872  16.220  25.017  1.00  0.00     0.028 A 
ATOM     29  C   UNL A   1      32.099  15.846  25.534  1.00  0.00     0.030 A 
ATOM     30  C   UNL A   1      34.335  14.944  25.222  1.00  0.00     0.002 A 
ATOM     31  C   UNL A   1      32.974  14.757  25.481  1.00  0.00     0.002 A 
ENDBRANCH  21  22
ENDBRANCH   9  21
ENDBRANCH   6   8
ENDBRANCH   5   6
ENDBRANCH   4   5
ENDBRANCH   3   4
ENDBRANCH   2   3
ENDBRANCH   1   2
BRANCH   1  32
ATOM     32  C   UNL A   1      38.910  22.243  26.138  1.00  0.00     0.188 C 
BRANCH  32  33
ATOM     33  O   UNL A   1      39.729  21.381  26.910  1.00  0.00    -0.376 OA
BRANCH  33  34
ATOM     34  C   UNL A   1      40.621  20.541  26.182  1.00  0.00     0.202 C 
BRANCH  34  35
ATOM     35  C   UNL A   1      42.096  20.972  26.169  1.00  0.00     0.261 C 
BRANCH  35  36
ATOM     36  O   UNL A   1      42.293  22.182  25.393  1.00  0.00    -0.460 OA
BRANCH  36  37
ATOM     37  C   UNL A   1      43.148  23.068  25.949  1.00  0.00     0.338 C 
ATOM     38  O   UNL A   1      44.367  22.983  25.979  1.00  0.00    -0.246 OA
BRANCH  37  39
ATOM     39  C   UNL A   1      42.475  24.252  26.526  1.00  0.00     0.060 A 
ATOM     40  C   UNL A   1      42.990  25.522  26.289  1.00  0.00     0.016 A 
ATOM     41  C   UNL A   1      41.578  24.070  27.574  1.00  0.00     0.016 A 
ATOM     42  C   UNL A   1      42.782  26.554  27.209  1.00  0.00     0.010 A 
ATOM     43  C   UNL A   1      41.250  25.148  28.409  1.00  0.00     0.010 A 
ATOM     44  C   UNL A   1      41.899  26.391  28.283  1.00  0.00    -0.014 A 
BRANCH  44  45
ATOM     45  C   UNL A   1      41.654  27.477  29.285  1.00  0.00     0.031 A 
ATOM     46  C   UNL A   1      42.486  27.561  30.546  1.00  0.00     0.074 A 
ATOM     47  C   UNL A   1      40.675  28.386  29.103  1.00  0.00     0.049 A 
ATOM     48  N   UNL A   1      42.261  28.226  31.654  1.00  0.00    -0.248 NA
ATOM     49  C   UNL A   1      43.738  26.790  30.561  1.00  0.00     0.031 C 
ATOM     50  C   UNL A   1      39.841  28.516  27.907  1.00  0.00     0.029 A 
ATOM     51  N   UNL A   1      40.199  29.368  29.941  1.00  0.00    -0.354 N 
ATOM     52  C   UNL A   1      43.306  27.906  32.514  1.00  0.00     0.074 A 
ATOM     53  C   UNL A   1      44.172  26.993  31.796  1.00  0.00     0.031 C 
ATOM     54  C   UNL A   1      38.976  29.524  28.078  1.00  0.00     0.029 A 
ATOM     55  C   UNL A   1      39.105  30.032  29.437  1.00  0.00     0.049 A 
ATOM     56  H   UNL A   1      40.602  29.576  30.815  1.00  0.00     0.167 HD
ATOM     57  C   UNL A   1      43.515  28.320  33.789  1.00  0.00     0.037 A 
ATOM     58  C   UNL A   1      38.245  30.891  30.015  1.00  0.00     0.037 A 
ATOM     59  C   UNL A   1      42.661  29.247  34.492  1.00  0.00     0.049 A 
ATOM     60  C   UNL A   1      38.420  31.251  31.461  1.00  0.00     0.074 A 
ATOM     61  C   UNL A   1      42.782  29.726  35.787  1.00  0.00     0.029 A 
ATOM     62  N   UNL A   1      41.526  29.841  33.957  1.00  0.00    -0.354 N 
ATOM     63  N   UNL A   1      39.359  30.879  32.296  1.00  0.00    -0.248 NA
ATOM     64  C   UNL A   1      37.400  32.127  32.051  1.00  0.00     0.031 C 
ATOM     65  C   UNL A   1      41.690  30.560  36.052  1.00  0.00     0.029 A 
ATOM     66  C   UNL A   1      40.921  30.653  34.904  1.00  0.00     0.049 A 
ATOM     67  H   UNL A   1      41.198  29.703  33.039  1.00  0.00     0.167 HD
ATOM     68  C   UNL A   1      39.057  31.493  33.505  1.00  0.00     0.074 A 
ATOM     69  C   UNL A   1      37.853  32.270  33.289  1.00  0.00     0.031 C 
ATOM     70  C   UNL A   1      39.721  31.419  34.685  1.00  0.00     0.037 A 
BRANCH  57  71
ATOM     71  C   UNL A   1      44.678  27.721  34.535  1.00  0.00     0.057 A 
ATOM     72  C   UNL A   1      45.942  28.324  34.572  1.00  0.00     0.134 A 
ATOM     73  C   UNL A   1      44.520  26.521  35.243  1.00  0.00     0.134 A 
ATOM     74  F   UNL A   1      46.169  29.467  33.908  1.00  0.00    -0.206 F 
ATOM     75  C   UNL A   1      47.013  27.736  35.251  1.00  0.00     0.040 A 
ATOM     76  C   UNL A   1      45.574  25.940  35.950  1.00  0.00     0.040 A 
ATOM     77  F   UNL A   1      43.334  25.893  35.263  1.00  0.00    -0.206 F 
ATOM     78  C   UNL A   1      46.829  26.543  35.946  1.00  0.00     0.006 A 
ENDBRANCH  57  71
BRANCH  58  79
ATOM     79  C   UNL A   1      37.100  31.421  29.230  1.00  0.00     0.057 A 
ATOM     80  C   UNL A   1      35.952  30.650  29.019  1.00  0.00     0.134 A 
ATOM     81  C   UNL A   1      37.111  32.720  28.702  1.00  0.00     0.134 A 
ATOM     82  F   UNL A   1      35.893  29.391  29.475  1.00  0.00    -0.206 F 
ATOM     83  C   UNL A   1      34.855  31.152  28.317  1.00  0.00     0.040 A 
ATOM     84  C   UNL A   1      36.010  33.245  28.025  1.00  0.00     0.040 A 
ATOM     85  F   UNL A   1      38.182  33.510  28.869  1.00  0.00    -0.206 F 
ATOM     86  C   UNL A   1      34.877  32.458  27.828  1.00  0.00     0.006 A 
ENDBRANCH  58  79
BRANCH  70  87
ATOM     87  C   UNL A   1      39.180  32.234  35.824  1.00  0.00     0.057 A 
ATOM     88  C   UNL A   1      39.543  33.572  36.020  1.00  0.00     0.134 A 
ATOM     89  C   UNL A   1      38.266  31.674  36.727  1.00  0.00     0.134 A 
ATOM     90  F   UNL A   1      40.427  34.163  35.201  1.00  0.00    -0.206 F 
ATOM     91  C   UNL A   1      39.037  34.318  37.086  1.00  0.00     0.040 A 
ATOM     92  C   UNL A   1      37.732  32.417  37.781  1.00  0.00     0.040 A 
ATOM     93  F   UNL A   1      37.871  30.400  36.595  1.00  0.00    -0.206 F 
ATOM     94  C   UNL A   1      38.123  33.742  37.967  1.00  0.00     0.006 A 
ENDBRANCH  70  87
ENDBRANCH  44  45
ENDBRANCH  37  39
ENDBRANCH  36  37
ENDBRANCH  35  36
ENDBRANCH  34  35
ENDBRANCH  33  34
ENDBRANCH  32  33
ENDBRANCH   1  32
TORSDOF 19
ENDMDL
MODEL 3
REMARK VINA RESULT:     -11.4      4.867      9.885
REMARK SMILES Cn1c(C[NH+]2CCC3(CC2)NC(=O)C[C@@H]3C(=O)OCCOCCOCCOC(=O)c2ccc(-c3c4nc(c(-c5c(F)cccc5F)c5ccc([nH]5)c(-c5c(F)cccc5F)c5nc(c(-c6c(F)cccc6F)c6ccc3[nH]6)C=C5)C=C4)cc2)nc2ccccc21
REMARK SMILES IDX 22 1 21 2 20 3 19 4 18 5 16 6 17 7 15 8 5 9 6 10 10 11 7 13
REMARK SMILES IDX 9 14 8 15 11 16 12 17 14 19 13 20 4 21 3 22 1 23 2 24 90 25
REMARK SMILES IDX 84 26 85 27 89 28 86 29 88 30 87 31 23 32 24 33 25 34 26 35
REMARK SMILES IDX 27 36 28 37 29 38 30 39 31 40 83 41 32 42 82 43 33 44 34 45
REMARK SMILES IDX 35 46 76 47 36 48 81 49 75 50 77 51 37 52 80 53 74 54 73 55
REMARK SMILES IDX 38 57 64 58 47 59 63 60 48 61 51 62 62 63 78 64 49 65 50 66
REMARK SMILES IDX 61 68 79 69 52 70 39 71 40 72 45 73 41 74 42 75 44 76 46 77
REMARK SMILES IDX 43 78 65 79 66 80 71 81 67 82 68 83 70 84 72 85 69 86 53 87
REMARK SMILES IDX 54 88 59 89 55 90 56 91 58 92 60 93 57 94
REMARK H PARENT 5 12 11 18 77 56 51 67
REMARK Flexibility Score: inf
ROOT
ATOM      1  C   UNL A   1      40.779  20.563  27.182  1.00  0.00     0.188 C 
ENDROOT
BRANCH   1   2
ATOM      2  O   UNL A   1      40.389  21.565  26.257  1.00  0.00    -0.376 OA
BRANCH   2   3
ATOM      3  C   UNL A   1      39.171  22.243  26.508  1.00  0.00     0.202 C 
BRANCH   3   4
ATOM      4  C   UNL A   1      38.138  22.270  25.373  1.00  0.00     0.261 C 
BRANCH   4   5
ATOM      5  O   UNL A   1      36.839  21.671  25.618  1.00  0.00    -0.463 OA
BRANCH   5   6
ATOM      6  C   UNL A   1      35.909  21.874  24.641  1.00  0.00     0.311 C 
ATOM      7  O   UNL A   1      36.192  22.199  23.495  1.00  0.00    -0.252 OA
BRANCH   6   8
ATOM      8  C   UNL A   1      34.483  21.840  25.180  1.00  0.00     0.134 C 
ATOM      9  N   UNL A   1      33.656  24.594  22.408  1.00  0.00    -0.328 N 
ATOM     10  C   UNL A   1      34.484  24.888  23.558  1.00  0.00     0.265 C 
ATOM     11  C   UNL A   1      33.015  23.293  22.425  1.00  0.00     0.265 C 
ATOM     12  H   UNL A   1      34.335  24.468  21.657  1.00  0.00     0.348 HD
ATOM     13  C   UNL A   1      34.073  24.417  24.940  1.00  0.00     0.091 C 
ATOM     14  C   UNL A   1      32.501  22.831  23.783  1.00  0.00     0.091 C 
ATOM     15  C   UNL A   1      33.477  23.010  24.961  1.00  0.00     0.064 C 
ATOM     16  N   UNL A   1      32.684  22.919  26.188  1.00  0.00    -0.349 N 
ATOM     17  C   UNL A   1      33.316  22.296  27.232  1.00  0.00     0.221 C 
ATOM     18  H   UNL A   1      31.769  23.275  26.257  1.00  0.00     0.164 HD
ATOM     19  C   UNL A   1      34.609  21.747  26.725  1.00  0.00     0.117 C 
ATOM     20  O   UNL A   1      32.909  22.249  28.376  1.00  0.00    -0.275 OA
BRANCH   9  21
ATOM     21  C   UNL A   1      32.885  25.727  21.856  1.00  0.00     0.339 C 
BRANCH  21  22
ATOM     22  C   UNL A   1      32.304  26.609  22.917  1.00  0.00     0.165 A 
ATOM     23  C   UNL A   1      33.893  28.582  22.731  1.00  0.00     0.152 C 
ATOM     24  N   UNL A   1      32.896  27.768  23.383  1.00  0.00    -0.326 N 
ATOM     25  C   UNL A   1      32.528  27.898  24.705  1.00  0.00     0.068 A 
ATOM     26  N   UNL A   1      31.305  26.260  23.707  1.00  0.00    -0.227 NA
ATOM     27  C   UNL A   1      31.498  26.975  24.855  1.00  0.00     0.089 A 
ATOM     28  C   UNL A   1      33.018  28.666  25.766  1.00  0.00     0.028 A 
ATOM     29  C   UNL A   1      30.896  26.801  26.106  1.00  0.00     0.030 A 
ATOM     30  C   UNL A   1      32.449  28.431  27.024  1.00  0.00     0.002 A 
ATOM     31  C   UNL A   1      31.402  27.520  27.193  1.00  0.00     0.002 A 
ENDBRANCH  21  22
ENDBRANCH   9  21
ENDBRANCH   6   8
ENDBRANCH   5   6
ENDBRANCH   4   5
ENDBRANCH   3   4
ENDBRANCH   2   3
ENDBRANCH   1   2
BRANCH   1  32
ATOM     32  C   UNL A   1      41.917  19.601  26.792  1.00  0.00     0.188 C 
BRANCH  32  33
ATOM     33  O   UNL A   1      42.420  19.708  25.471  1.00  0.00    -0.376 OA
BRANCH  33  34
ATOM     34  C   UNL A   1      43.819  19.953  25.347  1.00  0.00     0.202 C 
BRANCH  34  35
ATOM     35  C   UNL A   1      44.217  21.344  24.830  1.00  0.00     0.261 C 
BRANCH  35  36
ATOM     36  O   UNL A   1      43.427  22.392  25.447  1.00  0.00    -0.460 OA
BRANCH  36  37
ATOM     37  C   UNL A   1      44.125  23.207  26.269  1.00  0.00     0.338 C 
ATOM     38  O   UNL A   1      45.315  23.120  26.538  1.00  0.00    -0.246 OA
BRANCH  37  39
ATOM     39  C   UNL A   1      43.317  24.311  26.829  1.00  0.00     0.060 A 
ATOM     40  C   UNL A   1      43.680  25.629  26.575  1.00  0.00     0.016 A 
ATOM     41  C   UNL A   1      42.447  24.039  27.881  1.00  0.00     0.016 A 
ATOM     42  C   UNL A   1      43.351  26.642  27.481  1.00  0.00     0.010 A 
ATOM     43  C   UNL A   1      41.993  25.082  28.702  1.00  0.00     0.010 A 
ATOM     44  C   UNL A   1      42.492  26.391  28.559  1.00  0.00    -0.014 A 
BRANCH  44  45
ATOM     45  C   UNL A   1      42.121  27.454  29.546  1.00  0.00     0.031 A 
ATOM     46  C   UNL A   1      42.874  27.587  30.851  1.00  0.00     0.074 A 
ATOM     47  C   UNL A   1      41.095  28.297  29.309  1.00  0.00     0.049 A 
ATOM     48  N   UNL A   1      42.545  28.231  31.945  1.00  0.00    -0.248 NA
ATOM     49  C   UNL A   1      44.172  26.900  30.935  1.00  0.00     0.031 C 
ATOM     50  C   UNL A   1      40.323  28.376  28.069  1.00  0.00     0.029 A 
ATOM     51  N   UNL A   1      40.510  29.242  30.121  1.00  0.00    -0.354 N 
ATOM     52  C   UNL A   1      43.558  27.977  32.862  1.00  0.00     0.074 A 
ATOM     53  C   UNL A   1      44.521  27.127  32.193  1.00  0.00     0.031 C 
ATOM     54  C   UNL A   1      39.384  29.324  28.192  1.00  0.00     0.029 A 
ATOM     55  C   UNL A   1      39.403  29.833  29.557  1.00  0.00     0.049 A 
ATOM     56  H   UNL A   1      40.849  29.472  31.015  1.00  0.00     0.167 HD
ATOM     57  C   UNL A   1      43.668  28.399  34.147  1.00  0.00     0.037 A 
ATOM     58  C   UNL A   1      38.457  30.632  30.086  1.00  0.00     0.037 A 
ATOM     59  C   UNL A   1      42.717  29.265  34.802  1.00  0.00     0.049 A 
ATOM     60  C   UNL A   1      38.528  30.996  31.540  1.00  0.00     0.074 A 
ATOM     61  C   UNL A   1      42.734  29.745  36.102  1.00  0.00     0.029 A 
ATOM     62  N   UNL A   1      41.577  29.784  34.204  1.00  0.00    -0.354 N 
ATOM     63  N   UNL A   1      39.442  30.683  32.426  1.00  0.00    -0.248 NA
ATOM     64  C   UNL A   1      37.420  31.800  32.073  1.00  0.00     0.031 C 
ATOM     65  C   UNL A   1      41.576  30.504  36.306  1.00  0.00     0.029 A 
ATOM     66  C   UNL A   1      40.868  30.550  35.117  1.00  0.00     0.049 A 
ATOM     67  H   UNL A   1      41.310  29.629  33.269  1.00  0.00     0.167 HD
ATOM     68  C   UNL A   1      39.033  31.271  33.616  1.00  0.00     0.074 A 
ATOM     69  C   UNL A   1      37.793  31.967  33.334  1.00  0.00     0.031 C 
ATOM     70  C   UNL A   1      39.633  31.236  34.831  1.00  0.00     0.037 A 
BRANCH  57  71
ATOM     71  C   UNL A   1      44.825  27.875  34.956  1.00  0.00     0.057 A 
ATOM     72  C   UNL A   1      46.041  28.563  35.069  1.00  0.00     0.134 A 
ATOM     73  C   UNL A   1      44.710  26.661  35.648  1.00  0.00     0.134 A 
ATOM     74  F   UNL A   1      46.226  29.724  34.425  1.00  0.00    -0.206 F 
ATOM     75  C   UNL A   1      47.109  28.045  35.806  1.00  0.00     0.040 A 
ATOM     76  C   UNL A   1      45.760  26.148  36.413  1.00  0.00     0.040 A 
ATOM     77  F   UNL A   1      43.572  25.952  35.597  1.00  0.00    -0.206 F 
ATOM     78  C   UNL A   1      46.968  26.835  36.485  1.00  0.00     0.006 A 
ENDBRANCH  57  71
BRANCH  58  79
ATOM     79  C   UNL A   1      37.325  31.088  29.239  1.00  0.00     0.057 A 
ATOM     80  C   UNL A   1      36.259  30.234  28.939  1.00  0.00     0.134 A 
ATOM     81  C   UNL A   1      37.265  32.396  28.738  1.00  0.00     0.134 A 
ATOM     82  F   UNL A   1      36.273  28.963  29.365  1.00  0.00    -0.206 F 
ATOM     83  C   UNL A   1      35.172  30.665  28.177  1.00  0.00     0.040 A 
ATOM     84  C   UNL A   1      36.170  32.849  28.001  1.00  0.00     0.040 A 
ATOM     85  F   UNL A   1      38.256  33.265  28.990  1.00  0.00    -0.206 F 
ATOM     86  C   UNL A   1      35.120  31.979  27.716  1.00  0.00     0.006 A 
ENDBRANCH  58  79
BRANCH  70  87
ATOM     87  C   UNL A   1      38.977  32.009  35.939  1.00  0.00     0.057 A 
ATOM     88  C   UNL A   1      38.094  31.406  36.844  1.00  0.00     0.134 A 
ATOM     89  C   UNL A   1      39.249  33.372  36.113  1.00  0.00     0.134 A 
ATOM     90  F   UNL A   1      37.778  30.108  36.724  1.00  0.00    -0.206 F 
ATOM     91  C   UNL A   1      37.487  32.137  37.868  1.00  0.00     0.040 A 
ATOM     92  C   UNL A   1      38.669  34.107  37.148  1.00  0.00     0.040 A 
ATOM     93  F   UNL A   1      40.089  34.011  35.285  1.00  0.00    -0.206 F 
ATOM     94  C   UNL A   1      37.779  33.490  38.025  1.00  0.00     0.006 A 
ENDBRANCH  70  87
ENDBRANCH  44  45
ENDBRANCH  37  39
ENDBRANCH  36  37
ENDBRANCH  35  36
ENDBRANCH  34  35
ENDBRANCH  33  34
ENDBRANCH  32  33
ENDBRANCH   1  32
TORSDOF 19
ENDMDL
