MODEL 1
REMARK VINA RESULT:     -10.7      0.000      0.000
REMARK SMILES C[C@@H]1CN(S(=O)(=O)N2CCC(C(=O)OCCOCCOCCOC(=O)c3ccc(-c4c5nc(c(-c6c(F)cccc6F)c6ccc([nH]6)c(-c6c(F)cccc6F)c6nc(c(-c7c(F)cccc7F)c7ccc4[nH]7)C=C6)C=C5)cc3)CC2)C[C@@H](C)O1
REMARK SMILES IDX 18 1 17 2 16 3 15 4 14 5 12 6 13 7 11 8 8 9 9 10 81 11 10 12
REMARK SMILES IDX 80 13 5 14 6 15 7 16 4 17 1 18 2 19 3 20 85 21 83 22 82 23
REMARK SMILES IDX 84 24 19 25 20 26 21 27 22 28 23 29 24 30 25 31 26 32 27 33
REMARK SMILES IDX 79 34 28 35 78 36 29 37 30 38 31 39 72 40 32 41 77 42 71 43
REMARK SMILES IDX 73 44 33 45 76 46 70 47 69 48 34 50 60 51 43 52 59 53 44 54
REMARK SMILES IDX 47 55 58 56 74 57 45 58 46 59 57 61 75 62 48 63 35 64 36 65
REMARK SMILES IDX 41 66 37 67 38 68 40 69 42 70 39 71 61 72 62 73 67 74 63 75
REMARK SMILES IDX 64 76 66 77 68 78 65 79 49 80 50 81 55 82 51 83 52 84 54 85
REMARK SMILES IDX 56 86 53 87
REMARK H PARENT 73 49 47 60
REMARK Flexibility Score: inf
ROOT
ATOM      1  C   UNL A   1      38.874  22.447  26.103  1.00  0.00     0.188 C 
ENDROOT
BRANCH   1   2
ATOM      2  O   UNL A   1      37.675  21.789  25.731  1.00  0.00    -0.376 OA
BRANCH   2   3
ATOM      3  C   UNL A   1      37.079  22.215  24.511  1.00  0.00     0.202 C 
BRANCH   3   4
ATOM      4  C   UNL A   1      35.616  21.823  24.257  1.00  0.00     0.261 C 
BRANCH   4   5
ATOM      5  O   UNL A   1      34.713  21.983  25.365  1.00  0.00    -0.463 OA
BRANCH   5   6
ATOM      6  C   UNL A   1      34.108  23.198  25.488  1.00  0.00     0.309 C 
ATOM      7  O   UNL A   1      34.146  23.903  26.487  1.00  0.00    -0.252 OA
BRANCH   6   8
ATOM      8  C   UNL A   1      33.294  23.563  24.251  1.00  0.00     0.102 C 
ATOM      9  N   UNL A   1      31.524  25.566  23.274  1.00  0.00    -0.189 NA
ATOM     10  C   UNL A   1      32.877  25.576  22.705  1.00  0.00     0.104 C 
ATOM     11  C   UNL A   1      30.994  24.202  23.370  1.00  0.00     0.104 C 
ATOM     12  C   UNL A   1      33.807  24.916  23.721  1.00  0.00     0.032 C 
ATOM     13  C   UNL A   1      31.775  23.511  24.493  1.00  0.00     0.032 C 
BRANCH   9  14
ATOM     14  S   UNL A   1      30.562  26.938  23.288  1.00  0.00     0.282 S 
ATOM     15  O   UNL A   1      29.221  26.563  23.666  1.00  0.00    -0.195 OA
ATOM     16  O   UNL A   1      30.829  27.699  22.090  1.00  0.00    -0.195 OA
BRANCH  14  17
ATOM     17  N   UNL A   1      31.232  27.805  24.562  1.00  0.00    -0.184 NA
ATOM     18  C   UNL A   1      33.638  27.619  26.157  1.00  0.00     0.040 C 
ATOM     19  C   UNL A   1      32.240  27.841  26.739  1.00  0.00     0.130 C 
ATOM     20  C   UNL A   1      31.100  27.253  25.922  1.00  0.00     0.135 C 
ATOM     21  O   UNL A   1      31.995  29.230  26.942  1.00  0.00    -0.373 OA
ATOM     22  C   UNL A   1      31.873  29.960  25.707  1.00  0.00     0.130 C 
ATOM     23  C   UNL A   1      30.941  29.280  24.647  1.00  0.00     0.135 C 
ATOM     24  C   UNL A   1      31.364  31.328  26.143  1.00  0.00     0.040 C 
ENDBRANCH  14  17
ENDBRANCH   9  14
ENDBRANCH   6   8
ENDBRANCH   5   6
ENDBRANCH   4   5
ENDBRANCH   3   4
ENDBRANCH   2   3
ENDBRANCH   1   2
BRANCH   1  25
ATOM     25  C   UNL A   1      39.999  21.610  26.730  1.00  0.00     0.188 C 
BRANCH  25  26
ATOM     26  O   UNL A   1      40.836  20.893  25.836  1.00  0.00    -0.376 OA
BRANCH  26  27
ATOM     27  C   UNL A   1      42.039  20.342  26.377  1.00  0.00     0.202 C 
BRANCH  27  28
ATOM     28  C   UNL A   1      43.378  20.979  25.991  1.00  0.00     0.261 C 
BRANCH  28  29
ATOM     29  O   UNL A   1      43.604  22.297  26.513  1.00  0.00    -0.460 OA
BRANCH  29  30
ATOM     30  C   UNL A   1      43.521  23.373  25.699  1.00  0.00     0.338 C 
ATOM     31  O   UNL A   1      43.638  23.401  24.488  1.00  0.00    -0.246 OA
BRANCH  30  32
ATOM     32  C   UNL A   1      43.008  24.491  26.531  1.00  0.00     0.060 A 
ATOM     33  C   UNL A   1      43.362  25.814  26.225  1.00  0.00     0.016 A 
ATOM     34  C   UNL A   1      42.100  24.226  27.560  1.00  0.00     0.016 A 
ATOM     35  C   UNL A   1      42.829  26.873  26.972  1.00  0.00     0.010 A 
ATOM     36  C   UNL A   1      41.566  25.276  28.297  1.00  0.00     0.010 A 
ATOM     37  C   UNL A   1      41.955  26.600  28.033  1.00  0.00    -0.014 A 
BRANCH  37  38
ATOM     38  C   UNL A   1      41.609  27.618  29.052  1.00  0.00     0.031 A 
ATOM     39  C   UNL A   1      42.373  27.572  30.347  1.00  0.00     0.074 A 
ATOM     40  C   UNL A   1      40.593  28.481  28.886  1.00  0.00     0.049 A 
ATOM     41  N   UNL A   1      42.118  28.154  31.489  1.00  0.00    -0.248 NA
ATOM     42  C   UNL A   1      43.580  26.724  30.356  1.00  0.00     0.031 C 
ATOM     43  C   UNL A   1      39.802  28.646  27.669  1.00  0.00     0.029 A 
ATOM     44  N   UNL A   1      40.030  29.363  29.776  1.00  0.00    -0.354 N 
ATOM     45  C   UNL A   1      43.119  27.728  32.354  1.00  0.00     0.074 A 
ATOM     46  C   UNL A   1      43.962  26.813  31.620  1.00  0.00     0.031 C 
ATOM     47  C   UNL A   1      38.837  29.556  27.897  1.00  0.00     0.029 A 
ATOM     48  C   UNL A   1      38.913  29.998  29.288  1.00  0.00     0.049 A 
ATOM     49  H   UNL A   1      40.391  29.524  30.678  1.00  0.00     0.167 HD
ATOM     50  C   UNL A   1      43.321  28.078  33.644  1.00  0.00     0.037 A 
ATOM     51  C   UNL A   1      38.035  30.809  29.914  1.00  0.00     0.037 A 
ATOM     52  C   UNL A   1      42.475  28.984  34.369  1.00  0.00     0.049 A 
ATOM     53  C   UNL A   1      38.234  31.117  31.380  1.00  0.00     0.074 A 
ATOM     54  C   UNL A   1      42.580  29.399  35.684  1.00  0.00     0.029 A 
ATOM     55  N   UNL A   1      41.365  29.618  33.834  1.00  0.00    -0.354 N 
ATOM     56  N   UNL A   1      39.183  30.715  32.193  1.00  0.00    -0.248 NA
ATOM     57  C   UNL A   1      37.234  31.987  32.018  1.00  0.00     0.031 C 
ATOM     58  C   UNL A   1      41.511  30.256  35.956  1.00  0.00     0.029 A 
ATOM     59  C   UNL A   1      40.774  30.420  34.794  1.00  0.00     0.049 A 
ATOM     60  H   UNL A   1      41.045  29.514  32.908  1.00  0.00     0.167 HD
ATOM     61  C   UNL A   1      38.924  31.328  33.415  1.00  0.00     0.074 A 
ATOM     62  C   UNL A   1      37.730  32.126  33.238  1.00  0.00     0.031 C 
ATOM     63  C   UNL A   1      39.614  31.244  34.579  1.00  0.00     0.037 A 
BRANCH  50  64
ATOM     64  C   UNL A   1      44.498  27.473  34.350  1.00  0.00     0.057 A 
ATOM     65  C   UNL A   1      45.744  28.113  34.385  1.00  0.00     0.134 A 
ATOM     66  C   UNL A   1      44.376  26.256  35.033  1.00  0.00     0.134 A 
ATOM     67  F   UNL A   1      45.931  29.270  33.734  1.00  0.00    -0.206 F 
ATOM     68  C   UNL A   1      46.831  27.557  35.059  1.00  0.00     0.040 A 
ATOM     69  C   UNL A   1      45.448  25.705  35.737  1.00  0.00     0.040 A 
ATOM     70  F   UNL A   1      43.212  25.591  35.039  1.00  0.00    -0.206 F 
ATOM     71  C   UNL A   1      46.681  26.353  35.746  1.00  0.00     0.006 A 
ENDBRANCH  50  64
BRANCH  51  72
ATOM     72  C   UNL A   1      36.871  31.383  29.186  1.00  0.00     0.057 A 
ATOM     73  C   UNL A   1      35.761  30.590  28.866  1.00  0.00     0.134 A 
ATOM     74  C   UNL A   1      36.868  32.705  28.730  1.00  0.00     0.134 A 
ATOM     75  F   UNL A   1      35.714  29.307  29.252  1.00  0.00    -0.206 F 
ATOM     76  C   UNL A   1      34.709  31.080  28.087  1.00  0.00     0.040 A 
ATOM     77  C   UNL A   1      35.808  33.219  27.978  1.00  0.00     0.040 A 
ATOM     78  F   UNL A   1      37.899  33.520  29.000  1.00  0.00    -0.206 F 
ATOM     79  C   UNL A   1      34.731  32.400  27.642  1.00  0.00     0.006 A 
ENDBRANCH  51  72
BRANCH  63  80
ATOM     80  C   UNL A   1      39.161  32.102  35.725  1.00  0.00     0.057 A 
ATOM     81  C   UNL A   1      38.317  31.623  36.733  1.00  0.00     0.134 A 
ATOM     82  C   UNL A   1      39.644  33.412  35.853  1.00  0.00     0.134 A 
ATOM     83  F   UNL A   1      37.814  30.381  36.666  1.00  0.00    -0.206 F 
ATOM     84  C   UNL A   1      37.955  32.422  37.819  1.00  0.00     0.040 A 
ATOM     85  C   UNL A   1      39.314  34.209  36.949  1.00  0.00     0.040 A 
ATOM     86  F   UNL A   1      40.468  33.928  34.928  1.00  0.00    -0.206 F 
ATOM     87  C   UNL A   1      38.462  33.715  37.934  1.00  0.00     0.006 A 
ENDBRANCH  63  80
ENDBRANCH  37  38
ENDBRANCH  30  32
ENDBRANCH  29  30
ENDBRANCH  28  29
ENDBRANCH  27  28
ENDBRANCH  26  27
ENDBRANCH  25  26
ENDBRANCH   1  25
TORSDOF 19
ENDMDL
MODEL 2
REMARK VINA RESULT:     -10.5      1.321      6.311
REMARK SMILES C[C@@H]1CN(S(=O)(=O)N2CCC(C(=O)OCCOCCOCCOC(=O)c3ccc(-c4c5nc(c(-c6c(F)cccc6F)c6ccc([nH]6)c(-c6c(F)cccc6F)c6nc(c(-c7c(F)cccc7F)c7ccc4[nH]7)C=C6)C=C5)cc3)CC2)C[C@@H](C)O1
REMARK SMILES IDX 18 1 17 2 16 3 15 4 14 5 12 6 13 7 11 8 8 9 9 10 81 11 10 12
REMARK SMILES IDX 80 13 5 14 6 15 7 16 4 17 1 18 2 19 3 20 85 21 83 22 82 23
REMARK SMILES IDX 84 24 19 25 20 26 21 27 22 28 23 29 24 30 25 31 26 32 27 33
REMARK SMILES IDX 79 34 28 35 78 36 29 37 30 38 31 39 72 40 32 41 77 42 71 43
REMARK SMILES IDX 73 44 33 45 76 46 70 47 69 48 34 50 60 51 43 52 59 53 44 54
REMARK SMILES IDX 47 55 58 56 74 57 45 58 46 59 57 61 75 62 48 63 35 64 36 65
REMARK SMILES IDX 41 66 37 67 38 68 40 69 42 70 39 71 61 72 62 73 67 74 63 75
REMARK SMILES IDX 64 76 66 77 68 78 65 79 49 80 50 81 55 82 51 83 52 84 54 85
REMARK SMILES IDX 56 86 53 87
REMARK H PARENT 73 49 47 60
REMARK Flexibility Score: inf
ROOT
ATOM      1  C   UNL A   1      41.046  21.145  26.832  1.00  0.00     0.188 C 
ENDROOT
BRANCH   1   2
ATOM      2  O   UNL A   1      40.342  21.750  25.761  1.00  0.00    -0.376 OA
BRANCH   2   3
ATOM      3  C   UNL A   1      39.049  22.258  26.069  1.00  0.00     0.202 C 
BRANCH   3   4
ATOM      4  C   UNL A   1      37.833  21.433  25.619  1.00  0.00     0.261 C 
BRANCH   4   5
ATOM      5  O   UNL A   1      37.452  21.565  24.239  1.00  0.00    -0.463 OA
BRANCH   5   6
ATOM      6  C   UNL A   1      36.520  22.517  23.951  1.00  0.00     0.309 C 
ATOM      7  O   UNL A   1      36.573  23.287  23.002  1.00  0.00    -0.252 OA
BRANCH   6   8
ATOM      8  C   UNL A   1      35.419  22.580  25.005  1.00  0.00     0.102 C 
ATOM      9  N   UNL A   1      32.858  23.732  25.467  1.00  0.00    -0.189 NA
ATOM     10  C   UNL A   1      32.870  22.290  25.191  1.00  0.00     0.104 C 
ATOM     11  C   UNL A   1      33.932  24.109  26.393  1.00  0.00     0.104 C 
ATOM     12  C   UNL A   1      34.135  21.987  24.391  1.00  0.00     0.032 C 
ATOM     13  C   UNL A   1      35.242  23.984  25.609  1.00  0.00     0.032 C 
BRANCH   9  14
ATOM     14  S   UNL A   1      31.499  24.672  25.192  1.00  0.00     0.282 S 
ATOM     15  O   UNL A   1      30.671  24.653  26.373  1.00  0.00    -0.195 OA
ATOM     16  O   UNL A   1      30.969  24.345  23.888  1.00  0.00    -0.195 OA
BRANCH  14  17
ATOM     17  N   UNL A   1      32.172  26.207  25.061  1.00  0.00    -0.184 NA
ATOM     18  C   UNL A   1      33.387  28.098  26.881  1.00  0.00     0.040 C 
ATOM     19  C   UNL A   1      32.332  28.471  25.837  1.00  0.00     0.130 C 
ATOM     20  C   UNL A   1      31.356  27.359  25.480  1.00  0.00     0.135 C 
ATOM     21  O   UNL A   1      32.951  28.945  24.644  1.00  0.00    -0.373 OA
ATOM     22  C   UNL A   1      33.653  27.908  23.933  1.00  0.00     0.130 C 
ATOM     23  C   UNL A   1      32.843  26.579  23.765  1.00  0.00     0.135 C 
ATOM     24  C   UNL A   1      34.001  28.556  22.599  1.00  0.00     0.040 C 
ENDBRANCH  14  17
ENDBRANCH   9  14
ENDBRANCH   6   8
ENDBRANCH   5   6
ENDBRANCH   4   5
ENDBRANCH   3   4
ENDBRANCH   2   3
ENDBRANCH   1   2
BRANCH   1  25
ATOM     25  C   UNL A   1      42.162  20.144  26.495  1.00  0.00     0.188 C 
BRANCH  25  26
ATOM     26  O   UNL A   1      42.974  20.447  25.372  1.00  0.00    -0.376 OA
BRANCH  26  27
ATOM     27  C   UNL A   1      43.864  21.559  25.498  1.00  0.00     0.202 C 
BRANCH  27  28
ATOM     28  C   UNL A   1      43.774  22.692  24.470  1.00  0.00     0.261 C 
BRANCH  28  29
ATOM     29  O   UNL A   1      43.262  23.937  24.971  1.00  0.00    -0.460 OA
BRANCH  29  30
ATOM     30  C   UNL A   1      44.108  24.943  25.282  1.00  0.00     0.338 C 
ATOM     31  O   UNL A   1      45.099  25.299  24.672  1.00  0.00    -0.246 OA
BRANCH  30  32
ATOM     32  C   UNL A   1      43.465  25.707  26.382  1.00  0.00     0.060 A 
ATOM     33  C   UNL A   1      43.890  27.013  26.673  1.00  0.00     0.016 A 
ATOM     34  C   UNL A   1      42.377  25.154  27.063  1.00  0.00     0.016 A 
ATOM     35  C   UNL A   1      43.243  27.755  27.669  1.00  0.00     0.010 A 
ATOM     36  C   UNL A   1      41.731  25.893  28.047  1.00  0.00     0.010 A 
ATOM     37  C   UNL A   1      42.182  27.180  28.381  1.00  0.00    -0.014 A 
BRANCH  37  38
ATOM     38  C   UNL A   1      41.668  27.767  29.640  1.00  0.00     0.031 A 
ATOM     39  C   UNL A   1      40.470  28.670  29.532  1.00  0.00     0.074 A 
ATOM     40  C   UNL A   1      42.294  27.597  30.817  1.00  0.00     0.049 A 
ATOM     41  N   UNL A   1      39.973  29.508  30.402  1.00  0.00    -0.248 NA
ATOM     42  C   UNL A   1      39.752  28.639  28.243  1.00  0.00     0.031 C 
ATOM     43  C   UNL A   1      43.439  26.723  31.058  1.00  0.00     0.029 A 
ATOM     44  N   UNL A   1      42.063  28.194  32.033  1.00  0.00    -0.354 N 
ATOM     45  C   UNL A   1      38.899  30.115  29.762  1.00  0.00     0.074 A 
ATOM     46  C   UNL A   1      38.838  29.580  28.421  1.00  0.00     0.031 C 
ATOM     47  C   UNL A   1      43.829  26.860  32.338  1.00  0.00     0.029 A 
ATOM     48  C   UNL A   1      42.993  27.867  32.991  1.00  0.00     0.049 A 
ATOM     49  H   UNL A   1      41.305  28.800  32.202  1.00  0.00     0.167 HD
ATOM     50  C   UNL A   1      38.035  31.031  30.253  1.00  0.00     0.037 A 
ATOM     51  C   UNL A   1      43.166  28.360  34.234  1.00  0.00     0.037 A 
ATOM     52  C   UNL A   1      38.105  31.563  31.585  1.00  0.00     0.049 A 
ATOM     53  C   UNL A   1      42.240  29.447  34.730  1.00  0.00     0.074 A 
ATOM     54  C   UNL A   1      37.288  32.505  32.183  1.00  0.00     0.029 A 
ATOM     55  N   UNL A   1      39.051  31.193  32.528  1.00  0.00    -0.354 N 
ATOM     56  N   UNL A   1      41.224  30.015  34.123  1.00  0.00    -0.248 NA
ATOM     57  C   UNL A   1      42.488  29.964  36.084  1.00  0.00     0.031 C 
ATOM     58  C   UNL A   1      37.763  32.733  33.477  1.00  0.00     0.029 A 
ATOM     59  C   UNL A   1      38.840  31.891  33.704  1.00  0.00     0.049 A 
ATOM     60  H   UNL A   1      39.767  30.532  32.383  1.00  0.00     0.167 HD
ATOM     61  C   UNL A   1      40.684  30.911  35.040  1.00  0.00     0.074 A 
ATOM     62  C   UNL A   1      41.483  30.813  36.243  1.00  0.00     0.031 C 
ATOM     63  C   UNL A   1      39.619  31.739  34.904  1.00  0.00     0.037 A 
BRANCH  50  64
ATOM     64  C   UNL A   1      36.947  31.517  29.342  1.00  0.00     0.057 A 
ATOM     65  C   UNL A   1      35.824  30.732  29.053  1.00  0.00     0.134 A 
ATOM     66  C   UNL A   1      37.006  32.797  28.775  1.00  0.00     0.134 A 
ATOM     67  F   UNL A   1      35.718  29.490  29.548  1.00  0.00    -0.206 F 
ATOM     68  C   UNL A   1      34.804  31.195  28.220  1.00  0.00     0.040 A 
ATOM     69  C   UNL A   1      35.978  33.282  27.964  1.00  0.00     0.040 A 
ATOM     70  F   UNL A   1      38.055  33.599  29.009  1.00  0.00    -0.206 F 
ATOM     71  C   UNL A   1      34.876  32.478  27.681  1.00  0.00     0.006 A 
ENDBRANCH  50  64
BRANCH  51  72
ATOM     72  C   UNL A   1      44.263  27.864  35.108  1.00  0.00     0.057 A 
ATOM     73  C   UNL A   1      44.030  26.858  36.055  1.00  0.00     0.134 A 
ATOM     74  C   UNL A   1      45.544  28.427  35.073  1.00  0.00     0.134 A 
ATOM     75  F   UNL A   1      42.817  26.295  36.156  1.00  0.00    -0.206 F 
ATOM     76  C   UNL A   1      45.018  26.457  36.958  1.00  0.00     0.040 A 
ATOM     77  C   UNL A   1      46.551  28.014  35.949  1.00  0.00     0.040 A 
ATOM     78  F   UNL A   1      45.836  29.395  34.192  1.00  0.00    -0.206 F 
ATOM     79  C   UNL A   1      46.283  27.035  36.906  1.00  0.00     0.006 A 
ENDBRANCH  51  72
BRANCH  63  80
ATOM     80  C   UNL A   1      39.191  32.532  36.105  1.00  0.00     0.057 A 
ATOM     81  C   UNL A   1      38.321  32.018  37.073  1.00  0.00     0.134 A 
ATOM     82  C   UNL A   1      39.724  33.811  36.325  1.00  0.00     0.134 A 
ATOM     83  F   UNL A   1      37.771  30.805  36.917  1.00  0.00    -0.206 F 
ATOM     84  C   UNL A   1      37.982  32.754  38.210  1.00  0.00     0.040 A 
ATOM     85  C   UNL A   1      39.416  34.542  37.472  1.00  0.00     0.040 A 
ATOM     86  F   UNL A   1      40.574  34.356  35.442  1.00  0.00    -0.206 F 
ATOM     87  C   UNL A   1      38.539  34.015  38.416  1.00  0.00     0.006 A 
ENDBRANCH  63  80
ENDBRANCH  37  38
ENDBRANCH  30  32
ENDBRANCH  29  30
ENDBRANCH  28  29
ENDBRANCH  27  28
ENDBRANCH  26  27
ENDBRANCH  25  26
ENDBRANCH   1  25
TORSDOF 19
ENDMDL
MODEL 3
REMARK VINA RESULT:     -10.4      1.735      6.948
REMARK SMILES C[C@@H]1CN(S(=O)(=O)N2CCC(C(=O)OCCOCCOCCOC(=O)c3ccc(-c4c5nc(c(-c6c(F)cccc6F)c6ccc([nH]6)c(-c6c(F)cccc6F)c6nc(c(-c7c(F)cccc7F)c7ccc4[nH]7)C=C6)C=C5)cc3)CC2)C[C@@H](C)O1
REMARK SMILES IDX 18 1 17 2 16 3 15 4 14 5 12 6 13 7 11 8 8 9 9 10 81 11 10 12
REMARK SMILES IDX 80 13 5 14 6 15 7 16 4 17 1 18 2 19 3 20 85 21 83 22 82 23
REMARK SMILES IDX 84 24 19 25 20 26 21 27 22 28 23 29 24 30 25 31 26 32 27 33
REMARK SMILES IDX 79 34 28 35 78 36 29 37 30 38 31 39 72 40 32 41 77 42 71 43
REMARK SMILES IDX 73 44 33 45 76 46 70 47 69 48 34 50 60 51 43 52 59 53 44 54
REMARK SMILES IDX 47 55 58 56 74 57 45 58 46 59 57 61 75 62 48 63 35 64 36 65
REMARK SMILES IDX 41 66 37 67 38 68 40 69 42 70 39 71 61 72 62 73 67 74 63 75
REMARK SMILES IDX 64 76 66 77 68 78 65 79 49 80 50 81 55 82 51 83 52 84 54 85
REMARK SMILES IDX 56 86 53 87
REMARK H PARENT 73 49 47 60
REMARK Flexibility Score: inf
ROOT
ATOM      1  C   UNL A   1      44.564  19.284  24.823  1.00  0.00     0.188 C 
ENDROOT
BRANCH   1   2
ATOM      2  O   UNL A   1      43.591  19.041  25.824  1.00  0.00    -0.376 OA
BRANCH   2   3
ATOM      3  C   UNL A   1      42.433  19.867  25.785  1.00  0.00     0.202 C 
BRANCH   3   4
ATOM      4  C   UNL A   1      41.629  20.030  27.084  1.00  0.00     0.261 C 
BRANCH   4   5
ATOM      5  O   UNL A   1      40.291  20.538  26.944  1.00  0.00    -0.463 OA
BRANCH   5   6
ATOM      6  C   UNL A   1      40.150  21.894  26.940  1.00  0.00     0.309 C 
ATOM      7  O   UNL A   1      40.751  22.664  27.677  1.00  0.00    -0.252 OA
BRANCH   6   8
ATOM      8  C   UNL A   1      39.084  22.358  25.953  1.00  0.00     0.102 C 
ATOM      9  N   UNL A   1      36.261  22.612  25.698  1.00  0.00    -0.189 NA
ATOM     10  C   UNL A   1      37.002  23.866  25.887  1.00  0.00     0.104 C 
ATOM     11  C   UNL A   1      36.937  21.731  24.740  1.00  0.00     0.104 C 
ATOM     12  C   UNL A   1      38.308  23.524  26.598  1.00  0.00     0.032 C 
ATOM     13  C   UNL A   1      38.195  21.210  25.443  1.00  0.00     0.032 C 
BRANCH   9  14
ATOM     14  S   UNL A   1      34.641  22.474  26.101  1.00  0.00     0.282 S 
ATOM     15  O   UNL A   1      34.497  22.666  27.524  1.00  0.00    -0.195 OA
ATOM     16  O   UNL A   1      34.097  21.315  25.433  1.00  0.00    -0.195 OA
BRANCH  14  17
ATOM     17  N   UNL A   1      33.987  23.818  25.333  1.00  0.00    -0.184 NA
ATOM     18  C   UNL A   1      33.854  26.656  25.877  1.00  0.00     0.040 C 
ATOM     19  C   UNL A   1      32.659  25.814  25.424  1.00  0.00     0.130 C 
ATOM     20  C   UNL A   1      32.708  24.350  25.834  1.00  0.00     0.135 C 
ATOM     21  O   UNL A   1      32.496  25.892  24.010  1.00  0.00    -0.373 OA
ATOM     22  C   UNL A   1      33.555  25.235  23.291  1.00  0.00     0.130 C 
ATOM     23  C   UNL A   1      33.910  23.807  23.828  1.00  0.00     0.135 C 
ATOM     24  C   UNL A   1      33.056  25.211  21.851  1.00  0.00     0.040 C 
ENDBRANCH  14  17
ENDBRANCH   9  14
ENDBRANCH   6   8
ENDBRANCH   5   6
ENDBRANCH   4   5
ENDBRANCH   3   4
ENDBRANCH   2   3
ENDBRANCH   1   2
BRANCH   1  25
ATOM     25  C   UNL A   1      45.944  19.800  25.261  1.00  0.00     0.188 C 
BRANCH  25  26
ATOM     26  O   UNL A   1      46.264  21.138  24.914  1.00  0.00    -0.376 OA
BRANCH  26  27
ATOM     27  C   UNL A   1      45.404  22.162  25.423  1.00  0.00     0.202 C 
BRANCH  27  28
ATOM     28  C   UNL A   1      44.628  23.032  24.428  1.00  0.00     0.261 C 
BRANCH  28  29
ATOM     29  O   UNL A   1      43.985  24.184  24.993  1.00  0.00    -0.460 OA
BRANCH  29  30
ATOM     30  C   UNL A   1      44.707  25.287  25.290  1.00  0.00     0.338 C 
ATOM     31  O   UNL A   1      45.645  25.754  24.670  1.00  0.00    -0.246 OA
BRANCH  30  32
ATOM     32  C   UNL A   1      43.986  25.978  26.389  1.00  0.00     0.060 A 
ATOM     33  C   UNL A   1      44.243  27.332  26.657  1.00  0.00     0.016 A 
ATOM     34  C   UNL A   1      42.986  25.300  27.092  1.00  0.00     0.016 A 
ATOM     35  C   UNL A   1      43.518  27.999  27.653  1.00  0.00     0.010 A 
ATOM     36  C   UNL A   1      42.263  25.964  28.077  1.00  0.00     0.010 A 
ATOM     37  C   UNL A   1      42.549  27.303  28.388  1.00  0.00    -0.014 A 
BRANCH  37  38
ATOM     38  C   UNL A   1      41.979  27.838  29.646  1.00  0.00     0.031 A 
ATOM     39  C   UNL A   1      40.732  28.669  29.530  1.00  0.00     0.074 A 
ATOM     40  C   UNL A   1      42.594  27.686  30.832  1.00  0.00     0.049 A 
ATOM     41  N   UNL A   1      40.171  29.461  30.404  1.00  0.00    -0.248 NA
ATOM     42  C   UNL A   1      40.039  28.618  28.229  1.00  0.00     0.031 C 
ATOM     43  C   UNL A   1      43.785  26.877  31.079  1.00  0.00     0.029 A 
ATOM     44  N   UNL A   1      42.308  28.247  32.052  1.00  0.00    -0.354 N 
ATOM     45  C   UNL A   1      39.074  30.014  29.755  1.00  0.00     0.074 A 
ATOM     46  C   UNL A   1      39.068  29.499  28.405  1.00  0.00     0.031 C 
ATOM     47  C   UNL A   1      44.145  27.016  32.368  1.00  0.00     0.029 A 
ATOM     48  C   UNL A   1      43.240  27.960  33.021  1.00  0.00     0.049 A 
ATOM     49  H   UNL A   1      41.512  28.804  32.217  1.00  0.00     0.167 HD
ATOM     50  C   UNL A   1      38.148  30.869  30.245  1.00  0.00     0.037 A 
ATOM     51  C   UNL A   1      43.361  28.442  34.275  1.00  0.00     0.037 A 
ATOM     52  C   UNL A   1      38.163  31.382  31.586  1.00  0.00     0.049 A 
ATOM     53  C   UNL A   1      42.364  29.463  34.771  1.00  0.00     0.074 A 
ATOM     54  C   UNL A   1      37.282  32.263  32.184  1.00  0.00     0.029 A 
ATOM     55  N   UNL A   1      39.114  31.053  32.540  1.00  0.00    -0.354 N 
ATOM     56  N   UNL A   1      41.326  29.980  34.155  1.00  0.00    -0.248 NA
ATOM     57  C   UNL A   1      42.558  29.971  36.138  1.00  0.00     0.031 C 
ATOM     58  C   UNL A   1      37.720  32.498  33.489  1.00  0.00     0.029 A 
ATOM     59  C   UNL A   1      38.842  31.717  33.722  1.00  0.00     0.049 A 
ATOM     60  H   UNL A   1      39.870  30.438  32.397  1.00  0.00     0.167 HD
ATOM     61  C   UNL A   1      40.718  30.826  35.076  1.00  0.00     0.074 A 
ATOM     62  C   UNL A   1      41.501  30.756  36.291  1.00  0.00     0.031 C 
ATOM     63  C   UNL A   1      39.608  31.592  34.934  1.00  0.00     0.037 A 
BRANCH  50  64
ATOM     64  C   UNL A   1      37.049  31.305  29.322  1.00  0.00     0.057 A 
ATOM     65  C   UNL A   1      35.963  30.471  29.026  1.00  0.00     0.134 A 
ATOM     66  C   UNL A   1      37.058  32.584  28.750  1.00  0.00     0.134 A 
ATOM     67  F   UNL A   1      35.906  29.228  29.525  1.00  0.00    -0.206 F 
ATOM     68  C   UNL A   1      34.932  30.887  28.183  1.00  0.00     0.040 A 
ATOM     69  C   UNL A   1      36.018  33.022  27.929  1.00  0.00     0.040 A 
ATOM     70  F   UNL A   1      38.070  33.431  28.990  1.00  0.00    -0.206 F 
ATOM     71  C   UNL A   1      34.954  32.170  27.639  1.00  0.00     0.006 A 
ENDBRANCH  50  64
BRANCH  51  72
ATOM     72  C   UNL A   1      44.471  27.997  35.160  1.00  0.00     0.057 A 
ATOM     73  C   UNL A   1      44.309  26.908  36.027  1.00  0.00     0.134 A 
ATOM     74  C   UNL A   1      45.688  28.686  35.218  1.00  0.00     0.134 A 
ATOM     75  F   UNL A   1      43.157  26.221  36.038  1.00  0.00    -0.206 F 
ATOM     76  C   UNL A   1      45.298  26.545  36.944  1.00  0.00     0.040 A 
ATOM     77  C   UNL A   1      46.699  28.314  36.108  1.00  0.00     0.040 A 
ATOM     78  F   UNL A   1      45.911  29.738  34.417  1.00  0.00    -0.206 F 
ATOM     79  C   UNL A   1      46.499  27.249  36.985  1.00  0.00     0.006 A 
ENDBRANCH  51  72
BRANCH  63  80
ATOM     80  C   UNL A   1      39.113  32.339  36.139  1.00  0.00     0.057 A 
ATOM     81  C   UNL A   1      38.250  31.761  37.077  1.00  0.00     0.134 A 
ATOM     82  C   UNL A   1      39.575  33.638  36.396  1.00  0.00     0.134 A 
ATOM     83  F   UNL A   1      37.766  30.525  36.885  1.00  0.00    -0.206 F 
ATOM     84  C   UNL A   1      37.848  32.456  38.219  1.00  0.00     0.040 A 
ATOM     85  C   UNL A   1      39.204  34.329  37.549  1.00  0.00     0.040 A 
ATOM     86  F   UNL A   1      40.416  34.243  35.544  1.00  0.00    -0.206 F 
ATOM     87  C   UNL A   1      38.334  33.740  38.462  1.00  0.00     0.006 A 
ENDBRANCH  63  80
ENDBRANCH  37  38
ENDBRANCH  30  32
ENDBRANCH  29  30
ENDBRANCH  28  29
ENDBRANCH  27  28
ENDBRANCH  26  27
ENDBRANCH  25  26
ENDBRANCH   1  25
TORSDOF 19
ENDMDL
