MODEL 1
REMARK VINA RESULT:      -9.7      0.000      0.000
REMARK SMILES C[C@](NC(=O)CSCc1cccs1)(C(=O)OCCOCCOCCOC(=O)c1ccc(-c2c3nc(c(-c4c(F)cccc4F)c4ccc([nH]4)c(-c4c(F)cccc4F)c4nc(c(-c5c(F)cccc5F)c5ccc2[nH]5)C=C4)C=C3)cc1)C(F)(F)F
REMARK SMILES IDX 19 1 18 2 17 3 16 4 14 5 15 6 2 7 1 8 82 9 83 10 84 11 85 12
REMARK SMILES IDX 3 13 4 14 5 16 6 17 7 18 8 19 9 20 10 21 13 22 11 23 12 24
REMARK SMILES IDX 20 25 21 26 22 27 23 28 24 29 25 30 26 31 27 32 28 33 29 34
REMARK SMILES IDX 81 35 30 36 80 37 31 38 32 39 33 40 74 41 34 42 79 43 73 44
REMARK SMILES IDX 75 45 35 46 78 47 72 48 71 49 36 51 62 52 45 53 61 54 46 55
REMARK SMILES IDX 49 56 60 57 76 58 47 59 48 60 59 62 77 63 50 64 37 65 38 66
REMARK SMILES IDX 43 67 39 68 40 69 42 70 44 71 41 72 63 73 64 74 69 75 65 76
REMARK SMILES IDX 66 77 68 78 70 79 67 80 51 81 52 82 57 83 53 84 54 85 56 86
REMARK SMILES IDX 58 87 55 88
REMARK H PARENT 3 15 75 50 49 61
REMARK Flexibility Score: inf
ROOT
ATOM      1  O   UNL A   1      32.563  30.631  27.086  1.00  0.00    -0.376 OA
ENDROOT
BRANCH   1   2
ATOM      2  C   UNL A   1      31.932  29.361  26.984  1.00  0.00     0.202 C 
BRANCH   2   3
ATOM      3  C   UNL A   1      32.766  28.077  27.163  1.00  0.00     0.261 C 
BRANCH   3   4
ATOM      4  O   UNL A   1      32.861  27.203  26.013  1.00  0.00    -0.461 OA
BRANCH   4   5
ATOM      5  C   UNL A   1      31.955  26.186  25.931  1.00  0.00     0.341 C 
ATOM      6  O   UNL A   1      31.416  25.691  26.916  1.00  0.00    -0.249 OA
BRANCH   5   7
ATOM      7  C   UNL A   1      31.645  25.716  24.491  1.00  0.00     0.231 C 
ATOM      8  C   UNL A   1      30.609  24.589  24.571  1.00  0.00     0.058 C 
BRANCH   7   9
ATOM      9  C   UNL A   1      30.948  26.940  23.847  1.00  0.00     0.422 C 
ATOM     10  F   UNL A   1      29.964  27.418  24.651  1.00  0.00    -0.168 F 
ATOM     11  F   UNL A   1      31.833  27.963  23.711  1.00  0.00    -0.168 F 
ATOM     12  F   UNL A   1      30.418  26.717  22.632  1.00  0.00    -0.168 F 
ENDBRANCH   7   9
BRANCH   7  13
ATOM     13  N   UNL A   1      32.821  25.350  23.620  1.00  0.00    -0.332 N 
ATOM     14  C   UNL A   1      33.851  24.474  23.685  1.00  0.00     0.231 C 
ATOM     15  H   UNL A   1      32.847  25.885  22.793  1.00  0.00     0.164 HD
ATOM     16  O   UNL A   1      34.708  24.566  22.802  1.00  0.00    -0.274 OA
BRANCH  14  17
ATOM     17  C   UNL A   1      33.929  23.386  24.726  1.00  0.00     0.169 C 
BRANCH  17  18
ATOM     18  S   UNL A   1      35.273  22.212  24.406  1.00  0.00    -0.146 SA
BRANCH  18  19
ATOM     19  C   UNL A   1      34.679  20.777  25.350  1.00  0.00     0.116 C 
BRANCH  19  20
ATOM     20  C   UNL A   1      33.969  19.690  24.586  1.00  0.00     0.014 A 
ATOM     21  C   UNL A   1      34.393  18.376  24.475  1.00  0.00     0.016 A 
ATOM     22  S   UNL A   1      32.466  19.902  23.779  1.00  0.00    -0.148 S 
ATOM     23  C   UNL A   1      33.539  17.583  23.656  1.00  0.00     0.012 A 
ATOM     24  C   UNL A   1      32.474  18.309  23.175  1.00  0.00     0.065 A 
ENDBRANCH  19  20
ENDBRANCH  18  19
ENDBRANCH  17  18
ENDBRANCH  14  17
ENDBRANCH   7  13
ENDBRANCH   5   7
ENDBRANCH   4   5
ENDBRANCH   3   4
ENDBRANCH   2   3
ENDBRANCH   1   2
BRANCH   1  25
ATOM     25  C   UNL A   1      33.977  30.681  27.209  1.00  0.00     0.188 C 
BRANCH  25  26
ATOM     26  C   UNL A   1      34.630  31.910  27.876  1.00  0.00     0.188 C 
BRANCH  26  27
ATOM     27  O   UNL A   1      33.802  32.556  28.812  1.00  0.00    -0.376 OA
BRANCH  27  28
ATOM     28  C   UNL A   1      34.050  33.919  29.094  1.00  0.00     0.202 C 
BRANCH  28  29
ATOM     29  C   UNL A   1      34.473  34.380  30.503  1.00  0.00     0.261 C 
BRANCH  29  30
ATOM     30  O   UNL A   1      35.776  33.999  30.969  1.00  0.00    -0.460 OA
BRANCH  30  31
ATOM     31  C   UNL A   1      35.863  32.928  31.789  1.00  0.00     0.338 C 
ATOM     32  O   UNL A   1      35.098  32.626  32.693  1.00  0.00    -0.246 OA
BRANCH  31  33
ATOM     33  C   UNL A   1      36.946  32.059  31.279  1.00  0.00     0.060 A 
ATOM     34  C   UNL A   1      37.685  31.268  32.175  1.00  0.00     0.016 A 
ATOM     35  C   UNL A   1      37.220  32.018  29.912  1.00  0.00     0.016 A 
ATOM     36  C   UNL A   1      38.718  30.451  31.704  1.00  0.00     0.010 A 
ATOM     37  C   UNL A   1      38.269  31.223  29.448  1.00  0.00     0.010 A 
ATOM     38  C   UNL A   1      39.043  30.459  30.342  1.00  0.00    -0.014 A 
BRANCH  38  39
ATOM     39  C   UNL A   1      40.313  29.868  29.855  1.00  0.00     0.031 A 
ATOM     40  C   UNL A   1      41.492  30.785  29.689  1.00  0.00     0.074 A 
ATOM     41  C   UNL A   1      40.414  28.573  29.510  1.00  0.00     0.049 A 
ATOM     42  N   UNL A   1      42.639  30.573  29.098  1.00  0.00    -0.248 NA
ATOM     43  C   UNL A   1      41.343  32.134  30.257  1.00  0.00     0.031 C 
ATOM     44  C   UNL A   1      39.370  27.567  29.675  1.00  0.00     0.029 A 
ATOM     45  N   UNL A   1      41.449  27.896  28.910  1.00  0.00    -0.354 N 
ATOM     46  C   UNL A   1      43.337  31.770  29.198  1.00  0.00     0.074 A 
ATOM     47  C   UNL A   1      42.477  32.708  29.888  1.00  0.00     0.031 C 
ATOM     48  C   UNL A   1      39.804  26.404  29.157  1.00  0.00     0.029 A 
ATOM     49  C   UNL A   1      41.134  26.601  28.580  1.00  0.00     0.049 A 
ATOM     50  H   UNL A   1      42.329  28.300  28.735  1.00  0.00     0.167 HD
ATOM     51  C   UNL A   1      44.580  32.065  28.751  1.00  0.00     0.037 A 
ATOM     52  C   UNL A   1      41.823  25.695  27.857  1.00  0.00     0.037 A 
ATOM     53  C   UNL A   1      45.425  31.131  28.054  1.00  0.00     0.049 A 
ATOM     54  C   UNL A   1      43.172  26.065  27.290  1.00  0.00     0.074 A 
ATOM     55  C   UNL A   1      46.706  31.326  27.567  1.00  0.00     0.029 A 
ATOM     56  N   UNL A   1      45.067  29.831  27.732  1.00  0.00    -0.354 N 
ATOM     57  N   UNL A   1      43.831  27.194  27.389  1.00  0.00    -0.248 NA
ATOM     58  C   UNL A   1      43.872  25.033  26.509  1.00  0.00     0.031 C 
ATOM     59  C   UNL A   1      47.097  30.164  26.896  1.00  0.00     0.029 A 
ATOM     60  C   UNL A   1      46.091  29.219  27.029  1.00  0.00     0.049 A 
ATOM     61  H   UNL A   1      44.211  29.405  27.968  1.00  0.00     0.167 HD
ATOM     62  C   UNL A   1      45.035  26.997  26.720  1.00  0.00     0.074 A 
ATOM     63  C   UNL A   1      45.015  25.640  26.217  1.00  0.00     0.031 C 
ATOM     64  C   UNL A   1      46.067  27.859  26.549  1.00  0.00     0.037 A 
BRANCH  51  65
ATOM     65  C   UNL A   1      45.068  33.469  28.955  1.00  0.00     0.057 A 
ATOM     66  C   UNL A   1      45.755  33.861  30.112  1.00  0.00     0.134 A 
ATOM     67  C   UNL A   1      44.839  34.449  27.981  1.00  0.00     0.134 A 
ATOM     68  F   UNL A   1      45.993  32.978  31.094  1.00  0.00    -0.206 F 
ATOM     69  C   UNL A   1      46.161  35.183  30.309  1.00  0.00     0.040 A 
ATOM     70  C   UNL A   1      45.271  35.765  28.151  1.00  0.00     0.040 A 
ATOM     71  F   UNL A   1      44.192  34.144  26.845  1.00  0.00    -0.206 F 
ATOM     72  C   UNL A   1      45.923  36.137  29.323  1.00  0.00     0.006 A 
ENDBRANCH  51  65
BRANCH  52  73
ATOM     73  C   UNL A   1      41.241  24.352  27.605  1.00  0.00     0.057 A 
ATOM     74  C   UNL A   1      41.693  23.223  28.298  1.00  0.00     0.134 A 
ATOM     75  C   UNL A   1      40.221  24.162  26.663  1.00  0.00     0.134 A 
ATOM     76  F   UNL A   1      42.687  23.334  29.192  1.00  0.00    -0.206 F 
ATOM     77  C   UNL A   1      41.161  21.955  28.060  1.00  0.00     0.040 A 
ATOM     78  C   UNL A   1      39.660  22.905  26.435  1.00  0.00     0.040 A 
ATOM     79  F   UNL A   1      39.744  25.202  25.963  1.00  0.00    -0.206 F 
ATOM     80  C   UNL A   1      40.134  21.796  27.131  1.00  0.00     0.006 A 
ENDBRANCH  52  73
BRANCH  64  81
ATOM     81  C   UNL A   1      47.297  27.355  25.848  1.00  0.00     0.057 A 
ATOM     82  C   UNL A   1      48.319  26.674  26.520  1.00  0.00     0.134 A 
ATOM     83  C   UNL A   1      47.421  27.491  24.457  1.00  0.00     0.134 A 
ATOM     84  F   UNL A   1      48.270  26.517  27.852  1.00  0.00    -0.206 F 
ATOM     85  C   UNL A   1      49.424  26.159  25.840  1.00  0.00     0.040 A 
ATOM     86  C   UNL A   1      48.505  26.954  23.762  1.00  0.00     0.040 A 
ATOM     87  F   UNL A   1      46.473  28.122  23.748  1.00  0.00    -0.206 F 
ATOM     88  C   UNL A   1      49.513  26.289  24.454  1.00  0.00     0.006 A 
ENDBRANCH  64  81
ENDBRANCH  38  39
ENDBRANCH  31  33
ENDBRANCH  30  31
ENDBRANCH  29  30
ENDBRANCH  28  29
ENDBRANCH  27  28
ENDBRANCH  26  27
ENDBRANCH  25  26
ENDBRANCH   1  25
TORSDOF 23
ENDMDL
MODEL 2
REMARK VINA RESULT:      -9.6      2.351      3.323
REMARK SMILES C[C@](NC(=O)CSCc1cccs1)(C(=O)OCCOCCOCCOC(=O)c1ccc(-c2c3nc(c(-c4c(F)cccc4F)c4ccc([nH]4)c(-c4c(F)cccc4F)c4nc(c(-c5c(F)cccc5F)c5ccc2[nH]5)C=C4)C=C3)cc1)C(F)(F)F
REMARK SMILES IDX 19 1 18 2 17 3 16 4 14 5 15 6 2 7 1 8 82 9 83 10 84 11 85 12
REMARK SMILES IDX 3 13 4 14 5 16 6 17 7 18 8 19 9 20 10 21 13 22 11 23 12 24
REMARK SMILES IDX 20 25 21 26 22 27 23 28 24 29 25 30 26 31 27 32 28 33 29 34
REMARK SMILES IDX 81 35 30 36 80 37 31 38 32 39 33 40 74 41 34 42 79 43 73 44
REMARK SMILES IDX 75 45 35 46 78 47 72 48 71 49 36 51 62 52 45 53 61 54 46 55
REMARK SMILES IDX 49 56 60 57 76 58 47 59 48 60 59 62 77 63 50 64 37 65 38 66
REMARK SMILES IDX 43 67 39 68 40 69 42 70 44 71 41 72 63 73 64 74 69 75 65 76
REMARK SMILES IDX 66 77 68 78 70 79 67 80 51 81 52 82 57 83 53 84 54 85 56 86
REMARK SMILES IDX 58 87 55 88
REMARK H PARENT 3 15 75 50 49 61
REMARK Flexibility Score: inf
ROOT
ATOM      1  O   UNL A   1      31.805  27.089  25.622  1.00  0.00    -0.376 OA
ENDROOT
BRANCH   1   2
ATOM      2  C   UNL A   1      30.662  26.459  26.185  1.00  0.00     0.202 C 
BRANCH   2   3
ATOM      3  C   UNL A   1      30.344  24.992  25.827  1.00  0.00     0.261 C 
BRANCH   3   4
ATOM      4  O   UNL A   1      31.249  24.345  24.900  1.00  0.00    -0.461 OA
BRANCH   4   5
ATOM      5  C   UNL A   1      32.277  23.627  25.438  1.00  0.00     0.341 C 
ATOM      6  O   UNL A   1      32.233  23.134  26.560  1.00  0.00    -0.249 OA
BRANCH   5   7
ATOM      7  C   UNL A   1      33.503  23.466  24.509  1.00  0.00     0.231 C 
ATOM      8  C   UNL A   1      33.042  23.696  23.066  1.00  0.00     0.058 C 
BRANCH   7   9
ATOM      9  C   UNL A   1      34.416  24.655  24.897  1.00  0.00     0.422 C 
ATOM     10  F   UNL A   1      34.133  25.099  26.149  1.00  0.00    -0.168 F 
ATOM     11  F   UNL A   1      35.714  24.252  24.942  1.00  0.00    -0.168 F 
ATOM     12  F   UNL A   1      34.362  25.708  24.063  1.00  0.00    -0.168 F 
ENDBRANCH   7   9
BRANCH   7  13
ATOM     13  N   UNL A   1      34.313  22.202  24.655  1.00  0.00    -0.332 N 
ATOM     14  C   UNL A   1      34.050  20.879  24.770  1.00  0.00     0.231 C 
ATOM     15  H   UNL A   1      35.281  22.386  24.672  1.00  0.00     0.164 HD
ATOM     16  O   UNL A   1      35.013  20.145  25.005  1.00  0.00    -0.274 OA
BRANCH  14  17
ATOM     17  C   UNL A   1      32.675  20.302  24.549  1.00  0.00     0.169 C 
BRANCH  17  18
ATOM     18  S   UNL A   1      32.296  20.053  22.794  1.00  0.00    -0.146 SA
BRANCH  18  19
ATOM     19  C   UNL A   1      32.143  18.244  22.750  1.00  0.00     0.116 C 
BRANCH  19  20
ATOM     20  C   UNL A   1      33.000  17.452  23.703  1.00  0.00     0.014 A 
ATOM     21  C   UNL A   1      34.296  17.028  23.458  1.00  0.00     0.016 A 
ATOM     22  S   UNL A   1      32.516  17.004  25.290  1.00  0.00    -0.148 S 
ATOM     23  C   UNL A   1      34.843  16.264  24.528  1.00  0.00     0.012 A 
ATOM     24  C   UNL A   1      33.956  16.136  25.571  1.00  0.00     0.065 A 
ENDBRANCH  19  20
ENDBRANCH  18  19
ENDBRANCH  17  18
ENDBRANCH  14  17
ENDBRANCH   7  13
ENDBRANCH   5   7
ENDBRANCH   4   5
ENDBRANCH   3   4
ENDBRANCH   2   3
ENDBRANCH   1   2
BRANCH   1  25
ATOM     25  C   UNL A   1      31.659  27.804  24.404  1.00  0.00     0.188 C 
BRANCH  25  26
ATOM     26  C   UNL A   1      31.868  29.334  24.400  1.00  0.00     0.188 C 
BRANCH  26  27
ATOM     27  O   UNL A   1      31.127  30.010  25.387  1.00  0.00    -0.376 OA
BRANCH  27  28
ATOM     28  C   UNL A   1      31.833  30.779  26.340  1.00  0.00     0.202 C 
BRANCH  28  29
ATOM     29  C   UNL A   1      32.897  30.140  27.255  1.00  0.00     0.261 C 
BRANCH  29  30
ATOM     30  O   UNL A   1      34.252  30.595  27.126  1.00  0.00    -0.460 OA
BRANCH  30  31
ATOM     31  C   UNL A   1      34.868  31.065  28.234  1.00  0.00     0.338 C 
ATOM     32  O   UNL A   1      34.411  31.841  29.059  1.00  0.00    -0.246 OA
BRANCH  31  33
ATOM     33  C   UNL A   1      36.137  30.321  28.392  1.00  0.00     0.060 A 
ATOM     34  C   UNL A   1      36.443  29.719  29.624  1.00  0.00     0.016 A 
ATOM     35  C   UNL A   1      37.017  30.208  27.315  1.00  0.00     0.016 A 
ATOM     36  C   UNL A   1      37.644  29.022  29.787  1.00  0.00     0.010 A 
ATOM     37  C   UNL A   1      38.228  29.536  27.488  1.00  0.00     0.010 A 
ATOM     38  C   UNL A   1      38.562  28.966  28.731  1.00  0.00    -0.014 A 
BRANCH  38  39
ATOM     39  C   UNL A   1      39.961  28.524  28.956  1.00  0.00     0.031 A 
ATOM     40  C   UNL A   1      40.942  29.543  29.462  1.00  0.00     0.074 A 
ATOM     41  C   UNL A   1      40.373  27.279  28.666  1.00  0.00     0.049 A 
ATOM     42  N   UNL A   1      42.246  29.478  29.548  1.00  0.00    -0.248 NA
ATOM     43  C   UNL A   1      40.368  30.819  29.918  1.00  0.00     0.031 C 
ATOM     44  C   UNL A   1      39.517  26.182  28.227  1.00  0.00     0.029 A 
ATOM     45  N   UNL A   1      41.639  26.743  28.669  1.00  0.00    -0.354 N 
ATOM     46  C   UNL A   1      42.649  30.713  30.040  1.00  0.00     0.074 A 
ATOM     47  C   UNL A   1      41.455  31.512  30.214  1.00  0.00     0.031 C 
ATOM     48  C   UNL A   1      40.286  25.110  27.968  1.00  0.00     0.029 A 
ATOM     49  C   UNL A   1      41.690  25.463  28.177  1.00  0.00     0.049 A 
ATOM     50  H   UNL A   1      42.430  27.230  28.993  1.00  0.00     0.167 HD
ATOM     51  C   UNL A   1      43.902  31.145  30.317  1.00  0.00     0.037 A 
ATOM     52  C   UNL A   1      42.753  24.684  27.885  1.00  0.00     0.037 A 
ATOM     53  C   UNL A   1      45.086  30.349  30.129  1.00  0.00     0.049 A 
ATOM     54  C   UNL A   1      44.148  25.211  28.118  1.00  0.00     0.074 A 
ATOM     55  C   UNL A   1      46.402  30.689  30.388  1.00  0.00     0.029 A 
ATOM     56  N   UNL A   1      45.096  29.059  29.620  1.00  0.00    -0.354 N 
ATOM     57  N   UNL A   1      44.527  26.375  28.587  1.00  0.00    -0.248 NA
ATOM     58  C   UNL A   1      45.263  24.313  27.779  1.00  0.00     0.031 C 
ATOM     59  C   UNL A   1      47.214  29.627  29.977  1.00  0.00     0.029 A 
ATOM     60  C   UNL A   1      46.399  28.598  29.532  1.00  0.00     0.049 A 
ATOM     61  H   UNL A   1      44.297  28.547  29.360  1.00  0.00     0.167 HD
ATOM     62  C   UNL A   1      45.917  26.336  28.637  1.00  0.00     0.074 A 
ATOM     63  C   UNL A   1      46.314  25.033  28.147  1.00  0.00     0.031 C 
ATOM     64  C   UNL A   1      46.782  27.290  29.060  1.00  0.00     0.037 A 
BRANCH  51  65
ATOM     65  C   UNL A   1      44.049  32.560  30.797  1.00  0.00     0.057 A 
ATOM     66  C   UNL A   1      44.047  32.891  32.159  1.00  0.00     0.134 A 
ATOM     67  C   UNL A   1      44.188  33.609  29.880  1.00  0.00     0.134 A 
ATOM     68  F   UNL A   1      43.901  31.937  33.091  1.00  0.00    -0.206 F 
ATOM     69  C   UNL A   1      44.138  34.217  32.588  1.00  0.00     0.040 A 
ATOM     70  C   UNL A   1      44.314  34.935  30.298  1.00  0.00     0.040 A 
ATOM     71  F   UNL A   1      44.203  33.365  28.560  1.00  0.00    -0.206 F 
ATOM     72  C   UNL A   1      44.277  35.242  31.655  1.00  0.00     0.006 A 
ENDBRANCH  51  65
BRANCH  52  73
ATOM     73  C   UNL A   1      42.542  23.328  27.318  1.00  0.00     0.057 A 
ATOM     74  C   UNL A   1      42.355  22.216  28.147  1.00  0.00     0.134 A 
ATOM     75  C   UNL A   1      42.525  23.109  25.934  1.00  0.00     0.134 A 
ATOM     76  F   UNL A   1      42.389  22.356  29.480  1.00  0.00    -0.206 F 
ATOM     77  C   UNL A   1      42.168  20.935  27.624  1.00  0.00     0.040 A 
ATOM     78  C   UNL A   1      42.312  21.839  25.397  1.00  0.00     0.040 A 
ATOM     79  F   UNL A   1      42.702  24.131  25.085  1.00  0.00    -0.206 F 
ATOM     80  C   UNL A   1      42.138  20.746  26.243  1.00  0.00     0.006 A 
ENDBRANCH  52  73
BRANCH  64  81
ATOM     81  C   UNL A   1      48.247  26.951  29.084  1.00  0.00     0.057 A 
ATOM     82  C   UNL A   1      49.142  27.419  28.115  1.00  0.00     0.134 A 
ATOM     83  C   UNL A   1      48.779  26.201  30.143  1.00  0.00     0.134 A 
ATOM     84  F   UNL A   1      48.700  28.134  27.069  1.00  0.00    -0.206 F 
ATOM     85  C   UNL A   1      50.509  27.144  28.190  1.00  0.00     0.040 A 
ATOM     86  C   UNL A   1      50.146  25.945  30.245  1.00  0.00     0.040 A 
ATOM     87  F   UNL A   1      47.979  25.730  31.112  1.00  0.00    -0.206 F 
ATOM     88  C   UNL A   1      51.016  26.414  29.265  1.00  0.00     0.006 A 
ENDBRANCH  64  81
ENDBRANCH  38  39
ENDBRANCH  31  33
ENDBRANCH  30  31
ENDBRANCH  29  30
ENDBRANCH  28  29
ENDBRANCH  27  28
ENDBRANCH  26  27
ENDBRANCH  25  26
ENDBRANCH   1  25
TORSDOF 23
ENDMDL
MODEL 3
REMARK VINA RESULT:      -9.4      1.371      2.474
REMARK SMILES C[C@](NC(=O)CSCc1cccs1)(C(=O)OCCOCCOCCOC(=O)c1ccc(-c2c3nc(c(-c4c(F)cccc4F)c4ccc([nH]4)c(-c4c(F)cccc4F)c4nc(c(-c5c(F)cccc5F)c5ccc2[nH]5)C=C4)C=C3)cc1)C(F)(F)F
REMARK SMILES IDX 19 1 18 2 17 3 16 4 14 5 15 6 2 7 1 8 82 9 83 10 84 11 85 12
REMARK SMILES IDX 3 13 4 14 5 16 6 17 7 18 8 19 9 20 10 21 13 22 11 23 12 24
REMARK SMILES IDX 20 25 21 26 22 27 23 28 24 29 25 30 26 31 27 32 28 33 29 34
REMARK SMILES IDX 81 35 30 36 80 37 31 38 32 39 33 40 74 41 34 42 79 43 73 44
REMARK SMILES IDX 75 45 35 46 78 47 72 48 71 49 36 51 62 52 45 53 61 54 46 55
REMARK SMILES IDX 49 56 60 57 76 58 47 59 48 60 59 62 77 63 50 64 37 65 38 66
REMARK SMILES IDX 43 67 39 68 40 69 42 70 44 71 41 72 63 73 64 74 69 75 65 76
REMARK SMILES IDX 66 77 68 78 70 79 67 80 51 81 52 82 57 83 53 84 54 85 56 86
REMARK SMILES IDX 58 87 55 88
REMARK H PARENT 3 15 75 50 49 61
REMARK Flexibility Score: inf
ROOT
ATOM      1  O   UNL A   1      31.850  30.568  25.449  1.00  0.00    -0.376 OA
ENDROOT
BRANCH   1   2
ATOM      2  C   UNL A   1      31.727  29.541  24.473  1.00  0.00     0.202 C 
BRANCH   2   3
ATOM      3  C   UNL A   1      30.327  29.035  24.070  1.00  0.00     0.261 C 
BRANCH   3   4
ATOM      4  O   UNL A   1      30.119  27.604  24.123  1.00  0.00    -0.461 OA
BRANCH   4   5
ATOM      5  C   UNL A   1      30.863  26.838  23.273  1.00  0.00     0.341 C 
ATOM      6  O   UNL A   1      30.959  27.072  22.073  1.00  0.00    -0.249 OA
BRANCH   5   7
ATOM      7  C   UNL A   1      31.596  25.656  23.949  1.00  0.00     0.231 C 
ATOM      8  C   UNL A   1      31.627  24.486  22.960  1.00  0.00     0.058 C 
BRANCH   7   9
ATOM      9  C   UNL A   1      33.050  26.166  24.106  1.00  0.00     0.422 C 
ATOM     10  F   UNL A   1      33.944  25.192  23.801  1.00  0.00    -0.168 F 
ATOM     11  F   UNL A   1      33.290  27.169  23.219  1.00  0.00    -0.168 F 
ATOM     12  F   UNL A   1      33.356  26.642  25.325  1.00  0.00    -0.168 F 
ENDBRANCH   7   9
BRANCH   7  13
ATOM     13  N   UNL A   1      31.110  25.237  25.314  1.00  0.00    -0.332 N 
ATOM     14  C   UNL A   1      31.424  24.273  26.211  1.00  0.00     0.231 C 
ATOM     15  H   UNL A   1      30.377  25.811  25.636  1.00  0.00     0.164 HD
ATOM     16  O   UNL A   1      30.687  24.176  27.196  1.00  0.00    -0.274 OA
BRANCH  14  17
ATOM     17  C   UNL A   1      32.649  23.404  26.075  1.00  0.00     0.169 C 
BRANCH  17  18
ATOM     18  S   UNL A   1      32.254  21.730  25.500  1.00  0.00    -0.146 SA
BRANCH  18  19
ATOM     19  C   UNL A   1      33.300  21.645  24.017  1.00  0.00     0.116 C 
BRANCH  19  20
ATOM     20  C   UNL A   1      34.793  21.614  24.221  1.00  0.00     0.014 A 
ATOM     21  C   UNL A   1      35.675  22.622  23.865  1.00  0.00     0.016 A 
ATOM     22  S   UNL A   1      35.633  20.334  25.001  1.00  0.00    -0.148 S 
ATOM     23  C   UNL A   1      37.033  22.296  24.145  1.00  0.00     0.012 A 
ATOM     24  C   UNL A   1      37.152  21.054  24.723  1.00  0.00     0.065 A 
ENDBRANCH  19  20
ENDBRANCH  18  19
ENDBRANCH  17  18
ENDBRANCH  14  17
ENDBRANCH   7  13
ENDBRANCH   5   7
ENDBRANCH   4   5
ENDBRANCH   3   4
ENDBRANCH   2   3
ENDBRANCH   1   2
BRANCH   1  25
ATOM     25  C   UNL A   1      32.254  30.214  26.764  1.00  0.00     0.188 C 
BRANCH  25  26
ATOM     26  C   UNL A   1      33.330  31.064  27.473  1.00  0.00     0.188 C 
BRANCH  26  27
ATOM     27  O   UNL A   1      32.943  32.398  27.697  1.00  0.00    -0.376 OA
BRANCH  27  28
ATOM     28  C   UNL A   1      33.939  33.325  28.082  1.00  0.00     0.202 C 
BRANCH  28  29
ATOM     29  C   UNL A   1      34.220  33.624  29.568  1.00  0.00     0.261 C 
BRANCH  29  30
ATOM     30  O   UNL A   1      34.627  32.533  30.407  1.00  0.00    -0.460 OA
BRANCH  30  31
ATOM     31  C   UNL A   1      35.641  32.747  31.275  1.00  0.00     0.338 C 
ATOM     32  O   UNL A   1      35.602  33.399  32.307  1.00  0.00    -0.246 OA
BRANCH  31  33
ATOM     33  C   UNL A   1      36.773  31.888  30.865  1.00  0.00     0.060 A 
ATOM     34  C   UNL A   1      37.587  31.294  31.844  1.00  0.00     0.016 A 
ATOM     35  C   UNL A   1      37.019  31.660  29.511  1.00  0.00     0.016 A 
ATOM     36  C   UNL A   1      38.666  30.489  31.467  1.00  0.00     0.010 A 
ATOM     37  C   UNL A   1      38.114  30.878  29.137  1.00  0.00     0.010 A 
ATOM     38  C   UNL A   1      38.960  30.313  30.110  1.00  0.00    -0.014 A 
BRANCH  38  39
ATOM     39  C   UNL A   1      40.259  29.744  29.675  1.00  0.00     0.031 A 
ATOM     40  C   UNL A   1      41.414  30.690  29.503  1.00  0.00     0.074 A 
ATOM     41  C   UNL A   1      40.407  28.442  29.380  1.00  0.00     0.049 A 
ATOM     42  N   UNL A   1      42.582  30.493  28.948  1.00  0.00    -0.248 NA
ATOM     43  C   UNL A   1      41.210  32.054  30.018  1.00  0.00     0.031 C 
ATOM     44  C   UNL A   1      39.390  27.410  29.558  1.00  0.00     0.029 A 
ATOM     45  N   UNL A   1      41.477  27.775  28.831  1.00  0.00    -0.354 N 
ATOM     46  C   UNL A   1      43.240  31.714  29.021  1.00  0.00     0.074 A 
ATOM     47  C   UNL A   1      42.335  32.649  29.655  1.00  0.00     0.031 C 
ATOM     48  C   UNL A   1      39.872  26.244  29.093  1.00  0.00     0.029 A 
ATOM     49  C   UNL A   1      41.209  26.460  28.542  1.00  0.00     0.049 A 
ATOM     50  H   UNL A   1      42.348  28.199  28.662  1.00  0.00     0.167 HD
ATOM     51  C   UNL A   1      44.485  32.030  28.592  1.00  0.00     0.037 A 
ATOM     52  C   UNL A   1      41.943  25.550  27.869  1.00  0.00     0.037 A 
ATOM     53  C   UNL A   1      45.375  31.098  27.951  1.00  0.00     0.049 A 
ATOM     54  C   UNL A   1      43.294  25.941  27.321  1.00  0.00     0.074 A 
ATOM     55  C   UNL A   1      46.661  31.315  27.488  1.00  0.00     0.029 A 
ATOM     56  N   UNL A   1      45.063  29.777  27.669  1.00  0.00    -0.354 N 
ATOM     57  N   UNL A   1      43.916  27.092  27.394  1.00  0.00    -0.248 NA
ATOM     58  C   UNL A   1      44.043  24.903  26.596  1.00  0.00     0.031 C 
ATOM     59  C   UNL A   1      47.103  30.141  26.870  1.00  0.00     0.029 A 
ATOM     60  C   UNL A   1      46.123  29.172  27.014  1.00  0.00     0.049 A 
ATOM     61  H   UNL A   1      44.215  29.333  27.900  1.00  0.00     0.167 HD
ATOM     62  C   UNL A   1      45.142  26.909  26.762  1.00  0.00     0.074 A 
ATOM     63  C   UNL A   1      45.174  25.534  26.309  1.00  0.00     0.031 C 
ATOM     64  C   UNL A   1      46.151  27.795  26.584  1.00  0.00     0.037 A 
BRANCH  51  65
ATOM     65  C   UNL A   1      44.926  33.455  28.757  1.00  0.00     0.057 A 
ATOM     66  C   UNL A   1      44.665  34.435  27.789  1.00  0.00     0.134 A 
ATOM     67  C   UNL A   1      45.629  33.852  29.901  1.00  0.00     0.134 A 
ATOM     68  F   UNL A   1      44.011  34.120  26.661  1.00  0.00    -0.206 F 
ATOM     69  C   UNL A   1      45.124  35.746  27.935  1.00  0.00     0.040 A 
ATOM     70  C   UNL A   1      46.062  35.168  30.074  1.00  0.00     0.040 A 
ATOM     71  F   UNL A   1      45.910  32.969  30.871  1.00  0.00    -0.206 F 
ATOM     72  C   UNL A   1      45.820  36.116  29.083  1.00  0.00     0.006 A 
ENDBRANCH  51  65
BRANCH  52  73
ATOM     73  C   UNL A   1      41.407  24.182  27.653  1.00  0.00     0.057 A 
ATOM     74  C   UNL A   1      40.403  23.937  26.708  1.00  0.00     0.134 A 
ATOM     75  C   UNL A   1      41.880  23.086  28.386  1.00  0.00     0.134 A 
ATOM     76  F   UNL A   1      39.888  24.949  25.994  1.00  0.00    -0.206 F 
ATOM     77  C   UNL A   1      39.884  22.657  26.506  1.00  0.00     0.040 A 
ATOM     78  C   UNL A   1      41.390  21.797  28.175  1.00  0.00     0.040 A 
ATOM     79  F   UNL A   1      42.839  23.253  29.308  1.00  0.00    -0.206 F 
ATOM     80  C   UNL A   1      40.385  21.581  27.235  1.00  0.00     0.006 A 
ENDBRANCH  52  73
BRANCH  64  81
ATOM     81  C   UNL A   1      47.413  27.304  25.931  1.00  0.00     0.057 A 
ATOM     82  C   UNL A   1      47.642  27.421  24.555  1.00  0.00     0.134 A 
ATOM     83  C   UNL A   1      48.449  26.770  26.712  1.00  0.00     0.134 A 
ATOM     84  F   UNL A   1      46.690  27.914  23.747  1.00  0.00    -0.206 F 
ATOM     85  C   UNL A   1      48.847  27.015  23.978  1.00  0.00     0.040 A 
ATOM     86  C   UNL A   1      49.668  26.389  26.152  1.00  0.00     0.040 A 
ATOM     87  F   UNL A   1      48.301  26.639  28.039  1.00  0.00    -0.206 F 
ATOM     88  C   UNL A   1      49.868  26.507  24.779  1.00  0.00     0.006 A 
ENDBRANCH  64  81
ENDBRANCH  38  39
ENDBRANCH  31  33
ENDBRANCH  30  31
ENDBRANCH  29  30
ENDBRANCH  28  29
ENDBRANCH  27  28
ENDBRANCH  26  27
ENDBRANCH  25  26
ENDBRANCH   1  25
TORSDOF 23
ENDMDL
