MODEL 1
REMARK VINA RESULT:     -10.5      0.000      0.000
REMARK SMILES C[C@H](/N=C(\Cc1ccccc1)C(=O)OC(C)(C)C)C(=O)OCCOCCOCCOC(=O)c1ccc(-c2c3nc(c(-c4c(F)cccc4F)c4ccc([nH]4)c(-c4c(F)cccc4F)c4nc(c(-c5c(F)cccc5F)c5ccc2[nH]5)C=C4)C=C3)cc1
REMARK SMILES IDX 25 1 24 2 23 3 22 4 21 5 19 6 20 7 2 8 1 9 3 10 4 11 5 12
REMARK SMILES IDX 6 13 7 14 11 15 8 16 10 17 9 18 12 19 13 20 14 21 15 22
REMARK SMILES IDX 16 23 17 24 18 25 26 26 27 27 28 28 29 29 30 30 31 31 32 32
REMARK SMILES IDX 33 33 34 34 86 35 35 36 85 37 36 38 37 39 38 40 79 41 39 42
REMARK SMILES IDX 84 43 78 44 80 45 40 46 83 47 77 48 76 49 41 51 67 52 50 53
REMARK SMILES IDX 66 54 51 55 54 56 65 57 81 58 52 59 53 60 64 62 82 63 55 64
REMARK SMILES IDX 42 65 43 66 48 67 44 68 45 69 47 70 49 71 46 72 68 73 69 74
REMARK SMILES IDX 74 75 70 76 71 77 73 78 75 79 72 80 56 81 57 82 62 83 58 84
REMARK SMILES IDX 59 85 61 86 63 87 60 88
REMARK H PARENT 80 50 54 61
REMARK Flexibility Score: inf
ROOT
ATOM      1  C   UNL A   1      31.563  28.582  27.268  1.00  0.00     0.188 C 
ENDROOT
BRANCH   1   2
ATOM      2  O   UNL A   1      31.889  27.279  26.800  1.00  0.00    -0.376 OA
BRANCH   2   3
ATOM      3  C   UNL A   1      31.013  26.637  25.878  1.00  0.00     0.202 C 
BRANCH   3   4
ATOM      4  C   UNL A   1      30.349  25.298  26.249  1.00  0.00     0.261 C 
BRANCH   4   5
ATOM      5  O   UNL A   1      31.176  24.408  27.024  1.00  0.00    -0.462 OA
BRANCH   5   6
ATOM      6  C   UNL A   1      31.160  23.097  26.659  1.00  0.00     0.330 C 
ATOM      7  O   UNL A   1      30.132  22.456  26.454  1.00  0.00    -0.250 OA
BRANCH   6   8
ATOM      8  C   UNL A   1      32.552  22.492  26.424  1.00  0.00     0.212 C 
ATOM      9  C   UNL A   1      33.424  22.589  27.662  1.00  0.00     0.046 C 
BRANCH   8  10
ATOM     10  N   UNL A   1      33.245  22.893  25.192  1.00  0.00    -0.267 NA
ATOM     11  C   UNL A   1      33.136  22.402  24.007  1.00  0.00     0.125 C 
BRANCH  11  12
ATOM     12  C   UNL A   1      32.142  21.358  23.577  1.00  0.00     0.099 C 
BRANCH  12  13
ATOM     13  C   UNL A   1      32.707  19.950  23.587  1.00  0.00    -0.042 A 
ATOM     14  C   UNL A   1      33.703  19.640  24.520  1.00  0.00     0.004 A 
ATOM     15  C   UNL A   1      32.297  18.947  22.690  1.00  0.00     0.004 A 
ATOM     16  C   UNL A   1      34.284  18.371  24.543  1.00  0.00     0.000 A 
ATOM     17  C   UNL A   1      32.888  17.685  22.704  1.00  0.00     0.000 A 
ATOM     18  C   UNL A   1      33.884  17.398  23.629  1.00  0.00     0.000 A 
ENDBRANCH  12  13
ENDBRANCH  11  12
BRANCH  11  19
ATOM     19  C   UNL A   1      34.033  23.013  22.890  1.00  0.00     0.353 C 
ATOM     20  O   UNL A   1      35.253  23.001  22.942  1.00  0.00    -0.245 OA
BRANCH  19  21
ATOM     21  O   UNL A   1      33.272  23.613  21.954  1.00  0.00    -0.455 OA
BRANCH  21  22
ATOM     22  C   UNL A   1      32.808  24.983  22.082  1.00  0.00     0.104 C 
ATOM     23  C   UNL A   1      33.703  25.799  23.023  1.00  0.00     0.056 C 
ATOM     24  C   UNL A   1      32.663  25.659  20.716  1.00  0.00     0.056 C 
ATOM     25  C   UNL A   1      31.418  24.862  22.727  1.00  0.00     0.056 C 
ENDBRANCH  21  22
ENDBRANCH  19  21
ENDBRANCH  11  19
ENDBRANCH   8  10
ENDBRANCH   6   8
ENDBRANCH   5   6
ENDBRANCH   4   5
ENDBRANCH   3   4
ENDBRANCH   2   3
ENDBRANCH   1   2
BRANCH   1  26
ATOM     26  C   UNL A   1      32.631  29.688  27.228  1.00  0.00     0.188 C 
BRANCH  26  27
ATOM     27  O   UNL A   1      32.371  30.737  26.327  1.00  0.00    -0.376 OA
BRANCH  27  28
ATOM     28  C   UNL A   1      31.582  31.821  26.791  1.00  0.00     0.202 C 
BRANCH  28  29
ATOM     29  C   UNL A   1      32.100  33.278  26.872  1.00  0.00     0.261 C 
BRANCH  29  30
ATOM     30  O   UNL A   1      32.239  33.887  28.167  1.00  0.00    -0.460 OA
BRANCH  30  31
ATOM     31  C   UNL A   1      33.338  34.654  28.376  1.00  0.00     0.338 C 
ATOM     32  O   UNL A   1      33.389  35.872  28.404  1.00  0.00    -0.246 OA
BRANCH  31  33
ATOM     33  C   UNL A   1      34.463  33.768  28.755  1.00  0.00     0.060 A 
ATOM     34  C   UNL A   1      34.197  32.473  29.227  1.00  0.00     0.016 A 
ATOM     35  C   UNL A   1      35.778  34.222  28.662  1.00  0.00     0.016 A 
ATOM     36  C   UNL A   1      35.246  31.635  29.620  1.00  0.00     0.010 A 
ATOM     37  C   UNL A   1      36.825  33.393  29.081  1.00  0.00     0.010 A 
ATOM     38  C   UNL A   1      36.565  32.105  29.586  1.00  0.00    -0.014 A 
BRANCH  38  39
ATOM     39  C   UNL A   1      37.658  31.325  30.223  1.00  0.00     0.031 A 
ATOM     40  C   UNL A   1      37.979  31.581  31.672  1.00  0.00     0.074 A 
ATOM     41  C   UNL A   1      38.361  30.407  29.536  1.00  0.00     0.049 A 
ATOM     42  N   UNL A   1      38.942  31.093  32.412  1.00  0.00    -0.248 NA
ATOM     43  C   UNL A   1      37.094  32.522  32.378  1.00  0.00     0.031 C 
ATOM     44  C   UNL A   1      38.129  30.030  28.143  1.00  0.00     0.029 A 
ATOM     45  N   UNL A   1      39.431  29.635  29.919  1.00  0.00    -0.354 N 
ATOM     46  C   UNL A   1      38.785  31.673  33.664  1.00  0.00     0.074 A 
ATOM     47  C   UNL A   1      37.654  32.572  33.577  1.00  0.00     0.031 C 
ATOM     48  C   UNL A   1      39.043  29.112  27.783  1.00  0.00     0.029 A 
ATOM     49  C   UNL A   1      39.947  28.863  28.906  1.00  0.00     0.049 A 
ATOM     50  H   UNL A   1      39.795  29.635  30.835  1.00  0.00     0.167 HD
ATOM     51  C   UNL A   1      39.512  31.470  34.790  1.00  0.00     0.037 A 
ATOM     52  C   UNL A   1      41.037  28.072  28.880  1.00  0.00     0.037 A 
ATOM     53  C   UNL A   1      40.640  30.578  34.878  1.00  0.00     0.049 A 
ATOM     54  C   UNL A   1      41.881  27.926  30.122  1.00  0.00     0.074 A 
ATOM     55  C   UNL A   1      41.429  30.295  35.979  1.00  0.00     0.029 A 
ATOM     56  N   UNL A   1      41.144  29.835  33.822  1.00  0.00    -0.354 N 
ATOM     57  N   UNL A   1      41.710  28.457  31.309  1.00  0.00    -0.248 NA
ATOM     58  C   UNL A   1      43.069  27.066  30.021  1.00  0.00     0.031 C 
ATOM     59  C   UNL A   1      42.447  29.425  35.575  1.00  0.00     0.029 A 
ATOM     60  C   UNL A   1      42.253  29.116  34.240  1.00  0.00     0.049 A 
ATOM     61  H   UNL A   1      40.772  29.821  32.912  1.00  0.00     0.167 HD
ATOM     62  C   UNL A   1      42.746  27.971  32.100  1.00  0.00     0.074 A 
ATOM     63  C   UNL A   1      43.529  27.088  31.263  1.00  0.00     0.031 C 
ATOM     64  C   UNL A   1      43.022  28.231  33.402  1.00  0.00     0.037 A 
BRANCH  51  65
ATOM     65  C   UNL A   1      39.125  32.245  36.016  1.00  0.00     0.057 A 
ATOM     66  C   UNL A   1      38.271  31.715  36.991  1.00  0.00     0.134 A 
ATOM     67  C   UNL A   1      39.654  33.523  36.247  1.00  0.00     0.134 A 
ATOM     68  F   UNL A   1      37.721  30.503  36.826  1.00  0.00    -0.206 F 
ATOM     69  C   UNL A   1      37.939  32.435  38.141  1.00  0.00     0.040 A 
ATOM     70  C   UNL A   1      39.353  34.240  37.406  1.00  0.00     0.040 A 
ATOM     71  F   UNL A   1      40.483  34.089  35.357  1.00  0.00    -0.206 F 
ATOM     72  C   UNL A   1      38.488  33.698  38.354  1.00  0.00     0.006 A 
ENDBRANCH  51  65
BRANCH  52  73
ATOM     73  C   UNL A   1      41.424  27.364  27.630  1.00  0.00     0.057 A 
ATOM     74  C   UNL A   1      41.058  26.031  27.406  1.00  0.00     0.134 A 
ATOM     75  C   UNL A   1      42.212  27.986  26.653  1.00  0.00     0.134 A 
ATOM     76  F   UNL A   1      40.329  25.369  28.316  1.00  0.00    -0.206 F 
ATOM     77  C   UNL A   1      41.482  25.335  26.272  1.00  0.00     0.040 A 
ATOM     78  C   UNL A   1      42.617  27.312  25.500  1.00  0.00     0.040 A 
ATOM     79  F   UNL A   1      42.602  29.260  26.807  1.00  0.00    -0.206 F 
ATOM     80  C   UNL A   1      42.261  25.978  25.312  1.00  0.00     0.006 A 
ENDBRANCH  52  73
BRANCH  64  81
ATOM     81  C   UNL A   1      44.194  27.517  34.018  1.00  0.00     0.057 A 
ATOM     82  C   UNL A   1      44.070  26.254  34.611  1.00  0.00     0.134 A 
ATOM     83  C   UNL A   1      45.473  28.091  33.991  1.00  0.00     0.134 A 
ATOM     84  F   UNL A   1      42.873  25.649  34.680  1.00  0.00    -0.206 F 
ATOM     85  C   UNL A   1      45.166  25.602  35.179  1.00  0.00     0.040 A 
ATOM     86  C   UNL A   1      46.581  27.435  34.527  1.00  0.00     0.040 A 
ATOM     87  F   UNL A   1      45.668  29.293  33.428  1.00  0.00    -0.206 F 
ATOM     88  C   UNL A   1      46.428  26.190  35.133  1.00  0.00     0.006 A 
ENDBRANCH  64  81
ENDBRANCH  38  39
ENDBRANCH  31  33
ENDBRANCH  30  31
ENDBRANCH  29  30
ENDBRANCH  28  29
ENDBRANCH  27  28
ENDBRANCH  26  27
ENDBRANCH   1  26
TORSDOF 23
ENDMDL
MODEL 2
REMARK VINA RESULT:     -10.4      2.731      8.149
REMARK SMILES C[C@H](/N=C(\Cc1ccccc1)C(=O)OC(C)(C)C)C(=O)OCCOCCOCCOC(=O)c1ccc(-c2c3nc(c(-c4c(F)cccc4F)c4ccc([nH]4)c(-c4c(F)cccc4F)c4nc(c(-c5c(F)cccc5F)c5ccc2[nH]5)C=C4)C=C3)cc1
REMARK SMILES IDX 25 1 24 2 23 3 22 4 21 5 19 6 20 7 2 8 1 9 3 10 4 11 5 12
REMARK SMILES IDX 6 13 7 14 11 15 8 16 10 17 9 18 12 19 13 20 14 21 15 22
REMARK SMILES IDX 16 23 17 24 18 25 26 26 27 27 28 28 29 29 30 30 31 31 32 32
REMARK SMILES IDX 33 33 34 34 86 35 35 36 85 37 36 38 37 39 38 40 79 41 39 42
REMARK SMILES IDX 84 43 78 44 80 45 40 46 83 47 77 48 76 49 41 51 67 52 50 53
REMARK SMILES IDX 66 54 51 55 54 56 65 57 81 58 52 59 53 60 64 62 82 63 55 64
REMARK SMILES IDX 42 65 43 66 48 67 44 68 45 69 47 70 49 71 46 72 68 73 69 74
REMARK SMILES IDX 74 75 70 76 71 77 73 78 75 79 72 80 56 81 57 82 62 83 58 84
REMARK SMILES IDX 59 85 61 86 63 87 60 88
REMARK H PARENT 80 50 54 61
REMARK Flexibility Score: inf
ROOT
ATOM      1  C   UNL A   1      40.429  19.649  25.966  1.00  0.00     0.188 C 
ENDROOT
BRANCH   1   2
ATOM      2  O   UNL A   1      39.887  20.841  26.521  1.00  0.00    -0.376 OA
BRANCH   2   3
ATOM      3  C   UNL A   1      38.920  21.574  25.772  1.00  0.00     0.202 C 
BRANCH   3   4
ATOM      4  C   UNL A   1      37.818  20.827  24.998  1.00  0.00     0.261 C 
BRANCH   4   5
ATOM      5  O   UNL A   1      36.531  21.477  25.003  1.00  0.00    -0.462 OA
BRANCH   5   6
ATOM      6  C   UNL A   1      36.430  22.624  24.279  1.00  0.00     0.330 C 
ATOM      7  O   UNL A   1      36.681  22.700  23.078  1.00  0.00    -0.250 OA
BRANCH   6   8
ATOM      8  C   UNL A   1      35.877  23.820  25.069  1.00  0.00     0.212 C 
ATOM      9  C   UNL A   1      35.406  23.411  26.451  1.00  0.00     0.046 C 
BRANCH   8  10
ATOM     10  N   UNL A   1      34.927  24.691  24.364  1.00  0.00    -0.267 NA
ATOM     11  C   UNL A   1      33.645  24.598  24.293  1.00  0.00     0.125 C 
BRANCH  11  12
ATOM     12  C   UNL A   1      32.792  23.617  25.050  1.00  0.00     0.099 C 
BRANCH  12  13
ATOM     13  C   UNL A   1      32.637  22.285  24.342  1.00  0.00    -0.042 A 
ATOM     14  C   UNL A   1      32.287  22.289  22.987  1.00  0.00     0.004 A 
ATOM     15  C   UNL A   1      32.803  21.045  24.985  1.00  0.00     0.004 A 
ATOM     16  C   UNL A   1      32.092  21.089  22.301  1.00  0.00     0.000 A 
ATOM     17  C   UNL A   1      32.593  19.848  24.303  1.00  0.00     0.000 A 
ATOM     18  C   UNL A   1      32.235  19.870  22.961  1.00  0.00     0.000 A 
ENDBRANCH  12  13
ENDBRANCH  11  12
BRANCH  11  19
ATOM     19  C   UNL A   1      32.893  25.659  23.436  1.00  0.00     0.353 C 
ATOM     20  O   UNL A   1      33.138  25.846  22.254  1.00  0.00    -0.245 OA
BRANCH  19  21
ATOM     21  O   UNL A   1      32.040  26.364  24.204  1.00  0.00    -0.455 OA
BRANCH  21  22
ATOM     22  C   UNL A   1      32.411  27.618  24.837  1.00  0.00     0.104 C 
ATOM     23  C   UNL A   1      33.743  28.153  24.299  1.00  0.00     0.056 C 
ATOM     24  C   UNL A   1      31.296  28.660  24.719  1.00  0.00     0.056 C 
ATOM     25  C   UNL A   1      32.601  27.260  26.320  1.00  0.00     0.056 C 
ENDBRANCH  21  22
ENDBRANCH  19  21
ENDBRANCH  11  19
ENDBRANCH   8  10
ENDBRANCH   6   8
ENDBRANCH   5   6
ENDBRANCH   4   5
ENDBRANCH   3   4
ENDBRANCH   2   3
ENDBRANCH   1   2
BRANCH   1  26
ATOM     26  C   UNL A   1      41.887  19.268  26.275  1.00  0.00     0.188 C 
BRANCH  26  27
ATOM     27  O   UNL A   1      42.728  19.166  25.151  1.00  0.00    -0.376 OA
BRANCH  27  28
ATOM     28  C   UNL A   1      43.774  20.115  25.023  1.00  0.00     0.202 C 
BRANCH  28  29
ATOM     29  C   UNL A   1      43.814  21.451  25.805  1.00  0.00     0.261 C 
BRANCH  29  30
ATOM     30  O   UNL A   1      43.043  22.560  25.311  1.00  0.00    -0.460 OA
BRANCH  30  31
ATOM     31  C   UNL A   1      43.693  23.737  25.134  1.00  0.00     0.338 C 
ATOM     32  O   UNL A   1      44.527  23.995  24.282  1.00  0.00    -0.246 OA
BRANCH  31  33
ATOM     33  C   UNL A   1      43.093  24.743  26.040  1.00  0.00     0.060 A 
ATOM     34  C   UNL A   1      43.653  26.028  26.116  1.00  0.00     0.016 A 
ATOM     35  C   UNL A   1      41.991  24.412  26.829  1.00  0.00     0.016 A 
ATOM     36  C   UNL A   1      43.119  26.980  26.992  1.00  0.00     0.010 A 
ATOM     37  C   UNL A   1      41.475  25.356  27.724  1.00  0.00     0.010 A 
ATOM     38  C   UNL A   1      42.051  26.637  27.829  1.00  0.00    -0.014 A 
BRANCH  38  39
ATOM     39  C   UNL A   1      41.633  27.547  28.927  1.00  0.00     0.031 A 
ATOM     40  C   UNL A   1      42.376  27.490  30.236  1.00  0.00     0.074 A 
ATOM     41  C   UNL A   1      40.611  28.410  28.777  1.00  0.00     0.049 A 
ATOM     42  N   UNL A   1      42.136  28.117  31.360  1.00  0.00    -0.248 NA
ATOM     43  C   UNL A   1      43.546  26.598  30.281  1.00  0.00     0.031 C 
ATOM     44  C   UNL A   1      39.834  28.598  27.554  1.00  0.00     0.029 A 
ATOM     45  N   UNL A   1      40.041  29.280  29.675  1.00  0.00    -0.354 N 
ATOM     46  C   UNL A   1      43.117  27.689  32.246  1.00  0.00     0.074 A 
ATOM     47  C   UNL A   1      43.936  26.726  31.540  1.00  0.00     0.031 C 
ATOM     48  C   UNL A   1      38.875  29.512  27.784  1.00  0.00     0.029 A 
ATOM     49  C   UNL A   1      38.947  29.946  29.179  1.00  0.00     0.049 A 
ATOM     50  H   UNL A   1      40.385  29.413  30.589  1.00  0.00     0.167 HD
ATOM     51  C   UNL A   1      43.323  28.068  33.530  1.00  0.00     0.037 A 
ATOM     52  C   UNL A   1      38.087  30.786  29.789  1.00  0.00     0.037 A 
ATOM     53  C   UNL A   1      42.507  29.024  34.235  1.00  0.00     0.049 A 
ATOM     54  C   UNL A   1      38.287  31.129  31.244  1.00  0.00     0.074 A 
ATOM     55  C   UNL A   1      42.647  29.483  35.533  1.00  0.00     0.029 A 
ATOM     56  N   UNL A   1      41.394  29.657  33.705  1.00  0.00    -0.354 N 
ATOM     57  N   UNL A   1      39.232  30.741  32.067  1.00  0.00    -0.248 NA
ATOM     58  C   UNL A   1      37.300  32.033  31.855  1.00  0.00     0.031 C 
ATOM     59  C   UNL A   1      41.584  30.350  35.808  1.00  0.00     0.029 A 
ATOM     60  C   UNL A   1      40.820  30.481  34.660  1.00  0.00     0.049 A 
ATOM     61  H   UNL A   1      41.060  29.538  32.787  1.00  0.00     0.167 HD
ATOM     62  C   UNL A   1      38.972  31.377  33.276  1.00  0.00     0.074 A 
ATOM     63  C   UNL A   1      37.792  32.190  33.075  1.00  0.00     0.031 C 
ATOM     64  C   UNL A   1      39.650  31.295  34.448  1.00  0.00     0.037 A 
BRANCH  51  65
ATOM     65  C   UNL A   1      44.464  27.431  34.268  1.00  0.00     0.057 A 
ATOM     66  C   UNL A   1      45.737  28.014  34.313  1.00  0.00     0.134 A 
ATOM     67  C   UNL A   1      44.274  26.241  34.985  1.00  0.00     0.134 A 
ATOM     68  F   UNL A   1      45.991  29.146  33.640  1.00  0.00    -0.206 F 
ATOM     69  C   UNL A   1      46.786  27.426  35.025  1.00  0.00     0.040 A 
ATOM     70  C   UNL A   1      45.305  25.660  35.724  1.00  0.00     0.040 A 
ATOM     71  F   UNL A   1      43.079  25.633  34.990  1.00  0.00    -0.206 F 
ATOM     72  C   UNL A   1      46.567  26.250  35.741  1.00  0.00     0.006 A 
ENDBRANCH  51  65
BRANCH  52  73
ATOM     73  C   UNL A   1      36.932  31.354  29.041  1.00  0.00     0.057 A 
ATOM     74  C   UNL A   1      36.929  32.685  28.610  1.00  0.00     0.134 A 
ATOM     75  C   UNL A   1      35.784  30.593  28.786  1.00  0.00     0.134 A 
ATOM     76  F   UNL A   1      37.986  33.476  28.850  1.00  0.00    -0.206 F 
ATOM     77  C   UNL A   1      35.818  33.248  27.978  1.00  0.00     0.040 A 
ATOM     78  C   UNL A   1      34.679  31.134  28.126  1.00  0.00     0.040 A 
ATOM     79  F   UNL A   1      35.718  29.312  29.177  1.00  0.00    -0.206 F 
ATOM     80  C   UNL A   1      34.690  32.469  27.730  1.00  0.00     0.006 A 
ENDBRANCH  52  73
BRANCH  64  81
ATOM     81  C   UNL A   1      39.164  32.142  35.592  1.00  0.00     0.057 A 
ATOM     82  C   UNL A   1      38.317  31.637  36.587  1.00  0.00     0.134 A 
ATOM     83  C   UNL A   1      39.574  33.477  35.714  1.00  0.00     0.134 A 
ATOM     84  F   UNL A   1      37.878  30.370  36.528  1.00  0.00    -0.206 F 
ATOM     85  C   UNL A   1      37.873  32.435  37.643  1.00  0.00     0.040 A 
ATOM     86  C   UNL A   1      39.162  34.275  36.782  1.00  0.00     0.040 A 
ATOM     87  F   UNL A   1      40.395  34.024  34.804  1.00  0.00    -0.206 F 
ATOM     88  C   UNL A   1      38.300  33.757  37.746  1.00  0.00     0.006 A 
ENDBRANCH  64  81
ENDBRANCH  38  39
ENDBRANCH  31  33
ENDBRANCH  30  31
ENDBRANCH  29  30
ENDBRANCH  28  29
ENDBRANCH  27  28
ENDBRANCH  26  27
ENDBRANCH   1  26
TORSDOF 23
ENDMDL
MODEL 3
REMARK VINA RESULT:     -10.1      2.927      4.912
REMARK SMILES C[C@H](/N=C(\Cc1ccccc1)C(=O)OC(C)(C)C)C(=O)OCCOCCOCCOC(=O)c1ccc(-c2c3nc(c(-c4c(F)cccc4F)c4ccc([nH]4)c(-c4c(F)cccc4F)c4nc(c(-c5c(F)cccc5F)c5ccc2[nH]5)C=C4)C=C3)cc1
REMARK SMILES IDX 25 1 24 2 23 3 22 4 21 5 19 6 20 7 2 8 1 9 3 10 4 11 5 12
REMARK SMILES IDX 6 13 7 14 11 15 8 16 10 17 9 18 12 19 13 20 14 21 15 22
REMARK SMILES IDX 16 23 17 24 18 25 26 26 27 27 28 28 29 29 30 30 31 31 32 32
REMARK SMILES IDX 33 33 34 34 86 35 35 36 85 37 36 38 37 39 38 40 79 41 39 42
REMARK SMILES IDX 84 43 78 44 80 45 40 46 83 47 77 48 76 49 41 51 67 52 50 53
REMARK SMILES IDX 66 54 51 55 54 56 65 57 81 58 52 59 53 60 64 62 82 63 55 64
REMARK SMILES IDX 42 65 43 66 48 67 44 68 45 69 47 70 49 71 46 72 68 73 69 74
REMARK SMILES IDX 74 75 70 76 71 77 73 78 75 79 72 80 56 81 57 82 62 83 58 84
REMARK SMILES IDX 59 85 61 86 63 87 60 88
REMARK H PARENT 80 50 54 61
REMARK Flexibility Score: inf
ROOT
ATOM      1  C   UNL A   1      35.159  32.472  28.752  1.00  0.00     0.188 C 
ENDROOT
BRANCH   1   2
ATOM      2  O   UNL A   1      35.901  31.942  27.660  1.00  0.00    -0.376 OA
BRANCH   2   3
ATOM      3  C   UNL A   1      36.295  30.573  27.692  1.00  0.00     0.202 C 
BRANCH   3   4
ATOM      4  C   UNL A   1      35.273  29.486  28.074  1.00  0.00     0.261 C 
BRANCH   4   5
ATOM      5  O   UNL A   1      34.618  28.853  26.957  1.00  0.00    -0.462 OA
BRANCH   5   6
ATOM      6  C   UNL A   1      33.259  28.918  26.938  1.00  0.00     0.330 C 
ATOM      7  O   UNL A   1      32.530  28.233  27.652  1.00  0.00    -0.250 OA
BRANCH   6   8
ATOM      8  C   UNL A   1      32.694  30.001  26.006  1.00  0.00     0.212 C 
ATOM      9  C   UNL A   1      32.353  31.271  26.761  1.00  0.00     0.046 C 
BRANCH   8  10
ATOM     10  N   UNL A   1      31.642  29.581  25.070  1.00  0.00    -0.267 NA
ATOM     11  C   UNL A   1      31.762  29.093  23.885  1.00  0.00     0.125 C 
BRANCH  11  12
ATOM     12  C   UNL A   1      33.056  28.707  23.221  1.00  0.00     0.099 C 
BRANCH  12  13
ATOM     13  C   UNL A   1      33.329  27.216  23.257  1.00  0.00    -0.042 A 
ATOM     14  C   UNL A   1      33.803  26.656  24.449  1.00  0.00     0.004 A 
ATOM     15  C   UNL A   1      33.150  26.371  22.146  1.00  0.00     0.004 A 
ATOM     16  C   UNL A   1      34.108  25.295  24.521  1.00  0.00     0.000 A 
ATOM     17  C   UNL A   1      33.470  25.016  22.215  1.00  0.00     0.000 A 
ATOM     18  C   UNL A   1      33.951  24.479  23.403  1.00  0.00     0.000 A 
ENDBRANCH  12  13
ENDBRANCH  11  12
BRANCH  11  19
ATOM     19  C   UNL A   1      30.454  28.768  23.104  1.00  0.00     0.353 C 
ATOM     20  O   UNL A   1      30.445  28.107  22.076  1.00  0.00    -0.245 OA
BRANCH  19  21
ATOM     21  O   UNL A   1      29.403  29.390  23.672  1.00  0.00    -0.455 OA
BRANCH  21  22
ATOM     22  C   UNL A   1      28.346  30.011  22.891  1.00  0.00     0.104 C 
ATOM     23  C   UNL A   1      28.864  30.524  21.542  1.00  0.00     0.056 C 
ATOM     24  C   UNL A   1      27.150  29.072  22.716  1.00  0.00     0.056 C 
ATOM     25  C   UNL A   1      27.908  31.222  23.731  1.00  0.00     0.056 C 
ENDBRANCH  21  22
ENDBRANCH  19  21
ENDBRANCH  11  19
ENDBRANCH   8  10
ENDBRANCH   6   8
ENDBRANCH   5   6
ENDBRANCH   4   5
ENDBRANCH   3   4
ENDBRANCH   2   3
ENDBRANCH   1   2
BRANCH   1  26
ATOM     26  C   UNL A   1      35.312  33.958  29.118  1.00  0.00     0.188 C 
BRANCH  26  27
ATOM     27  O   UNL A   1      34.796  34.862  28.171  1.00  0.00    -0.376 OA
BRANCH  27  28
ATOM     28  C   UNL A   1      33.988  35.926  28.649  1.00  0.00     0.202 C 
BRANCH  28  29
ATOM     29  C   UNL A   1      32.879  35.743  29.713  1.00  0.00     0.261 C 
BRANCH  29  30
ATOM     30  O   UNL A   1      33.022  36.414  30.977  1.00  0.00    -0.460 OA
BRANCH  30  31
ATOM     31  C   UNL A   1      32.657  35.727  32.088  1.00  0.00     0.338 C 
ATOM     32  O   UNL A   1      31.527  35.577  32.521  1.00  0.00    -0.246 OA
BRANCH  31  33
ATOM     33  C   UNL A   1      33.847  35.018  32.611  1.00  0.00     0.060 A 
ATOM     34  C   UNL A   1      35.115  35.607  32.491  1.00  0.00     0.016 A 
ATOM     35  C   UNL A   1      33.714  33.762  33.204  1.00  0.00     0.016 A 
ATOM     36  C   UNL A   1      36.253  34.936  32.950  1.00  0.00     0.010 A 
ATOM     37  C   UNL A   1      34.856  33.079  33.638  1.00  0.00     0.010 A 
ATOM     38  C   UNL A   1      36.134  33.650  33.492  1.00  0.00    -0.014 A 
BRANCH  38  39
ATOM     39  C   UNL A   1      37.345  32.830  33.758  1.00  0.00     0.031 A 
ATOM     40  C   UNL A   1      38.132  33.091  35.015  1.00  0.00     0.074 A 
ATOM     41  C   UNL A   1      37.750  31.873  32.903  1.00  0.00     0.049 A 
ATOM     42  N   UNL A   1      39.265  32.570  35.413  1.00  0.00    -0.248 NA
ATOM     43  C   UNL A   1      37.563  34.079  35.946  1.00  0.00     0.031 C 
ATOM     44  C   UNL A   1      37.061  31.489  31.673  1.00  0.00     0.029 A 
ATOM     45  N   UNL A   1      38.857  31.059  32.937  1.00  0.00    -0.354 N 
ATOM     46  C   UNL A   1      39.548  33.172  36.633  1.00  0.00     0.074 A 
ATOM     47  C   UNL A   1      38.485  34.119  36.895  1.00  0.00     0.031 C 
ATOM     48  C   UNL A   1      37.772  30.527  31.059  1.00  0.00     0.029 A 
ATOM     49  C   UNL A   1      38.983  30.253  31.832  1.00  0.00     0.049 A 
ATOM     50  H   UNL A   1      39.499  31.055  33.683  1.00  0.00     0.167 HD
ATOM     51  C   UNL A   1      40.595  32.951  37.464  1.00  0.00     0.037 A 
ATOM     52  C   UNL A   1      39.974  29.414  31.472  1.00  0.00     0.037 A 
ATOM     53  C   UNL A   1      41.655  32.012  37.203  1.00  0.00     0.049 A 
ATOM     54  C   UNL A   1      41.172  29.247  32.375  1.00  0.00     0.074 A 
ATOM     55  C   UNL A   1      42.749  31.707  37.994  1.00  0.00     0.029 A 
ATOM     56  N   UNL A   1      41.758  31.233  36.061  1.00  0.00    -0.354 N 
ATOM     57  N   UNL A   1      41.419  29.800  33.539  1.00  0.00    -0.248 NA
ATOM     58  C   UNL A   1      42.228  28.333  31.914  1.00  0.00     0.031 C 
ATOM     59  C   UNL A   1      43.546  30.788  37.304  1.00  0.00     0.029 A 
ATOM     60  C   UNL A   1      42.914  30.471  36.113  1.00  0.00     0.049 A 
ATOM     61  H   UNL A   1      41.108  31.224  35.323  1.00  0.00     0.167 HD
ATOM     62  C   UNL A   1      42.637  29.278  33.960  1.00  0.00     0.074 A 
ATOM     63  C   UNL A   1      43.069  28.350  32.938  1.00  0.00     0.031 C 
ATOM     64  C   UNL A   1      43.333  29.542  35.094  1.00  0.00     0.037 A 
BRANCH  51  65
ATOM     65  C   UNL A   1      40.660  33.758  38.728  1.00  0.00     0.057 A 
ATOM     66  C   UNL A   1      41.399  34.945  38.815  1.00  0.00     0.134 A 
ATOM     67  C   UNL A   1      39.934  33.367  39.862  1.00  0.00     0.134 A 
ATOM     68  F   UNL A   1      42.126  35.371  37.771  1.00  0.00    -0.206 F 
ATOM     69  C   UNL A   1      41.432  35.702  39.989  1.00  0.00     0.040 A 
ATOM     70  C   UNL A   1      39.935  34.130  41.030  1.00  0.00     0.040 A 
ATOM     71  F   UNL A   1      39.201  32.244  39.847  1.00  0.00    -0.206 F 
ATOM     72  C   UNL A   1      40.690  35.299  41.097  1.00  0.00     0.006 A 
ENDBRANCH  51  65
BRANCH  52  73
ATOM     73  C   UNL A   1      39.904  28.673  30.184  1.00  0.00     0.057 A 
ATOM     74  C   UNL A   1      39.237  27.446  30.086  1.00  0.00     0.134 A 
ATOM     75  C   UNL A   1      40.545  29.150  29.033  1.00  0.00     0.134 A 
ATOM     76  F   UNL A   1      38.628  26.920  31.159  1.00  0.00    -0.206 F 
ATOM     77  C   UNL A   1      39.233  26.707  28.901  1.00  0.00     0.040 A 
ATOM     78  C   UNL A   1      40.521  28.437  27.834  1.00  0.00     0.040 A 
ATOM     79  F   UNL A   1      41.206  30.316  29.059  1.00  0.00    -0.206 F 
ATOM     80  C   UNL A   1      39.873  27.205  27.768  1.00  0.00     0.006 A 
ENDBRANCH  52  73
BRANCH  64  81
ATOM     81  C   UNL A   1      44.614  28.784  35.313  1.00  0.00     0.057 A 
ATOM     82  C   UNL A   1      45.854  29.277  34.889  1.00  0.00     0.134 A 
ATOM     83  C   UNL A   1      44.607  27.555  35.987  1.00  0.00     0.134 A 
ATOM     84  F   UNL A   1      45.933  30.444  34.230  1.00  0.00    -0.206 F 
ATOM     85  C   UNL A   1      47.036  28.563  35.099  1.00  0.00     0.040 A 
ATOM     86  C   UNL A   1      45.784  26.847  36.231  1.00  0.00     0.040 A 
ATOM     87  F   UNL A   1      43.456  27.028  36.432  1.00  0.00    -0.206 F 
ATOM     88  C   UNL A   1      47.004  27.346  35.777  1.00  0.00     0.006 A 
ENDBRANCH  64  81
ENDBRANCH  38  39
ENDBRANCH  31  33
ENDBRANCH  30  31
ENDBRANCH  29  30
ENDBRANCH  28  29
ENDBRANCH  27  28
ENDBRANCH  26  27
ENDBRANCH   1  26
TORSDOF 23
ENDMDL
