MODEL 1
REMARK VINA RESULT:      -9.7      0.000      0.000
REMARK SMILES CC(C)N(CC1CC1)C(=O)N1CC[C@H](C(=O)OCCOCCOCCOC(=O)c2ccc(-c3c4nc(c(-c5c(F)cccc5F)c5ccc([nH]5)c(-c5c(F)cccc5F)c5nc(c(-c6c(F)cccc6F)c6ccc3[nH]6)C=C5)C=C4)cc2)[C@H]1C
REMARK SMILES IDX 21 1 20 2 19 3 18 4 17 5 15 6 16 7 14 8 11 9 12 10 83 11
REMARK SMILES IDX 13 12 84 13 9 14 10 15 4 16 2 17 1 18 3 19 5 20 6 21 7 22
REMARK SMILES IDX 8 23 22 24 23 25 24 26 25 27 26 28 27 29 28 30 29 31 30 32
REMARK SMILES IDX 82 33 31 34 81 35 32 36 33 37 34 38 75 39 35 40 80 41 74 42
REMARK SMILES IDX 76 43 36 44 79 45 73 46 72 47 37 49 63 50 46 51 62 52 47 53
REMARK SMILES IDX 50 54 61 55 77 56 48 57 49 58 60 60 78 61 51 62 38 63 39 64
REMARK SMILES IDX 44 65 40 66 41 67 43 68 45 69 42 70 64 71 65 72 70 73 66 74
REMARK SMILES IDX 67 75 69 76 71 77 68 78 52 79 53 80 58 81 54 82 55 83 57 84
REMARK SMILES IDX 59 85 56 86
REMARK H PARENT 76 48 50 59
REMARK Flexibility Score: inf
ROOT
ATOM      1  C   UNL A   1      39.844  21.863  26.613  1.00  0.00     0.188 C 
ENDROOT
BRANCH   1   2
ATOM      2  O   UNL A   1      38.691  22.257  25.896  1.00  0.00    -0.376 OA
BRANCH   2   3
ATOM      3  C   UNL A   1      38.095  23.523  26.153  1.00  0.00     0.202 C 
BRANCH   3   4
ATOM      4  C   UNL A   1      36.648  23.811  25.760  1.00  0.00     0.261 C 
BRANCH   4   5
ATOM      5  O   UNL A   1      35.999  22.701  25.120  1.00  0.00    -0.463 OA
BRANCH   5   6
ATOM      6  C   UNL A   1      34.657  22.606  25.348  1.00  0.00     0.311 C 
ATOM      7  O   UNL A   1      34.161  22.337  26.431  1.00  0.00    -0.252 OA
BRANCH   6   8
ATOM      8  C   UNL A   1      33.875  22.874  24.079  1.00  0.00     0.123 C 
ATOM      9  N   UNL A   1      32.300  24.543  24.725  1.00  0.00    -0.321 N 
ATOM     10  C   UNL A   1      31.683  23.227  24.936  1.00  0.00     0.122 C 
ATOM     11  C   UNL A   1      33.527  24.372  23.914  1.00  0.00     0.098 C 
ATOM     12  C   UNL A   1      32.503  22.218  24.143  1.00  0.00     0.039 C 
ATOM     13  C   UNL A   1      33.307  24.611  22.405  1.00  0.00     0.032 C 
BRANCH   9  14
ATOM     14  C   UNL A   1      32.088  25.462  25.754  1.00  0.00     0.320 C 
ATOM     15  O   UNL A   1      31.485  25.099  26.771  1.00  0.00    -0.248 OA
BRANCH  14  16
ATOM     16  N   UNL A   1      32.439  26.796  25.608  1.00  0.00    -0.322 N 
BRANCH  16  17
ATOM     17  C   UNL A   1      32.920  27.548  26.799  1.00  0.00     0.080 C 
ATOM     18  C   UNL A   1      34.168  28.395  26.519  1.00  0.00     0.031 C 
ATOM     19  C   UNL A   1      31.825  28.364  27.488  1.00  0.00     0.031 C 
ENDBRANCH  16  17
BRANCH  16  20
ATOM     20  C   UNL A   1      32.155  27.630  24.455  1.00  0.00     0.125 C 
BRANCH  20  21
ATOM     21  C   UNL A   1      30.752  27.451  23.955  1.00  0.00     0.009 C 
ATOM     22  C   UNL A   1      29.887  28.595  23.480  1.00  0.00     0.006 C 
ATOM     23  C   UNL A   1      30.428  27.607  22.490  1.00  0.00     0.006 C 
ENDBRANCH  20  21
ENDBRANCH  16  20
ENDBRANCH  14  16
ENDBRANCH   9  14
ENDBRANCH   6   8
ENDBRANCH   5   6
ENDBRANCH   4   5
ENDBRANCH   3   4
ENDBRANCH   2   3
ENDBRANCH   1   2
BRANCH   1  24
ATOM     24  C   UNL A   1      41.054  21.275  25.862  1.00  0.00     0.188 C 
BRANCH  24  25
ATOM     25  O   UNL A   1      42.231  20.912  26.551  1.00  0.00    -0.376 OA
BRANCH  25  26
ATOM     26  C   UNL A   1      43.495  21.429  26.162  1.00  0.00     0.202 C 
BRANCH  26  27
ATOM     27  C   UNL A   1      43.765  22.146  24.833  1.00  0.00     0.261 C 
BRANCH  27  28
ATOM     28  O   UNL A   1      43.166  23.434  24.677  1.00  0.00    -0.460 OA
BRANCH  28  29
ATOM     29  C   UNL A   1      43.948  24.465  25.076  1.00  0.00     0.338 C 
ATOM     30  O   UNL A   1      45.046  24.778  24.652  1.00  0.00    -0.246 OA
BRANCH  29  31
ATOM     31  C   UNL A   1      43.198  25.308  26.018  1.00  0.00     0.060 A 
ATOM     32  C   UNL A   1      43.657  26.613  26.218  1.00  0.00     0.016 A 
ATOM     33  C   UNL A   1      42.124  24.805  26.755  1.00  0.00     0.016 A 
ATOM     34  C   UNL A   1      43.045  27.415  27.172  1.00  0.00     0.010 A 
ATOM     35  C   UNL A   1      41.521  25.612  27.726  1.00  0.00     0.010 A 
ATOM     36  C   UNL A   1      41.989  26.916  27.947  1.00  0.00    -0.014 A 
BRANCH  36  37
ATOM     37  C   UNL A   1      41.516  27.733  29.085  1.00  0.00     0.031 A 
ATOM     38  C   UNL A   1      42.304  27.708  30.361  1.00  0.00     0.074 A 
ATOM     39  C   UNL A   1      40.469  28.566  28.950  1.00  0.00     0.049 A 
ATOM     40  N   UNL A   1      42.092  28.352  31.480  1.00  0.00    -0.248 NA
ATOM     41  C   UNL A   1      43.500  26.850  30.374  1.00  0.00     0.031 C 
ATOM     42  C   UNL A   1      39.680  28.740  27.734  1.00  0.00     0.029 A 
ATOM     43  N   UNL A   1      39.909  29.444  29.844  1.00  0.00    -0.354 N 
ATOM     44  C   UNL A   1      43.118  27.970  32.332  1.00  0.00     0.074 A 
ATOM     45  C   UNL A   1      43.956  27.041  31.603  1.00  0.00     0.031 C 
ATOM     46  C   UNL A   1      38.753  29.689  27.948  1.00  0.00     0.029 A 
ATOM     47  C   UNL A   1      38.843  30.143  29.334  1.00  0.00     0.049 A 
ATOM     48  H   UNL A   1      40.240  29.560  30.764  1.00  0.00     0.167 HD
ATOM     49  C   UNL A   1      43.335  28.346  33.613  1.00  0.00     0.037 A 
ATOM     50  C   UNL A   1      38.019  31.025  29.932  1.00  0.00     0.037 A 
ATOM     51  C   UNL A   1      42.488  29.249  34.346  1.00  0.00     0.049 A 
ATOM     52  C   UNL A   1      38.224  31.352  31.389  1.00  0.00     0.074 A 
ATOM     53  C   UNL A   1      42.597  29.656  35.663  1.00  0.00     0.029 A 
ATOM     54  N   UNL A   1      41.367  29.874  33.823  1.00  0.00    -0.354 N 
ATOM     55  N   UNL A   1      39.177  30.961  32.200  1.00  0.00    -0.248 NA
ATOM     56  C   UNL A   1      37.223  32.225  32.020  1.00  0.00     0.031 C 
ATOM     57  C   UNL A   1      41.516  30.497  35.950  1.00  0.00     0.029 A 
ATOM     58  C   UNL A   1      40.761  30.649  34.798  1.00  0.00     0.049 A 
ATOM     59  H   UNL A   1      41.049  29.782  32.895  1.00  0.00     0.167 HD
ATOM     60  C   UNL A   1      38.900  31.549  33.429  1.00  0.00     0.074 A 
ATOM     61  C   UNL A   1      37.701  32.341  33.252  1.00  0.00     0.031 C 
ATOM     62  C   UNL A   1      39.572  31.438  34.600  1.00  0.00     0.037 A 
BRANCH  49  63
ATOM     63  C   UNL A   1      44.502  27.724  34.316  1.00  0.00     0.057 A 
ATOM     64  C   UNL A   1      45.760  28.338  34.353  1.00  0.00     0.134 A 
ATOM     65  C   UNL A   1      44.362  26.490  34.963  1.00  0.00     0.134 A 
ATOM     66  F   UNL A   1      45.964  29.509  33.732  1.00  0.00    -0.206 F 
ATOM     67  C   UNL A   1      46.844  27.735  34.992  1.00  0.00     0.040 A 
ATOM     68  C   UNL A   1      45.432  25.888  35.624  1.00  0.00     0.040 A 
ATOM     69  F   UNL A   1      43.183  25.849  34.960  1.00  0.00    -0.206 F 
ATOM     70  C   UNL A   1      46.680  26.508  35.635  1.00  0.00     0.006 A 
ENDBRANCH  49  63
BRANCH  50  71
ATOM     71  C   UNL A   1      36.887  31.627  29.181  1.00  0.00     0.057 A 
ATOM     72  C   UNL A   1      36.952  32.934  28.686  1.00  0.00     0.134 A 
ATOM     73  C   UNL A   1      35.693  30.921  28.980  1.00  0.00     0.134 A 
ATOM     74  F   UNL A   1      38.057  33.672  28.871  1.00  0.00    -0.206 F 
ATOM     75  C   UNL A   1      35.867  33.525  28.035  1.00  0.00     0.040 A 
ATOM     76  C   UNL A   1      34.611  31.490  28.307  1.00  0.00     0.040 A 
ATOM     77  F   UNL A   1      35.562  29.669  29.438  1.00  0.00    -0.206 F 
ATOM     78  C   UNL A   1      34.694  32.799  27.840  1.00  0.00     0.006 A 
ENDBRANCH  50  71
BRANCH  62  79
ATOM     79  C   UNL A   1      39.046  32.211  35.774  1.00  0.00     0.057 A 
ATOM     80  C   UNL A   1      38.216  31.621  36.735  1.00  0.00     0.134 A 
ATOM     81  C   UNL A   1      39.421  33.546  35.973  1.00  0.00     0.134 A 
ATOM     82  F   UNL A   1      37.813  30.350  36.596  1.00  0.00    -0.206 F 
ATOM     83  C   UNL A   1      37.761  32.339  37.844  1.00  0.00     0.040 A 
ATOM     84  C   UNL A   1      38.993  34.266  37.089  1.00  0.00     0.040 A 
ATOM     85  F   UNL A   1      40.224  34.166  35.095  1.00  0.00    -0.206 F 
ATOM     86  C   UNL A   1      38.157  33.663  38.026  1.00  0.00     0.006 A 
ENDBRANCH  62  79
ENDBRANCH  36  37
ENDBRANCH  29  31
ENDBRANCH  28  29
ENDBRANCH  27  28
ENDBRANCH  26  27
ENDBRANCH  25  26
ENDBRANCH  24  25
ENDBRANCH   1  24
TORSDOF 22
ENDMDL
MODEL 2
REMARK VINA RESULT:      -9.7      4.308      9.734
REMARK SMILES CC(C)N(CC1CC1)C(=O)N1CC[C@H](C(=O)OCCOCCOCCOC(=O)c2ccc(-c3c4nc(c(-c5c(F)cccc5F)c5ccc([nH]5)c(-c5c(F)cccc5F)c5nc(c(-c6c(F)cccc6F)c6ccc3[nH]6)C=C5)C=C4)cc2)[C@H]1C
REMARK SMILES IDX 21 1 20 2 19 3 18 4 17 5 15 6 16 7 14 8 11 9 12 10 83 11
REMARK SMILES IDX 13 12 84 13 9 14 10 15 4 16 2 17 1 18 3 19 5 20 6 21 7 22
REMARK SMILES IDX 8 23 22 24 23 25 24 26 25 27 26 28 27 29 28 30 29 31 30 32
REMARK SMILES IDX 82 33 31 34 81 35 32 36 33 37 34 38 75 39 35 40 80 41 74 42
REMARK SMILES IDX 76 43 36 44 79 45 73 46 72 47 37 49 63 50 46 51 62 52 47 53
REMARK SMILES IDX 50 54 61 55 77 56 48 57 49 58 60 60 78 61 51 62 38 63 39 64
REMARK SMILES IDX 44 65 40 66 41 67 43 68 45 69 42 70 64 71 65 72 70 73 66 74
REMARK SMILES IDX 67 75 69 76 71 77 68 78 52 79 53 80 58 81 54 82 55 83 57 84
REMARK SMILES IDX 59 85 56 86
REMARK H PARENT 76 48 50 59
REMARK Flexibility Score: inf
ROOT
ATOM      1  C   UNL A   1      33.913  32.430  28.595  1.00  0.00     0.188 C 
ENDROOT
BRANCH   1   2
ATOM      2  O   UNL A   1      34.743  31.985  27.541  1.00  0.00    -0.376 OA
BRANCH   2   3
ATOM      3  C   UNL A   1      34.853  30.594  27.265  1.00  0.00     0.202 C 
BRANCH   3   4
ATOM      4  C   UNL A   1      33.644  29.668  27.375  1.00  0.00     0.261 C 
BRANCH   4   5
ATOM      5  O   UNL A   1      33.099  29.287  26.102  1.00  0.00    -0.463 OA
BRANCH   5   6
ATOM      6  C   UNL A   1      33.117  27.948  25.843  1.00  0.00     0.311 C 
ATOM      7  O   UNL A   1      34.121  27.253  25.881  1.00  0.00    -0.252 OA
BRANCH   6   8
ATOM      8  C   UNL A   1      31.730  27.447  25.499  1.00  0.00     0.123 C 
ATOM      9  N   UNL A   1      32.132  25.675  23.956  1.00  0.00    -0.321 N 
ATOM     10  C   UNL A   1      31.971  26.918  23.192  1.00  0.00     0.122 C 
ATOM     11  C   UNL A   1      31.686  25.909  25.349  1.00  0.00     0.098 C 
ATOM     12  C   UNL A   1      31.309  27.929  24.118  1.00  0.00     0.039 C 
ATOM     13  C   UNL A   1      30.225  25.481  25.610  1.00  0.00     0.032 C 
BRANCH   9  14
ATOM     14  C   UNL A   1      33.177  24.854  23.530  1.00  0.00     0.320 C 
ATOM     15  O   UNL A   1      33.972  25.282  22.685  1.00  0.00    -0.248 OA
BRANCH  14  16
ATOM     16  N   UNL A   1      33.271  23.536  23.950  1.00  0.00    -0.322 N 
BRANCH  16  17
ATOM     17  C   UNL A   1      32.078  22.655  23.826  1.00  0.00     0.080 C 
ATOM     18  C   UNL A   1      32.145  21.709  22.619  1.00  0.00     0.031 C 
ATOM     19  C   UNL A   1      31.736  21.905  25.114  1.00  0.00     0.031 C 
ENDBRANCH  16  17
BRANCH  16  20
ATOM     20  C   UNL A   1      34.347  22.968  24.740  1.00  0.00     0.125 C 
BRANCH  20  21
ATOM     21  C   UNL A   1      35.399  22.321  23.888  1.00  0.00     0.009 C 
ATOM     22  C   UNL A   1      36.699  22.996  23.517  1.00  0.00     0.006 C 
ATOM     23  C   UNL A   1      36.701  21.853  24.488  1.00  0.00     0.006 C 
ENDBRANCH  20  21
ENDBRANCH  16  20
ENDBRANCH  14  16
ENDBRANCH   9  14
ENDBRANCH   6   8
ENDBRANCH   5   6
ENDBRANCH   4   5
ENDBRANCH   3   4
ENDBRANCH   2   3
ENDBRANCH   1   2
BRANCH   1  24
ATOM     24  C   UNL A   1      33.546  33.923  28.708  1.00  0.00     0.188 C 
BRANCH  24  25
ATOM     25  O   UNL A   1      33.227  34.501  29.956  1.00  0.00    -0.376 OA
BRANCH  25  26
ATOM     26  C   UNL A   1      34.227  35.114  30.755  1.00  0.00     0.202 C 
BRANCH  26  27
ATOM     27  C   UNL A   1      34.954  34.420  31.914  1.00  0.00     0.261 C 
BRANCH  27  28
ATOM     28  O   UNL A   1      35.006  32.993  31.863  1.00  0.00    -0.460 OA
BRANCH  28  29
ATOM     29  C   UNL A   1      35.920  32.438  32.694  1.00  0.00     0.338 C 
ATOM     30  O   UNL A   1      35.902  32.408  33.912  1.00  0.00    -0.246 OA
BRANCH  29  31
ATOM     31  C   UNL A   1      36.905  31.687  31.903  1.00  0.00     0.060 A 
ATOM     32  C   UNL A   1      37.914  31.018  32.600  1.00  0.00     0.016 A 
ATOM     33  C   UNL A   1      36.892  31.711  30.507  1.00  0.00     0.016 A 
ATOM     34  C   UNL A   1      38.926  30.379  31.894  1.00  0.00     0.010 A 
ATOM     35  C   UNL A   1      37.922  31.079  29.800  1.00  0.00     0.010 A 
ATOM     36  C   UNL A   1      38.950  30.422  30.494  1.00  0.00    -0.014 A 
BRANCH  36  37
ATOM     37  C   UNL A   1      40.154  29.911  29.804  1.00  0.00     0.031 A 
ATOM     38  C   UNL A   1      41.350  30.809  29.688  1.00  0.00     0.074 A 
ATOM     39  C   UNL A   1      40.222  28.634  29.387  1.00  0.00     0.049 A 
ATOM     40  N   UNL A   1      42.516  30.573  29.143  1.00  0.00    -0.248 NA
ATOM     41  C   UNL A   1      41.217  32.152  30.275  1.00  0.00     0.031 C 
ATOM     42  C   UNL A   1      39.157  27.644  29.523  1.00  0.00     0.029 A 
ATOM     43  N   UNL A   1      41.247  27.947  28.787  1.00  0.00    -0.354 N 
ATOM     44  C   UNL A   1      43.250  31.738  29.312  1.00  0.00     0.074 A 
ATOM     45  C   UNL A   1      42.403  32.680  30.012  1.00  0.00     0.031 C 
ATOM     46  C   UNL A   1      39.594  26.466  29.045  1.00  0.00     0.029 A 
ATOM     47  C   UNL A   1      40.945  26.636  28.514  1.00  0.00     0.049 A 
ATOM     48  H   UNL A   1      42.117  28.356  28.573  1.00  0.00     0.167 HD
ATOM     49  C   UNL A   1      44.512  32.005  28.907  1.00  0.00     0.037 A 
ATOM     50  C   UNL A   1      41.668  25.693  27.880  1.00  0.00     0.037 A 
ATOM     51  C   UNL A   1      45.344  31.078  28.188  1.00  0.00     0.049 A 
ATOM     52  C   UNL A   1      43.034  26.047  27.351  1.00  0.00     0.074 A 
ATOM     53  C   UNL A   1      46.622  31.271  27.692  1.00  0.00     0.029 A 
ATOM     54  N   UNL A   1      44.975  29.785  27.854  1.00  0.00    -0.354 N 
ATOM     55  N   UNL A   1      43.711  27.162  27.483  1.00  0.00    -0.248 NA
ATOM     56  C   UNL A   1      43.727  25.017  26.561  1.00  0.00     0.031 C 
ATOM     57  C   UNL A   1      47.008  30.106  27.020  1.00  0.00     0.029 A 
ATOM     58  C   UNL A   1      45.990  29.173  27.139  1.00  0.00     0.049 A 
ATOM     59  H   UNL A   1      44.116  29.363  28.091  1.00  0.00     0.167 HD
ATOM     60  C   UNL A   1      44.911  26.965  26.810  1.00  0.00     0.074 A 
ATOM     61  C   UNL A   1      44.879  25.615  26.286  1.00  0.00     0.031 C 
ATOM     62  C   UNL A   1      45.943  27.825  26.632  1.00  0.00     0.037 A 
BRANCH  49  63
ATOM     63  C   UNL A   1      45.036  33.382  29.177  1.00  0.00     0.057 A 
ATOM     64  C   UNL A   1      44.824  34.444  28.290  1.00  0.00     0.134 A 
ATOM     65  C   UNL A   1      45.767  33.644  30.343  1.00  0.00     0.134 A 
ATOM     66  F   UNL A   1      44.152  34.251  27.146  1.00  0.00    -0.206 F 
ATOM     67  C   UNL A   1      45.339  35.717  28.544  1.00  0.00     0.040 A 
ATOM     68  C   UNL A   1      46.268  34.917  30.618  1.00  0.00     0.040 A 
ATOM     69  F   UNL A   1      46.009  32.666  31.229  1.00  0.00    -0.206 F 
ATOM     70  C   UNL A   1      46.059  35.956  29.714  1.00  0.00     0.006 A 
ENDBRANCH  49  63
BRANCH  50  71
ATOM     71  C   UNL A   1      41.106  24.336  27.655  1.00  0.00     0.057 A 
ATOM     72  C   UNL A   1      41.574  23.225  28.364  1.00  0.00     0.134 A 
ATOM     73  C   UNL A   1      40.115  24.113  26.689  1.00  0.00     0.134 A 
ATOM     74  F   UNL A   1      42.543  23.368  29.281  1.00  0.00    -0.206 F 
ATOM     75  C   UNL A   1      41.093  21.939  28.110  1.00  0.00     0.040 A 
ATOM     76  C   UNL A   1      39.604  22.838  26.446  1.00  0.00     0.040 A 
ATOM     77  F   UNL A   1      39.629  25.134  25.969  1.00  0.00    -0.206 F 
ATOM     78  C   UNL A   1      40.101  21.744  27.151  1.00  0.00     0.006 A 
ENDBRANCH  50  71
BRANCH  62  79
ATOM     79  C   UNL A   1      47.134  27.326  25.868  1.00  0.00     0.057 A 
ATOM     80  C   UNL A   1      47.263  27.529  24.489  1.00  0.00     0.134 A 
ATOM     81  C   UNL A   1      48.188  26.684  26.531  1.00  0.00     0.134 A 
ATOM     82  F   UNL A   1      46.284  28.127  23.794  1.00  0.00    -0.206 F 
ATOM     83  C   UNL A   1      48.393  27.093  23.791  1.00  0.00     0.040 A 
ATOM     84  C   UNL A   1      49.332  26.267  25.849  1.00  0.00     0.040 A 
ATOM     85  F   UNL A   1      48.131  26.470  27.854  1.00  0.00    -0.206 F 
ATOM     86  C   UNL A   1      49.434  26.467  24.474  1.00  0.00     0.006 A 
ENDBRANCH  62  79
ENDBRANCH  36  37
ENDBRANCH  29  31
ENDBRANCH  28  29
ENDBRANCH  27  28
ENDBRANCH  26  27
ENDBRANCH  25  26
ENDBRANCH  24  25
ENDBRANCH   1  24
TORSDOF 22
ENDMDL
MODEL 3
REMARK VINA RESULT:      -9.6      3.158      8.315
REMARK SMILES CC(C)N(CC1CC1)C(=O)N1CC[C@H](C(=O)OCCOCCOCCOC(=O)c2ccc(-c3c4nc(c(-c5c(F)cccc5F)c5ccc([nH]5)c(-c5c(F)cccc5F)c5nc(c(-c6c(F)cccc6F)c6ccc3[nH]6)C=C5)C=C4)cc2)[C@H]1C
REMARK SMILES IDX 21 1 20 2 19 3 18 4 17 5 15 6 16 7 14 8 11 9 12 10 83 11
REMARK SMILES IDX 13 12 84 13 9 14 10 15 4 16 2 17 1 18 3 19 5 20 6 21 7 22
REMARK SMILES IDX 8 23 22 24 23 25 24 26 25 27 26 28 27 29 28 30 29 31 30 32
REMARK SMILES IDX 82 33 31 34 81 35 32 36 33 37 34 38 75 39 35 40 80 41 74 42
REMARK SMILES IDX 76 43 36 44 79 45 73 46 72 47 37 49 63 50 46 51 62 52 47 53
REMARK SMILES IDX 50 54 61 55 77 56 48 57 49 58 60 60 78 61 51 62 38 63 39 64
REMARK SMILES IDX 44 65 40 66 41 67 43 68 45 69 42 70 64 71 65 72 70 73 66 74
REMARK SMILES IDX 67 75 69 76 71 77 68 78 52 79 53 80 58 81 54 82 55 83 57 84
REMARK SMILES IDX 59 85 56 86
REMARK H PARENT 76 48 50 59
REMARK Flexibility Score: inf
ROOT
ATOM      1  C   UNL A   1      33.603  28.681  26.814  1.00  0.00     0.188 C 
ENDROOT
BRANCH   1   2
ATOM      2  O   UNL A   1      32.448  28.387  27.576  1.00  0.00    -0.376 OA
BRANCH   2   3
ATOM      3  C   UNL A   1      31.473  27.488  27.064  1.00  0.00     0.202 C 
BRANCH   3   4
ATOM      4  C   UNL A   1      31.417  27.143  25.578  1.00  0.00     0.261 C 
BRANCH   4   5
ATOM      5  O   UNL A   1      31.278  25.736  25.323  1.00  0.00    -0.463 OA
BRANCH   5   6
ATOM      6  C   UNL A   1      32.409  24.998  25.518  1.00  0.00     0.311 C 
ATOM      7  O   UNL A   1      33.430  25.118  24.860  1.00  0.00    -0.252 OA
BRANCH   6   8
ATOM      8  C   UNL A   1      32.221  24.015  26.654  1.00  0.00     0.123 C 
ATOM      9  N   UNL A   1      32.655  21.897  25.651  1.00  0.00    -0.321 N 
ATOM     10  C   UNL A   1      31.218  22.173  25.531  1.00  0.00     0.122 C 
ATOM     11  C   UNL A   1      33.249  22.862  26.604  1.00  0.00     0.098 C 
ATOM     12  C   UNL A   1      30.893  23.283  26.520  1.00  0.00     0.039 C 
ATOM     13  C   UNL A   1      33.370  22.314  28.043  1.00  0.00     0.032 C 
BRANCH   9  14
ATOM     14  C   UNL A   1      33.249  21.367  24.504  1.00  0.00     0.320 C 
ATOM     15  O   UNL A   1      32.850  21.736  23.394  1.00  0.00    -0.248 OA
BRANCH  14  16
ATOM     16  N   UNL A   1      34.194  20.355  24.589  1.00  0.00    -0.322 N 
BRANCH  16  17
ATOM     17  C   UNL A   1      33.772  18.952  24.325  1.00  0.00     0.080 C 
ATOM     18  C   UNL A   1      34.914  17.938  24.466  1.00  0.00     0.031 C 
ATOM     19  C   UNL A   1      32.537  18.527  25.121  1.00  0.00     0.031 C 
ENDBRANCH  16  17
BRANCH  16  20
ATOM     20  C   UNL A   1      35.524  20.476  25.156  1.00  0.00     0.125 C 
BRANCH  20  21
ATOM     21  C   UNL A   1      36.282  21.638  24.583  1.00  0.00     0.009 C 
ATOM     22  C   UNL A   1      36.703  22.839  25.398  1.00  0.00     0.006 C 
ATOM     23  C   UNL A   1      37.735  21.858  24.927  1.00  0.00     0.006 C 
ENDBRANCH  20  21
ENDBRANCH  16  20
ENDBRANCH  14  16
ENDBRANCH   9  14
ENDBRANCH   6   8
ENDBRANCH   5   6
ENDBRANCH   4   5
ENDBRANCH   3   4
ENDBRANCH   2   3
ENDBRANCH   1   2
BRANCH   1  24
ATOM     24  C   UNL A   1      34.605  29.739  27.314  1.00  0.00     0.188 C 
BRANCH  24  25
ATOM     25  O   UNL A   1      34.208  31.079  27.515  1.00  0.00    -0.376 OA
BRANCH  25  26
ATOM     26  C   UNL A   1      32.866  31.486  27.293  1.00  0.00     0.202 C 
BRANCH  26  27
ATOM     27  C   UNL A   1      32.358  32.923  27.469  1.00  0.00     0.261 C 
BRANCH  27  28
ATOM     28  O   UNL A   1      33.355  33.926  27.670  1.00  0.00    -0.460 OA
BRANCH  28  29
ATOM     29  C   UNL A   1      33.467  34.352  28.950  1.00  0.00     0.338 C 
ATOM     30  O   UNL A   1      32.649  34.974  29.605  1.00  0.00    -0.246 OA
BRANCH  29  31
ATOM     31  C   UNL A   1      34.691  33.797  29.543  1.00  0.00     0.060 A 
ATOM     32  C   UNL A   1      35.906  34.124  28.935  1.00  0.00     0.016 A 
ATOM     33  C   UNL A   1      34.643  32.905  30.617  1.00  0.00     0.016 A 
ATOM     34  C   UNL A   1      37.080  33.543  29.397  1.00  0.00     0.010 A 
ATOM     35  C   UNL A   1      35.828  32.311  31.068  1.00  0.00     0.010 A 
ATOM     36  C   UNL A   1      37.048  32.618  30.449  1.00  0.00    -0.014 A 
BRANCH  36  37
ATOM     37  C   UNL A   1      38.289  31.876  30.759  1.00  0.00     0.031 A 
ATOM     38  C   UNL A   1      39.128  32.332  31.916  1.00  0.00     0.074 A 
ATOM     39  C   UNL A   1      38.606  30.751  30.093  1.00  0.00     0.049 A 
ATOM     40  N   UNL A   1      40.242  31.829  32.383  1.00  0.00    -0.248 NA
ATOM     41  C   UNL A   1      38.638  33.507  32.654  1.00  0.00     0.031 C 
ATOM     42  C   UNL A   1      37.825  30.163  29.009  1.00  0.00     0.029 A 
ATOM     43  N   UNL A   1      39.661  29.888  30.255  1.00  0.00    -0.354 N 
ATOM     44  C   UNL A   1      40.591  32.631  33.461  1.00  0.00     0.074 A 
ATOM     45  C   UNL A   1      39.572  33.652  33.582  1.00  0.00     0.031 C 
ATOM     46  C   UNL A   1      38.412  29.018  28.619  1.00  0.00     0.029 A 
ATOM     47  C   UNL A   1      39.643  28.827  29.384  1.00  0.00     0.049 A 
ATOM     48  H   UNL A   1      40.364  30.019  30.933  1.00  0.00     0.167 HD
ATOM     49  C   UNL A   1      41.673  32.536  34.267  1.00  0.00     0.037 A 
ATOM     50  C   UNL A   1      40.536  27.834  29.208  1.00  0.00     0.037 A 
ATOM     51  C   UNL A   1      42.699  31.538  34.129  1.00  0.00     0.049 A 
ATOM     52  C   UNL A   1      41.783  27.808  30.054  1.00  0.00     0.074 A 
ATOM     53  C   UNL A   1      43.859  31.385  34.868  1.00  0.00     0.029 A 
ATOM     54  N   UNL A   1      42.691  30.527  33.180  1.00  0.00    -0.354 N 
ATOM     55  N   UNL A   1      42.125  28.590  31.049  1.00  0.00    -0.248 NA
ATOM     56  C   UNL A   1      42.779  26.775  29.736  1.00  0.00     0.031 C 
ATOM     57  C   UNL A   1      44.574  30.306  34.337  1.00  0.00     0.029 A 
ATOM     58  C   UNL A   1      43.837  29.759  33.299  1.00  0.00     0.049 A 
ATOM     59  H   UNL A   1      41.976  30.378  32.520  1.00  0.00     0.167 HD
ATOM     60  C   UNL A   1      43.365  28.137  31.484  1.00  0.00     0.074 A 
ATOM     61  C   UNL A   1      43.707  26.997  30.658  1.00  0.00     0.031 C 
ATOM     62  C   UNL A   1      44.155  28.623  32.472  1.00  0.00     0.037 A 
BRANCH  49  63
ATOM     63  C   UNL A   1      41.826  33.584  35.325  1.00  0.00     0.057 A 
ATOM     64  C   UNL A   1      41.300  33.422  36.613  1.00  0.00     0.134 A 
ATOM     65  C   UNL A   1      42.510  34.775  35.047  1.00  0.00     0.134 A 
ATOM     66  F   UNL A   1      40.615  32.315  36.932  1.00  0.00    -0.206 F 
ATOM     67  C   UNL A   1      41.431  34.418  37.582  1.00  0.00     0.040 A 
ATOM     68  C   UNL A   1      42.666  35.768  36.014  1.00  0.00     0.040 A 
ATOM     69  F   UNL A   1      43.033  34.992  33.831  1.00  0.00    -0.206 F 
ATOM     70  C   UNL A   1      42.120  35.593  37.284  1.00  0.00     0.006 A 
ENDBRANCH  49  63
BRANCH  50  71
ATOM     71  C   UNL A   1      40.324  26.809  28.154  1.00  0.00     0.057 A 
ATOM     72  C   UNL A   1      39.532  25.679  28.383  1.00  0.00     0.134 A 
ATOM     73  C   UNL A   1      40.949  26.914  26.904  1.00  0.00     0.134 A 
ATOM     74  F   UNL A   1      38.930  25.506  29.570  1.00  0.00    -0.206 F 
ATOM     75  C   UNL A   1      39.382  24.682  27.418  1.00  0.00     0.040 A 
ATOM     76  C   UNL A   1      40.785  25.939  25.919  1.00  0.00     0.040 A 
ATOM     77  F   UNL A   1      41.729  27.967  26.622  1.00  0.00    -0.206 F 
ATOM     78  C   UNL A   1      40.006  24.813  26.179  1.00  0.00     0.006 A 
ENDBRANCH  50  71
BRANCH  62  79
ATOM     79  C   UNL A   1      45.449  27.910  32.736  1.00  0.00     0.057 A 
ATOM     80  C   UNL A   1      46.652  28.325  32.152  1.00  0.00     0.134 A 
ATOM     81  C   UNL A   1      45.499  26.831  33.628  1.00  0.00     0.134 A 
ATOM     82  F   UNL A   1      46.669  29.345  31.281  1.00  0.00    -0.206 F 
ATOM     83  C   UNL A   1      47.858  27.678  32.431  1.00  0.00     0.040 A 
ATOM     84  C   UNL A   1      46.702  26.193  33.934  1.00  0.00     0.040 A 
ATOM     85  F   UNL A   1      44.383  26.393  34.230  1.00  0.00    -0.206 F 
ATOM     86  C   UNL A   1      47.885  26.614  33.331  1.00  0.00     0.006 A 
ENDBRANCH  62  79
ENDBRANCH  36  37
ENDBRANCH  29  31
ENDBRANCH  28  29
ENDBRANCH  27  28
ENDBRANCH  26  27
ENDBRANCH  25  26
ENDBRANCH  24  25
ENDBRANCH   1  24
TORSDOF 22
ENDMDL
