MODEL 1
REMARK VINA RESULT:     -11.3      0.000      0.000
REMARK SMILES CSc1ccc(/C=C2\C(C)=C(CC(=O)OCCOCCOCCOC(=O)c3ccc(-c4c5nc(c(-c6c(F)cccc6F)c6ccc([nH]6)c(-c6c(F)cccc6F)c6nc(c(-c7c(F)cccc7F)c7ccc4[nH]7)C=C6)C=C5)cc3)c3cc(F)ccc32)cc1
REMARK SMILES IDX 19 1 18 2 17 3 16 4 15 5 13 6 14 7 12 8 11 9 7 10 8 11 9 12
REMARK SMILES IDX 87 13 10 14 81 15 86 16 82 17 85 18 83 19 84 20 6 21 3 22
REMARK SMILES IDX 4 23 89 24 5 25 88 26 2 27 1 28 20 29 21 30 22 31 23 32
REMARK SMILES IDX 24 33 25 34 26 35 27 36 28 37 80 38 29 39 79 40 30 41 31 42
REMARK SMILES IDX 32 43 73 44 33 45 78 46 72 47 74 48 34 49 77 50 71 51 70 52
REMARK SMILES IDX 35 54 61 55 44 56 60 57 45 58 48 59 59 60 75 61 46 62 47 63
REMARK SMILES IDX 58 65 76 66 49 67 36 68 37 69 42 70 38 71 39 72 41 73 43 74
REMARK SMILES IDX 40 75 62 76 63 77 68 78 64 79 65 80 67 81 69 82 66 83 50 84
REMARK SMILES IDX 51 85 56 86 52 87 53 88 55 89 57 90 54 91
REMARK H PARENT 74 53 48 64
REMARK Flexibility Score: inf
ROOT
ATOM      1  C   UNL A   1      42.421  21.923  27.369  1.00  0.00     0.188 C 
ENDROOT
BRANCH   1   2
ATOM      2  O   UNL A   1      41.104  22.248  27.784  1.00  0.00    -0.376 OA
BRANCH   2   3
ATOM      3  C   UNL A   1      40.345  23.143  26.972  1.00  0.00     0.202 C 
BRANCH   3   4
ATOM      4  C   UNL A   1      38.981  22.638  26.501  1.00  0.00     0.261 C 
BRANCH   4   5
ATOM      5  O   UNL A   1      39.080  21.541  25.558  1.00  0.00    -0.463 OA
BRANCH   5   6
ATOM      6  C   UNL A   1      37.897  21.041  25.124  1.00  0.00     0.310 C 
ATOM      7  O   UNL A   1      37.763  19.921  24.634  1.00  0.00    -0.252 OA
BRANCH   6   8
ATOM      8  C   UNL A   1      36.698  21.975  25.238  1.00  0.00     0.159 C 
BRANCH   8   9
ATOM      9  C   UNL A   1      35.371  21.572  25.910  1.00  0.00    -0.025 C 
ATOM     10  C   UNL A   1      33.493  24.368  24.856  1.00  0.00     0.017 C 
ATOM     11  C   UNL A   1      33.941  23.141  25.153  1.00  0.00    -0.014 C 
ATOM     12  C   UNL A   1      34.552  22.558  26.384  1.00  0.00    -0.039 C 
ATOM     13  C   UNL A   1      33.732  21.991  24.244  1.00  0.00    -0.010 A 
ATOM     14  C   UNL A   1      33.531  22.145  27.450  1.00  0.00     0.045 C 
ATOM     15  C   UNL A   1      34.421  20.966  24.910  1.00  0.00    -0.011 A 
ATOM     16  C   UNL A   1      32.646  21.742  23.407  1.00  0.00     0.012 A 
ATOM     17  C   UNL A   1      33.842  19.713  24.949  1.00  0.00     0.048 A 
ATOM     18  C   UNL A   1      32.170  20.434  23.329  1.00  0.00     0.040 A 
ATOM     19  C   UNL A   1      32.740  19.447  24.133  1.00  0.00     0.123 A 
ATOM     20  F   UNL A   1      32.159  18.241  24.192  1.00  0.00    -0.207 F 
BRANCH  10  21
ATOM     21  C   UNL A   1      33.109  25.471  25.758  1.00  0.00    -0.025 A 
ATOM     22  C   UNL A   1      32.294  28.112  26.163  1.00  0.00     0.007 A 
ATOM     23  C   UNL A   1      31.366  27.077  26.226  1.00  0.00     0.015 A 
ATOM     24  C   UNL A   1      33.654  27.799  26.143  1.00  0.00     0.015 A 
ATOM     25  C   UNL A   1      31.783  25.756  26.073  1.00  0.00     0.009 A 
ATOM     26  C   UNL A   1      34.063  26.478  25.944  1.00  0.00     0.009 A 
BRANCH  22  27
ATOM     27  S   UNL A   1      31.780  29.811  26.003  1.00  0.00    -0.130 SA
ATOM     28  C   UNL A   1      30.830  29.704  24.450  1.00  0.00     0.091 C 
ENDBRANCH  22  27
ENDBRANCH  10  21
ENDBRANCH   8   9
ENDBRANCH   6   8
ENDBRANCH   5   6
ENDBRANCH   4   5
ENDBRANCH   3   4
ENDBRANCH   2   3
ENDBRANCH   1   2
BRANCH   1  29
ATOM     29  C   UNL A   1      42.613  21.330  25.971  1.00  0.00     0.188 C 
BRANCH  29  30
ATOM     30  O   UNL A   1      43.087  22.255  25.008  1.00  0.00    -0.376 OA
BRANCH  30  31
ATOM     31  C   UNL A   1      44.465  22.120  24.678  1.00  0.00     0.202 C 
BRANCH  31  32
ATOM     32  C   UNL A   1      45.191  23.452  24.913  1.00  0.00     0.261 C 
BRANCH  32  33
ATOM     33  O   UNL A   1      44.321  24.597  24.795  1.00  0.00    -0.460 OA
BRANCH  33  34
ATOM     34  C   UNL A   1      44.860  25.765  25.211  1.00  0.00     0.338 C 
ATOM     35  O   UNL A   1      45.791  26.363  24.704  1.00  0.00    -0.246 OA
BRANCH  34  36
ATOM     36  C   UNL A   1      43.998  26.341  26.259  1.00  0.00     0.060 A 
ATOM     37  C   UNL A   1      44.247  27.653  26.668  1.00  0.00     0.016 A 
ATOM     38  C   UNL A   1      43.019  25.591  26.896  1.00  0.00     0.016 A 
ATOM     39  C   UNL A   1      43.602  28.205  27.762  1.00  0.00     0.010 A 
ATOM     40  C   UNL A   1      42.329  26.159  27.973  1.00  0.00     0.010 A 
ATOM     41  C   UNL A   1      42.641  27.454  28.431  1.00  0.00    -0.014 A 
BRANCH  41  42
ATOM     42  C   UNL A   1      42.038  27.988  29.670  1.00  0.00     0.031 A 
ATOM     43  C   UNL A   1      40.751  28.749  29.577  1.00  0.00     0.074 A 
ATOM     44  C   UNL A   1      42.609  27.766  30.868  1.00  0.00     0.049 A 
ATOM     45  N   UNL A   1      40.171  29.506  30.469  1.00  0.00    -0.248 NA
ATOM     46  C   UNL A   1      40.023  28.648  28.300  1.00  0.00     0.031 C 
ATOM     47  C   UNL A   1      43.792  26.938  31.108  1.00  0.00     0.029 A 
ATOM     48  N   UNL A   1      42.271  28.238  32.110  1.00  0.00    -0.354 N 
ATOM     49  C   UNL A   1      39.043  30.020  29.845  1.00  0.00     0.074 A 
ATOM     50  C   UNL A   1      39.011  29.478  28.503  1.00  0.00     0.031 C 
ATOM     51  C   UNL A   1      44.092  26.976  32.416  1.00  0.00     0.029 A 
ATOM     52  C   UNL A   1      43.172  27.889  33.086  1.00  0.00     0.049 A 
ATOM     53  H   UNL A   1      41.464  28.774  32.285  1.00  0.00     0.167 HD
ATOM     54  C   UNL A   1      38.130  30.879  30.350  1.00  0.00     0.037 A 
ATOM     55  C   UNL A   1      43.280  28.314  34.359  1.00  0.00     0.037 A 
ATOM     56  C   UNL A   1      38.153  31.375  31.700  1.00  0.00     0.049 A 
ATOM     57  C   UNL A   1      42.301  29.329  34.876  1.00  0.00     0.074 A 
ATOM     58  C   UNL A   1      37.273  32.248  32.314  1.00  0.00     0.029 A 
ATOM     59  N   UNL A   1      39.105  31.030  32.648  1.00  0.00    -0.354 N 
ATOM     60  N   UNL A   1      41.280  29.879  34.265  1.00  0.00    -0.248 NA
ATOM     61  C   UNL A   1      42.502  29.800  36.253  1.00  0.00     0.031 C 
ATOM     62  C   UNL A   1      37.715  32.460  33.626  1.00  0.00     0.029 A 
ATOM     63  C   UNL A   1      38.844  31.685  33.839  1.00  0.00     0.049 A 
ATOM     64  H   UNL A   1      39.855  30.410  32.497  1.00  0.00     0.167 HD
ATOM     65  C   UNL A   1      40.706  30.746  35.185  1.00  0.00     0.074 A 
ATOM     66  C   UNL A   1      41.487  30.639  36.401  1.00  0.00     0.031 C 
ATOM     67  C   UNL A   1      39.631  31.559  35.039  1.00  0.00     0.037 A 
BRANCH  54  68
ATOM     68  C   UNL A   1      37.065  31.377  29.423  1.00  0.00     0.057 A 
ATOM     69  C   UNL A   1      37.137  32.629  28.801  1.00  0.00     0.134 A 
ATOM     70  C   UNL A   1      35.954  30.573  29.134  1.00  0.00     0.134 A 
ATOM     71  F   UNL A   1      38.164  33.455  29.054  1.00  0.00    -0.206 F 
ATOM     72  C   UNL A   1      36.136  33.070  27.933  1.00  0.00     0.040 A 
ATOM     73  C   UNL A   1      34.959  30.992  28.251  1.00  0.00     0.040 A 
ATOM     74  F   UNL A   1      35.823  29.364  29.702  1.00  0.00    -0.206 F 
ATOM     75  C   UNL A   1      35.046  32.247  27.651  1.00  0.00     0.006 A 
ENDBRANCH  54  68
BRANCH  55  76
ATOM     76  C   UNL A   1      44.398  27.832  35.206  1.00  0.00     0.057 A 
ATOM     77  C   UNL A   1      44.260  26.696  36.011  1.00  0.00     0.134 A 
ATOM     78  C   UNL A   1      45.630  28.498  35.235  1.00  0.00     0.134 A 
ATOM     79  F   UNL A   1      43.096  26.030  36.044  1.00  0.00    -0.206 F 
ATOM     80  C   UNL A   1      45.303  26.244  36.819  1.00  0.00     0.040 A 
ATOM     81  C   UNL A   1      46.690  28.043  36.020  1.00  0.00     0.040 A 
ATOM     82  F   UNL A   1      45.825  29.595  34.488  1.00  0.00    -0.206 F 
ATOM     83  C   UNL A   1      46.525  26.915  36.820  1.00  0.00     0.006 A 
ENDBRANCH  55  76
BRANCH  67  84
ATOM     84  C   UNL A   1      39.216  32.365  36.232  1.00  0.00     0.057 A 
ATOM     85  C   UNL A   1      39.678  33.670  36.437  1.00  0.00     0.134 A 
ATOM     86  C   UNL A   1      38.310  31.841  37.163  1.00  0.00     0.134 A 
ATOM     87  F   UNL A   1      40.557  34.222  35.587  1.00  0.00    -0.206 F 
ATOM     88  C   UNL A   1      39.265  34.422  37.538  1.00  0.00     0.040 A 
ATOM     89  C   UNL A   1      37.872  32.591  38.254  1.00  0.00     0.040 A 
ATOM     90  F   UNL A   1      37.825  30.598  37.016  1.00  0.00    -0.206 F 
ATOM     91  C   UNL A   1      38.354  33.885  38.446  1.00  0.00     0.006 A 
ENDBRANCH  67  84
ENDBRANCH  41  42
ENDBRANCH  34  36
ENDBRANCH  33  34
ENDBRANCH  32  33
ENDBRANCH  31  32
ENDBRANCH  30  31
ENDBRANCH  29  30
ENDBRANCH   1  29
TORSDOF 20
ENDMDL
MODEL 2
REMARK VINA RESULT:     -11.2      1.474      6.447
REMARK SMILES CSc1ccc(/C=C2\C(C)=C(CC(=O)OCCOCCOCCOC(=O)c3ccc(-c4c5nc(c(-c6c(F)cccc6F)c6ccc([nH]6)c(-c6c(F)cccc6F)c6nc(c(-c7c(F)cccc7F)c7ccc4[nH]7)C=C6)C=C5)cc3)c3cc(F)ccc32)cc1
REMARK SMILES IDX 19 1 18 2 17 3 16 4 15 5 13 6 14 7 12 8 11 9 7 10 8 11 9 12
REMARK SMILES IDX 87 13 10 14 81 15 86 16 82 17 85 18 83 19 84 20 6 21 3 22
REMARK SMILES IDX 4 23 89 24 5 25 88 26 2 27 1 28 20 29 21 30 22 31 23 32
REMARK SMILES IDX 24 33 25 34 26 35 27 36 28 37 80 38 29 39 79 40 30 41 31 42
REMARK SMILES IDX 32 43 73 44 33 45 78 46 72 47 74 48 34 49 77 50 71 51 70 52
REMARK SMILES IDX 35 54 61 55 44 56 60 57 45 58 48 59 59 60 75 61 46 62 47 63
REMARK SMILES IDX 58 65 76 66 49 67 36 68 37 69 42 70 38 71 39 72 41 73 43 74
REMARK SMILES IDX 40 75 62 76 63 77 68 78 64 79 65 80 67 81 69 82 66 83 50 84
REMARK SMILES IDX 51 85 56 86 52 87 53 88 55 89 57 90 54 91
REMARK H PARENT 74 53 48 64
REMARK Flexibility Score: inf
ROOT
ATOM      1  C   UNL A   1      38.734  20.975  25.759  1.00  0.00     0.188 C 
ENDROOT
BRANCH   1   2
ATOM      2  O   UNL A   1      37.618  20.355  25.141  1.00  0.00    -0.376 OA
BRANCH   2   3
ATOM      3  C   UNL A   1      36.584  21.191  24.623  1.00  0.00     0.202 C 
BRANCH   3   4
ATOM      4  C   UNL A   1      37.039  22.453  23.888  1.00  0.00     0.261 C 
BRANCH   4   5
ATOM      5  O   UNL A   1      36.138  23.572  24.077  1.00  0.00    -0.463 OA
BRANCH   5   6
ATOM      6  C   UNL A   1      36.064  24.049  25.344  1.00  0.00     0.310 C 
ATOM      7  O   UNL A   1      36.942  23.891  26.190  1.00  0.00    -0.252 OA
BRANCH   6   8
ATOM      8  C   UNL A   1      34.778  24.786  25.703  1.00  0.00     0.159 C 
BRANCH   8   9
ATOM      9  C   UNL A   1      33.436  24.071  25.963  1.00  0.00    -0.025 C 
ATOM     10  C   UNL A   1      31.553  25.806  23.534  1.00  0.00     0.017 C 
ATOM     11  C   UNL A   1      32.122  24.884  24.323  1.00  0.00    -0.014 C 
ATOM     12  C   UNL A   1      32.278  24.777  25.804  1.00  0.00    -0.039 C 
ATOM     13  C   UNL A   1      32.611  23.592  23.790  1.00  0.00    -0.010 A 
ATOM     14  C   UNL A   1      31.039  24.230  26.522  1.00  0.00     0.045 C 
ATOM     15  C   UNL A   1      33.183  23.006  24.929  1.00  0.00    -0.011 A 
ATOM     16  C   UNL A   1      32.080  22.836  22.745  1.00  0.00     0.012 A 
ATOM     17  C   UNL A   1      32.973  21.657  25.141  1.00  0.00     0.048 A 
ATOM     18  C   UNL A   1      32.023  21.453  22.906  1.00  0.00     0.040 A 
ATOM     19  C   UNL A   1      32.424  20.884  24.115  1.00  0.00     0.123 A 
ATOM     20  F   UNL A   1      32.192  19.582  24.330  1.00  0.00    -0.207 F 
BRANCH  10  21
ATOM     21  C   UNL A   1      30.563  26.846  23.870  1.00  0.00    -0.025 A 
ATOM     22  C   UNL A   1      28.911  28.969  23.114  1.00  0.00     0.007 A 
ATOM     23  C   UNL A   1      28.375  27.698  23.302  1.00  0.00     0.015 A 
ATOM     24  C   UNL A   1      30.216  29.220  23.541  1.00  0.00     0.015 A 
ATOM     25  C   UNL A   1      29.191  26.652  23.728  1.00  0.00     0.009 A 
ATOM     26  C   UNL A   1      31.042  28.160  23.923  1.00  0.00     0.009 A 
BRANCH  22  27
ATOM     27  S   UNL A   1      28.008  30.239  22.250  1.00  0.00    -0.130 SA
ATOM     28  C   UNL A   1      28.121  31.588  23.473  1.00  0.00     0.091 C 
ENDBRANCH  22  27
ENDBRANCH  10  21
ENDBRANCH   8   9
ENDBRANCH   6   8
ENDBRANCH   5   6
ENDBRANCH   4   5
ENDBRANCH   3   4
ENDBRANCH   2   3
ENDBRANCH   1   2
BRANCH   1  29
ATOM     29  C   UNL A   1      39.964  20.115  26.061  1.00  0.00     0.188 C 
BRANCH  29  30
ATOM     30  O   UNL A   1      40.519  20.328  27.347  1.00  0.00    -0.376 OA
BRANCH  30  31
ATOM     31  C   UNL A   1      41.919  20.088  27.440  1.00  0.00     0.202 C 
BRANCH  31  32
ATOM     32  C   UNL A   1      42.638  20.713  26.236  1.00  0.00     0.261 C 
BRANCH  32  33
ATOM     33  O   UNL A   1      43.320  21.942  26.562  1.00  0.00    -0.460 OA
BRANCH  33  34
ATOM     34  C   UNL A   1      43.037  22.983  25.746  1.00  0.00     0.338 C 
ATOM     35  O   UNL A   1      43.024  22.976  24.529  1.00  0.00    -0.246 OA
BRANCH  34  36
ATOM     36  C   UNL A   1      42.518  24.098  26.559  1.00  0.00     0.060 A 
ATOM     37  C   UNL A   1      43.185  25.323  26.496  1.00  0.00     0.016 A 
ATOM     38  C   UNL A   1      41.453  23.932  27.434  1.00  0.00     0.016 A 
ATOM     39  C   UNL A   1      42.871  26.363  27.355  1.00  0.00     0.010 A 
ATOM     40  C   UNL A   1      41.098  24.995  28.272  1.00  0.00     0.010 A 
ATOM     41  C   UNL A   1      41.827  26.202  28.260  1.00  0.00    -0.014 A 
BRANCH  41  42
ATOM     42  C   UNL A   1      41.565  27.257  29.260  1.00  0.00     0.031 A 
ATOM     43  C   UNL A   1      42.412  27.307  30.494  1.00  0.00     0.074 A 
ATOM     44  C   UNL A   1      40.609  28.181  29.056  1.00  0.00     0.049 A 
ATOM     45  N   UNL A   1      42.221  27.970  31.603  1.00  0.00    -0.248 NA
ATOM     46  C   UNL A   1      43.640  26.493  30.478  1.00  0.00     0.031 C 
ATOM     47  C   UNL A   1      39.801  28.319  27.844  1.00  0.00     0.029 A 
ATOM     48  N   UNL A   1      40.149  29.176  29.880  1.00  0.00    -0.354 N 
ATOM     49  C   UNL A   1      43.268  27.610  32.439  1.00  0.00     0.074 A 
ATOM     50  C   UNL A   1      44.101  26.680  31.706  1.00  0.00     0.031 C 
ATOM     51  C   UNL A   1      38.930  29.327  28.011  1.00  0.00     0.029 A 
ATOM     52  C   UNL A   1      39.070  29.850  29.366  1.00  0.00     0.049 A 
ATOM     53  H   UNL A   1      40.552  29.386  30.754  1.00  0.00     0.167 HD
ATOM     54  C   UNL A   1      43.497  28.011  33.710  1.00  0.00     0.037 A 
ATOM     55  C   UNL A   1      38.245  30.741  29.949  1.00  0.00     0.037 A 
ATOM     56  C   UNL A   1      42.682  28.968  34.408  1.00  0.00     0.049 A 
ATOM     57  C   UNL A   1      38.470  31.114  31.386  1.00  0.00     0.074 A 
ATOM     58  C   UNL A   1      42.828  29.446  35.699  1.00  0.00     0.029 A 
ATOM     59  N   UNL A   1      41.572  29.599  33.869  1.00  0.00    -0.354 N 
ATOM     60  N   UNL A   1      39.412  30.714  32.207  1.00  0.00    -0.248 NA
ATOM     61  C   UNL A   1      37.506  32.044  31.988  1.00  0.00     0.031 C 
ATOM     62  C   UNL A   1      41.782  30.342  35.951  1.00  0.00     0.029 A 
ATOM     63  C   UNL A   1      41.012  30.453  34.804  1.00  0.00     0.049 A 
ATOM     64  H   UNL A   1      41.233  29.463  32.954  1.00  0.00     0.167 HD
ATOM     65  C   UNL A   1      39.166  31.355  33.413  1.00  0.00     0.074 A 
ATOM     66  C   UNL A   1      37.992  32.181  33.213  1.00  0.00     0.031 C 
ATOM     67  C   UNL A   1      39.847  31.270  34.581  1.00  0.00     0.037 A 
BRANCH  54  68
ATOM     68  C   UNL A   1      44.639  27.375  34.439  1.00  0.00     0.057 A 
ATOM     69  C   UNL A   1      44.506  26.166  35.133  1.00  0.00     0.134 A 
ATOM     70  C   UNL A   1      45.904  27.979  34.425  1.00  0.00     0.134 A 
ATOM     71  F   UNL A   1      43.317  25.549  35.201  1.00  0.00    -0.206 F 
ATOM     72  C   UNL A   1      45.588  25.587  35.798  1.00  0.00     0.040 A 
ATOM     73  C   UNL A   1      46.998  27.399  35.068  1.00  0.00     0.040 A 
ATOM     74  F   UNL A   1      46.096  29.141  33.782  1.00  0.00    -0.206 F 
ATOM     75  C   UNL A   1      46.840  26.201  35.761  1.00  0.00     0.006 A 
ENDBRANCH  54  68
BRANCH  55  76
ATOM     76  C   UNL A   1      37.091  31.285  29.192  1.00  0.00     0.057 A 
ATOM     77  C   UNL A   1      37.108  32.587  28.682  1.00  0.00     0.134 A 
ATOM     78  C   UNL A   1      35.942  30.516  28.964  1.00  0.00     0.134 A 
ATOM     79  F   UNL A   1      38.170  33.379  28.890  1.00  0.00    -0.206 F 
ATOM     80  C   UNL A   1      36.021  33.110  27.980  1.00  0.00     0.040 A 
ATOM     81  C   UNL A   1      34.858  31.017  28.243  1.00  0.00     0.040 A 
ATOM     82  F   UNL A   1      35.864  29.261  29.429  1.00  0.00    -0.206 F 
ATOM     83  C   UNL A   1      34.895  32.321  27.753  1.00  0.00     0.006 A 
ENDBRANCH  55  76
BRANCH  67  84
ATOM     84  C   UNL A   1      39.363  32.117  35.718  1.00  0.00     0.057 A 
ATOM     85  C   UNL A   1      38.369  31.673  36.597  1.00  0.00     0.134 A 
ATOM     86  C   UNL A   1      39.932  33.374  35.960  1.00  0.00     0.134 A 
ATOM     87  F   UNL A   1      37.777  30.484  36.410  1.00  0.00    -0.206 F 
ATOM     88  C   UNL A   1      37.943  32.460  37.669  1.00  0.00     0.040 A 
ATOM     89  C   UNL A   1      39.532  34.159  37.041  1.00  0.00     0.040 A 
ATOM     90  F   UNL A   1      40.896  33.851  35.158  1.00  0.00    -0.206 F 
ATOM     91  C   UNL A   1      38.530  33.703  37.897  1.00  0.00     0.006 A 
ENDBRANCH  67  84
ENDBRANCH  41  42
ENDBRANCH  34  36
ENDBRANCH  33  34
ENDBRANCH  32  33
ENDBRANCH  31  32
ENDBRANCH  30  31
ENDBRANCH  29  30
ENDBRANCH   1  29
TORSDOF 20
ENDMDL
MODEL 3
REMARK VINA RESULT:     -11.1      1.635      2.496
REMARK SMILES CSc1ccc(/C=C2\C(C)=C(CC(=O)OCCOCCOCCOC(=O)c3ccc(-c4c5nc(c(-c6c(F)cccc6F)c6ccc([nH]6)c(-c6c(F)cccc6F)c6nc(c(-c7c(F)cccc7F)c7ccc4[nH]7)C=C6)C=C5)cc3)c3cc(F)ccc32)cc1
REMARK SMILES IDX 19 1 18 2 17 3 16 4 15 5 13 6 14 7 12 8 11 9 7 10 8 11 9 12
REMARK SMILES IDX 87 13 10 14 81 15 86 16 82 17 85 18 83 19 84 20 6 21 3 22
REMARK SMILES IDX 4 23 89 24 5 25 88 26 2 27 1 28 20 29 21 30 22 31 23 32
REMARK SMILES IDX 24 33 25 34 26 35 27 36 28 37 80 38 29 39 79 40 30 41 31 42
REMARK SMILES IDX 32 43 73 44 33 45 78 46 72 47 74 48 34 49 77 50 71 51 70 52
REMARK SMILES IDX 35 54 61 55 44 56 60 57 45 58 48 59 59 60 75 61 46 62 47 63
REMARK SMILES IDX 58 65 76 66 49 67 36 68 37 69 42 70 38 71 39 72 41 73 43 74
REMARK SMILES IDX 40 75 62 76 63 77 68 78 64 79 65 80 67 81 69 82 66 83 50 84
REMARK SMILES IDX 51 85 56 86 52 87 53 88 55 89 57 90 54 91
REMARK H PARENT 74 53 48 64
REMARK Flexibility Score: inf
ROOT
ATOM      1  C   UNL A   1      41.323  19.723  26.657  1.00  0.00     0.188 C 
ENDROOT
BRANCH   1   2
ATOM      2  O   UNL A   1      40.405  19.202  25.710  1.00  0.00    -0.376 OA
BRANCH   2   3
ATOM      3  C   UNL A   1      39.114  19.802  25.625  1.00  0.00     0.202 C 
BRANCH   3   4
ATOM      4  C   UNL A   1      39.047  21.306  25.894  1.00  0.00     0.261 C 
BRANCH   4   5
ATOM      5  O   UNL A   1      37.726  21.861  25.674  1.00  0.00    -0.463 OA
BRANCH   5   6
ATOM      6  C   UNL A   1      37.647  23.213  25.740  1.00  0.00     0.310 C 
ATOM      7  O   UNL A   1      38.421  23.916  26.386  1.00  0.00    -0.252 OA
BRANCH   6   8
ATOM      8  C   UNL A   1      36.488  23.850  24.980  1.00  0.00     0.159 C 
BRANCH   8   9
ATOM      9  C   UNL A   1      35.015  23.718  25.415  1.00  0.00    -0.025 C 
ATOM     10  C   UNL A   1      33.653  25.851  22.957  1.00  0.00     0.017 C 
ATOM     11  C   UNL A   1      33.923  24.843  23.797  1.00  0.00    -0.014 C 
ATOM     12  C   UNL A   1      34.190  24.795  25.265  1.00  0.00    -0.039 C 
ATOM     13  C   UNL A   1      33.838  23.427  23.374  1.00  0.00    -0.010 A 
ATOM     14  C   UNL A   1      32.923  24.812  26.128  1.00  0.00     0.045 C 
ATOM     15  C   UNL A   1      34.273  22.754  24.525  1.00  0.00    -0.011 A 
ATOM     16  C   UNL A   1      32.954  22.854  22.460  1.00  0.00     0.012 A 
ATOM     17  C   UNL A   1      33.605  21.605  24.898  1.00  0.00     0.048 A 
ATOM     18  C   UNL A   1      32.408  21.611  22.775  1.00  0.00     0.040 A 
ATOM     19  C   UNL A   1      32.700  21.024  24.006  1.00  0.00     0.123 A 
ATOM     20  F   UNL A   1      32.029  19.926  24.379  1.00  0.00    -0.207 F 
BRANCH  10  21
ATOM     21  C   UNL A   1      33.160  27.211  23.249  1.00  0.00    -0.025 A 
ATOM     22  C   UNL A   1      32.353  29.168  25.071  1.00  0.00     0.007 A 
ATOM     23  C   UNL A   1      33.628  29.214  24.515  1.00  0.00     0.015 A 
ATOM     24  C   UNL A   1      31.412  28.291  24.530  1.00  0.00     0.015 A 
ATOM     25  C   UNL A   1      34.011  28.266  23.568  1.00  0.00     0.009 A 
ATOM     26  C   UNL A   1      31.814  27.314  23.616  1.00  0.00     0.009 A 
BRANCH  22  27
ATOM     27  S   UNL A   1      31.936  30.124  26.517  1.00  0.00    -0.130 SA
ATOM     28  C   UNL A   1      33.607  30.416  27.189  1.00  0.00     0.091 C 
ENDBRANCH  22  27
ENDBRANCH  10  21
ENDBRANCH   8   9
ENDBRANCH   6   8
ENDBRANCH   5   6
ENDBRANCH   4   5
ENDBRANCH   3   4
ENDBRANCH   2   3
ENDBRANCH   1   2
BRANCH   1  29
ATOM     29  C   UNL A   1      42.595  20.399  26.136  1.00  0.00     0.188 C 
BRANCH  29  30
ATOM     30  O   UNL A   1      42.778  21.726  26.597  1.00  0.00    -0.376 OA
BRANCH  30  31
ATOM     31  C   UNL A   1      43.801  22.455  25.928  1.00  0.00     0.202 C 
BRANCH  31  32
ATOM     32  C   UNL A   1      43.216  23.737  25.320  1.00  0.00     0.261 C 
BRANCH  32  33
ATOM     33  O   UNL A   1      42.947  24.757  26.305  1.00  0.00    -0.460 OA
BRANCH  33  34
ATOM     34  C   UNL A   1      42.519  25.936  25.799  1.00  0.00     0.338 C 
ATOM     35  O   UNL A   1      42.475  26.257  24.626  1.00  0.00    -0.246 OA
BRANCH  34  36
ATOM     36  C   UNL A   1      41.890  26.717  26.880  1.00  0.00     0.060 A 
ATOM     37  C   UNL A   1      42.306  28.037  27.066  1.00  0.00     0.016 A 
ATOM     38  C   UNL A   1      40.973  26.150  27.755  1.00  0.00     0.016 A 
ATOM     39  C   UNL A   1      41.897  28.777  28.161  1.00  0.00     0.010 A 
ATOM     40  C   UNL A   1      40.517  26.909  28.838  1.00  0.00     0.010 A 
ATOM     41  C   UNL A   1      41.002  28.213  29.065  1.00  0.00    -0.014 A 
BRANCH  41  42
ATOM     42  C   UNL A   1      40.655  28.948  30.298  1.00  0.00     0.031 A 
ATOM     43  C   UNL A   1      39.513  29.916  30.264  1.00  0.00     0.074 A 
ATOM     44  C   UNL A   1      41.326  28.731  31.444  1.00  0.00     0.049 A 
ATOM     45  N   UNL A   1      39.182  30.838  31.129  1.00  0.00    -0.248 NA
ATOM     46  C   UNL A   1      38.625  29.839  29.091  1.00  0.00     0.031 C 
ATOM     47  C   UNL A   1      42.373  27.729  31.642  1.00  0.00     0.029 A 
ATOM     48  N   UNL A   1      41.228  29.360  32.659  1.00  0.00    -0.354 N 
ATOM     49  C   UNL A   1      38.088  31.490  30.579  1.00  0.00     0.074 A 
ATOM     50  C   UNL A   1      37.799  30.850  29.313  1.00  0.00     0.031 C 
ATOM     51  C   UNL A   1      42.836  27.824  32.898  1.00  0.00     0.029 A 
ATOM     52  C   UNL A   1      42.172  28.940  33.563  1.00  0.00     0.049 A 
ATOM     53  H   UNL A   1      40.550  30.044  32.862  1.00  0.00     0.167 HD
ATOM     54  C   UNL A   1      37.401  32.538  31.086  1.00  0.00     0.037 A 
ATOM     55  C   UNL A   1      42.507  29.445  34.765  1.00  0.00     0.037 A 
ATOM     56  C   UNL A   1      37.674  33.134  32.365  1.00  0.00     0.049 A 
ATOM     57  C   UNL A   1      41.784  30.659  35.275  1.00  0.00     0.074 A 
ATOM     58  C   UNL A   1      37.036  34.200  32.975  1.00  0.00     0.029 A 
ATOM     59  N   UNL A   1      38.665  32.708  33.236  1.00  0.00    -0.354 N 
ATOM     60  N   UNL A   1      40.801  31.329  34.722  1.00  0.00    -0.248 NA
ATOM     61  C   UNL A   1      42.230  31.203  36.565  1.00  0.00     0.031 C 
ATOM     62  C   UNL A   1      37.667  34.441  34.202  1.00  0.00     0.029 A 
ATOM     63  C   UNL A   1      38.668  33.497  34.373  1.00  0.00     0.049 A 
ATOM     64  H   UNL A   1      39.277  31.953  33.072  1.00  0.00     0.167 HD
ATOM     65  C   UNL A   1      40.499  32.359  35.603  1.00  0.00     0.074 A 
ATOM     66  C   UNL A   1      41.396  32.219  36.732  1.00  0.00     0.031 C 
ATOM     67  C   UNL A   1      39.566  33.335  35.488  1.00  0.00     0.037 A 
BRANCH  54  68
ATOM     68  C   UNL A   1      36.327  33.138  30.232  1.00  0.00     0.057 A 
ATOM     69  C   UNL A   1      36.609  34.027  29.188  1.00  0.00     0.134 A 
ATOM     70  C   UNL A   1      34.985  32.797  30.449  1.00  0.00     0.134 A 
ATOM     71  F   UNL A   1      37.871  34.409  28.943  1.00  0.00    -0.206 F 
ATOM     72  C   UNL A   1      35.592  34.567  28.398  1.00  0.00     0.040 A 
ATOM     73  C   UNL A   1      33.963  33.312  29.653  1.00  0.00     0.040 A 
ATOM     74  F   UNL A   1      34.649  31.953  31.437  1.00  0.00    -0.206 F 
ATOM     75  C   UNL A   1      34.265  34.205  28.626  1.00  0.00     0.006 A 
ENDBRANCH  54  68
BRANCH  55  76
ATOM     76  C   UNL A   1      43.625  28.845  35.534  1.00  0.00     0.057 A 
ATOM     77  C   UNL A   1      44.943  29.278  35.352  1.00  0.00     0.134 A 
ATOM     78  C   UNL A   1      43.403  27.822  36.464  1.00  0.00     0.134 A 
ATOM     79  F   UNL A   1      45.221  30.237  34.457  1.00  0.00    -0.206 F 
ATOM     80  C   UNL A   1      46.001  28.710  36.063  1.00  0.00     0.040 A 
ATOM     81  C   UNL A   1      44.447  27.262  37.199  1.00  0.00     0.040 A 
ATOM     82  F   UNL A   1      42.161  27.363  36.682  1.00  0.00    -0.206 F 
ATOM     83  C   UNL A   1      45.753  27.703  36.995  1.00  0.00     0.006 A 
ENDBRANCH  55  76
BRANCH  67  84
ATOM     84  C   UNL A   1      39.443  34.301  36.627  1.00  0.00     0.057 A 
ATOM     85  C   UNL A   1      38.725  33.986  37.786  1.00  0.00     0.134 A 
ATOM     86  C   UNL A   1      40.087  35.543  36.578  1.00  0.00     0.134 A 
ATOM     87  F   UNL A   1      38.075  32.817  37.888  1.00  0.00    -0.206 F 
ATOM     88  C   UNL A   1      38.638  34.883  38.853  1.00  0.00     0.040 A 
ATOM     89  C   UNL A   1      40.028  36.438  37.646  1.00  0.00     0.040 A 
ATOM     90  F   UNL A   1      40.798  35.900  35.497  1.00  0.00    -0.206 F 
ATOM     91  C   UNL A   1      39.296  36.109  38.787  1.00  0.00     0.006 A 
ENDBRANCH  67  84
ENDBRANCH  41  42
ENDBRANCH  34  36
ENDBRANCH  33  34
ENDBRANCH  32  33
ENDBRANCH  31  32
ENDBRANCH  30  31
ENDBRANCH  29  30
ENDBRANCH   1  29
TORSDOF 20
ENDMDL
