MODEL 1
REMARK VINA RESULT:     -11.1      0.000      0.000
REMARK SMILES CCOc1ccc(NC(=O)[C@@H]2[C@@H](C(=O)OCCOCCOCCOC(=O)c3ccc(-c4c5nc(c(-c6c(F)cccc6F)c6ccc([nH]6)c(-c6c(F)cccc6F)c6nc(c(-c7c(F)cccc7F)c7ccc4[nH]7)C=C6)C=C5)cc3)[C@H]3C=C[C@@H]2C3)cc1
REMARK SMILES IDX 19 1 18 2 17 3 16 4 15 5 13 6 14 7 12 8 11 9 84 10 81 11
REMARK SMILES IDX 83 12 85 13 82 14 9 15 8 16 10 18 7 19 4 20 5 21 87 22 6 23
REMARK SMILES IDX 86 24 3 25 2 26 1 27 20 28 21 29 22 30 23 31 24 32 25 33
REMARK SMILES IDX 26 34 27 35 28 36 80 37 29 38 79 39 30 40 31 41 32 42 73 43
REMARK SMILES IDX 33 44 78 45 72 46 74 47 34 48 77 49 71 50 70 51 35 53 61 54
REMARK SMILES IDX 44 55 60 56 45 57 48 58 59 59 75 60 46 61 47 62 58 64 76 65
REMARK SMILES IDX 49 66 36 67 37 68 42 69 38 70 39 71 41 72 43 73 40 74 62 75
REMARK SMILES IDX 63 76 68 77 64 78 65 79 67 80 69 81 66 82 50 83 51 84 56 85
REMARK SMILES IDX 52 86 53 87 55 88 57 89 54 90
REMARK H PARENT 8 17 74 52 48 63
REMARK Flexibility Score: inf
ROOT
ATOM      1  C   UNL A   1      34.345  32.251  28.252  1.00  0.00     0.188 C 
ENDROOT
BRANCH   1   2
ATOM      2  O   UNL A   1      34.955  30.976  28.340  1.00  0.00    -0.376 OA
BRANCH   2   3
ATOM      3  C   UNL A   1      34.664  30.055  27.313  1.00  0.00     0.202 C 
BRANCH   3   4
ATOM      4  C   UNL A   1      33.259  29.428  27.328  1.00  0.00     0.261 C 
BRANCH   4   5
ATOM      5  O   UNL A   1      32.814  28.736  26.129  1.00  0.00    -0.463 OA
BRANCH   5   6
ATOM      6  C   UNL A   1      31.757  29.276  25.448  1.00  0.00     0.310 C 
ATOM      7  O   UNL A   1      31.448  30.456  25.555  1.00  0.00    -0.252 OA
BRANCH   6   8
ATOM      8  C   UNL A   1      31.025  28.252  24.541  1.00  0.00     0.119 C 
ATOM      9  C   UNL A   1      31.476  26.723  24.620  1.00  0.00     0.100 C 
ATOM     10  C   UNL A   1      31.919  26.449  23.140  1.00  0.00     0.025 C 
ATOM     11  C   UNL A   1      31.354  28.613  23.055  1.00  0.00     0.027 C 
ATOM     12  C   UNL A   1      33.190  27.219  22.885  1.00  0.00    -0.027 C 
ATOM     13  C   UNL A   1      30.959  27.335  22.324  1.00  0.00     0.017 C 
ATOM     14  C   UNL A   1      32.849  28.513  22.805  1.00  0.00    -0.027 C 
BRANCH   9  15
ATOM     15  C   UNL A   1      30.376  25.691  24.941  1.00  0.00     0.228 C 
ATOM     16  N   UNL A   1      30.551  24.343  25.110  1.00  0.00    -0.326 N 
ATOM     17  H   UNL A   1      29.690  23.864  25.101  1.00  0.00     0.169 HD
ATOM     18  O   UNL A   1      29.192  26.060  24.964  1.00  0.00    -0.274 OA
BRANCH  16  19
ATOM     19  C   UNL A   1      31.634  23.455  25.293  1.00  0.00     0.041 A 
ATOM     20  C   UNL A   1      34.790  21.643  25.644  1.00  0.00     0.119 A 
ATOM     21  C   UNL A   1      33.686  21.276  24.249  1.00  0.00     0.048 A 
ATOM     22  C   UNL A   1      34.220  22.737  26.990  1.00  0.00     0.048 A 
ATOM     23  C   UNL A   1      32.152  22.226  24.061  1.00  0.00     0.030 A 
ATOM     24  C   UNL A   1      32.597  23.587  26.858  1.00  0.00     0.030 A 
BRANCH  20  25
ATOM     25  O   UNL A   1      36.120  21.374  25.480  1.00  0.00    -0.494 OA
BRANCH  25  26
ATOM     26  C   UNL A   1      36.857  22.423  24.860  1.00  0.00     0.226 C 
ATOM     27  C   UNL A   1      37.727  23.062  25.923  1.00  0.00     0.049 C 
ENDBRANCH  25  26
ENDBRANCH  20  25
ENDBRANCH  16  19
ENDBRANCH   9  15
ENDBRANCH   6   8
ENDBRANCH   5   6
ENDBRANCH   4   5
ENDBRANCH   3   4
ENDBRANCH   2   3
ENDBRANCH   1   2
BRANCH   1  28
ATOM     28  C   UNL A   1      34.397  33.210  29.463  1.00  0.00     0.188 C 
BRANCH  28  29
ATOM     29  O   UNL A   1      33.271  34.053  29.505  1.00  0.00    -0.376 OA
BRANCH  29  30
ATOM     30  C   UNL A   1      33.408  35.309  28.874  1.00  0.00     0.202 C 
BRANCH  30  31
ATOM     31  C   UNL A   1      32.965  36.575  29.620  1.00  0.00     0.261 C 
BRANCH  31  32
ATOM     32  O   UNL A   1      31.897  36.458  30.594  1.00  0.00    -0.460 OA
BRANCH  32  33
ATOM     33  C   UNL A   1      32.142  36.041  31.993  1.00  0.00     0.338 C 
ATOM     34  O   UNL A   1      31.067  36.452  32.529  1.00  0.00    -0.246 OA
BRANCH  33  35
ATOM     35  C   UNL A   1      33.880  35.040  32.757  1.00  0.00     0.060 A 
ATOM     36  C   UNL A   1      34.057  33.609  33.265  1.00  0.00     0.016 A 
ATOM     37  C   UNL A   1      35.305  35.509  32.874  1.00  0.00     0.016 A 
ATOM     38  C   UNL A   1      35.213  32.833  33.348  1.00  0.00     0.010 A 
ATOM     39  C   UNL A   1      36.485  34.756  32.837  1.00  0.00     0.010 A 
ATOM     40  C   UNL A   1      36.418  33.401  33.043  1.00  0.00    -0.014 A 
BRANCH  40  41
ATOM     41  C   UNL A   1      37.622  32.635  33.310  1.00  0.00     0.031 A 
ATOM     42  C   UNL A   1      38.272  32.895  34.626  1.00  0.00     0.074 A 
ATOM     43  C   UNL A   1      38.002  31.712  32.416  1.00  0.00     0.049 A 
ATOM     44  N   UNL A   1      39.390  32.428  35.094  1.00  0.00    -0.248 NA
ATOM     45  C   UNL A   1      37.584  33.836  35.538  1.00  0.00     0.031 C 
ATOM     46  C   UNL A   1      37.313  31.414  31.153  1.00  0.00     0.029 A 
ATOM     47  N   UNL A   1      39.046  30.840  32.440  1.00  0.00    -0.354 N 
ATOM     48  C   UNL A   1      39.556  33.053  36.321  1.00  0.00     0.074 A 
ATOM     49  C   UNL A   1      38.461  33.964  36.516  1.00  0.00     0.031 C 
ATOM     50  C   UNL A   1      37.955  30.411  30.530  1.00  0.00     0.029 A 
ATOM     51  C   UNL A   1      39.118  30.042  31.326  1.00  0.00     0.049 A 
ATOM     52  H   UNL A   1      39.688  30.788  33.184  1.00  0.00     0.167 HD
ATOM     53  C   UNL A   1      40.550  32.845  37.207  1.00  0.00     0.037 A 
ATOM     54  C   UNL A   1      40.058  29.136  31.009  1.00  0.00     0.037 A 
ATOM     55  C   UNL A   1      41.577  31.875  36.966  1.00  0.00     0.049 A 
ATOM     56  C   UNL A   1      41.165  28.947  32.015  1.00  0.00     0.074 A 
ATOM     57  C   UNL A   1      42.648  31.532  37.761  1.00  0.00     0.029 A 
ATOM     58  N   UNL A   1      41.634  31.079  35.826  1.00  0.00    -0.354 N 
ATOM     59  N   UNL A   1      41.338  29.544  33.175  1.00  0.00    -0.248 NA
ATOM     60  C   UNL A   1      42.203  27.971  31.680  1.00  0.00     0.031 C 
ATOM     61  C   UNL A   1      43.386  30.563  37.075  1.00  0.00     0.029 A 
ATOM     62  C   UNL A   1      42.738  30.255  35.884  1.00  0.00     0.049 A 
ATOM     63  H   UNL A   1      40.984  31.100  35.087  1.00  0.00     0.167 HD
ATOM     64  C   UNL A   1      42.485  28.996  33.723  1.00  0.00     0.074 A 
ATOM     65  C   UNL A   1      42.952  28.003  32.772  1.00  0.00     0.031 C 
ATOM     66  C   UNL A   1      43.113  29.277  34.893  1.00  0.00     0.037 A 
BRANCH  53  67
ATOM     67  C   UNL A   1      40.573  33.697  38.438  1.00  0.00     0.057 A 
ATOM     68  C   UNL A   1      39.817  33.396  39.579  1.00  0.00     0.134 A 
ATOM     69  C   UNL A   1      41.347  34.862  38.466  1.00  0.00     0.134 A 
ATOM     70  F   UNL A   1      39.015  32.321  39.601  1.00  0.00    -0.206 F 
ATOM     71  C   UNL A   1      39.825  34.229  40.700  1.00  0.00     0.040 A 
ATOM     72  C   UNL A   1      41.385  35.687  39.591  1.00  0.00     0.040 A 
ATOM     73  F   UNL A   1      42.070  35.226  37.397  1.00  0.00    -0.206 F 
ATOM     74  C   UNL A   1      40.620  35.372  40.711  1.00  0.00     0.006 A 
ENDBRANCH  53  67
BRANCH  54  75
ATOM     75  C   UNL A   1      40.011  28.389  29.725  1.00  0.00     0.057 A 
ATOM     76  C   UNL A   1      39.273  27.208  29.591  1.00  0.00     0.134 A 
ATOM     77  C   UNL A   1      40.726  28.823  28.600  1.00  0.00     0.134 A 
ATOM     78  F   UNL A   1      38.565  26.733  30.627  1.00  0.00    -0.206 F 
ATOM     79  C   UNL A   1      39.281  26.465  28.407  1.00  0.00     0.040 A 
ATOM     80  C   UNL A   1      40.717  28.108  27.400  1.00  0.00     0.040 A 
ATOM     81  F   UNL A   1      41.444  29.956  28.646  1.00  0.00    -0.206 F 
ATOM     82  C   UNL A   1      40.005  26.915  27.306  1.00  0.00     0.006 A 
ENDBRANCH  54  75
BRANCH  66  83
ATOM     83  C   UNL A   1      44.326  28.459  35.204  1.00  0.00     0.057 A 
ATOM     84  C   UNL A   1      45.607  28.869  34.821  1.00  0.00     0.134 A 
ATOM     85  C   UNL A   1      44.205  27.281  35.951  1.00  0.00     0.134 A 
ATOM     86  F   UNL A   1      45.777  29.986  34.097  1.00  0.00    -0.206 F 
ATOM     87  C   UNL A   1      46.732  28.117  35.149  1.00  0.00     0.040 A 
ATOM     88  C   UNL A   1      45.325  26.542  36.316  1.00  0.00     0.040 A 
ATOM     89  F   UNL A   1      43.001  26.853  36.360  1.00  0.00    -0.206 F 
ATOM     90  C   UNL A   1      46.592  26.954  35.907  1.00  0.00     0.006 A 
ENDBRANCH  66  83
ENDBRANCH  40  41
ENDBRANCH  33  35
ENDBRANCH  32  33
ENDBRANCH  31  32
ENDBRANCH  30  31
ENDBRANCH  29  30
ENDBRANCH  28  29
ENDBRANCH   1  28
TORSDOF 21
ENDMDL
MODEL 2
REMARK VINA RESULT:     -10.6      0.968      6.288
REMARK SMILES CCOc1ccc(NC(=O)[C@@H]2[C@@H](C(=O)OCCOCCOCCOC(=O)c3ccc(-c4c5nc(c(-c6c(F)cccc6F)c6ccc([nH]6)c(-c6c(F)cccc6F)c6nc(c(-c7c(F)cccc7F)c7ccc4[nH]7)C=C6)C=C5)cc3)[C@H]3C=C[C@@H]2C3)cc1
REMARK SMILES IDX 19 1 18 2 17 3 16 4 15 5 13 6 14 7 12 8 11 9 84 10 81 11
REMARK SMILES IDX 83 12 85 13 82 14 9 15 8 16 10 18 7 19 4 20 5 21 87 22 6 23
REMARK SMILES IDX 86 24 3 25 2 26 1 27 20 28 21 29 22 30 23 31 24 32 25 33
REMARK SMILES IDX 26 34 27 35 28 36 80 37 29 38 79 39 30 40 31 41 32 42 73 43
REMARK SMILES IDX 33 44 78 45 72 46 74 47 34 48 77 49 71 50 70 51 35 53 61 54
REMARK SMILES IDX 44 55 60 56 45 57 48 58 59 59 75 60 46 61 47 62 58 64 76 65
REMARK SMILES IDX 49 66 36 67 37 68 42 69 38 70 39 71 41 72 43 73 40 74 62 75
REMARK SMILES IDX 63 76 68 77 64 78 65 79 67 80 69 81 66 82 50 83 51 84 56 85
REMARK SMILES IDX 52 86 53 87 55 88 57 89 54 90
REMARK H PARENT 8 17 74 52 48 63
REMARK Flexibility Score: inf
ROOT
ATOM      1  C   UNL A   1      34.561  31.796  27.699  1.00  0.00     0.188 C 
ENDROOT
BRANCH   1   2
ATOM      2  O   UNL A   1      35.290  30.645  28.083  1.00  0.00    -0.376 OA
BRANCH   2   3
ATOM      3  C   UNL A   1      35.067  29.468  27.340  1.00  0.00     0.202 C 
BRANCH   3   4
ATOM      4  C   UNL A   1      33.645  28.882  27.389  1.00  0.00     0.261 C 
BRANCH   4   5
ATOM      5  O   UNL A   1      33.065  28.408  26.141  1.00  0.00    -0.463 OA
BRANCH   5   6
ATOM      6  C   UNL A   1      32.088  29.177  25.571  1.00  0.00     0.310 C 
ATOM      7  O   UNL A   1      32.007  30.382  25.770  1.00  0.00    -0.252 OA
BRANCH   6   8
ATOM      8  C   UNL A   1      31.127  28.368  24.659  1.00  0.00     0.119 C 
ATOM      9  C   UNL A   1      31.398  26.805  24.483  1.00  0.00     0.100 C 
ATOM     10  C   UNL A   1      31.611  26.696  22.933  1.00  0.00     0.025 C 
ATOM     11  C   UNL A   1      31.304  28.896  23.197  1.00  0.00     0.027 C 
ATOM     12  C   UNL A   1      32.922  27.359  22.596  1.00  0.00    -0.027 C 
ATOM     13  C   UNL A   1      30.668  27.779  22.378  1.00  0.00     0.017 C 
ATOM     14  C   UNL A   1      32.732  28.680  22.725  1.00  0.00    -0.027 C 
BRANCH   9  15
ATOM     15  C   UNL A   1      30.232  25.856  24.829  1.00  0.00     0.228 C 
ATOM     16  N   UNL A   1      30.281  24.488  24.866  1.00  0.00    -0.326 N 
ATOM     17  H   UNL A   1      29.379  24.096  24.906  1.00  0.00     0.169 HD
ATOM     18  O   UNL A   1      29.100  26.332  25.004  1.00  0.00    -0.274 OA
BRANCH  16  19
ATOM     19  C   UNL A   1      31.279  23.489  24.863  1.00  0.00     0.041 A 
ATOM     20  C   UNL A   1      33.399  20.510  24.778  1.00  0.00     0.119 A 
ATOM     21  C   UNL A   1      33.212  21.445  26.325  1.00  0.00     0.048 A 
ATOM     22  C   UNL A   1      32.726  21.187  23.221  1.00  0.00     0.048 A 
ATOM     23  C   UNL A   1      32.111  22.886  26.360  1.00  0.00     0.030 A 
ATOM     24  C   UNL A   1      31.729  22.730  23.245  1.00  0.00     0.030 A 
BRANCH  20  25
ATOM     25  O   UNL A   1      33.728  19.188  24.879  1.00  0.00    -0.494 OA
BRANCH  25  26
ATOM     26  C   UNL A   1      32.744  18.300  24.359  1.00  0.00     0.226 C 
ATOM     27  C   UNL A   1      32.550  17.187  25.370  1.00  0.00     0.049 C 
ENDBRANCH  25  26
ENDBRANCH  20  25
ENDBRANCH  16  19
ENDBRANCH   9  15
ENDBRANCH   6   8
ENDBRANCH   5   6
ENDBRANCH   4   5
ENDBRANCH   3   4
ENDBRANCH   2   3
ENDBRANCH   1   2
BRANCH   1  28
ATOM     28  C   UNL A   1      35.084  33.198  28.086  1.00  0.00     0.188 C 
BRANCH  28  29
ATOM     29  O   UNL A   1      34.036  34.134  28.182  1.00  0.00    -0.376 OA
BRANCH  29  30
ATOM     30  C   UNL A   1      34.390  35.422  28.642  1.00  0.00     0.202 C 
BRANCH  30  31
ATOM     31  C   UNL A   1      33.281  36.413  29.016  1.00  0.00     0.261 C 
BRANCH  31  32
ATOM     32  O   UNL A   1      32.247  35.972  29.933  1.00  0.00    -0.460 OA
BRANCH  32  33
ATOM     33  C   UNL A   1      32.466  35.890  31.395  1.00  0.00     0.338 C 
ATOM     34  O   UNL A   1      31.403  36.451  31.801  1.00  0.00    -0.246 OA
BRANCH  33  35
ATOM     35  C   UNL A   1      34.163  35.043  32.401  1.00  0.00     0.060 A 
ATOM     36  C   UNL A   1      34.305  33.727  33.166  1.00  0.00     0.016 A 
ATOM     37  C   UNL A   1      35.585  35.525  32.493  1.00  0.00     0.016 A 
ATOM     38  C   UNL A   1      35.451  32.978  33.438  1.00  0.00     0.010 A 
ATOM     39  C   UNL A   1      36.759  34.777  32.644  1.00  0.00     0.010 A 
ATOM     40  C   UNL A   1      36.672  33.482  33.087  1.00  0.00    -0.014 A 
BRANCH  40  41
ATOM     41  C   UNL A   1      37.858  32.776  33.539  1.00  0.00     0.031 A 
ATOM     42  C   UNL A   1      38.423  31.783  32.581  1.00  0.00     0.074 A 
ATOM     43  C   UNL A   1      38.395  33.121  34.718  1.00  0.00     0.049 A 
ATOM     44  N   UNL A   1      39.409  30.957  32.745  1.00  0.00    -0.248 NA
ATOM     45  C   UNL A   1      37.767  31.685  31.257  1.00  0.00     0.031 C 
ATOM     46  C   UNL A   1      37.870  34.152  35.624  1.00  0.00     0.029 A 
ATOM     47  N   UNL A   1      39.510  32.660  35.346  1.00  0.00    -0.354 N 
ATOM     48  C   UNL A   1      39.458  30.216  31.574  1.00  0.00     0.074 A 
ATOM     49  C   UNL A   1      38.382  30.647  30.722  1.00  0.00     0.031 C 
ATOM     50  C   UNL A   1      38.681  34.250  36.691  1.00  0.00     0.029 A 
ATOM     51  C   UNL A   1      39.739  33.258  36.561  1.00  0.00     0.049 A 
ATOM     52  H   UNL A   1      40.094  31.965  34.967  1.00  0.00     0.167 HD
ATOM     53  C   UNL A   1      40.357  29.265  31.253  1.00  0.00     0.037 A 
ATOM     54  C   UNL A   1      40.704  32.984  37.455  1.00  0.00     0.037 A 
ATOM     55  C   UNL A   1      41.438  28.931  32.132  1.00  0.00     0.049 A 
ATOM     56  C   UNL A   1      41.679  31.900  37.070  1.00  0.00     0.074 A 
ATOM     57  C   UNL A   1      42.441  28.003  31.958  1.00  0.00     0.029 A 
ATOM     58  N   UNL A   1      41.650  29.546  33.363  1.00  0.00    -0.354 N 
ATOM     59  N   UNL A   1      41.725  31.184  35.967  1.00  0.00    -0.248 NA
ATOM     60  C   UNL A   1      42.730  31.582  38.039  1.00  0.00     0.031 C 
ATOM     61  C   UNL A   1      43.232  28.020  33.110  1.00  0.00     0.029 A 
ATOM     62  C   UNL A   1      42.760  29.003  33.973  1.00  0.00     0.049 A 
ATOM     63  H   UNL A   1      41.091  30.261  33.742  1.00  0.00     0.167 HD
ATOM     64  C   UNL A   1      42.824  30.351  36.094  1.00  0.00     0.074 A 
ATOM     65  C   UNL A   1      43.427  30.672  37.376  1.00  0.00     0.031 C 
ATOM     66  C   UNL A   1      43.302  29.403  35.249  1.00  0.00     0.037 A 
BRANCH  53  67
ATOM     67  C   UNL A   1      40.165  28.534  29.961  1.00  0.00     0.057 A 
ATOM     68  C   UNL A   1      39.377  27.380  29.856  1.00  0.00     0.134 A 
ATOM     69  C   UNL A   1      40.811  28.981  28.803  1.00  0.00     0.134 A 
ATOM     70  F   UNL A   1      38.769  26.868  30.938  1.00  0.00    -0.206 F 
ATOM     71  C   UNL A   1      39.246  26.692  28.647  1.00  0.00     0.040 A 
ATOM     72  C   UNL A   1      40.665  28.319  27.583  1.00  0.00     0.040 A 
ATOM     73  F   UNL A   1      41.606  30.061  28.840  1.00  0.00    -0.206 F 
ATOM     74  C   UNL A   1      39.883  27.170  27.504  1.00  0.00     0.006 A 
ENDBRANCH  53  67
BRANCH  54  75
ATOM     75  C   UNL A   1      40.778  33.698  38.756  1.00  0.00     0.057 A 
ATOM     76  C   UNL A   1      41.670  34.755  38.962  1.00  0.00     0.134 A 
ATOM     77  C   UNL A   1      39.973  33.324  39.842  1.00  0.00     0.134 A 
ATOM     78  F   UNL A   1      42.472  35.166  37.968  1.00  0.00    -0.206 F 
ATOM     79  C   UNL A   1      41.792  35.384  40.205  1.00  0.00     0.040 A 
ATOM     80  C   UNL A   1      40.061  33.965  41.080  1.00  0.00     0.040 A 
ATOM     81  F   UNL A   1      39.081  32.329  39.716  1.00  0.00    -0.206 F 
ATOM     82  C   UNL A   1      40.985  34.989  41.269  1.00  0.00     0.006 A 
ENDBRANCH  54  75
BRANCH  66  83
ATOM     83  C   UNL A   1      44.551  28.704  35.680  1.00  0.00     0.057 A 
ATOM     84  C   UNL A   1      44.513  27.540  36.454  1.00  0.00     0.134 A 
ATOM     85  C   UNL A   1      45.800  29.175  35.257  1.00  0.00     0.134 A 
ATOM     86  F   UNL A   1      43.343  27.052  36.893  1.00  0.00    -0.206 F 
ATOM     87  C   UNL A   1      45.683  26.878  36.818  1.00  0.00     0.040 A 
ATOM     88  C   UNL A   1      46.973  28.501  35.583  1.00  0.00     0.040 A 
ATOM     89  F   UNL A   1      45.892  30.277  34.497  1.00  0.00    -0.206 F 
ATOM     90  C   UNL A   1      46.916  27.355  36.374  1.00  0.00     0.006 A 
ENDBRANCH  66  83
ENDBRANCH  40  41
ENDBRANCH  33  35
ENDBRANCH  32  33
ENDBRANCH  31  32
ENDBRANCH  30  31
ENDBRANCH  29  30
ENDBRANCH  28  29
ENDBRANCH   1  28
TORSDOF 21
ENDMDL
MODEL 3
REMARK VINA RESULT:      -9.6      4.723      7.535
REMARK SMILES CCOc1ccc(NC(=O)[C@@H]2[C@@H](C(=O)OCCOCCOCCOC(=O)c3ccc(-c4c5nc(c(-c6c(F)cccc6F)c6ccc([nH]6)c(-c6c(F)cccc6F)c6nc(c(-c7c(F)cccc7F)c7ccc4[nH]7)C=C6)C=C5)cc3)[C@H]3C=C[C@@H]2C3)cc1
REMARK SMILES IDX 19 1 18 2 17 3 16 4 15 5 13 6 14 7 12 8 11 9 84 10 81 11
REMARK SMILES IDX 83 12 85 13 82 14 9 15 8 16 10 18 7 19 4 20 5 21 87 22 6 23
REMARK SMILES IDX 86 24 3 25 2 26 1 27 20 28 21 29 22 30 23 31 24 32 25 33
REMARK SMILES IDX 26 34 27 35 28 36 80 37 29 38 79 39 30 40 31 41 32 42 73 43
REMARK SMILES IDX 33 44 78 45 72 46 74 47 34 48 77 49 71 50 70 51 35 53 61 54
REMARK SMILES IDX 44 55 60 56 45 57 48 58 59 59 75 60 46 61 47 62 58 64 76 65
REMARK SMILES IDX 49 66 36 67 37 68 42 69 38 70 39 71 41 72 43 73 40 74 62 75
REMARK SMILES IDX 63 76 68 77 64 78 65 79 67 80 69 81 66 82 50 83 51 84 56 85
REMARK SMILES IDX 52 86 53 87 55 88 57 89 54 90
REMARK H PARENT 8 17 74 52 48 63
REMARK Flexibility Score: inf
ROOT
ATOM      1  C   UNL A   1      32.447  29.910  27.194  1.00  0.00     0.188 C 
ENDROOT
BRANCH   1   2
ATOM      2  O   UNL A   1      32.870  28.602  27.534  1.00  0.00    -0.376 OA
BRANCH   2   3
ATOM      3  C   UNL A   1      33.809  27.990  26.679  1.00  0.00     0.202 C 
BRANCH   3   4
ATOM      4  C   UNL A   1      33.299  26.813  25.829  1.00  0.00     0.261 C 
BRANCH   4   5
ATOM      5  O   UNL A   1      32.569  25.754  26.507  1.00  0.00    -0.463 OA
BRANCH   5   6
ATOM      6  C   UNL A   1      32.741  24.477  26.045  1.00  0.00     0.310 C 
ATOM      7  O   UNL A   1      32.182  23.517  26.560  1.00  0.00    -0.252 OA
BRANCH   6   8
ATOM      8  C   UNL A   1      33.690  24.392  24.821  1.00  0.00     0.119 C 
ATOM      9  C   UNL A   1      33.388  23.285  23.712  1.00  0.00     0.100 C 
ATOM     10  C   UNL A   1      34.713  22.445  23.738  1.00  0.00     0.025 C 
ATOM     11  C   UNL A   1      35.099  23.955  25.342  1.00  0.00     0.027 C 
ATOM     12  C   UNL A   1      34.759  21.689  25.042  1.00  0.00    -0.027 C 
ATOM     13  C   UNL A   1      35.785  23.502  24.059  1.00  0.00     0.017 C 
ATOM     14  C   UNL A   1      35.020  22.589  26.001  1.00  0.00    -0.027 C 
BRANCH   9  15
ATOM     15  C   UNL A   1      33.218  23.784  22.262  1.00  0.00     0.228 C 
ATOM     16  N   UNL A   1      32.524  24.894  21.862  1.00  0.00    -0.326 N 
ATOM     17  H   UNL A   1      32.380  24.897  20.887  1.00  0.00     0.169 HD
ATOM     18  O   UNL A   1      33.656  23.091  21.332  1.00  0.00    -0.274 OA
BRANCH  16  19
ATOM     19  C   UNL A   1      31.959  26.037  22.471  1.00  0.00     0.041 A 
ATOM     20  C   UNL A   1      30.094  28.977  23.587  1.00  0.00     0.119 A 
ATOM     21  C   UNL A   1      31.788  29.164  22.959  1.00  0.00     0.048 A 
ATOM     22  C   UNL A   1      29.415  27.307  23.884  1.00  0.00     0.048 A 
ATOM     23  C   UNL A   1      32.675  27.701  22.356  1.00  0.00     0.030 A 
ATOM     24  C   UNL A   1      30.382  25.823  23.400  1.00  0.00     0.030 A 
BRANCH  20  25
ATOM     25  O   UNL A   1      29.266  30.060  23.496  1.00  0.00    -0.494 OA
BRANCH  25  26
ATOM     26  C   UNL A   1      28.167  29.883  22.608  1.00  0.00     0.226 C 
ATOM     27  C   UNL A   1      28.574  30.438  21.258  1.00  0.00     0.049 C 
ENDBRANCH  25  26
ENDBRANCH  20  25
ENDBRANCH  16  19
ENDBRANCH   9  15
ENDBRANCH   6   8
ENDBRANCH   5   6
ENDBRANCH   4   5
ENDBRANCH   3   4
ENDBRANCH   2   3
ENDBRANCH   1   2
BRANCH   1  28
ATOM     28  C   UNL A   1      33.497  30.986  26.838  1.00  0.00     0.188 C 
BRANCH  28  29
ATOM     29  O   UNL A   1      33.234  32.205  27.492  1.00  0.00    -0.376 OA
BRANCH  29  30
ATOM     30  C   UNL A   1      34.181  32.612  28.458  1.00  0.00     0.202 C 
BRANCH  30  31
ATOM     31  C   UNL A   1      33.769  33.634  29.525  1.00  0.00     0.261 C 
BRANCH  31  32
ATOM     32  O   UNL A   1      34.636  33.812  30.674  1.00  0.00    -0.460 OA
BRANCH  32  33
ATOM     33  C   UNL A   1      35.464  32.713  31.220  1.00  0.00     0.338 C 
ATOM     34  O   UNL A   1      34.688  32.294  32.132  1.00  0.00    -0.246 OA
BRANCH  33  35
ATOM     35  C   UNL A   1      37.419  32.119  30.561  1.00  0.00     0.060 A 
ATOM     36  C   UNL A   1      38.681  31.801  31.362  1.00  0.00     0.016 A 
ATOM     37  C   UNL A   1      37.932  31.810  29.180  1.00  0.00     0.016 A 
ATOM     38  C   UNL A   1      39.784  31.023  31.010  1.00  0.00     0.010 A 
ATOM     39  C   UNL A   1      38.958  30.939  28.798  1.00  0.00     0.010 A 
ATOM     40  C   UNL A   1      39.864  30.522  29.740  1.00  0.00    -0.014 A 
BRANCH  40  41
ATOM     41  C   UNL A   1      41.100  29.872  29.340  1.00  0.00     0.031 A 
ATOM     42  C   UNL A   1      42.322  30.724  29.390  1.00  0.00     0.074 A 
ATOM     43  C   UNL A   1      41.066  28.565  29.045  1.00  0.00     0.049 A 
ATOM     44  N   UNL A   1      43.532  30.443  29.014  1.00  0.00    -0.248 NA
ATOM     45  C   UNL A   1      42.157  32.099  29.912  1.00  0.00     0.031 C 
ATOM     46  C   UNL A   1      39.867  27.716  29.067  1.00  0.00     0.029 A 
ATOM     47  N   UNL A   1      42.069  27.716  28.692  1.00  0.00    -0.354 N 
ATOM     48  C   UNL A   1      44.251  31.613  29.207  1.00  0.00     0.074 A 
ATOM     49  C   UNL A   1      43.347  32.623  29.688  1.00  0.00     0.031 C 
ATOM     50  C   UNL A   1      40.216  26.457  28.752  1.00  0.00     0.029 A 
ATOM     51  C   UNL A   1      41.642  26.432  28.459  1.00  0.00     0.049 A 
ATOM     52  H   UNL A   1      43.009  27.996  28.610  1.00  0.00     0.167 HD
ATOM     53  C   UNL A   1      45.571  31.795  29.008  1.00  0.00     0.037 A 
ATOM     54  C   UNL A   1      42.359  25.381  28.029  1.00  0.00     0.037 A 
ATOM     55  C   UNL A   1      46.418  30.721  28.582  1.00  0.00     0.049 A 
ATOM     56  C   UNL A   1      43.828  25.628  27.797  1.00  0.00     0.074 A 
ATOM     57  C   UNL A   1      47.775  30.730  28.344  1.00  0.00     0.029 A 
ATOM     58  N   UNL A   1      45.964  29.427  28.345  1.00  0.00    -0.354 N 
ATOM     59  N   UNL A   1      44.516  26.737  27.966  1.00  0.00    -0.248 NA
ATOM     60  C   UNL A   1      44.622  24.495  27.319  1.00  0.00     0.031 C 
ATOM     61  C   UNL A   1      48.133  29.450  27.910  1.00  0.00     0.029 A 
ATOM     62  C   UNL A   1      47.012  28.627  27.942  1.00  0.00     0.049 A 
ATOM     63  H   UNL A   1      45.033  29.126  28.450  1.00  0.00     0.167 HD
ATOM     64  C   UNL A   1      45.827  26.431  27.645  1.00  0.00     0.074 A 
ATOM     65  C   UNL A   1      45.837  25.022  27.291  1.00  0.00     0.031 C 
ATOM     66  C   UNL A   1      46.930  27.222  27.629  1.00  0.00     0.037 A 
BRANCH  53  67
ATOM     67  C   UNL A   1      46.120  33.174  29.204  1.00  0.00     0.057 A 
ATOM     68  C   UNL A   1      46.188  34.114  28.167  1.00  0.00     0.134 A 
ATOM     69  C   UNL A   1      46.620  33.554  30.454  1.00  0.00     0.134 A 
ATOM     70  F   UNL A   1      45.773  33.798  26.931  1.00  0.00    -0.206 F 
ATOM     71  C   UNL A   1      46.743  35.381  28.366  1.00  0.00     0.040 A 
ATOM     72  C   UNL A   1      47.150  34.827  30.673  1.00  0.00     0.040 A 
ATOM     73  F   UNL A   1      46.614  32.693  31.482  1.00  0.00    -0.206 F 
ATOM     74  C   UNL A   1      47.215  35.743  29.626  1.00  0.00     0.006 A 
ENDBRANCH  53  67
BRANCH  54  75
ATOM     75  C   UNL A   1      41.723  24.062  27.776  1.00  0.00     0.057 A 
ATOM     76  C   UNL A   1      41.905  22.982  28.646  1.00  0.00     0.134 A 
ATOM     77  C   UNL A   1      40.933  23.837  26.639  1.00  0.00     0.134 A 
ATOM     78  F   UNL A   1      42.649  23.124  29.753  1.00  0.00    -0.206 F 
ATOM     79  C   UNL A   1      41.366  21.720  28.377  1.00  0.00     0.040 A 
ATOM     80  C   UNL A   1      40.361  22.590  26.374  1.00  0.00     0.040 A 
ATOM     81  F   UNL A   1      40.700  24.829  25.767  1.00  0.00    -0.206 F 
ATOM     82  C   UNL A   1      40.590  21.522  27.237  1.00  0.00     0.006 A 
ENDBRANCH  54  75
BRANCH  66  83
ATOM     83  C   UNL A   1      48.217  26.553  27.268  1.00  0.00     0.057 A 
ATOM     84  C   UNL A   1      48.948  25.811  28.201  1.00  0.00     0.134 A 
ATOM     85  C   UNL A   1      48.689  26.607  25.951  1.00  0.00     0.134 A 
ATOM     86  F   UNL A   1      48.543  25.735  29.478  1.00  0.00    -0.206 F 
ATOM     87  C   UNL A   1      50.126  25.163  27.841  1.00  0.00     0.040 A 
ATOM     88  C   UNL A   1      49.846  25.933  25.572  1.00  0.00     0.040 A 
ATOM     89  F   UNL A   1      48.017  27.290  25.012  1.00  0.00    -0.206 F 
ATOM     90  C   UNL A   1      50.572  25.216  26.521  1.00  0.00     0.006 A 
ENDBRANCH  66  83
ENDBRANCH  40  41
ENDBRANCH  33  35
ENDBRANCH  32  33
ENDBRANCH  31  32
ENDBRANCH  30  31
ENDBRANCH  29  30
ENDBRANCH  28  29
ENDBRANCH   1  28
TORSDOF 21
ENDMDL
