MODEL 1
REMARK VINA RESULT:      -9.9      0.000      0.000
REMARK SMILES O=C(Cc1cccc(-c2ccn(C(F)F)c(=O)c2)c1)OCCOCCOCCOC(=O)c1ccc(-c2c3nc(c(-c4c(F)cccc4F)c4ccc([nH]4)c(-c4c(F)cccc4F)c4nc(c(-c5c(F)cccc5F)c5ccc2[nH]5)C=C4)C=C3)cc1
REMARK SMILES IDX 24 1 23 2 22 3 21 4 20 5 2 6 1 7 3 8 4 9 5 10 19 11 6 12
REMARK SMILES IDX 8 13 7 14 9 15 10 16 18 17 11 18 16 19 12 20 17 21 13 22
REMARK SMILES IDX 14 23 15 24 25 25 26 26 27 27 28 28 29 29 30 30 31 31 32 32
REMARK SMILES IDX 33 33 85 34 34 35 84 36 35 37 36 38 37 39 78 40 38 41 83 42
REMARK SMILES IDX 77 43 79 44 39 45 82 46 76 47 75 48 40 50 66 51 49 52 65 53
REMARK SMILES IDX 50 54 53 55 64 56 80 57 51 58 52 59 63 61 81 62 54 63 41 64
REMARK SMILES IDX 42 65 47 66 43 67 44 68 46 69 48 70 45 71 67 72 68 73 73 74
REMARK SMILES IDX 69 75 70 76 72 77 74 78 71 79 55 80 56 81 61 82 57 83 58 84
REMARK SMILES IDX 60 85 62 86 59 87
REMARK H PARENT 79 49 53 60
REMARK Flexibility Score: inf
ROOT
ATOM      1  C   UNL A   1      34.098  25.487  23.978  1.00  0.00     0.188 C 
ENDROOT
BRANCH   1   2
ATOM      2  O   UNL A   1      35.095  24.520  24.242  1.00  0.00    -0.376 OA
BRANCH   2   3
ATOM      3  C   UNL A   1      35.453  24.288  25.593  1.00  0.00     0.202 C 
BRANCH   3   4
ATOM      4  C   UNL A   1      36.896  23.849  25.814  1.00  0.00     0.261 C 
BRANCH   4   5
ATOM      5  O   UNL A   1      37.195  22.434  25.730  1.00  0.00    -0.463 OA
BRANCH   5   6
ATOM      6  C   UNL A   1      37.039  21.579  24.700  1.00  0.00     0.310 C 
ATOM      7  O   UNL A   1      37.264  21.965  23.553  1.00  0.00    -0.252 OA
BRANCH   6   8
ATOM      8  C   UNL A   1      36.444  20.217  24.931  1.00  0.00     0.158 C 
BRANCH   8   9
ATOM      9  C   UNL A   1      34.955  20.038  24.838  1.00  0.00    -0.036 A 
ATOM     10  C   UNL A   1      34.316  18.842  24.507  1.00  0.00     0.004 A 
ATOM     11  C   UNL A   1      34.169  21.183  25.053  1.00  0.00     0.013 A 
ATOM     12  C   UNL A   1      32.924  18.787  24.418  1.00  0.00     0.001 A 
ATOM     13  C   UNL A   1      32.780  21.159  24.883  1.00  0.00    -0.018 A 
ATOM     14  C   UNL A   1      32.159  19.941  24.593  1.00  0.00     0.009 A 
BRANCH  13  15
ATOM     15  C   UNL A   1      32.046  22.441  24.839  1.00  0.00    -0.011 A 
ATOM     16  C   UNL A   1      31.444  22.907  23.601  1.00  0.00     0.027 A 
ATOM     17  C   UNL A   1      31.881  23.171  25.955  1.00  0.00     0.080 A 
ATOM     18  C   UNL A   1      30.698  24.014  23.575  1.00  0.00     0.095 A 
ATOM     19  C   UNL A   1      31.060  24.416  25.939  1.00  0.00     0.255 A 
ATOM     20  N   UNL A   1      30.487  24.751  24.723  1.00  0.00    -0.258 N 
ATOM     21  O   UNL A   1      30.926  25.045  26.984  1.00  0.00    -0.269 OA
BRANCH  20  22
ATOM     22  C   UNL A   1      29.603  25.885  24.700  1.00  0.00     0.451 C 
ATOM     23  F   UNL A   1      30.289  27.042  24.861  1.00  0.00    -0.185 F 
ATOM     24  F   UNL A   1      28.919  25.958  23.534  1.00  0.00    -0.185 F 
ENDBRANCH  20  22
ENDBRANCH  13  15
ENDBRANCH   8   9
ENDBRANCH   6   8
ENDBRANCH   5   6
ENDBRANCH   4   5
ENDBRANCH   3   4
ENDBRANCH   2   3
ENDBRANCH   1   2
BRANCH   1  25
ATOM     25  C   UNL A   1      33.802  26.439  25.148  1.00  0.00     0.188 C 
BRANCH  25  26
ATOM     26  O   UNL A   1      33.961  27.836  24.955  1.00  0.00    -0.376 OA
BRANCH  26  27
ATOM     27  C   UNL A   1      32.924  28.717  25.381  1.00  0.00     0.202 C 
BRANCH  27  28
ATOM     28  C   UNL A   1      32.778  28.993  26.884  1.00  0.00     0.261 C 
BRANCH  28  29
ATOM     29  O   UNL A   1      34.021  28.933  27.614  1.00  0.00    -0.460 OA
BRANCH  29  30
ATOM     30  C   UNL A   1      34.548  30.130  27.974  1.00  0.00     0.338 C 
ATOM     31  O   UNL A   1      33.959  31.189  28.099  1.00  0.00    -0.246 OA
BRANCH  30  32
ATOM     32  C   UNL A   1      35.966  29.978  28.357  1.00  0.00     0.060 A 
ATOM     33  C   UNL A   1      36.941  30.127  27.360  1.00  0.00     0.016 A 
ATOM     34  C   UNL A   1      36.331  29.590  29.647  1.00  0.00     0.016 A 
ATOM     35  C   UNL A   1      38.283  29.864  27.644  1.00  0.00     0.010 A 
ATOM     36  C   UNL A   1      37.676  29.302  29.923  1.00  0.00     0.010 A 
ATOM     37  C   UNL A   1      38.653  29.410  28.917  1.00  0.00    -0.014 A 
BRANCH  37  38
ATOM     38  C   UNL A   1      40.030  28.904  29.154  1.00  0.00     0.031 A 
ATOM     39  C   UNL A   1      41.041  29.809  29.805  1.00  0.00     0.074 A 
ATOM     40  C   UNL A   1      40.387  27.655  28.802  1.00  0.00     0.049 A 
ATOM     41  N   UNL A   1      42.312  29.603  30.039  1.00  0.00    -0.248 NA
ATOM     42  C   UNL A   1      40.552  31.124  30.251  1.00  0.00     0.031 C 
ATOM     43  C   UNL A   1      39.507  26.660  28.192  1.00  0.00     0.029 A 
ATOM     44  N   UNL A   1      41.602  27.021  28.893  1.00  0.00    -0.354 N 
ATOM     45  C   UNL A   1      42.776  30.759  30.654  1.00  0.00     0.074 A 
ATOM     46  C   UNL A   1      41.655  31.671  30.741  1.00  0.00     0.031 C 
ATOM     47  C   UNL A   1      40.221  25.548  27.936  1.00  0.00     0.029 A 
ATOM     48  C   UNL A   1      41.609  25.765  28.339  1.00  0.00     0.049 A 
ATOM     49  H   UNL A   1      42.392  27.430  29.315  1.00  0.00     0.167 HD
ATOM     50  C   UNL A   1      44.021  31.038  31.110  1.00  0.00     0.037 A 
ATOM     51  C   UNL A   1      42.628  24.904  28.148  1.00  0.00     0.037 A 
ATOM     52  C   UNL A   1      45.144  30.142  31.028  1.00  0.00     0.049 A 
ATOM     53  C   UNL A   1      44.022  25.274  28.587  1.00  0.00     0.074 A 
ATOM     54  C   UNL A   1      46.434  30.333  31.494  1.00  0.00     0.029 A 
ATOM     55  N   UNL A   1      45.116  28.892  30.433  1.00  0.00    -0.354 N 
ATOM     56  N   UNL A   1      44.442  26.354  29.197  1.00  0.00    -0.248 NA
ATOM     57  C   UNL A   1      45.087  24.298  28.301  1.00  0.00     0.031 C 
ATOM     58  C   UNL A   1      47.200  29.218  31.140  1.00  0.00     0.029 A 
ATOM     59  C   UNL A   1      46.374  28.313  30.494  1.00  0.00     0.049 A 
ATOM     60  H   UNL A   1      44.321  28.477  30.028  1.00  0.00     0.167 HD
ATOM     61  C   UNL A   1      45.808  26.179  29.385  1.00  0.00     0.074 A 
ATOM     62  C   UNL A   1      46.146  24.883  28.842  1.00  0.00     0.031 C 
ATOM     63  C   UNL A   1      46.703  27.020  29.957  1.00  0.00     0.037 A 
BRANCH  50  64
ATOM     64  C   UNL A   1      44.247  32.384  31.727  1.00  0.00     0.057 A 
ATOM     65  C   UNL A   1      44.630  33.491  30.960  1.00  0.00     0.134 A 
ATOM     66  C   UNL A   1      44.018  32.588  33.094  1.00  0.00     0.134 A 
ATOM     67  F   UNL A   1      44.874  33.356  29.648  1.00  0.00    -0.206 F 
ATOM     68  C   UNL A   1      44.788  34.754  31.534  1.00  0.00     0.040 A 
ATOM     69  C   UNL A   1      44.153  33.849  33.675  1.00  0.00     0.040 A 
ATOM     70  F   UNL A   1      43.645  31.568  33.881  1.00  0.00    -0.206 F 
ATOM     71  C   UNL A   1      44.541  34.936  32.893  1.00  0.00     0.006 A 
ENDBRANCH  50  64
BRANCH  51  72
ATOM     72  C   UNL A   1      42.403  23.617  27.448  1.00  0.00     0.057 A 
ATOM     73  C   UNL A   1      42.119  22.444  28.156  1.00  0.00     0.134 A 
ATOM     74  C   UNL A   1      42.578  23.515  26.063  1.00  0.00     0.134 A 
ATOM     75  F   UNL A   1      41.969  22.478  29.487  1.00  0.00    -0.206 F 
ATOM     76  C   UNL A   1      42.058  21.205  27.516  1.00  0.00     0.040 A 
ATOM     77  C   UNL A   1      42.499  22.285  25.409  1.00  0.00     0.040 A 
ATOM     78  F   UNL A   1      42.852  24.605  25.332  1.00  0.00    -0.206 F 
ATOM     79  C   UNL A   1      42.259  21.123  26.140  1.00  0.00     0.006 A 
ENDBRANCH  51  72
BRANCH  63  80
ATOM     80  C   UNL A   1      48.126  26.553  30.057  1.00  0.00     0.057 A 
ATOM     81  C   UNL A   1      49.068  26.838  29.061  1.00  0.00     0.134 A 
ATOM     82  C   UNL A   1      48.566  25.840  31.178  1.00  0.00     0.134 A 
ATOM     83  F   UNL A   1      48.707  27.504  27.954  1.00  0.00    -0.206 F 
ATOM     84  C   UNL A   1      50.393  26.411  29.167  1.00  0.00     0.040 A 
ATOM     85  C   UNL A   1      49.893  25.428  31.308  1.00  0.00     0.040 A 
ATOM     86  F   UNL A   1      47.715  25.539  32.172  1.00  0.00    -0.206 F 
ATOM     87  C   UNL A   1      50.811  25.709  30.298  1.00  0.00     0.006 A 
ENDBRANCH  63  80
ENDBRANCH  37  38
ENDBRANCH  30  32
ENDBRANCH  29  30
ENDBRANCH  28  29
ENDBRANCH  27  28
ENDBRANCH  26  27
ENDBRANCH  25  26
ENDBRANCH   1  25
TORSDOF 20
ENDMDL
MODEL 2
REMARK VINA RESULT:      -9.7      3.207      7.882
REMARK SMILES O=C(Cc1cccc(-c2ccn(C(F)F)c(=O)c2)c1)OCCOCCOCCOC(=O)c1ccc(-c2c3nc(c(-c4c(F)cccc4F)c4ccc([nH]4)c(-c4c(F)cccc4F)c4nc(c(-c5c(F)cccc5F)c5ccc2[nH]5)C=C4)C=C3)cc1
REMARK SMILES IDX 24 1 23 2 22 3 21 4 20 5 2 6 1 7 3 8 4 9 5 10 19 11 6 12
REMARK SMILES IDX 8 13 7 14 9 15 10 16 18 17 11 18 16 19 12 20 17 21 13 22
REMARK SMILES IDX 14 23 15 24 25 25 26 26 27 27 28 28 29 29 30 30 31 31 32 32
REMARK SMILES IDX 33 33 85 34 34 35 84 36 35 37 36 38 37 39 78 40 38 41 83 42
REMARK SMILES IDX 77 43 79 44 39 45 82 46 76 47 75 48 40 50 66 51 49 52 65 53
REMARK SMILES IDX 50 54 53 55 64 56 80 57 51 58 52 59 63 61 81 62 54 63 41 64
REMARK SMILES IDX 42 65 47 66 43 67 44 68 46 69 48 70 45 71 67 72 68 73 73 74
REMARK SMILES IDX 69 75 70 76 72 77 74 78 71 79 55 80 56 81 61 82 57 83 58 84
REMARK SMILES IDX 60 85 62 86 59 87
REMARK H PARENT 79 49 53 60
REMARK Flexibility Score: inf
ROOT
ATOM      1  C   UNL A   1      35.016  33.615  28.805  1.00  0.00     0.188 C 
ENDROOT
BRANCH   1   2
ATOM      2  O   UNL A   1      34.402  32.368  28.540  1.00  0.00    -0.376 OA
BRANCH   2   3
ATOM      3  C   UNL A   1      35.137  31.193  28.831  1.00  0.00     0.202 C 
BRANCH   3   4
ATOM      4  C   UNL A   1      35.314  30.232  27.660  1.00  0.00     0.261 C 
BRANCH   4   5
ATOM      5  O   UNL A   1      34.386  29.125  27.546  1.00  0.00    -0.463 OA
BRANCH   5   6
ATOM      6  C   UNL A   1      33.165  29.077  26.976  1.00  0.00     0.310 C 
ATOM      7  O   UNL A   1      32.233  28.554  27.587  1.00  0.00    -0.252 OA
BRANCH   6   8
ATOM      8  C   UNL A   1      32.978  29.514  25.550  1.00  0.00     0.158 C 
BRANCH   8   9
ATOM      9  C   UNL A   1      33.309  28.559  24.437  1.00  0.00    -0.036 A 
ATOM     10  C   UNL A   1      33.300  28.884  23.080  1.00  0.00     0.004 A 
ATOM     11  C   UNL A   1      33.595  27.234  24.810  1.00  0.00     0.013 A 
ATOM     12  C   UNL A   1      33.595  27.914  22.121  1.00  0.00     0.001 A 
ATOM     13  C   UNL A   1      33.807  26.236  23.853  1.00  0.00    -0.018 A 
ATOM     14  C   UNL A   1      33.836  26.593  22.502  1.00  0.00     0.009 A 
BRANCH  13  15
ATOM     15  C   UNL A   1      33.817  24.823  24.288  1.00  0.00    -0.011 A 
ATOM     16  C   UNL A   1      34.317  24.456  25.602  1.00  0.00     0.027 A 
ATOM     17  C   UNL A   1      33.317  23.862  23.493  1.00  0.00     0.080 A 
ATOM     18  C   UNL A   1      34.239  23.197  26.039  1.00  0.00     0.095 A 
ATOM     19  C   UNL A   1      33.234  22.449  23.963  1.00  0.00     0.255 A 
ATOM     20  N   UNL A   1      33.691  22.208  25.249  1.00  0.00    -0.258 N 
ATOM     21  O   UNL A   1      32.759  21.606  23.209  1.00  0.00    -0.269 OA
BRANCH  20  22
ATOM     22  C   UNL A   1      33.525  20.878  25.769  1.00  0.00     0.451 C 
ATOM     23  F   UNL A   1      34.433  20.027  25.233  1.00  0.00    -0.185 F 
ATOM     24  F   UNL A   1      33.665  20.850  27.116  1.00  0.00    -0.185 F 
ENDBRANCH  20  22
ENDBRANCH  13  15
ENDBRANCH   8   9
ENDBRANCH   6   8
ENDBRANCH   5   6
ENDBRANCH   4   5
ENDBRANCH   3   4
ENDBRANCH   2   3
ENDBRANCH   1   2
BRANCH   1  25
ATOM     25  C   UNL A   1      34.571  34.283  30.116  1.00  0.00     0.188 C 
BRANCH  25  26
ATOM     26  O   UNL A   1      35.462  34.289  31.220  1.00  0.00    -0.376 OA
BRANCH  26  27
ATOM     27  C   UNL A   1      34.934  34.449  32.535  1.00  0.00     0.202 C 
BRANCH  27  28
ATOM     28  C   UNL A   1      34.906  33.226  33.461  1.00  0.00     0.261 C 
BRANCH  28  29
ATOM     29  O   UNL A   1      35.636  32.090  32.954  1.00  0.00    -0.460 OA
BRANCH  29  30
ATOM     30  C   UNL A   1      36.833  31.850  33.545  1.00  0.00     0.338 C 
ATOM     31  O   UNL A   1      37.124  32.013  34.716  1.00  0.00    -0.246 OA
BRANCH  30  32
ATOM     32  C   UNL A   1      37.760  31.202  32.595  1.00  0.00     0.060 A 
ATOM     33  C   UNL A   1      38.875  30.527  33.112  1.00  0.00     0.016 A 
ATOM     34  C   UNL A   1      37.600  31.343  31.216  1.00  0.00     0.016 A 
ATOM     35  C   UNL A   1      39.847  30.012  32.252  1.00  0.00     0.010 A 
ATOM     36  C   UNL A   1      38.590  30.848  30.355  1.00  0.00     0.010 A 
ATOM     37  C   UNL A   1      39.731  30.205  30.869  1.00  0.00    -0.014 A 
BRANCH  37  38
ATOM     38  C   UNL A   1      40.870  29.873  29.975  1.00  0.00     0.031 A 
ATOM     39  C   UNL A   1      40.948  28.498  29.368  1.00  0.00     0.074 A 
ATOM     40  C   UNL A   1      41.826  30.778  29.695  1.00  0.00     0.049 A 
ATOM     41  N   UNL A   1      41.886  27.971  28.623  1.00  0.00    -0.248 NA
ATOM     42  C   UNL A   1      39.817  27.597  29.640  1.00  0.00     0.031 C 
ATOM     43  C   UNL A   1      41.864  32.154  30.185  1.00  0.00     0.029 A 
ATOM     44  N   UNL A   1      42.967  30.656  28.939  1.00  0.00    -0.354 N 
ATOM     45  C   UNL A   1      41.463  26.678  28.341  1.00  0.00     0.074 A 
ATOM     46  C   UNL A   1      40.192  26.493  29.010  1.00  0.00     0.031 C 
ATOM     47  C   UNL A   1      42.990  32.743  29.741  1.00  0.00     0.029 A 
ATOM     48  C   UNL A   1      43.760  31.776  28.959  1.00  0.00     0.049 A 
ATOM     49  H   UNL A   1      43.194  29.843  28.432  1.00  0.00     0.167 HD
ATOM     50  C   UNL A   1      42.072  25.729  27.589  1.00  0.00     0.037 A 
ATOM     51  C   UNL A   1      44.984  31.985  28.436  1.00  0.00     0.037 A 
ATOM     52  C   UNL A   1      43.335  25.898  26.921  1.00  0.00     0.049 A 
ATOM     53  C   UNL A   1      45.680  30.884  27.677  1.00  0.00     0.074 A 
ATOM     54  C   UNL A   1      44.010  24.998  26.113  1.00  0.00     0.029 A 
ATOM     55  N   UNL A   1      44.120  27.037  26.992  1.00  0.00    -0.354 N 
ATOM     56  N   UNL A   1      45.256  29.678  27.388  1.00  0.00    -0.248 NA
ATOM     57  C   UNL A   1      47.033  31.176  27.177  1.00  0.00     0.031 C 
ATOM     58  C   UNL A   1      45.225  25.574  25.732  1.00  0.00     0.029 A 
ATOM     59  C   UNL A   1      45.286  26.851  26.266  1.00  0.00     0.049 A 
ATOM     60  H   UNL A   1      43.884  27.856  27.484  1.00  0.00     0.167 HD
ATOM     61  C   UNL A   1      46.276  29.081  26.658  1.00  0.00     0.074 A 
ATOM     62  C   UNL A   1      47.334  30.058  26.532  1.00  0.00     0.031 C 
ATOM     63  C   UNL A   1      46.332  27.830  26.139  1.00  0.00     0.037 A 
BRANCH  50  64
ATOM     64  C   UNL A   1      41.388  24.403  27.461  1.00  0.00     0.057 A 
ATOM     65  C   UNL A   1      41.788  23.292  28.215  1.00  0.00     0.134 A 
ATOM     66  C   UNL A   1      40.278  24.252  26.620  1.00  0.00     0.134 A 
ATOM     67  F   UNL A   1      42.850  23.371  29.031  1.00  0.00    -0.206 F 
ATOM     68  C   UNL A   1      41.113  22.074  28.129  1.00  0.00     0.040 A 
ATOM     69  C   UNL A   1      39.584  23.045  26.540  1.00  0.00     0.040 A 
ATOM     70  F   UNL A   1      39.844  25.280  25.876  1.00  0.00    -0.206 F 
ATOM     71  C   UNL A   1      40.002  21.951  27.296  1.00  0.00     0.006 A 
ENDBRANCH  50  64
BRANCH  51  72
ATOM     72  C   UNL A   1      45.687  33.272  28.656  1.00  0.00     0.057 A 
ATOM     73  C   UNL A   1      45.593  34.319  27.733  1.00  0.00     0.134 A 
ATOM     74  C   UNL A   1      46.555  33.438  29.741  1.00  0.00     0.134 A 
ATOM     75  F   UNL A   1      44.799  34.203  26.659  1.00  0.00    -0.206 F 
ATOM     76  C   UNL A   1      46.371  35.472  27.857  1.00  0.00     0.040 A 
ATOM     77  C   UNL A   1      47.322  34.593  29.889  1.00  0.00     0.040 A 
ATOM     78  F   UNL A   1      46.686  32.469  30.658  1.00  0.00    -0.206 F 
ATOM     79  C   UNL A   1      47.245  35.605  28.933  1.00  0.00     0.006 A 
ENDBRANCH  51  72
BRANCH  63  80
ATOM     80  C   UNL A   1      47.559  27.458  25.359  1.00  0.00     0.057 A 
ATOM     81  C   UNL A   1      48.659  26.838  25.964  1.00  0.00     0.134 A 
ATOM     82  C   UNL A   1      47.627  27.693  23.980  1.00  0.00     0.134 A 
ATOM     83  F   UNL A   1      48.663  26.599  27.284  1.00  0.00    -0.206 F 
ATOM     84  C   UNL A   1      49.792  26.483  25.228  1.00  0.00     0.040 A 
ATOM     85  C   UNL A   1      48.743  27.321  23.230  1.00  0.00     0.040 A 
ATOM     86  F   UNL A   1      46.604  28.279  23.337  1.00  0.00    -0.206 F 
ATOM     87  C   UNL A   1      49.833  26.718  23.855  1.00  0.00     0.006 A 
ENDBRANCH  63  80
ENDBRANCH  37  38
ENDBRANCH  30  32
ENDBRANCH  29  30
ENDBRANCH  28  29
ENDBRANCH  27  28
ENDBRANCH  26  27
ENDBRANCH  25  26
ENDBRANCH   1  25
TORSDOF 20
ENDMDL
MODEL 3
REMARK VINA RESULT:      -9.7      2.912      7.688
REMARK SMILES O=C(Cc1cccc(-c2ccn(C(F)F)c(=O)c2)c1)OCCOCCOCCOC(=O)c1ccc(-c2c3nc(c(-c4c(F)cccc4F)c4ccc([nH]4)c(-c4c(F)cccc4F)c4nc(c(-c5c(F)cccc5F)c5ccc2[nH]5)C=C4)C=C3)cc1
REMARK SMILES IDX 24 1 23 2 22 3 21 4 20 5 2 6 1 7 3 8 4 9 5 10 19 11 6 12
REMARK SMILES IDX 8 13 7 14 9 15 10 16 18 17 11 18 16 19 12 20 17 21 13 22
REMARK SMILES IDX 14 23 15 24 25 25 26 26 27 27 28 28 29 29 30 30 31 31 32 32
REMARK SMILES IDX 33 33 85 34 34 35 84 36 35 37 36 38 37 39 78 40 38 41 83 42
REMARK SMILES IDX 77 43 79 44 39 45 82 46 76 47 75 48 40 50 66 51 49 52 65 53
REMARK SMILES IDX 50 54 53 55 64 56 80 57 51 58 52 59 63 61 81 62 54 63 41 64
REMARK SMILES IDX 42 65 47 66 43 67 44 68 46 69 48 70 45 71 67 72 68 73 73 74
REMARK SMILES IDX 69 75 70 76 72 77 74 78 71 79 55 80 56 81 61 82 57 83 58 84
REMARK SMILES IDX 60 85 62 86 59 87
REMARK H PARENT 79 49 53 60
REMARK Flexibility Score: inf
ROOT
ATOM      1  C   UNL A   1      34.633  33.696  28.154  1.00  0.00     0.188 C 
ENDROOT
BRANCH   1   2
ATOM      2  O   UNL A   1      33.964  32.458  28.018  1.00  0.00    -0.376 OA
BRANCH   2   3
ATOM      3  C   UNL A   1      34.703  31.274  28.262  1.00  0.00     0.202 C 
BRANCH   3   4
ATOM      4  C   UNL A   1      34.494  30.158  27.244  1.00  0.00     0.261 C 
BRANCH   4   5
ATOM      5  O   UNL A   1      33.487  29.157  27.533  1.00  0.00    -0.463 OA
BRANCH   5   6
ATOM      6  C   UNL A   1      32.168  29.152  27.250  1.00  0.00     0.310 C 
ATOM      7  O   UNL A   1      31.420  28.397  27.871  1.00  0.00    -0.252 OA
BRANCH   6   8
ATOM      8  C   UNL A   1      31.642  29.940  26.084  1.00  0.00     0.158 C 
BRANCH   8   9
ATOM      9  C   UNL A   1      31.229  29.219  24.832  1.00  0.00    -0.036 A 
ATOM     10  C   UNL A   1      30.311  29.704  23.899  1.00  0.00     0.004 A 
ATOM     11  C   UNL A   1      31.778  27.941  24.632  1.00  0.00     0.013 A 
ATOM     12  C   UNL A   1      29.973  28.941  22.781  1.00  0.00     0.001 A 
ATOM     13  C   UNL A   1      31.381  27.133  23.561  1.00  0.00    -0.018 A 
ATOM     14  C   UNL A   1      30.494  27.656  22.617  1.00  0.00     0.009 A 
BRANCH  13  15
ATOM     15  C   UNL A   1      31.769  25.707  23.562  1.00  0.00    -0.011 A 
ATOM     16  C   UNL A   1      30.771  24.668  23.376  1.00  0.00     0.027 A 
ATOM     17  C   UNL A   1      33.059  25.351  23.687  1.00  0.00     0.080 A 
ATOM     18  C   UNL A   1      31.126  23.384  23.279  1.00  0.00     0.095 A 
ATOM     19  C   UNL A   1      33.469  23.920  23.592  1.00  0.00     0.255 A 
ATOM     20  N   UNL A   1      32.451  23.009  23.364  1.00  0.00    -0.258 N 
ATOM     21  O   UNL A   1      34.660  23.642  23.699  1.00  0.00    -0.269 OA
BRANCH  20  22
ATOM     22  C   UNL A   1      32.827  21.636  23.161  1.00  0.00     0.451 C 
ATOM     23  F   UNL A   1      33.251  21.070  24.316  1.00  0.00    -0.185 F 
ATOM     24  F   UNL A   1      31.792  20.903  22.687  1.00  0.00    -0.185 F 
ENDBRANCH  20  22
ENDBRANCH  13  15
ENDBRANCH   8   9
ENDBRANCH   6   8
ENDBRANCH   5   6
ENDBRANCH   4   5
ENDBRANCH   3   4
ENDBRANCH   2   3
ENDBRANCH   1   2
BRANCH   1  25
ATOM     25  C   UNL A   1      34.232  34.508  29.396  1.00  0.00     0.188 C 
BRANCH  25  26
ATOM     26  O   UNL A   1      35.039  34.427  30.561  1.00  0.00    -0.376 OA
BRANCH  26  27
ATOM     27  C   UNL A   1      34.407  34.389  31.838  1.00  0.00     0.202 C 
BRANCH  27  28
ATOM     28  C   UNL A   1      34.367  33.051  32.589  1.00  0.00     0.261 C 
BRANCH  28  29
ATOM     29  O   UNL A   1      35.283  32.062  32.076  1.00  0.00    -0.460 OA
BRANCH  29  30
ATOM     30  C   UNL A   1      36.450  31.934  32.756  1.00  0.00     0.338 C 
ATOM     31  O   UNL A   1      36.661  32.225  33.920  1.00  0.00    -0.246 OA
BRANCH  30  32
ATOM     32  C   UNL A   1      37.457  31.235  31.932  1.00  0.00     0.060 A 
ATOM     33  C   UNL A   1      38.520  30.596  32.585  1.00  0.00     0.016 A 
ATOM     34  C   UNL A   1      37.420  31.295  30.538  1.00  0.00     0.016 A 
ATOM     35  C   UNL A   1      39.564  30.035  31.847  1.00  0.00     0.010 A 
ATOM     36  C   UNL A   1      38.483  30.754  29.800  1.00  0.00     0.010 A 
ATOM     37  C   UNL A   1      39.573  30.147  30.450  1.00  0.00    -0.014 A 
BRANCH  37  38
ATOM     38  C   UNL A   1      40.786  29.768  29.682  1.00  0.00     0.031 A 
ATOM     39  C   UNL A   1      40.914  28.361  29.162  1.00  0.00     0.074 A 
ATOM     40  C   UNL A   1      41.767  30.656  29.440  1.00  0.00     0.049 A 
ATOM     41  N   UNL A   1      41.913  27.795  28.534  1.00  0.00    -0.248 NA
ATOM     42  C   UNL A   1      39.759  27.475  29.380  1.00  0.00     0.031 C 
ATOM     43  C   UNL A   1      41.766  32.058  29.855  1.00  0.00     0.029 A 
ATOM     44  N   UNL A   1      42.971  30.495  28.798  1.00  0.00    -0.354 N 
ATOM     45  C   UNL A   1      41.512  26.487  28.286  1.00  0.00     0.074 A 
ATOM     46  C   UNL A   1      40.186  26.338  28.847  1.00  0.00     0.031 C 
ATOM     47  C   UNL A   1      42.929  32.622  29.482  1.00  0.00     0.029 A 
ATOM     48  C   UNL A   1      43.763  31.616  28.828  1.00  0.00     0.049 A 
ATOM     49  H   UNL A   1      43.239  29.656  28.359  1.00  0.00     0.167 HD
ATOM     50  C   UNL A   1      42.183  25.500  27.646  1.00  0.00     0.037 A 
ATOM     51  C   UNL A   1      45.030  31.797  28.407  1.00  0.00     0.037 A 
ATOM     52  C   UNL A   1      43.502  25.633  27.087  1.00  0.00     0.049 A 
ATOM     53  C   UNL A   1      45.787  30.656  27.775  1.00  0.00     0.074 A 
ATOM     54  C   UNL A   1      44.243  24.691  26.394  1.00  0.00     0.029 A 
ATOM     55  N   UNL A   1      44.281  26.775  27.165  1.00  0.00    -0.354 N 
ATOM     56  N   UNL A   1      45.386  29.436  27.516  1.00  0.00    -0.248 NA
ATOM     57  C   UNL A   1      47.181  30.922  27.383  1.00  0.00     0.031 C 
ATOM     58  C   UNL A   1      45.491  25.247  26.093  1.00  0.00     0.029 A 
ATOM     59  C   UNL A   1      45.507  26.552  26.559  1.00  0.00     0.049 A 
ATOM     60  H   UNL A   1      44.005  27.620  27.587  1.00  0.00     0.167 HD
ATOM     61  C   UNL A   1      46.467  28.800  26.914  1.00  0.00     0.074 A 
ATOM     62  C   UNL A   1      47.535  29.771  26.831  1.00  0.00     0.031 C 
ATOM     63  C   UNL A   1      46.564  27.523  26.473  1.00  0.00     0.037 A 
BRANCH  50  64
ATOM     64  C   UNL A   1      41.509  24.167  27.530  1.00  0.00     0.057 A 
ATOM     65  C   UNL A   1      40.472  23.944  26.616  1.00  0.00     0.134 A 
ATOM     66  C   UNL A   1      41.944  23.080  28.298  1.00  0.00     0.134 A 
ATOM     67  F   UNL A   1      40.005  24.949  25.860  1.00  0.00    -0.206 F 
ATOM     68  C   UNL A   1      39.884  22.686  26.477  1.00  0.00     0.040 A 
ATOM     69  C   UNL A   1      41.377  21.813  28.154  1.00  0.00     0.040 A 
ATOM     70  F   UNL A   1      42.937  23.229  29.188  1.00  0.00    -0.206 F 
ATOM     71  C   UNL A   1      40.343  21.615  27.241  1.00  0.00     0.006 A 
ENDBRANCH  50  64
BRANCH  51  72
ATOM     72  C   UNL A   1      45.715  33.095  28.617  1.00  0.00     0.057 A 
ATOM     73  C   UNL A   1      46.386  33.378  29.812  1.00  0.00     0.134 A 
ATOM     74  C   UNL A   1      45.617  34.119  27.668  1.00  0.00     0.134 A 
ATOM     75  F   UNL A   1      46.485  32.444  30.768  1.00  0.00    -0.206 F 
ATOM     76  C   UNL A   1      46.900  34.649  30.074  1.00  0.00     0.040 A 
ATOM     77  C   UNL A   1      46.144  35.387  27.909  1.00  0.00     0.040 A 
ATOM     78  F   UNL A   1      44.986  33.906  26.504  1.00  0.00    -0.206 F 
ATOM     79  C   UNL A   1      46.770  35.660  29.124  1.00  0.00     0.006 A 
ENDBRANCH  51  72
BRANCH  63  80
ATOM     80  C   UNL A   1      47.855  27.110  25.828  1.00  0.00     0.057 A 
ATOM     81  C   UNL A   1      48.079  27.270  24.455  1.00  0.00     0.134 A 
ATOM     82  C   UNL A   1      48.898  26.577  26.595  1.00  0.00     0.134 A 
ATOM     83  F   UNL A   1      47.114  27.760  23.661  1.00  0.00    -0.206 F 
ATOM     84  C   UNL A   1      49.288  26.895  23.865  1.00  0.00     0.040 A 
ATOM     85  C   UNL A   1      50.119  26.222  26.022  1.00  0.00     0.040 A 
ATOM     86  F   UNL A   1      48.751  26.404  27.918  1.00  0.00    -0.206 F 
ATOM     87  C   UNL A   1      50.315  26.376  24.650  1.00  0.00     0.006 A 
ENDBRANCH  63  80
ENDBRANCH  37  38
ENDBRANCH  30  32
ENDBRANCH  29  30
ENDBRANCH  28  29
ENDBRANCH  27  28
ENDBRANCH  26  27
ENDBRANCH  25  26
ENDBRANCH   1  25
TORSDOF 20
ENDMDL
