MODEL 1
REMARK VINA RESULT:     -12.2      0.000      0.000
REMARK SMILES NC(=O)c1c(-c2ccc(Cl)cc2)csc1NC(=O)[C@H]1[C@@H](C(=O)OCCOCCOCCOC(=O)c2ccc(-c3c4nc(c(-c5c(F)cccc5F)c5ccc([nH]5)c(-c5c(F)cccc5F)c5nc(c(-c6c(F)cccc6F)c6ccc3[nH]6)C=C5)C=C4)cc2)[C@@H]2CC[C@H]1O2
REMARK SMILES IDX 27 1 26 2 25 3 24 4 23 5 21 6 22 7 20 8 19 9 92 10 89 11
REMARK SMILES IDX 91 12 93 13 90 14 17 15 16 16 18 18 15 19 4 20 5 21 13 22
REMARK SMILES IDX 14 23 2 24 1 25 3 28 6 29 7 30 12 31 8 32 11 33 9 34 10 35
REMARK SMILES IDX 28 36 29 37 30 38 31 39 32 40 33 41 34 42 35 43 36 44 88 45
REMARK SMILES IDX 37 46 87 47 38 48 39 49 40 50 81 51 41 52 86 53 80 54 82 55
REMARK SMILES IDX 42 56 85 57 79 58 78 59 43 61 69 62 52 63 68 64 53 65 56 66
REMARK SMILES IDX 67 67 83 68 54 69 55 70 66 72 84 73 57 74 44 75 45 76 50 77
REMARK SMILES IDX 46 78 47 79 49 80 51 81 48 82 70 83 71 84 76 85 72 86 73 87
REMARK SMILES IDX 75 88 77 89 74 90 58 91 59 92 64 93 60 94 61 95 63 96 65 97
REMARK SMILES IDX 62 98
REMARK H PARENT 16 17 1 26 1 27 82 60 56 71
REMARK Flexibility Score: inf
ROOT
ATOM      1  C   UNL A   1      41.754  19.892  27.266  1.00  0.00     0.188 C 
ENDROOT
BRANCH   1   2
ATOM      2  O   UNL A   1      40.551  20.689  27.405  1.00  0.00    -0.376 OA
BRANCH   2   3
ATOM      3  C   UNL A   1      39.899  21.595  26.503  1.00  0.00     0.202 C 
BRANCH   3   4
ATOM      4  C   UNL A   1      38.667  20.845  25.736  1.00  0.00     0.261 C 
BRANCH   4   5
ATOM      5  O   UNL A   1      37.750  21.730  24.969  1.00  0.00    -0.463 OA
BRANCH   5   6
ATOM      6  C   UNL A   1      36.629  22.355  25.537  1.00  0.00     0.312 C 
ATOM      7  O   UNL A   1      36.665  23.423  26.129  1.00  0.00    -0.252 OA
BRANCH   6   8
ATOM      8  C   UNL A   1      35.332  21.497  25.274  1.00  0.00     0.143 C 
ATOM      9  C   UNL A   1      34.822  21.810  23.893  1.00  0.00     0.124 C 
ATOM     10  C   UNL A   1      33.331  21.803  23.899  1.00  0.00     0.132 C 
ATOM     11  C   UNL A   1      33.954  21.640  25.988  1.00  0.00     0.133 C 
ATOM     12  C   UNL A   1      32.808  20.425  24.245  1.00  0.00     0.035 C 
ATOM     13  O   UNL A   1      33.140  22.502  25.127  1.00  0.00    -0.373 OA
ATOM     14  C   UNL A   1      33.058  20.401  25.763  1.00  0.00     0.036 C 
BRANCH   9  15
ATOM     15  C   UNL A   1      35.249  23.141  23.412  1.00  0.00     0.231 C 
ATOM     16  N   UNL A   1      34.884  24.406  23.745  1.00  0.00    -0.317 N 
ATOM     17  H   UNL A   1      35.648  24.965  23.478  1.00  0.00     0.170 HD
ATOM     18  O   UNL A   1      36.258  23.004  22.707  1.00  0.00    -0.274 OA
BRANCH  16  19
ATOM     19  C   UNL A   1      33.963  25.295  24.275  1.00  0.00     0.108 A 
ATOM     20  C   UNL A   1      33.104  26.122  23.533  1.00  0.00     0.082 A 
ATOM     21  C   UNL A   1      32.081  26.705  24.357  1.00  0.00     0.007 A 
ATOM     22  C   UNL A   1      32.284  26.448  25.688  1.00  0.00     0.076 A 
ATOM     23  S   UNL A   1      33.630  25.433  25.921  1.00  0.00    -0.125 S 
BRANCH  20  24
ATOM     24  C   UNL A   1      33.040  26.333  22.084  1.00  0.00     0.252 C 
ATOM     25  N   UNL A   1      33.642  27.477  21.633  1.00  0.00    -0.365 N 
ATOM     26  H   UNL A   1      33.641  27.688  20.672  1.00  0.00     0.159 HD
ATOM     27  H   UNL A   1      34.076  28.088  22.271  1.00  0.00     0.159 HD
ATOM     28  O   UNL A   1      32.368  25.644  21.330  1.00  0.00    -0.269 OA
ENDBRANCH  20  24
BRANCH  21  29
ATOM     29  C   UNL A   1      30.932  27.431  23.839  1.00  0.00    -0.017 A 
ATOM     30  C   UNL A   1      29.679  26.821  23.769  1.00  0.00     0.010 A 
ATOM     31  C   UNL A   1      31.053  28.812  23.606  1.00  0.00     0.010 A 
ATOM     32  C   UNL A   1      28.552  27.592  23.473  1.00  0.00     0.021 A 
ATOM     33  C   UNL A   1      29.926  29.581  23.322  1.00  0.00     0.021 A 
ATOM     34  C   UNL A   1      28.679  28.966  23.258  1.00  0.00     0.041 A 
ATOM     35  Cl  UNL A   1      27.279  29.915  22.944  1.00  0.00    -0.084 Cl
ENDBRANCH  21  29
ENDBRANCH  16  19
ENDBRANCH   9  15
ENDBRANCH   6   8
ENDBRANCH   5   6
ENDBRANCH   4   5
ENDBRANCH   3   4
ENDBRANCH   2   3
ENDBRANCH   1   2
BRANCH   1  36
ATOM     36  C   UNL A   1      42.276  19.159  26.008  1.00  0.00     0.188 C 
BRANCH  36  37
ATOM     37  O   UNL A   1      42.926  19.964  25.036  1.00  0.00    -0.376 OA
BRANCH  37  38
ATOM     38  C   UNL A   1      44.315  20.163  25.209  1.00  0.00     0.202 C 
BRANCH  38  39
ATOM     39  C   UNL A   1      44.771  21.558  25.671  1.00  0.00     0.261 C 
BRANCH  39  40
ATOM     40  O   UNL A   1      43.733  22.520  25.985  1.00  0.00    -0.460 OA
BRANCH  40  41
ATOM     41  C   UNL A   1      43.797  23.689  25.295  1.00  0.00     0.338 C 
ATOM     42  O   UNL A   1      44.465  23.905  24.289  1.00  0.00    -0.246 OA
BRANCH  41  43
ATOM     43  C   UNL A   1      42.958  24.763  25.875  1.00  0.00     0.060 A 
ATOM     44  C   UNL A   1      43.421  26.087  25.831  1.00  0.00     0.016 A 
ATOM     45  C   UNL A   1      41.882  24.437  26.707  1.00  0.00     0.016 A 
ATOM     46  C   UNL A   1      42.855  27.068  26.663  1.00  0.00     0.010 A 
ATOM     47  C   UNL A   1      41.317  25.422  27.536  1.00  0.00     0.010 A 
ATOM     48  C   UNL A   1      41.836  26.730  27.565  1.00  0.00    -0.014 A 
BRANCH  48  49
ATOM     49  C   UNL A   1      41.449  27.649  28.682  1.00  0.00     0.031 A 
ATOM     50  C   UNL A   1      42.209  27.567  29.988  1.00  0.00     0.074 A 
ATOM     51  C   UNL A   1      40.438  28.532  28.575  1.00  0.00     0.049 A 
ATOM     52  N   UNL A   1      41.967  28.144  31.139  1.00  0.00    -0.248 NA
ATOM     53  C   UNL A   1      43.403  26.706  29.990  1.00  0.00     0.031 C 
ATOM     54  C   UNL A   1      39.650  28.775  27.371  1.00  0.00     0.029 A 
ATOM     55  N   UNL A   1      39.886  29.374  29.515  1.00  0.00    -0.354 N 
ATOM     56  C   UNL A   1      42.960  27.699  32.006  1.00  0.00     0.074 A 
ATOM     57  C   UNL A   1      43.793  26.786  31.254  1.00  0.00     0.031 C 
ATOM     58  C   UNL A   1      38.702  29.688  27.648  1.00  0.00     0.029 A 
ATOM     59  C   UNL A   1      38.788  30.065  29.060  1.00  0.00     0.049 A 
ATOM     60  H   UNL A   1      40.246  29.474  30.426  1.00  0.00     0.167 HD
ATOM     61  C   UNL A   1      43.167  28.019  33.307  1.00  0.00     0.037 A 
ATOM     62  C   UNL A   1      37.932  30.879  29.712  1.00  0.00     0.037 A 
ATOM     63  C   UNL A   1      42.349  28.934  34.063  1.00  0.00     0.049 A 
ATOM     64  C   UNL A   1      38.129  31.159  31.183  1.00  0.00     0.074 A 
ATOM     65  C   UNL A   1      42.492  29.332  35.382  1.00  0.00     0.029 A 
ATOM     66  N   UNL A   1      41.233  29.590  33.568  1.00  0.00    -0.354 N 
ATOM     67  N   UNL A   1      39.072  30.735  31.991  1.00  0.00    -0.248 NA
ATOM     68  C   UNL A   1      37.138  32.032  31.833  1.00  0.00     0.031 C 
ATOM     69  C   UNL A   1      41.431  30.185  35.701  1.00  0.00     0.029 A 
ATOM     70  C   UNL A   1      40.663  30.369  34.563  1.00  0.00     0.049 A 
ATOM     71  H   UNL A   1      40.895  29.514  32.647  1.00  0.00     0.167 HD
ATOM     72  C   UNL A   1      38.809  31.317  33.226  1.00  0.00     0.074 A 
ATOM     73  C   UNL A   1      37.624  32.132  33.062  1.00  0.00     0.031 C 
ATOM     74  C   UNL A   1      39.491  31.190  34.392  1.00  0.00     0.037 A 
BRANCH  61  75
ATOM     75  C   UNL A   1      44.312  27.349  34.016  1.00  0.00     0.057 A 
ATOM     76  C   UNL A   1      45.578  27.941  34.111  1.00  0.00     0.134 A 
ATOM     77  C   UNL A   1      44.132  26.109  34.643  1.00  0.00     0.134 A 
ATOM     78  F   UNL A   1      45.822  29.124  33.526  1.00  0.00    -0.206 F 
ATOM     79  C   UNL A   1      46.630  27.312  34.778  1.00  0.00     0.040 A 
ATOM     80  C   UNL A   1      45.169  25.484  35.340  1.00  0.00     0.040 A 
ATOM     81  F   UNL A   1      42.943  25.490  34.602  1.00  0.00    -0.206 F 
ATOM     82  C   UNL A   1      46.425  26.082  35.402  1.00  0.00     0.006 A 
ENDBRANCH  61  75
BRANCH  62  83
ATOM     83  C   UNL A   1      36.779  31.484  28.992  1.00  0.00     0.057 A 
ATOM     84  C   UNL A   1      36.781  32.834  28.622  1.00  0.00     0.134 A 
ATOM     85  C   UNL A   1      35.629  30.740  28.697  1.00  0.00     0.134 A 
ATOM     86  F   UNL A   1      37.837  33.610  28.908  1.00  0.00    -0.206 F 
ATOM     87  C   UNL A   1      35.679  33.427  28.002  1.00  0.00     0.040 A 
ATOM     88  C   UNL A   1      34.531  31.312  28.051  1.00  0.00     0.040 A 
ATOM     89  F   UNL A   1      35.556  29.443  29.031  1.00  0.00    -0.206 F 
ATOM     90  C   UNL A   1      34.551  32.663  27.709  1.00  0.00     0.006 A 
ENDBRANCH  62  83
BRANCH  74  91
ATOM     91  C   UNL A   1      39.012  31.988  35.574  1.00  0.00     0.057 A 
ATOM     92  C   UNL A   1      38.201  31.431  36.571  1.00  0.00     0.134 A 
ATOM     93  C   UNL A   1      39.406  33.323  35.736  1.00  0.00     0.134 A 
ATOM     94  F   UNL A   1      37.779  30.162  36.476  1.00  0.00    -0.206 F 
ATOM     95  C   UNL A   1      37.777  32.181  37.672  1.00  0.00     0.040 A 
ATOM     96  C   UNL A   1      39.013  34.074  36.847  1.00  0.00     0.040 A 
ATOM     97  F   UNL A   1      40.192  33.918  34.826  1.00  0.00    -0.206 F 
ATOM     98  C   UNL A   1      38.190  33.504  37.815  1.00  0.00     0.006 A 
ENDBRANCH  74  91
ENDBRANCH  48  49
ENDBRANCH  41  43
ENDBRANCH  40  41
ENDBRANCH  39  40
ENDBRANCH  38  39
ENDBRANCH  37  38
ENDBRANCH  36  37
ENDBRANCH   1  36
TORSDOF 21
ENDMDL
MODEL 2
REMARK VINA RESULT:     -12.0      1.217      2.017
REMARK SMILES NC(=O)c1c(-c2ccc(Cl)cc2)csc1NC(=O)[C@H]1[C@@H](C(=O)OCCOCCOCCOC(=O)c2ccc(-c3c4nc(c(-c5c(F)cccc5F)c5ccc([nH]5)c(-c5c(F)cccc5F)c5nc(c(-c6c(F)cccc6F)c6ccc3[nH]6)C=C5)C=C4)cc2)[C@@H]2CC[C@H]1O2
REMARK SMILES IDX 27 1 26 2 25 3 24 4 23 5 21 6 22 7 20 8 19 9 92 10 89 11
REMARK SMILES IDX 91 12 93 13 90 14 17 15 16 16 18 18 15 19 4 20 5 21 13 22
REMARK SMILES IDX 14 23 2 24 1 25 3 28 6 29 7 30 12 31 8 32 11 33 9 34 10 35
REMARK SMILES IDX 28 36 29 37 30 38 31 39 32 40 33 41 34 42 35 43 36 44 88 45
REMARK SMILES IDX 37 46 87 47 38 48 39 49 40 50 81 51 41 52 86 53 80 54 82 55
REMARK SMILES IDX 42 56 85 57 79 58 78 59 43 61 69 62 52 63 68 64 53 65 56 66
REMARK SMILES IDX 67 67 83 68 54 69 55 70 66 72 84 73 57 74 44 75 45 76 50 77
REMARK SMILES IDX 46 78 47 79 49 80 51 81 48 82 70 83 71 84 76 85 72 86 73 87
REMARK SMILES IDX 75 88 77 89 74 90 58 91 59 92 64 93 60 94 61 95 63 96 65 97
REMARK SMILES IDX 62 98
REMARK H PARENT 16 17 1 26 1 27 82 60 56 71
REMARK Flexibility Score: inf
ROOT
ATOM      1  C   UNL A   1      39.976  20.946  26.507  1.00  0.00     0.188 C 
ENDROOT
BRANCH   1   2
ATOM      2  O   UNL A   1      39.153  22.015  25.975  1.00  0.00    -0.376 OA
BRANCH   2   3
ATOM      3  C   UNL A   1      37.754  22.073  25.661  1.00  0.00     0.202 C 
BRANCH   3   4
ATOM      4  C   UNL A   1      37.156  23.554  26.002  1.00  0.00     0.261 C 
BRANCH   4   5
ATOM      5  O   UNL A   1      35.676  23.637  26.136  1.00  0.00    -0.463 OA
BRANCH   5   6
ATOM      6  C   UNL A   1      34.819  23.904  25.056  1.00  0.00     0.312 C 
ATOM      7  O   UNL A   1      34.695  25.001  24.534  1.00  0.00    -0.252 OA
BRANCH   6   8
ATOM      8  C   UNL A   1      34.074  22.587  24.612  1.00  0.00     0.143 C 
ATOM      9  C   UNL A   1      32.668  22.627  25.147  1.00  0.00     0.124 C 
ATOM     10  C   UNL A   1      32.250  21.255  25.554  1.00  0.00     0.132 C 
ATOM     11  C   UNL A   1      34.382  21.133  25.084  1.00  0.00     0.133 C 
ATOM     12  C   UNL A   1      32.224  20.330  24.356  1.00  0.00     0.035 C 
ATOM     13  O   UNL A   1      33.463  20.866  26.195  1.00  0.00    -0.373 OA
ATOM     14  C   UNL A   1      33.730  20.079  24.161  1.00  0.00     0.036 C 
BRANCH   9  15
ATOM     15  C   UNL A   1      32.532  23.495  26.336  1.00  0.00     0.231 C 
ATOM     16  N   UNL A   1      32.147  24.787  26.500  1.00  0.00    -0.317 N 
ATOM     17  H   UNL A   1      31.843  24.841  27.434  1.00  0.00     0.170 HD
ATOM     18  O   UNL A   1      32.628  22.794  27.353  1.00  0.00    -0.274 OA
BRANCH  16  19
ATOM     19  C   UNL A   1      31.973  26.066  25.996  1.00  0.00     0.108 A 
ATOM     20  C   UNL A   1      31.391  26.386  24.758  1.00  0.00     0.082 A 
ATOM     21  C   UNL A   1      31.094  27.788  24.655  1.00  0.00     0.007 A 
ATOM     22  C   UNL A   1      31.593  28.499  25.715  1.00  0.00     0.076 A 
ATOM     23  S   UNL A   1      32.317  27.471  26.861  1.00  0.00    -0.125 S 
BRANCH  20  24
ATOM     24  C   UNL A   1      30.947  25.495  23.683  1.00  0.00     0.252 C 
ATOM     25  N   UNL A   1      29.776  24.828  23.922  1.00  0.00    -0.365 N 
ATOM     26  H   UNL A   1      29.413  24.212  23.247  1.00  0.00     0.159 HD
ATOM     27  H   UNL A   1      29.297  24.965  24.772  1.00  0.00     0.159 HD
ATOM     28  O   UNL A   1      31.630  25.222  22.706  1.00  0.00    -0.269 OA
ENDBRANCH  20  24
BRANCH  21  29
ATOM     29  C   UNL A   1      30.303  28.376  23.586  1.00  0.00    -0.017 A 
ATOM     30  C   UNL A   1      28.910  28.311  23.613  1.00  0.00     0.010 A 
ATOM     31  C   UNL A   1      30.948  29.189  22.637  1.00  0.00     0.010 A 
ATOM     32  C   UNL A   1      28.165  29.061  22.698  1.00  0.00     0.021 A 
ATOM     33  C   UNL A   1      30.203  29.945  21.733  1.00  0.00     0.021 A 
ATOM     34  C   UNL A   1      28.814  29.878  21.769  1.00  0.00     0.041 A 
ATOM     35  Cl  UNL A   1      27.887  30.835  20.681  1.00  0.00    -0.084 Cl
ENDBRANCH  21  29
ENDBRANCH  16  19
ENDBRANCH   9  15
ENDBRANCH   6   8
ENDBRANCH   5   6
ENDBRANCH   4   5
ENDBRANCH   3   4
ENDBRANCH   2   3
ENDBRANCH   1   2
BRANCH   1  36
ATOM     36  C   UNL A   1      40.392  19.626  25.818  1.00  0.00     0.188 C 
BRANCH  36  37
ATOM     37  O   UNL A   1      41.772  19.484  25.512  1.00  0.00    -0.376 OA
BRANCH  37  38
ATOM     38  C   UNL A   1      42.671  20.254  26.285  1.00  0.00     0.202 C 
BRANCH  38  39
ATOM     39  C   UNL A   1      43.505  21.312  25.542  1.00  0.00     0.261 C 
BRANCH  39  40
ATOM     40  O   UNL A   1      42.786  22.426  24.956  1.00  0.00    -0.460 OA
BRANCH  40  41
ATOM     41  C   UNL A   1      43.435  23.619  24.990  1.00  0.00     0.338 C 
ATOM     42  O   UNL A   1      44.564  23.847  24.567  1.00  0.00    -0.246 OA
BRANCH  41  43
ATOM     43  C   UNL A   1      42.645  24.703  25.621  1.00  0.00     0.060 A 
ATOM     44  C   UNL A   1      43.107  26.024  25.526  1.00  0.00     0.016 A 
ATOM     45  C   UNL A   1      41.635  24.389  26.535  1.00  0.00     0.016 A 
ATOM     46  C   UNL A   1      42.608  27.016  26.388  1.00  0.00     0.010 A 
ATOM     47  C   UNL A   1      41.137  25.385  27.394  1.00  0.00     0.010 A 
ATOM     48  C   UNL A   1      41.660  26.692  27.369  1.00  0.00    -0.014 A 
BRANCH  48  49
ATOM     49  C   UNL A   1      41.361  27.624  28.502  1.00  0.00     0.031 A 
ATOM     50  C   UNL A   1      42.199  27.534  29.758  1.00  0.00     0.074 A 
ATOM     51  C   UNL A   1      40.361  28.525  28.453  1.00  0.00     0.049 A 
ATOM     52  N   UNL A   1      42.040  28.122  30.918  1.00  0.00    -0.248 NA
ATOM     53  C   UNL A   1      43.374  26.650  29.692  1.00  0.00     0.031 C 
ATOM     54  C   UNL A   1      39.504  28.777  27.298  1.00  0.00     0.029 A 
ATOM     55  N   UNL A   1      39.886  29.383  29.419  1.00  0.00    -0.354 N 
ATOM     56  C   UNL A   1      43.077  27.662  31.725  1.00  0.00     0.074 A 
ATOM     57  C   UNL A   1      43.844  26.730  30.928  1.00  0.00     0.031 C 
ATOM     58  C   UNL A   1      38.593  29.710  27.628  1.00  0.00     0.029 A 
ATOM     59  C   UNL A   1      38.774  30.092  29.029  1.00  0.00     0.049 A 
ATOM     60  H   UNL A   1      40.304  29.481  30.305  1.00  0.00     0.167 HD
ATOM     61  C   UNL A   1      43.371  27.986  33.008  1.00  0.00     0.037 A 
ATOM     62  C   UNL A   1      37.976  30.926  29.728  1.00  0.00     0.037 A 
ATOM     63  C   UNL A   1      42.619  28.921  33.807  1.00  0.00     0.049 A 
ATOM     64  C   UNL A   1      38.271  31.211  31.182  1.00  0.00     0.074 A 
ATOM     65  C   UNL A   1      42.852  29.323  35.112  1.00  0.00     0.029 A 
ATOM     66  N   UNL A   1      41.488  29.595  33.378  1.00  0.00    -0.354 N 
ATOM     67  N   UNL A   1      39.253  30.773  31.932  1.00  0.00    -0.248 NA
ATOM     68  C   UNL A   1      37.339  32.106  31.887  1.00  0.00     0.031 C 
ATOM     69  C   UNL A   1      41.829  30.198  35.491  1.00  0.00     0.029 A 
ATOM     70  C   UNL A   1      40.996  30.391  34.402  1.00  0.00     0.049 A 
ATOM     71  H   UNL A   1      41.091  29.521  32.481  1.00  0.00     0.167 HD
ATOM     72  C   UNL A   1      39.080  31.367  33.178  1.00  0.00     0.074 A 
ATOM     73  C   UNL A   1      37.903  32.204  33.083  1.00  0.00     0.031 C 
ATOM     74  C   UNL A   1      39.831  31.233  34.299  1.00  0.00     0.037 A 
BRANCH  61  75
ATOM     75  C   UNL A   1      44.545  27.298  33.648  1.00  0.00     0.057 A 
ATOM     76  C   UNL A   1      45.830  27.856  33.642  1.00  0.00     0.134 A 
ATOM     77  C   UNL A   1      44.378  26.074  34.312  1.00  0.00     0.134 A 
ATOM     78  F   UNL A   1      46.062  29.021  33.018  1.00  0.00    -0.206 F 
ATOM     79  C   UNL A   1      46.910  27.211  34.247  1.00  0.00     0.040 A 
ATOM     80  C   UNL A   1      45.444  25.434  34.947  1.00  0.00     0.040 A 
ATOM     81  F   UNL A   1      43.173  25.488  34.366  1.00  0.00    -0.206 F 
ATOM     82  C   UNL A   1      46.717  25.999  34.908  1.00  0.00     0.006 A 
ENDBRANCH  61  75
BRANCH  62  83
ATOM     83  C   UNL A   1      36.792  31.549  29.078  1.00  0.00     0.057 A 
ATOM     84  C   UNL A   1      35.631  30.811  28.822  1.00  0.00     0.134 A 
ATOM     85  C   UNL A   1      36.808  32.885  28.655  1.00  0.00     0.134 A 
ATOM     86  F   UNL A   1      35.565  29.517  29.170  1.00  0.00    -0.206 F 
ATOM     87  C   UNL A   1      34.537  31.368  28.156  1.00  0.00     0.040 A 
ATOM     88  C   UNL A   1      35.711  33.464  28.014  1.00  0.00     0.040 A 
ATOM     89  F   UNL A   1      37.892  33.649  28.860  1.00  0.00    -0.206 F 
ATOM     90  C   UNL A   1      34.573  32.702  27.756  1.00  0.00     0.006 A 
ENDBRANCH  62  83
BRANCH  74  91
ATOM     91  C   UNL A   1      39.442  32.047  35.503  1.00  0.00     0.057 A 
ATOM     92  C   UNL A   1      39.922  33.346  35.714  1.00  0.00     0.134 A 
ATOM     93  C   UNL A   1      38.538  31.535  36.444  1.00  0.00     0.134 A 
ATOM     94  F   UNL A   1      40.798  33.894  34.859  1.00  0.00    -0.206 F 
ATOM     95  C   UNL A   1      39.539  34.095  36.829  1.00  0.00     0.040 A 
ATOM     96  C   UNL A   1      38.124  32.286  37.547  1.00  0.00     0.040 A 
ATOM     97  F   UNL A   1      38.028  30.303  36.300  1.00  0.00    -0.206 F 
ATOM     98  C   UNL A   1      38.632  33.568  37.745  1.00  0.00     0.006 A 
ENDBRANCH  74  91
ENDBRANCH  48  49
ENDBRANCH  41  43
ENDBRANCH  40  41
ENDBRANCH  39  40
ENDBRANCH  38  39
ENDBRANCH  37  38
ENDBRANCH  36  37
ENDBRANCH   1  36
TORSDOF 21
ENDMDL
MODEL 3
REMARK VINA RESULT:     -11.9      4.679     10.069
REMARK SMILES NC(=O)c1c(-c2ccc(Cl)cc2)csc1NC(=O)[C@H]1[C@@H](C(=O)OCCOCCOCCOC(=O)c2ccc(-c3c4nc(c(-c5c(F)cccc5F)c5ccc([nH]5)c(-c5c(F)cccc5F)c5nc(c(-c6c(F)cccc6F)c6ccc3[nH]6)C=C5)C=C4)cc2)[C@@H]2CC[C@H]1O2
REMARK SMILES IDX 27 1 26 2 25 3 24 4 23 5 21 6 22 7 20 8 19 9 92 10 89 11
REMARK SMILES IDX 91 12 93 13 90 14 17 15 16 16 18 18 15 19 4 20 5 21 13 22
REMARK SMILES IDX 14 23 2 24 1 25 3 28 6 29 7 30 12 31 8 32 11 33 9 34 10 35
REMARK SMILES IDX 28 36 29 37 30 38 31 39 32 40 33 41 34 42 35 43 36 44 88 45
REMARK SMILES IDX 37 46 87 47 38 48 39 49 40 50 81 51 41 52 86 53 80 54 82 55
REMARK SMILES IDX 42 56 85 57 79 58 78 59 43 61 69 62 52 63 68 64 53 65 56 66
REMARK SMILES IDX 67 67 83 68 54 69 55 70 66 72 84 73 57 74 44 75 45 76 50 77
REMARK SMILES IDX 46 78 47 79 49 80 51 81 48 82 70 83 71 84 76 85 72 86 73 87
REMARK SMILES IDX 75 88 77 89 74 90 58 91 59 92 64 93 60 94 61 95 63 96 65 97
REMARK SMILES IDX 62 98
REMARK H PARENT 16 17 1 26 1 27 82 60 56 71
REMARK Flexibility Score: inf
ROOT
ATOM      1  C   UNL A   1      33.020  34.314  28.008  1.00  0.00     0.188 C 
ENDROOT
BRANCH   1   2
ATOM      2  O   UNL A   1      33.469  33.011  27.559  1.00  0.00    -0.376 OA
BRANCH   2   3
ATOM      3  C   UNL A   1      34.274  32.009  28.196  1.00  0.00     0.202 C 
BRANCH   3   4
ATOM      4  C   UNL A   1      33.705  30.517  27.851  1.00  0.00     0.261 C 
BRANCH   4   5
ATOM      5  O   UNL A   1      33.046  30.369  26.525  1.00  0.00    -0.463 OA
BRANCH   5   6
ATOM      6  C   UNL A   1      33.301  29.297  25.655  1.00  0.00     0.312 C 
ATOM      7  O   UNL A   1      34.315  28.617  25.682  1.00  0.00    -0.252 OA
BRANCH   6   8
ATOM      8  C   UNL A   1      32.084  29.090  24.673  1.00  0.00     0.143 C 
ATOM      9  C   UNL A   1      31.040  28.260  25.370  1.00  0.00     0.124 C 
ATOM     10  C   UNL A   1      30.397  27.341  24.388  1.00  0.00     0.132 C 
ATOM     11  C   UNL A   1      32.080  28.269  23.348  1.00  0.00     0.133 C 
ATOM     12  C   UNL A   1      29.670  28.130  23.320  1.00  0.00     0.035 C 
ATOM     13  O   UNL A   1      31.578  26.937  23.699  1.00  0.00    -0.373 OA
ATOM     14  C   UNL A   1      30.858  28.607  22.465  1.00  0.00     0.036 C 
BRANCH   9  15
ATOM     15  C   UNL A   1      31.603  27.420  26.450  1.00  0.00     0.231 C 
ATOM     16  N   UNL A   1      32.479  26.383  26.453  1.00  0.00    -0.317 N 
ATOM     17  H   UNL A   1      32.853  26.374  27.363  1.00  0.00     0.170 HD
ATOM     18  O   UNL A   1      31.319  27.932  27.541  1.00  0.00    -0.274 OA
BRANCH  16  19
ATOM     19  C   UNL A   1      33.104  25.331  25.804  1.00  0.00     0.108 A 
ATOM     20  C   UNL A   1      32.618  24.015  25.722  1.00  0.00     0.082 A 
ATOM     21  C   UNL A   1      33.338  23.240  24.749  1.00  0.00     0.007 A 
ATOM     22  C   UNL A   1      34.424  23.914  24.255  1.00  0.00     0.076 A 
ATOM     23  S   UNL A   1      34.506  25.494  24.882  1.00  0.00    -0.125 S 
BRANCH  20  24
ATOM     24  C   UNL A   1      31.445  23.417  26.365  1.00  0.00     0.252 C 
ATOM     25  N   UNL A   1      30.250  23.654  25.739  1.00  0.00    -0.365 N 
ATOM     26  H   UNL A   1      29.418  23.285  26.111  1.00  0.00     0.159 HD
ATOM     27  H   UNL A   1      30.226  24.195  24.917  1.00  0.00     0.159 HD
ATOM     28  O   UNL A   1      31.477  22.880  27.463  1.00  0.00    -0.269 OA
ENDBRANCH  20  24
BRANCH  21  29
ATOM     29  C   UNL A   1      32.930  21.920  24.296  1.00  0.00    -0.017 A 
ATOM     30  C   UNL A   1      32.249  21.761  23.089  1.00  0.00     0.010 A 
ATOM     31  C   UNL A   1      33.411  20.791  24.982  1.00  0.00     0.010 A 
ATOM     32  C   UNL A   1      32.056  20.479  22.568  1.00  0.00     0.021 A 
ATOM     33  C   UNL A   1      33.227  19.514  24.455  1.00  0.00     0.021 A 
ATOM     34  C   UNL A   1      32.551  19.364  23.248  1.00  0.00     0.041 A 
ATOM     35  Cl  UNL A   1      32.351  17.794  22.574  1.00  0.00    -0.084 Cl
ENDBRANCH  21  29
ENDBRANCH  16  19
ENDBRANCH   9  15
ENDBRANCH   6   8
ENDBRANCH   5   6
ENDBRANCH   4   5
ENDBRANCH   3   4
ENDBRANCH   2   3
ENDBRANCH   1   2
BRANCH   1  36
ATOM     36  C   UNL A   1      33.599  35.184  29.148  1.00  0.00     0.188 C 
BRANCH  36  37
ATOM     37  O   UNL A   1      33.093  34.931  30.451  1.00  0.00    -0.376 OA
BRANCH  37  38
ATOM     38  C   UNL A   1      33.752  35.580  31.520  1.00  0.00     0.202 C 
BRANCH  38  39
ATOM     39  C   UNL A   1      34.678  34.720  32.398  1.00  0.00     0.261 C 
BRANCH  39  40
ATOM     40  O   UNL A   1      35.341  33.602  31.757  1.00  0.00    -0.460 OA
BRANCH  40  41
ATOM     41  C   UNL A   1      35.854  32.669  32.602  1.00  0.00     0.338 C 
ATOM     42  O   UNL A   1      35.720  32.640  33.821  1.00  0.00    -0.246 OA
BRANCH  41  43
ATOM     43  C   UNL A   1      36.644  31.621  31.915  1.00  0.00     0.060 A 
ATOM     44  C   UNL A   1      37.413  30.735  32.684  1.00  0.00     0.016 A 
ATOM     45  C   UNL A   1      36.856  31.698  30.535  1.00  0.00     0.016 A 
ATOM     46  C   UNL A   1      38.436  29.977  32.088  1.00  0.00     0.010 A 
ATOM     47  C   UNL A   1      37.878  30.937  29.942  1.00  0.00     0.010 A 
ATOM     48  C   UNL A   1      38.715  30.115  30.721  1.00  0.00    -0.014 A 
BRANCH  48  49
ATOM     49  C   UNL A   1      39.987  29.592  30.129  1.00  0.00     0.031 A 
ATOM     50  C   UNL A   1      41.161  30.533  29.980  1.00  0.00     0.074 A 
ATOM     51  C   UNL A   1      40.118  28.320  29.706  1.00  0.00     0.049 A 
ATOM     52  N   UNL A   1      42.306  30.359  29.367  1.00  0.00    -0.248 NA
ATOM     53  C   UNL A   1      41.015  31.857  30.608  1.00  0.00     0.031 C 
ATOM     54  C   UNL A   1      39.106  27.277  29.832  1.00  0.00     0.029 A 
ATOM     55  N   UNL A   1      41.163  27.699  29.058  1.00  0.00    -0.354 N 
ATOM     56  C   UNL A   1      43.003  31.554  29.512  1.00  0.00     0.074 A 
ATOM     57  C   UNL A   1      42.144  32.453  30.253  1.00  0.00     0.031 C 
ATOM     58  C   UNL A   1      39.568  26.150  29.261  1.00  0.00     0.029 A 
ATOM     59  C   UNL A   1      40.892  26.402  28.691  1.00  0.00     0.049 A 
ATOM     60  H   UNL A   1      42.023  28.141  28.876  1.00  0.00     0.167 HD
ATOM     61  C   UNL A   1      44.246  31.879  29.076  1.00  0.00     0.037 A 
ATOM     62  C   UNL A   1      41.612  25.530  27.954  1.00  0.00     0.037 A 
ATOM     63  C   UNL A   1      45.114  30.989  28.347  1.00  0.00     0.049 A 
ATOM     64  C   UNL A   1      42.959  25.938  27.405  1.00  0.00     0.074 A 
ATOM     65  C   UNL A   1      46.395  31.226  27.878  1.00  0.00     0.029 A 
ATOM     66  N   UNL A   1      44.787  29.695  27.977  1.00  0.00    -0.354 N 
ATOM     67  N   UNL A   1      43.608  27.068  27.552  1.00  0.00    -0.248 NA
ATOM     68  C   UNL A   1      43.671  24.945  26.586  1.00  0.00     0.031 C 
ATOM     69  C   UNL A   1      46.822  30.095  27.176  1.00  0.00     0.029 A 
ATOM     70  C   UNL A   1      45.833  29.130  27.263  1.00  0.00     0.049 A 
ATOM     71  H   UNL A   1      43.939  29.243  28.189  1.00  0.00     0.167 HD
ATOM     72  C   UNL A   1      44.814  26.907  26.878  1.00  0.00     0.074 A 
ATOM     73  C   UNL A   1      44.813  25.568  26.329  1.00  0.00     0.031 C 
ATOM     74  C   UNL A   1      45.833  27.791  26.730  1.00  0.00     0.037 A 
BRANCH  61  75
ATOM     75  C   UNL A   1      44.737  33.275  29.348  1.00  0.00     0.057 A 
ATOM     76  C   UNL A   1      44.513  34.330  28.455  1.00  0.00     0.134 A 
ATOM     77  C   UNL A   1      45.411  33.572  30.541  1.00  0.00     0.134 A 
ATOM     78  F   UNL A   1      43.881  34.114  27.291  1.00  0.00    -0.206 F 
ATOM     79  C   UNL A   1      44.967  35.623  28.723  1.00  0.00     0.040 A 
ATOM     80  C   UNL A   1      45.843  34.867  30.834  1.00  0.00     0.040 A 
ATOM     81  F   UNL A   1      45.649  32.612  31.447  1.00  0.00    -0.206 F 
ATOM     82  C   UNL A   1      45.628  35.895  29.920  1.00  0.00     0.006 A 
ENDBRANCH  61  75
BRANCH  62  83
ATOM     83  C   UNL A   1      41.073  24.175  27.660  1.00  0.00     0.057 A 
ATOM     84  C   UNL A   1      41.570  23.038  28.308  1.00  0.00     0.134 A 
ATOM     85  C   UNL A   1      40.080  23.977  26.691  1.00  0.00     0.134 A 
ATOM     86  F   UNL A   1      42.546  23.156  29.221  1.00  0.00    -0.206 F 
ATOM     87  C   UNL A   1      41.116  21.756  27.995  1.00  0.00     0.040 A 
ATOM     88  C   UNL A   1      39.595  22.703  26.388  1.00  0.00     0.040 A 
ATOM     89  F   UNL A   1      39.564  25.022  26.026  1.00  0.00    -0.206 F 
ATOM     90  C   UNL A   1      40.119  21.586  27.036  1.00  0.00     0.006 A 
ENDBRANCH  62  83
BRANCH  74  91
ATOM     91  C   UNL A   1      47.059  27.327  25.992  1.00  0.00     0.057 A 
ATOM     92  C   UNL A   1      48.116  26.672  26.637  1.00  0.00     0.134 A 
ATOM     93  C   UNL A   1      47.162  27.503  24.605  1.00  0.00     0.134 A 
ATOM     94  F   UNL A   1      48.089  26.479  27.964  1.00  0.00    -0.206 F 
ATOM     95  C   UNL A   1      49.242  26.233  25.934  1.00  0.00     0.040 A 
ATOM     96  C   UNL A   1      48.268  27.041  23.888  1.00  0.00     0.040 A 
ATOM     97  F   UNL A   1      46.182  28.111  23.920  1.00  0.00    -0.206 F 
ATOM     98  C   UNL A   1      49.316  26.411  24.554  1.00  0.00     0.006 A 
ENDBRANCH  74  91
ENDBRANCH  48  49
ENDBRANCH  41  43
ENDBRANCH  40  41
ENDBRANCH  39  40
ENDBRANCH  38  39
ENDBRANCH  37  38
ENDBRANCH  36  37
ENDBRANCH   1  36
TORSDOF 21
ENDMDL
