MODEL 1
REMARK VINA RESULT:     -11.4      0.000      0.000
REMARK SMILES Cc1ccccc1N[C@H](C(=O)OCCOCCOCCOC(=O)c1ccc(-c2c3nc(c(-c4c(F)cccc4F)c4ccc([nH]4)c(-c4c(F)cccc4F)c4nc(c(-c5c(F)cccc5F)c5ccc2[nH]5)C=C4)C=C3)cc1)c1ccccc1
REMARK SMILES IDX 16 1 15 2 14 3 13 4 12 5 10 6 11 7 9 8 8 9 7 11 1 12 2 13
REMARK SMILES IDX 3 14 4 15 6 16 5 17 78 18 79 19 83 20 80 21 82 22 81 23
REMARK SMILES IDX 17 24 18 25 19 26 20 27 21 28 22 29 23 30 24 31 25 32 77 33
REMARK SMILES IDX 26 34 76 35 27 36 28 37 29 38 70 39 30 40 75 41 69 42 71 43
REMARK SMILES IDX 31 44 74 45 68 46 67 47 32 49 58 50 41 51 57 52 42 53 45 54
REMARK SMILES IDX 56 55 72 56 43 57 44 58 55 60 73 61 46 62 33 63 34 64 39 65
REMARK SMILES IDX 35 66 36 67 38 68 40 69 37 70 59 71 60 72 65 73 61 74 62 75
REMARK SMILES IDX 64 76 66 77 63 78 47 79 48 80 53 81 49 82 50 83 52 84 54 85
REMARK SMILES IDX 51 86
REMARK H PARENT 8 10 71 48 45 59
REMARK Flexibility Score: inf
ROOT
ATOM      1  C   UNL A   1      42.535  18.847  26.013  1.00  0.00     0.188 C 
ENDROOT
BRANCH   1   2
ATOM      2  O   UNL A   1      41.895  20.128  25.988  1.00  0.00    -0.376 OA
BRANCH   2   3
ATOM      3  C   UNL A   1      40.568  20.153  26.513  1.00  0.00     0.202 C 
BRANCH   3   4
ATOM      4  C   UNL A   1      39.451  19.384  25.699  1.00  0.00     0.261 C 
BRANCH   4   5
ATOM      5  O   UNL A   1      38.366  20.171  25.052  1.00  0.00    -0.461 OA
BRANCH   5   6
ATOM      6  C   UNL A   1      37.706  21.382  25.392  1.00  0.00     0.333 C 
ATOM      7  O   UNL A   1      38.304  22.283  25.971  1.00  0.00    -0.249 OA
BRANCH   6   8
ATOM      8  C   UNL A   1      36.000  21.463  24.791  1.00  0.00     0.221 C 
BRANCH   8   9
ATOM      9  N   UNL A   1      35.273  20.418  25.489  1.00  0.00    -0.368 N 
ATOM     10  H   UNL A   1      35.255  20.470  26.473  1.00  0.00     0.161 HD
BRANCH   9  11
ATOM     11  C   UNL A   1      34.609  19.363  24.909  1.00  0.00     0.038 A 
ATOM     12  C   UNL A   1      32.435  20.626  25.158  1.00  0.00     0.046 C 
ATOM     13  C   UNL A   1      33.210  19.357  24.921  1.00  0.00    -0.028 A 
ATOM     14  C   UNL A   1      32.532  18.171  24.612  1.00  0.00     0.005 A 
ATOM     15  C   UNL A   1      33.236  17.015  24.274  1.00  0.00     0.000 A 
ATOM     16  C   UNL A   1      35.274  18.269  24.333  1.00  0.00     0.026 A 
ATOM     17  C   UNL A   1      34.609  17.072  24.100  1.00  0.00     0.002 A 
ENDBRANCH   9  11
ENDBRANCH   8   9
BRANCH   8  18
ATOM     18  C   UNL A   1      35.103  22.770  24.526  1.00  0.00    -0.015 A 
ATOM     19  C   UNL A   1      34.846  23.770  25.469  1.00  0.00     0.006 A 
ATOM     20  C   UNL A   1      34.394  22.984  23.321  1.00  0.00     0.006 A 
ATOM     21  C   UNL A   1      34.332  25.032  25.125  1.00  0.00     0.000 A 
ATOM     22  C   UNL A   1      33.909  24.246  22.935  1.00  0.00     0.000 A 
ATOM     23  C   UNL A   1      33.953  25.303  23.823  1.00  0.00     0.000 A 
ENDBRANCH   8  18
ENDBRANCH   6   8
ENDBRANCH   5   6
ENDBRANCH   4   5
ENDBRANCH   3   4
ENDBRANCH   2   3
ENDBRANCH   1   2
BRANCH   1  24
ATOM     24  C   UNL A   1      43.690  18.772  25.014  1.00  0.00     0.188 C 
BRANCH  24  25
ATOM     25  O   UNL A   1      44.749  17.995  25.556  1.00  0.00    -0.376 OA
BRANCH  25  26
ATOM     26  C   UNL A   1      46.037  18.580  25.562  1.00  0.00     0.202 C 
BRANCH  26  27
ATOM     27  C   UNL A   1      46.180  19.792  24.633  1.00  0.00     0.261 C 
BRANCH  27  28
ATOM     28  O   UNL A   1      46.145  21.018  25.395  1.00  0.00    -0.460 OA
BRANCH  28  29
ATOM     29  C   UNL A   1      45.967  22.183  24.699  1.00  0.00     0.338 C 
ATOM     30  O   UNL A   1      46.822  22.741  24.022  1.00  0.00    -0.246 OA
BRANCH  29  31
ATOM     31  C   UNL A   1      44.706  22.842  25.170  1.00  0.00     0.060 A 
ATOM     32  C   UNL A   1      44.255  24.067  24.687  1.00  0.00     0.016 A 
ATOM     33  C   UNL A   1      44.236  22.483  26.392  1.00  0.00     0.016 A 
ATOM     34  C   UNL A   1      43.603  25.016  25.562  1.00  0.00     0.010 A 
ATOM     35  C   UNL A   1      43.801  23.513  27.246  1.00  0.00     0.010 A 
ATOM     36  C   UNL A   1      43.513  24.886  26.971  1.00  0.00    -0.014 A 
BRANCH  36  37
ATOM     37  C   UNL A   1      43.277  26.242  28.030  1.00  0.00     0.031 A 
ATOM     38  C   UNL A   1      41.974  27.251  28.640  1.00  0.00     0.074 A 
ATOM     39  C   UNL A   1      44.406  26.551  28.725  1.00  0.00     0.049 A 
ATOM     40  N   UNL A   1      42.093  28.222  29.537  1.00  0.00    -0.248 NA
ATOM     41  C   UNL A   1      40.506  27.277  28.360  1.00  0.00     0.031 C 
ATOM     42  C   UNL A   1      44.572  27.351  29.937  1.00  0.00     0.029 A 
ATOM     43  N   UNL A   1      45.726  26.232  28.407  1.00  0.00    -0.354 N 
ATOM     44  C   UNL A   1      40.821  28.713  29.891  1.00  0.00     0.074 A 
ATOM     45  C   UNL A   1      39.896  27.770  29.423  1.00  0.00     0.031 C 
ATOM     46  C   UNL A   1      45.846  27.751  30.034  1.00  0.00     0.029 A 
ATOM     47  C   UNL A   1      46.542  27.272  28.866  1.00  0.00     0.049 A 
ATOM     48  H   UNL A   1      46.030  25.420  27.943  1.00  0.00     0.167 HD
ATOM     49  C   UNL A   1      40.499  29.955  30.354  1.00  0.00     0.037 A 
ATOM     50  C   UNL A   1      47.226  28.015  27.953  1.00  0.00     0.037 A 
ATOM     51  C   UNL A   1      41.698  30.698  30.604  1.00  0.00     0.049 A 
ATOM     52  C   UNL A   1      46.685  29.426  27.824  1.00  0.00     0.074 A 
ATOM     53  C   UNL A   1      42.701  30.523  31.537  1.00  0.00     0.029 A 
ATOM     54  N   UNL A   1      42.225  31.436  29.571  1.00  0.00    -0.354 N 
ATOM     55  N   UNL A   1      45.733  29.938  28.562  1.00  0.00    -0.248 NA
ATOM     56  C   UNL A   1      47.134  30.349  26.782  1.00  0.00     0.031 C 
ATOM     57  C   UNL A   1      43.906  30.968  30.927  1.00  0.00     0.029 A 
ATOM     58  C   UNL A   1      43.604  31.485  29.676  1.00  0.00     0.049 A 
ATOM     59  H   UNL A   1      41.699  31.867  28.859  1.00  0.00     0.167 HD
ATOM     60  C   UNL A   1      45.397  31.172  28.070  1.00  0.00     0.074 A 
ATOM     61  C   UNL A   1      46.301  31.385  26.955  1.00  0.00     0.031 C 
ATOM     62  C   UNL A   1      44.392  31.956  28.554  1.00  0.00     0.037 A 
BRANCH  49  63
ATOM     63  C   UNL A   1      39.067  30.450  30.583  1.00  0.00     0.057 A 
ATOM     64  C   UNL A   1      38.583  30.643  31.885  1.00  0.00     0.134 A 
ATOM     65  C   UNL A   1      38.104  30.721  29.578  1.00  0.00     0.134 A 
ATOM     66  F   UNL A   1      39.410  30.575  32.938  1.00  0.00    -0.206 F 
ATOM     67  C   UNL A   1      37.229  30.916  32.165  1.00  0.00     0.040 A 
ATOM     68  C   UNL A   1      36.734  30.897  29.840  1.00  0.00     0.040 A 
ATOM     69  F   UNL A   1      38.454  30.878  28.292  1.00  0.00    -0.206 F 
ATOM     70  C   UNL A   1      36.287  30.980  31.145  1.00  0.00     0.006 A 
ENDBRANCH  49  63
BRANCH  50  71
ATOM     71  C   UNL A   1      47.826  27.163  26.877  1.00  0.00     0.057 A 
ATOM     72  C   UNL A   1      47.113  27.052  25.660  1.00  0.00     0.134 A 
ATOM     73  C   UNL A   1      49.162  26.753  26.851  1.00  0.00     0.134 A 
ATOM     74  F   UNL A   1      45.824  27.428  25.596  1.00  0.00    -0.206 F 
ATOM     75  C   UNL A   1      47.727  26.688  24.459  1.00  0.00     0.040 A 
ATOM     76  C   UNL A   1      49.781  26.350  25.656  1.00  0.00     0.040 A 
ATOM     77  F   UNL A   1      49.931  26.843  27.944  1.00  0.00    -0.206 F 
ATOM     78  C   UNL A   1      49.075  26.354  24.452  1.00  0.00     0.006 A 
ENDBRANCH  50  71
BRANCH  62  79
ATOM     79  C   UNL A   1      44.146  33.297  27.953  1.00  0.00     0.057 A 
ATOM     80  C   UNL A   1      44.253  34.450  28.739  1.00  0.00     0.134 A 
ATOM     81  C   UNL A   1      43.742  33.474  26.621  1.00  0.00     0.134 A 
ATOM     82  F   UNL A   1      44.598  34.363  30.032  1.00  0.00    -0.206 F 
ATOM     83  C   UNL A   1      44.025  35.722  28.215  1.00  0.00     0.040 A 
ATOM     84  C   UNL A   1      43.473  34.738  26.093  1.00  0.00     0.040 A 
ATOM     85  F   UNL A   1      43.599  32.429  25.792  1.00  0.00    -0.206 F 
ATOM     86  C   UNL A   1      43.629  35.868  26.888  1.00  0.00     0.006 A 
ENDBRANCH  62  79
ENDBRANCH  36  37
ENDBRANCH  29  31
ENDBRANCH  28  29
ENDBRANCH  27  28
ENDBRANCH  26  27
ENDBRANCH  25  26
ENDBRANCH  24  25
ENDBRANCH   1  24
TORSDOF 20
ENDMDL
MODEL 2
REMARK VINA RESULT:     -11.2      1.754      2.714
REMARK SMILES Cc1ccccc1N[C@H](C(=O)OCCOCCOCCOC(=O)c1ccc(-c2c3nc(c(-c4c(F)cccc4F)c4ccc([nH]4)c(-c4c(F)cccc4F)c4nc(c(-c5c(F)cccc5F)c5ccc2[nH]5)C=C4)C=C3)cc1)c1ccccc1
REMARK SMILES IDX 16 1 15 2 14 3 13 4 12 5 10 6 11 7 9 8 8 9 7 11 1 12 2 13
REMARK SMILES IDX 3 14 4 15 6 16 5 17 78 18 79 19 83 20 80 21 82 22 81 23
REMARK SMILES IDX 17 24 18 25 19 26 20 27 21 28 22 29 23 30 24 31 25 32 77 33
REMARK SMILES IDX 26 34 76 35 27 36 28 37 29 38 70 39 30 40 75 41 69 42 71 43
REMARK SMILES IDX 31 44 74 45 68 46 67 47 32 49 58 50 41 51 57 52 42 53 45 54
REMARK SMILES IDX 56 55 72 56 43 57 44 58 55 60 73 61 46 62 33 63 34 64 39 65
REMARK SMILES IDX 35 66 36 67 38 68 40 69 37 70 59 71 60 72 65 73 61 74 62 75
REMARK SMILES IDX 64 76 66 77 63 78 47 79 48 80 53 81 49 82 50 83 52 84 54 85
REMARK SMILES IDX 51 86
REMARK H PARENT 8 10 71 48 45 59
REMARK Flexibility Score: inf
ROOT
ATOM      1  C   UNL A   1      42.729  19.144  25.783  1.00  0.00     0.188 C 
ENDROOT
BRANCH   1   2
ATOM      2  O   UNL A   1      41.877  20.294  25.733  1.00  0.00    -0.376 OA
BRANCH   2   3
ATOM      3  C   UNL A   1      40.645  20.168  26.442  1.00  0.00     0.202 C 
BRANCH   3   4
ATOM      4  C   UNL A   1      39.462  19.415  25.711  1.00  0.00     0.261 C 
BRANCH   4   5
ATOM      5  O   UNL A   1      38.380  20.220  25.082  1.00  0.00    -0.461 OA
BRANCH   5   6
ATOM      6  C   UNL A   1      37.759  21.451  25.422  1.00  0.00     0.333 C 
ATOM      7  O   UNL A   1      38.365  22.306  26.062  1.00  0.00    -0.249 OA
BRANCH   6   8
ATOM      8  C   UNL A   1      36.096  21.632  24.730  1.00  0.00     0.221 C 
BRANCH   8   9
ATOM      9  N   UNL A   1      35.253  20.695  25.449  1.00  0.00    -0.368 N 
ATOM     10  H   UNL A   1      35.129  20.857  26.413  1.00  0.00     0.161 HD
BRANCH   9  11
ATOM     11  C   UNL A   1      34.611  19.604  24.913  1.00  0.00     0.038 A 
ATOM     12  C   UNL A   1      32.439  20.897  24.943  1.00  0.00     0.046 C 
ATOM     13  C   UNL A   1      33.213  19.608  24.847  1.00  0.00    -0.028 A 
ATOM     14  C   UNL A   1      32.541  18.406  24.590  1.00  0.00     0.005 A 
ATOM     15  C   UNL A   1      33.250  17.223  24.380  1.00  0.00     0.000 A 
ATOM     16  C   UNL A   1      35.295  18.465  24.460  1.00  0.00     0.026 A 
ATOM     17  C   UNL A   1      34.630  17.258  24.281  1.00  0.00     0.002 A 
ENDBRANCH   9  11
ENDBRANCH   8   9
BRANCH   8  18
ATOM     18  C   UNL A   1      35.325  22.989  24.344  1.00  0.00    -0.015 A 
ATOM     19  C   UNL A   1      34.670  23.221  23.130  1.00  0.00     0.006 A 
ATOM     20  C   UNL A   1      35.321  24.134  25.174  1.00  0.00     0.006 A 
ATOM     21  C   UNL A   1      33.754  24.270  22.944  1.00  0.00     0.000 A 
ATOM     22  C   UNL A   1      34.387  25.174  25.035  1.00  0.00     0.000 A 
ATOM     23  C   UNL A   1      33.538  25.198  23.945  1.00  0.00     0.000 A 
ENDBRANCH   8  18
ENDBRANCH   6   8
ENDBRANCH   5   6
ENDBRANCH   4   5
ENDBRANCH   3   4
ENDBRANCH   2   3
ENDBRANCH   1   2
BRANCH   1  24
ATOM     24  C   UNL A   1      43.828  19.206  24.721  1.00  0.00     0.188 C 
BRANCH  24  25
ATOM     25  O   UNL A   1      45.093  19.376  25.343  1.00  0.00    -0.376 OA
BRANCH  25  26
ATOM     26  C   UNL A   1      45.654  20.674  25.315  1.00  0.00     0.202 C 
BRANCH  26  27
ATOM     27  C   UNL A   1      44.894  21.666  24.426  1.00  0.00     0.261 C 
BRANCH  27  28
ATOM     28  O   UNL A   1      44.186  22.629  25.236  1.00  0.00    -0.460 OA
BRANCH  28  29
ATOM     29  C   UNL A   1      44.338  23.951  24.914  1.00  0.00     0.338 C 
ATOM     30  O   UNL A   1      45.407  24.514  24.718  1.00  0.00    -0.246 OA
BRANCH  29  31
ATOM     31  C   UNL A   1      43.048  24.666  25.182  1.00  0.00     0.060 A 
ATOM     32  C   UNL A   1      42.844  26.012  24.894  1.00  0.00     0.016 A 
ATOM     33  C   UNL A   1      42.227  24.136  26.124  1.00  0.00     0.016 A 
ATOM     34  C   UNL A   1      42.046  26.846  25.765  1.00  0.00     0.010 A 
ATOM     35  C   UNL A   1      41.648  25.023  27.050  1.00  0.00     0.010 A 
ATOM     36  C   UNL A   1      41.553  26.450  27.034  1.00  0.00    -0.014 A 
BRANCH  36  37
ATOM     37  C   UNL A   1      41.131  27.585  28.279  1.00  0.00     0.031 A 
ATOM     38  C   UNL A   1      39.917  28.810  28.614  1.00  0.00     0.074 A 
ATOM     39  C   UNL A   1      41.858  27.393  29.414  1.00  0.00     0.049 A 
ATOM     40  N   UNL A   1      39.803  29.509  29.737  1.00  0.00    -0.248 NA
ATOM     41  C   UNL A   1      38.774  29.340  27.812  1.00  0.00     0.031 C 
ATOM     42  C   UNL A   1      41.607  27.857  30.777  1.00  0.00     0.029 A 
ATOM     43  N   UNL A   1      43.087  26.750  29.549  1.00  0.00    -0.354 N 
ATOM     44  C   UNL A   1      38.632  30.290  29.705  1.00  0.00     0.074 A 
ATOM     45  C   UNL A   1      37.857  29.785  28.652  1.00  0.00     0.031 C 
ATOM     46  C   UNL A   1      42.749  27.819  31.475  1.00  0.00     0.029 A 
ATOM     47  C   UNL A   1      43.791  27.380  30.581  1.00  0.00     0.049 A 
ATOM     48  H   UNL A   1      43.404  25.987  29.014  1.00  0.00     0.167 HD
ATOM     49  C   UNL A   1      38.384  31.459  30.362  1.00  0.00     0.037 A 
ATOM     50  C   UNL A   1      44.945  28.036  30.278  1.00  0.00     0.037 A 
ATOM     51  C   UNL A   1      39.457  31.735  31.269  1.00  0.00     0.049 A 
ATOM     52  C   UNL A   1      44.807  29.542  30.387  1.00  0.00     0.074 A 
ATOM     53  C   UNL A   1      39.872  31.086  32.416  1.00  0.00     0.029 A 
ATOM     54  N   UNL A   1      40.528  32.457  30.799  1.00  0.00    -0.354 N 
ATOM     55  N   UNL A   1      43.744  30.173  30.818  1.00  0.00    -0.248 NA
ATOM     56  C   UNL A   1      45.851  30.463  29.935  1.00  0.00     0.031 C 
ATOM     57  C   UNL A   1      41.283  31.245  32.485  1.00  0.00     0.029 A 
ATOM     58  C   UNL A   1      41.689  32.058  31.438  1.00  0.00     0.049 A 
ATOM     59  H   UNL A   1      40.477  33.156  30.108  1.00  0.00     0.167 HD
ATOM     60  C   UNL A   1      43.916  31.519  30.637  1.00  0.00     0.074 A 
ATOM     61  C   UNL A   1      45.250  31.652  30.080  1.00  0.00     0.031 C 
ATOM     62  C   UNL A   1      42.974  32.468  30.909  1.00  0.00     0.037 A 
BRANCH  49  63
ATOM     63  C   UNL A   1      37.131  32.318  30.160  1.00  0.00     0.057 A 
ATOM     64  C   UNL A   1      35.961  32.049  30.885  1.00  0.00     0.134 A 
ATOM     65  C   UNL A   1      36.993  33.396  29.249  1.00  0.00     0.134 A 
ATOM     66  F   UNL A   1      35.970  31.162  31.890  1.00  0.00    -0.206 F 
ATOM     67  C   UNL A   1      34.730  32.678  30.612  1.00  0.00     0.040 A 
ATOM     68  C   UNL A   1      35.756  33.965  28.897  1.00  0.00     0.040 A 
ATOM     69  F   UNL A   1      38.060  33.986  28.690  1.00  0.00    -0.206 F 
ATOM     70  C   UNL A   1      34.609  33.592  29.573  1.00  0.00     0.006 A 
ENDBRANCH  49  63
BRANCH  50  71
ATOM     71  C   UNL A   1      45.789  27.262  29.312  1.00  0.00     0.057 A 
ATOM     72  C   UNL A   1      45.691  27.602  27.942  1.00  0.00     0.134 A 
ATOM     73  C   UNL A   1      46.890  26.482  29.679  1.00  0.00     0.134 A 
ATOM     74  F   UNL A   1      44.666  28.353  27.505  1.00  0.00    -0.206 F 
ATOM     75  C   UNL A   1      46.697  27.303  27.020  1.00  0.00     0.040 A 
ATOM     76  C   UNL A   1      47.889  26.144  28.751  1.00  0.00     0.040 A 
ATOM     77  F   UNL A   1      47.088  26.128  30.955  1.00  0.00    -0.206 F 
ATOM     78  C   UNL A   1      47.813  26.586  27.430  1.00  0.00     0.006 A 
ENDBRANCH  50  71
BRANCH  62  79
ATOM     79  C   UNL A   1      43.294  33.909  30.700  1.00  0.00     0.057 A 
ATOM     80  C   UNL A   1      43.225  34.465  29.418  1.00  0.00     0.134 A 
ATOM     81  C   UNL A   1      43.733  34.750  31.733  1.00  0.00     0.134 A 
ATOM     82  F   UNL A   1      42.850  33.717  28.371  1.00  0.00    -0.206 F 
ATOM     83  C   UNL A   1      43.523  35.807  29.181  1.00  0.00     0.040 A 
ATOM     84  C   UNL A   1      44.071  36.085  31.504  1.00  0.00     0.040 A 
ATOM     85  F   UNL A   1      43.845  34.306  32.994  1.00  0.00    -0.206 F 
ATOM     86  C   UNL A   1      43.952  36.620  30.226  1.00  0.00     0.006 A 
ENDBRANCH  62  79
ENDBRANCH  36  37
ENDBRANCH  29  31
ENDBRANCH  28  29
ENDBRANCH  27  28
ENDBRANCH  26  27
ENDBRANCH  25  26
ENDBRANCH  24  25
ENDBRANCH   1  24
TORSDOF 20
ENDMDL
MODEL 3
REMARK VINA RESULT:     -11.2      4.962     10.518
REMARK SMILES Cc1ccccc1N[C@H](C(=O)OCCOCCOCCOC(=O)c1ccc(-c2c3nc(c(-c4c(F)cccc4F)c4ccc([nH]4)c(-c4c(F)cccc4F)c4nc(c(-c5c(F)cccc5F)c5ccc2[nH]5)C=C4)C=C3)cc1)c1ccccc1
REMARK SMILES IDX 16 1 15 2 14 3 13 4 12 5 10 6 11 7 9 8 8 9 7 11 1 12 2 13
REMARK SMILES IDX 3 14 4 15 6 16 5 17 78 18 79 19 83 20 80 21 82 22 81 23
REMARK SMILES IDX 17 24 18 25 19 26 20 27 21 28 22 29 23 30 24 31 25 32 77 33
REMARK SMILES IDX 26 34 76 35 27 36 28 37 29 38 70 39 30 40 75 41 69 42 71 43
REMARK SMILES IDX 31 44 74 45 68 46 67 47 32 49 58 50 41 51 57 52 42 53 45 54
REMARK SMILES IDX 56 55 72 56 43 57 44 58 55 60 73 61 46 62 33 63 34 64 39 65
REMARK SMILES IDX 35 66 36 67 38 68 40 69 37 70 59 71 60 72 65 73 61 74 62 75
REMARK SMILES IDX 64 76 66 77 63 78 47 79 48 80 53 81 49 82 50 83 52 84 54 85
REMARK SMILES IDX 51 86
REMARK H PARENT 8 10 71 48 45 59
REMARK Flexibility Score: inf
ROOT
ATOM      1  C   UNL A   1      35.001  34.178  28.586  1.00  0.00     0.188 C 
ENDROOT
BRANCH   1   2
ATOM      2  O   UNL A   1      35.132  33.178  27.570  1.00  0.00    -0.376 OA
BRANCH   2   3
ATOM      3  C   UNL A   1      34.486  31.937  27.852  1.00  0.00     0.202 C 
BRANCH   3   4
ATOM      4  C   UNL A   1      35.340  30.618  27.679  1.00  0.00     0.261 C 
BRANCH   4   5
ATOM      5  O   UNL A   1      34.718  29.444  27.009  1.00  0.00    -0.461 OA
BRANCH   5   6
ATOM      6  C   UNL A   1      33.676  29.308  26.053  1.00  0.00     0.333 C 
ATOM      7  O   UNL A   1      32.908  30.238  25.823  1.00  0.00    -0.249 OA
BRANCH   6   8
ATOM      8  C   UNL A   1      33.698  27.718  25.187  1.00  0.00     0.221 C 
BRANCH   8   9
ATOM      9  N   UNL A   1      33.505  26.699  26.203  1.00  0.00    -0.368 N 
ATOM     10  H   UNL A   1      33.889  26.879  27.092  1.00  0.00     0.161 HD
BRANCH   9  11
ATOM     11  C   UNL A   1      32.838  25.508  26.042  1.00  0.00     0.038 A 
ATOM     12  C   UNL A   1      35.041  24.368  25.561  1.00  0.00     0.046 C 
ATOM     13  C   UNL A   1      33.535  24.407  25.533  1.00  0.00    -0.028 A 
ATOM     14  C   UNL A   1      32.815  23.293  25.086  1.00  0.00     0.005 A 
ATOM     15  C   UNL A   1      31.422  23.265  25.164  1.00  0.00     0.000 A 
ATOM     16  C   UNL A   1      31.473  25.354  26.332  1.00  0.00     0.026 A 
ATOM     17  C   UNL A   1      30.751  24.284  25.820  1.00  0.00     0.002 A 
ENDBRANCH   9  11
ENDBRANCH   8   9
BRANCH   8  18
ATOM     18  C   UNL A   1      32.998  27.340  23.791  1.00  0.00    -0.015 A 
ATOM     19  C   UNL A   1      33.645  26.738  22.707  1.00  0.00     0.006 A 
ATOM     20  C   UNL A   1      31.659  27.677  23.486  1.00  0.00     0.006 A 
ATOM     21  C   UNL A   1      32.954  26.141  21.639  1.00  0.00     0.000 A 
ATOM     22  C   UNL A   1      30.934  27.062  22.451  1.00  0.00     0.000 A 
ATOM     23  C   UNL A   1      31.576  26.220  21.564  1.00  0.00     0.000 A 
ENDBRANCH   8  18
ENDBRANCH   6   8
ENDBRANCH   5   6
ENDBRANCH   4   5
ENDBRANCH   3   4
ENDBRANCH   2   3
ENDBRANCH   1   2
BRANCH   1  24
ATOM     24  C   UNL A   1      33.657  34.079  29.308  1.00  0.00     0.188 C 
BRANCH  24  25
ATOM     25  O   UNL A   1      33.864  34.028  30.712  1.00  0.00    -0.376 OA
BRANCH  25  26
ATOM     26  C   UNL A   1      34.268  35.227  31.346  1.00  0.00     0.202 C 
BRANCH  26  27
ATOM     27  C   UNL A   1      35.132  35.016  32.596  1.00  0.00     0.261 C 
BRANCH  27  28
ATOM     28  O   UNL A   1      36.146  34.020  32.345  1.00  0.00    -0.460 OA
BRANCH  28  29
ATOM     29  C   UNL A   1      36.076  32.859  33.067  1.00  0.00     0.338 C 
ATOM     30  O   UNL A   1      36.098  32.783  34.289  1.00  0.00    -0.246 OA
BRANCH  29  31
ATOM     31  C   UNL A   1      36.322  31.701  32.147  1.00  0.00     0.060 A 
ATOM     32  C   UNL A   1      36.571  30.407  32.594  1.00  0.00     0.016 A 
ATOM     33  C   UNL A   1      36.761  31.984  30.894  1.00  0.00     0.016 A 
ATOM     34  C   UNL A   1      37.507  29.549  31.903  1.00  0.00     0.010 A 
ATOM     35  C   UNL A   1      37.816  31.204  30.387  1.00  0.00     0.010 A 
ATOM     36  C   UNL A   1      38.362  29.966  30.852  1.00  0.00    -0.014 A 
BRANCH  36  37
ATOM     37  C   UNL A   1      39.836  29.140  30.450  1.00  0.00     0.031 A 
ATOM     38  C   UNL A   1      40.370  27.707  29.585  1.00  0.00     0.074 A 
ATOM     39  C   UNL A   1      40.938  29.876  30.762  1.00  0.00     0.049 A 
ATOM     40  N   UNL A   1      41.631  27.347  29.375  1.00  0.00    -0.248 NA
ATOM     41  C   UNL A   1      39.624  26.612  28.894  1.00  0.00     0.031 C 
ATOM     42  C   UNL A   1      42.316  29.743  30.298  1.00  0.00     0.029 A 
ATOM     43  N   UNL A   1      41.041  30.921  31.679  1.00  0.00    -0.354 N 
ATOM     44  C   UNL A   1      41.679  26.226  28.524  1.00  0.00     0.074 A 
ATOM     45  C   UNL A   1      40.405  26.119  27.949  1.00  0.00     0.031 C 
ATOM     46  C   UNL A   1      43.135  30.369  31.152  1.00  0.00     0.029 A 
ATOM     47  C   UNL A   1      42.327  30.885  32.230  1.00  0.00     0.049 A 
ATOM     48  H   UNL A   1      40.336  31.570  31.900  1.00  0.00     0.167 HD
ATOM     49  C   UNL A   1      42.649  25.270  28.447  1.00  0.00     0.037 A 
ATOM     50  C   UNL A   1      42.460  30.621  33.558  1.00  0.00     0.037 A 
ATOM     51  C   UNL A   1      43.758  25.647  29.272  1.00  0.00     0.049 A 
ATOM     52  C   UNL A   1      43.058  29.252  33.825  1.00  0.00     0.074 A 
ATOM     53  C   UNL A   1      44.661  26.686  29.166  1.00  0.00     0.029 A 
ATOM     54  N   UNL A   1      43.746  25.249  30.588  1.00  0.00    -0.354 N 
ATOM     55  N   UNL A   1      43.501  28.431  32.907  1.00  0.00    -0.248 NA
ATOM     56  C   UNL A   1      43.127  28.672  35.166  1.00  0.00     0.031 C 
ATOM     57  C   UNL A   1      45.011  27.059  30.493  1.00  0.00     0.029 A 
ATOM     58  C   UNL A   1      44.389  26.188  31.375  1.00  0.00     0.049 A 
ATOM     59  H   UNL A   1      43.340  24.417  30.922  1.00  0.00     0.167 HD
ATOM     60  C   UNL A   1      43.826  27.236  33.491  1.00  0.00     0.074 A 
ATOM     61  C   UNL A   1      43.574  27.435  34.906  1.00  0.00     0.031 C 
ATOM     62  C   UNL A   1      44.251  26.129  32.816  1.00  0.00     0.037 A 
BRANCH  49  63
ATOM     63  C   UNL A   1      42.554  24.005  27.588  1.00  0.00     0.057 A 
ATOM     64  C   UNL A   1      42.381  22.750  28.190  1.00  0.00     0.134 A 
ATOM     65  C   UNL A   1      42.659  23.942  26.175  1.00  0.00     0.134 A 
ATOM     66  F   UNL A   1      42.116  22.652  29.500  1.00  0.00    -0.206 F 
ATOM     67  C   UNL A   1      42.472  21.540  27.475  1.00  0.00     0.040 A 
ATOM     68  C   UNL A   1      42.848  22.745  25.462  1.00  0.00     0.040 A 
ATOM     69  F   UNL A   1      42.533  25.037  25.410  1.00  0.00    -0.206 F 
ATOM     70  C   UNL A   1      42.771  21.532  26.118  1.00  0.00     0.006 A 
ENDBRANCH  49  63
BRANCH  50  71
ATOM     71  C   UNL A   1      41.438  31.348  34.377  1.00  0.00     0.057 A 
ATOM     72  C   UNL A   1      41.675  32.716  34.650  1.00  0.00     0.134 A 
ATOM     73  C   UNL A   1      40.138  30.887  34.601  1.00  0.00     0.134 A 
ATOM     74  F   UNL A   1      42.896  33.241  34.458  1.00  0.00    -0.206 F 
ATOM     75  C   UNL A   1      40.650  33.602  34.991  1.00  0.00     0.040 A 
ATOM     76  C   UNL A   1      39.107  31.763  34.981  1.00  0.00     0.040 A 
ATOM     77  F   UNL A   1      39.804  29.615  34.349  1.00  0.00    -0.206 F 
ATOM     78  C   UNL A   1      39.353  33.127  35.139  1.00  0.00     0.006 A 
ENDBRANCH  50  71
BRANCH  62  79
ATOM     79  C   UNL A   1      44.606  24.895  33.572  1.00  0.00     0.057 A 
ATOM     80  C   UNL A   1      45.928  24.435  33.585  1.00  0.00     0.134 A 
ATOM     81  C   UNL A   1      43.655  24.109  34.240  1.00  0.00     0.134 A 
ATOM     82  F   UNL A   1      46.890  25.110  32.939  1.00  0.00    -0.206 F 
ATOM     83  C   UNL A   1      46.299  23.281  34.275  1.00  0.00     0.040 A 
ATOM     84  C   UNL A   1      44.006  22.931  34.902  1.00  0.00     0.040 A 
ATOM     85  F   UNL A   1      42.361  24.459  34.273  1.00  0.00    -0.206 F 
ATOM     86  C   UNL A   1      45.335  22.523  34.933  1.00  0.00     0.006 A 
ENDBRANCH  62  79
ENDBRANCH  36  37
ENDBRANCH  29  31
ENDBRANCH  28  29
ENDBRANCH  27  28
ENDBRANCH  26  27
ENDBRANCH  25  26
ENDBRANCH  24  25
ENDBRANCH   1  24
TORSDOF 20
ENDMDL
