MODEL 1
REMARK VINA RESULT:     -11.4      0.000      0.000
REMARK SMILES O=C(Cc1ccccc1C(=O)OCCOCCOCCOC(=O)c1ccc(-c2c3nc(c(-c4c(F)cccc4F)c4ccc([nH]4)c(-c4c(F)cccc4F)c4nc(c(-c5c(F)cccc5F)c5ccc2[nH]5)C=C4)C=C3)cc1)Nc1cccc(OC[C@@H]2CCCO2)c1
REMARK SMILES IDX 14 1 13 2 12 3 10 4 11 5 9 6 4 7 5 8 6 9 8 10 7 11 3 12 2 13
REMARK SMILES IDX 1 14 78 15 79 17 80 18 91 19 81 20 83 21 82 22 84 23 85 24
REMARK SMILES IDX 86 25 87 26 90 27 88 28 89 29 15 30 16 31 17 32 18 33 19 34
REMARK SMILES IDX 20 35 21 36 22 37 23 38 24 39 25 40 77 41 26 42 76 43 27 44
REMARK SMILES IDX 28 45 29 46 70 47 30 48 75 49 69 50 71 51 31 52 74 53 68 54
REMARK SMILES IDX 67 55 32 57 58 58 41 59 57 60 42 61 45 62 56 63 72 64 43 65
REMARK SMILES IDX 44 66 55 68 73 69 46 70 33 71 34 72 39 73 35 74 36 75 38 76
REMARK SMILES IDX 40 77 37 78 59 79 60 80 65 81 61 82 62 83 64 84 66 85 63 86
REMARK SMILES IDX 47 87 48 88 53 89 49 90 50 91 52 92 54 93 51 94
REMARK H PARENT 78 16 71 56 45 67
REMARK Flexibility Score: inf
ROOT
ATOM      1  C   UNL A   1      34.517  29.369  27.220  1.00  0.00     0.202 C 
ENDROOT
BRANCH   1   2
ATOM      2  C   UNL A   1      34.038  28.442  26.110  1.00  0.00     0.261 C 
BRANCH   2   3
ATOM      3  O   UNL A   1      33.112  27.480  26.642  1.00  0.00    -0.460 OA
BRANCH   3   4
ATOM      4  C   UNL A   1      31.847  27.932  26.770  1.00  0.00     0.338 C 
ATOM      5  O   UNL A   1      31.394  28.566  27.708  1.00  0.00    -0.246 OA
BRANCH   4   6
ATOM      6  C   UNL A   1      31.121  27.749  25.490  1.00  0.00     0.063 A 
ATOM      7  C   UNL A   1      30.400  26.593  25.117  1.00  0.00    -0.024 A 
ATOM      8  C   UNL A   1      29.665  26.636  23.916  1.00  0.00     0.005 A 
ATOM      9  C   UNL A   1      29.662  27.775  23.106  1.00  0.00     0.000 A 
ATOM     10  C   UNL A   1      31.126  28.883  24.657  1.00  0.00     0.016 A 
ATOM     11  C   UNL A   1      30.401  28.895  23.470  1.00  0.00     0.001 A 
BRANCH   7  12
ATOM     12  C   UNL A   1      30.239  25.383  26.010  1.00  0.00     0.136 C 
BRANCH  12  13
ATOM     13  C   UNL A   1      31.383  24.398  26.209  1.00  0.00     0.228 C 
ATOM     14  O   UNL A   1      31.384  23.747  27.257  1.00  0.00    -0.274 OA
ATOM     15  N   UNL A   1      32.288  24.213  25.178  1.00  0.00    -0.326 N 
ATOM     16  H   UNL A   1      32.067  24.620  24.308  1.00  0.00     0.169 HD
BRANCH  15  17
ATOM     17  C   UNL A   1      33.509  23.487  25.263  1.00  0.00     0.044 A 
ATOM     18  C   UNL A   1      34.622  24.105  25.839  1.00  0.00     0.026 A 
ATOM     19  C   UNL A   1      33.614  22.138  24.899  1.00  0.00     0.072 A 
ATOM     20  C   UNL A   1      35.807  23.384  26.043  1.00  0.00     0.006 A 
ATOM     21  C   UNL A   1      34.770  21.399  25.146  1.00  0.00     0.121 A 
ATOM     22  C   UNL A   1      35.874  22.031  25.710  1.00  0.00     0.046 A 
BRANCH  21  23
ATOM     23  O   UNL A   1      34.854  20.040  25.014  1.00  0.00    -0.491 OA
BRANCH  23  24
ATOM     24  C   UNL A   1      33.731  19.355  24.451  1.00  0.00     0.261 C 
BRANCH  24  25
ATOM     25  C   UNL A   1      33.925  17.845  24.191  1.00  0.00     0.156 C 
ATOM     26  C   UNL A   1      32.826  16.927  24.729  1.00  0.00     0.038 C 
ATOM     27  O   UNL A   1      35.184  17.325  24.653  1.00  0.00    -0.375 OA
ATOM     28  C   UNL A   1      33.555  15.961  25.632  1.00  0.00     0.031 C 
ATOM     29  C   UNL A   1      34.954  15.972  25.065  1.00  0.00     0.161 C 
ENDBRANCH  24  25
ENDBRANCH  23  24
ENDBRANCH  21  23
ENDBRANCH  15  17
ENDBRANCH  12  13
ENDBRANCH   7  12
ENDBRANCH   4   6
ENDBRANCH   3   4
ENDBRANCH   2   3
ENDBRANCH   1   2
BRANCH   1  30
ATOM     30  O   UNL A   1      33.941  30.673  27.221  1.00  0.00    -0.376 OA
BRANCH  30  31
ATOM     31  C   UNL A   1      34.415  31.627  28.165  1.00  0.00     0.188 C 
BRANCH  31  32
ATOM     32  C   UNL A   1      33.964  33.091  28.051  1.00  0.00     0.188 C 
BRANCH  32  33
ATOM     33  O   UNL A   1      34.651  34.073  28.800  1.00  0.00    -0.376 OA
BRANCH  33  34
ATOM     34  C   UNL A   1      34.009  34.650  29.930  1.00  0.00     0.202 C 
BRANCH  34  35
ATOM     35  C   UNL A   1      34.456  34.102  31.278  1.00  0.00     0.261 C 
BRANCH  35  36
ATOM     36  O   UNL A   1      35.759  33.525  31.157  1.00  0.00    -0.460 OA
BRANCH  36  37
ATOM     37  C   UNL A   1      36.085  32.598  32.082  1.00  0.00     0.338 C 
ATOM     38  O   UNL A   1      35.554  32.340  33.144  1.00  0.00    -0.246 OA
BRANCH  37  39
ATOM     39  C   UNL A   1      37.154  31.785  31.504  1.00  0.00     0.060 A 
ATOM     40  C   UNL A   1      37.962  31.031  32.366  1.00  0.00     0.016 A 
ATOM     41  C   UNL A   1      37.352  31.790  30.123  1.00  0.00     0.016 A 
ATOM     42  C   UNL A   1      39.013  30.296  31.840  1.00  0.00     0.010 A 
ATOM     43  C   UNL A   1      38.410  31.066  29.600  1.00  0.00     0.010 A 
ATOM     44  C   UNL A   1      39.257  30.350  30.462  1.00  0.00    -0.014 A 
BRANCH  44  45
ATOM     45  C   UNL A   1      40.505  29.812  29.907  1.00  0.00     0.031 A 
ATOM     46  C   UNL A   1      41.641  30.764  29.701  1.00  0.00     0.074 A 
ATOM     47  C   UNL A   1      40.560  28.528  29.526  1.00  0.00     0.049 A 
ATOM     48  N   UNL A   1      42.768  30.584  29.069  1.00  0.00    -0.248 NA
ATOM     49  C   UNL A   1      41.473  32.115  30.268  1.00  0.00     0.031 C 
ATOM     50  C   UNL A   1      39.490  27.547  29.710  1.00  0.00     0.029 A 
ATOM     51  N   UNL A   1      41.544  27.842  28.870  1.00  0.00    -0.354 N 
ATOM     52  C   UNL A   1      43.435  31.800  29.147  1.00  0.00     0.074 A 
ATOM     53  C   UNL A   1      42.582  32.716  29.869  1.00  0.00     0.031 C 
ATOM     54  C   UNL A   1      39.866  26.386  29.146  1.00  0.00     0.029 A 
ATOM     55  C   UNL A   1      41.181  26.562  28.537  1.00  0.00     0.049 A 
ATOM     56  H   UNL A   1      42.424  28.229  28.658  1.00  0.00     0.167 HD
ATOM     57  C   UNL A   1      44.653  32.113  28.650  1.00  0.00     0.037 A 
ATOM     58  C   UNL A   1      41.836  25.658  27.788  1.00  0.00     0.037 A 
ATOM     59  C   UNL A   1      45.464  31.181  27.916  1.00  0.00     0.049 A 
ATOM     60  C   UNL A   1      43.174  26.039  27.219  1.00  0.00     0.074 A 
ATOM     61  C   UNL A   1      46.718  31.368  27.365  1.00  0.00     0.029 A 
ATOM     62  N   UNL A   1      45.084  29.877  27.626  1.00  0.00    -0.354 N 
ATOM     63  N   UNL A   1      43.816  27.180  27.314  1.00  0.00    -0.248 NA
ATOM     64  C   UNL A   1      43.880  25.012  26.444  1.00  0.00     0.031 C 
ATOM     65  C   UNL A   1      47.081  30.183  26.712  1.00  0.00     0.029 A 
ATOM     66  C   UNL A   1      46.073  29.248  26.893  1.00  0.00     0.049 A 
ATOM     67  H   UNL A   1      44.235  29.462  27.901  1.00  0.00     0.167 HD
ATOM     68  C   UNL A   1      45.012  27.005  26.632  1.00  0.00     0.074 A 
ATOM     69  C   UNL A   1      45.008  25.641  26.139  1.00  0.00     0.031 C 
ATOM     70  C   UNL A   1      46.024  27.883  26.431  1.00  0.00     0.037 A 
BRANCH  57  71
ATOM     71  C   UNL A   1      45.142  33.515  28.862  1.00  0.00     0.057 A 
ATOM     72  C   UNL A   1      45.920  33.867  29.974  1.00  0.00     0.134 A 
ATOM     73  C   UNL A   1      44.822  34.530  27.952  1.00  0.00     0.134 A 
ATOM     74  F   UNL A   1      46.241  32.947  30.897  1.00  0.00    -0.206 F 
ATOM     75  C   UNL A   1      46.340  35.181  30.186  1.00  0.00     0.040 A 
ATOM     76  C   UNL A   1      45.256  35.844  28.141  1.00  0.00     0.040 A 
ATOM     77  F   UNL A   1      44.075  34.265  26.870  1.00  0.00    -0.206 F 
ATOM     78  C   UNL A   1      46.012  36.174  29.265  1.00  0.00     0.006 A 
ENDBRANCH  57  71
BRANCH  58  79
ATOM     79  C   UNL A   1      41.235  24.323  27.547  1.00  0.00     0.057 A 
ATOM     80  C   UNL A   1      41.687  23.194  28.236  1.00  0.00     0.134 A 
ATOM     81  C   UNL A   1      40.178  24.148  26.644  1.00  0.00     0.134 A 
ATOM     82  F   UNL A   1      42.704  23.296  29.105  1.00  0.00    -0.206 F 
ATOM     83  C   UNL A   1      41.118  21.936  28.032  1.00  0.00     0.040 A 
ATOM     84  C   UNL A   1      39.585  22.900  26.445  1.00  0.00     0.040 A 
ATOM     85  F   UNL A   1      39.693  25.193  25.958  1.00  0.00    -0.206 F 
ATOM     86  C   UNL A   1      40.059  21.788  27.138  1.00  0.00     0.006 A 
ENDBRANCH  58  79
BRANCH  70  87
ATOM     87  C   UNL A   1      47.216  27.375  25.679  1.00  0.00     0.057 A 
ATOM     88  C   UNL A   1      47.351  27.565  24.298  1.00  0.00     0.134 A 
ATOM     89  C   UNL A   1      48.257  26.728  26.355  1.00  0.00     0.134 A 
ATOM     90  F   UNL A   1      46.380  28.168  23.596  1.00  0.00    -0.206 F 
ATOM     91  C   UNL A   1      48.477  27.110  23.612  1.00  0.00     0.040 A 
ATOM     92  C   UNL A   1      49.397  26.290  25.683  1.00  0.00     0.040 A 
ATOM     93  F   UNL A   1      48.186  26.526  27.679  1.00  0.00    -0.206 F 
ATOM     94  C   UNL A   1      49.506  26.476  24.307  1.00  0.00     0.006 A 
ENDBRANCH  70  87
ENDBRANCH  44  45
ENDBRANCH  37  39
ENDBRANCH  36  37
ENDBRANCH  35  36
ENDBRANCH  34  35
ENDBRANCH  33  34
ENDBRANCH  32  33
ENDBRANCH  31  32
ENDBRANCH  30  31
ENDBRANCH   1  30
TORSDOF 23
ENDMDL
MODEL 2
REMARK VINA RESULT:     -10.5      1.727      6.452
REMARK SMILES O=C(Cc1ccccc1C(=O)OCCOCCOCCOC(=O)c1ccc(-c2c3nc(c(-c4c(F)cccc4F)c4ccc([nH]4)c(-c4c(F)cccc4F)c4nc(c(-c5c(F)cccc5F)c5ccc2[nH]5)C=C4)C=C3)cc1)Nc1cccc(OC[C@@H]2CCCO2)c1
REMARK SMILES IDX 14 1 13 2 12 3 10 4 11 5 9 6 4 7 5 8 6 9 8 10 7 11 3 12 2 13
REMARK SMILES IDX 1 14 78 15 79 17 80 18 91 19 81 20 83 21 82 22 84 23 85 24
REMARK SMILES IDX 86 25 87 26 90 27 88 28 89 29 15 30 16 31 17 32 18 33 19 34
REMARK SMILES IDX 20 35 21 36 22 37 23 38 24 39 25 40 77 41 26 42 76 43 27 44
REMARK SMILES IDX 28 45 29 46 70 47 30 48 75 49 69 50 71 51 31 52 74 53 68 54
REMARK SMILES IDX 67 55 32 57 58 58 41 59 57 60 42 61 45 62 56 63 72 64 43 65
REMARK SMILES IDX 44 66 55 68 73 69 46 70 33 71 34 72 39 73 35 74 36 75 38 76
REMARK SMILES IDX 40 77 37 78 59 79 60 80 65 81 61 82 62 83 64 84 66 85 63 86
REMARK SMILES IDX 47 87 48 88 53 89 49 90 50 91 52 92 54 93 51 94
REMARK H PARENT 78 16 71 56 45 67
REMARK Flexibility Score: inf
ROOT
ATOM      1  C   UNL A   1      34.435  29.501  27.710  1.00  0.00     0.202 C 
ENDROOT
BRANCH   1   2
ATOM      2  C   UNL A   1      33.739  29.174  26.395  1.00  0.00     0.261 C 
BRANCH   2   3
ATOM      3  O   UNL A   1      33.129  27.874  26.475  1.00  0.00    -0.460 OA
BRANCH   3   4
ATOM      4  C   UNL A   1      31.795  27.895  26.682  1.00  0.00     0.338 C 
ATOM      5  O   UNL A   1      31.226  28.162  27.727  1.00  0.00    -0.246 OA
BRANCH   4   6
ATOM      6  C   UNL A   1      31.089  27.768  25.384  1.00  0.00     0.063 A 
ATOM      7  C   UNL A   1      30.242  26.699  25.017  1.00  0.00    -0.024 A 
ATOM      8  C   UNL A   1      29.551  26.800  23.793  1.00  0.00     0.005 A 
ATOM      9  C   UNL A   1      29.711  27.908  22.956  1.00  0.00     0.000 A 
ATOM     10  C   UNL A   1      31.256  28.870  24.526  1.00  0.00     0.016 A 
ATOM     11  C   UNL A   1      30.571  28.939  23.318  1.00  0.00     0.001 A 
BRANCH   7  12
ATOM     12  C   UNL A   1      29.908  25.542  25.931  1.00  0.00     0.136 C 
BRANCH  12  13
ATOM     13  C   UNL A   1      30.868  24.372  26.096  1.00  0.00     0.228 C 
ATOM     14  O   UNL A   1      31.163  24.049  27.251  1.00  0.00    -0.274 OA
ATOM     15  N   UNL A   1      31.271  23.678  24.968  1.00  0.00    -0.326 N 
ATOM     16  H   UNL A   1      30.805  23.882  24.125  1.00  0.00     0.169 HD
BRANCH  15  17
ATOM     17  C   UNL A   1      32.300  22.695  24.919  1.00  0.00     0.044 A 
ATOM     18  C   UNL A   1      31.961  21.355  25.129  1.00  0.00     0.026 A 
ATOM     19  C   UNL A   1      33.618  22.996  24.556  1.00  0.00     0.072 A 
ATOM     20  C   UNL A   1      32.924  20.349  24.976  1.00  0.00     0.006 A 
ATOM     21  C   UNL A   1      34.570  21.999  24.349  1.00  0.00     0.121 A 
ATOM     22  C   UNL A   1      34.221  20.670  24.574  1.00  0.00     0.046 A 
BRANCH  21  23
ATOM     23  O   UNL A   1      35.798  22.214  23.789  1.00  0.00    -0.491 OA
BRANCH  23  24
ATOM     24  C   UNL A   1      36.926  21.568  24.388  1.00  0.00     0.261 C 
BRANCH  24  25
ATOM     25  C   UNL A   1      37.381  22.134  25.751  1.00  0.00     0.156 C 
ATOM     26  C   UNL A   1      37.178  23.637  25.953  1.00  0.00     0.038 C 
ATOM     27  O   UNL A   1      38.748  21.837  26.085  1.00  0.00    -0.375 OA
ATOM     28  C   UNL A   1      38.556  24.160  26.277  1.00  0.00     0.031 C 
ATOM     29  C   UNL A   1      39.245  22.944  26.847  1.00  0.00     0.161 C 
ENDBRANCH  24  25
ENDBRANCH  23  24
ENDBRANCH  21  23
ENDBRANCH  15  17
ENDBRANCH  12  13
ENDBRANCH   7  12
ENDBRANCH   4   6
ENDBRANCH   3   4
ENDBRANCH   2   3
ENDBRANCH   1   2
BRANCH   1  30
ATOM     30  O   UNL A   1      35.539  30.397  27.613  1.00  0.00    -0.376 OA
BRANCH  30  31
ATOM     31  C   UNL A   1      35.283  31.798  27.628  1.00  0.00     0.188 C 
BRANCH  31  32
ATOM     32  C   UNL A   1      34.197  32.358  28.559  1.00  0.00     0.188 C 
BRANCH  32  33
ATOM     33  O   UNL A   1      34.571  32.799  29.850  1.00  0.00    -0.376 OA
BRANCH  33  34
ATOM     34  C   UNL A   1      35.953  32.931  30.157  1.00  0.00     0.202 C 
BRANCH  34  35
ATOM     35  C   UNL A   1      36.326  32.638  31.603  1.00  0.00     0.261 C 
BRANCH  35  36
ATOM     36  O   UNL A   1      37.485  31.801  31.643  1.00  0.00    -0.460 OA
BRANCH  36  37
ATOM     37  C   UNL A   1      37.260  30.473  31.554  1.00  0.00     0.338 C 
ATOM     38  O   UNL A   1      36.278  29.829  31.865  1.00  0.00    -0.246 OA
BRANCH  37  39
ATOM     39  C   UNL A   1      38.394  29.902  30.828  1.00  0.00     0.060 A 
ATOM     40  C   UNL A   1      39.394  29.248  31.559  1.00  0.00     0.016 A 
ATOM     41  C   UNL A   1      38.460  30.035  29.442  1.00  0.00     0.016 A 
ATOM     42  C   UNL A   1      40.502  28.747  30.893  1.00  0.00     0.010 A 
ATOM     43  C   UNL A   1      39.573  29.546  28.778  1.00  0.00     0.010 A 
ATOM     44  C   UNL A   1      40.606  28.936  29.510  1.00  0.00    -0.014 A 
BRANCH  44  45
ATOM     45  C   UNL A   1      41.871  28.665  28.815  1.00  0.00     0.031 A 
ATOM     46  C   UNL A   1      42.121  27.265  28.347  1.00  0.00     0.074 A 
ATOM     47  C   UNL A   1      42.784  29.640  28.700  1.00  0.00     0.049 A 
ATOM     48  N   UNL A   1      43.215  26.733  27.879  1.00  0.00    -0.248 NA
ATOM     49  C   UNL A   1      40.984  26.332  28.443  1.00  0.00     0.031 C 
ATOM     50  C   UNL A   1      42.596  31.027  29.125  1.00  0.00     0.029 A 
ATOM     51  N   UNL A   1      44.066  29.598  28.226  1.00  0.00    -0.354 N 
ATOM     52  C   UNL A   1      42.905  25.400  27.640  1.00  0.00     0.074 A 
ATOM     53  C   UNL A   1      41.530  25.199  28.032  1.00  0.00     0.031 C 
ATOM     54  C   UNL A   1      43.740  31.701  28.922  1.00  0.00     0.029 A 
ATOM     55  C   UNL A   1      44.741  30.781  28.388  1.00  0.00     0.049 A 
ATOM     56  H   UNL A   1      44.463  28.799  27.811  1.00  0.00     0.167 HD
ATOM     57  C   UNL A   1      43.711  24.436  27.139  1.00  0.00     0.037 A 
ATOM     58  C   UNL A   1      46.035  31.062  28.160  1.00  0.00     0.037 A 
ATOM     59  C   UNL A   1      45.083  24.669  26.781  1.00  0.00     0.049 A 
ATOM     60  C   UNL A   1      46.920  29.966  27.634  1.00  0.00     0.074 A 
ATOM     61  C   UNL A   1      46.006  23.782  26.258  1.00  0.00     0.029 A 
ATOM     62  N   UNL A   1      45.730  25.890  26.922  1.00  0.00    -0.354 N 
ATOM     63  N   UNL A   1      46.621  28.712  27.385  1.00  0.00    -0.248 NA
ATOM     64  C   UNL A   1      48.317  30.320  27.356  1.00  0.00     0.031 C 
ATOM     65  C   UNL A   1      47.221  24.462  26.114  1.00  0.00     0.029 A 
ATOM     66  C   UNL A   1      47.043  25.780  26.508  1.00  0.00     0.049 A 
ATOM     67  H   UNL A   1      45.313  26.712  27.268  1.00  0.00     0.167 HD
ATOM     68  C   UNL A   1      47.783  28.131  26.898  1.00  0.00     0.074 A 
ATOM     69  C   UNL A   1      48.789  29.176  26.878  1.00  0.00     0.031 C 
ATOM     70  C   UNL A   1      48.005  26.855  26.500  1.00  0.00     0.037 A 
BRANCH  57  71
ATOM     71  C   UNL A   1      43.129  23.062  26.992  1.00  0.00     0.057 A 
ATOM     72  C   UNL A   1      42.774  22.539  25.741  1.00  0.00     0.134 A 
ATOM     73  C   UNL A   1      42.906  22.254  28.114  1.00  0.00     0.134 A 
ATOM     74  F   UNL A   1      42.938  23.271  24.627  1.00  0.00    -0.206 F 
ATOM     75  C   UNL A   1      42.197  21.274  25.613  1.00  0.00     0.040 A 
ATOM     76  C   UNL A   1      42.351  20.977  27.997  1.00  0.00     0.040 A 
ATOM     77  F   UNL A   1      43.215  22.694  29.342  1.00  0.00    -0.206 F 
ATOM     78  C   UNL A   1      41.989  20.488  26.744  1.00  0.00     0.006 A 
ENDBRANCH  57  71
BRANCH  58  79
ATOM     79  C   UNL A   1      46.554  32.426  28.425  1.00  0.00     0.057 A 
ATOM     80  C   UNL A   1      47.114  32.757  29.662  1.00  0.00     0.134 A 
ATOM     81  C   UNL A   1      46.530  33.423  27.441  1.00  0.00     0.134 A 
ATOM     82  F   UNL A   1      47.154  31.847  30.649  1.00  0.00    -0.206 F 
ATOM     83  C   UNL A   1      47.623  34.031  29.920  1.00  0.00     0.040 A 
ATOM     84  C   UNL A   1      47.055  34.695  27.676  1.00  0.00     0.040 A 
ATOM     85  F   UNL A   1      46.015  33.167  26.229  1.00  0.00    -0.206 F 
ATOM     86  C   UNL A   1      47.600  35.003  28.921  1.00  0.00     0.006 A 
ENDBRANCH  58  79
BRANCH  70  87
ATOM     87  C   UNL A   1      49.374  26.541  25.979  1.00  0.00     0.057 A 
ATOM     88  C   UNL A   1      49.753  26.854  24.668  1.00  0.00     0.134 A 
ATOM     89  C   UNL A   1      50.334  25.958  26.816  1.00  0.00     0.134 A 
ATOM     90  F   UNL A   1      48.871  27.403  23.818  1.00  0.00    -0.206 F 
ATOM     91  C   UNL A   1      51.038  26.581  24.201  1.00  0.00     0.040 A 
ATOM     92  C   UNL A   1      51.628  25.702  26.367  1.00  0.00     0.040 A 
ATOM     93  F   UNL A   1      50.030  25.645  28.084  1.00  0.00    -0.206 F 
ATOM     94  C   UNL A   1      51.981  26.009  25.054  1.00  0.00     0.006 A 
ENDBRANCH  70  87
ENDBRANCH  44  45
ENDBRANCH  37  39
ENDBRANCH  36  37
ENDBRANCH  35  36
ENDBRANCH  34  35
ENDBRANCH  33  34
ENDBRANCH  32  33
ENDBRANCH  31  32
ENDBRANCH  30  31
ENDBRANCH   1  30
TORSDOF 23
ENDMDL
MODEL 3
REMARK VINA RESULT:     -10.5      4.304     10.333
REMARK SMILES O=C(Cc1ccccc1C(=O)OCCOCCOCCOC(=O)c1ccc(-c2c3nc(c(-c4c(F)cccc4F)c4ccc([nH]4)c(-c4c(F)cccc4F)c4nc(c(-c5c(F)cccc5F)c5ccc2[nH]5)C=C4)C=C3)cc1)Nc1cccc(OC[C@@H]2CCCO2)c1
REMARK SMILES IDX 14 1 13 2 12 3 10 4 11 5 9 6 4 7 5 8 6 9 8 10 7 11 3 12 2 13
REMARK SMILES IDX 1 14 78 15 79 17 80 18 91 19 81 20 83 21 82 22 84 23 85 24
REMARK SMILES IDX 86 25 87 26 90 27 88 28 89 29 15 30 16 31 17 32 18 33 19 34
REMARK SMILES IDX 20 35 21 36 22 37 23 38 24 39 25 40 77 41 26 42 76 43 27 44
REMARK SMILES IDX 28 45 29 46 70 47 30 48 75 49 69 50 71 51 31 52 74 53 68 54
REMARK SMILES IDX 67 55 32 57 58 58 41 59 57 60 42 61 45 62 56 63 72 64 43 65
REMARK SMILES IDX 44 66 55 68 73 69 46 70 33 71 34 72 39 73 35 74 36 75 38 76
REMARK SMILES IDX 40 77 37 78 59 79 60 80 65 81 61 82 62 83 64 84 66 85 63 86
REMARK SMILES IDX 47 87 48 88 53 89 49 90 50 91 52 92 54 93 51 94
REMARK H PARENT 78 16 71 56 45 67
REMARK Flexibility Score: inf
ROOT
ATOM      1  C   UNL A   1      38.543  21.678  25.361  1.00  0.00     0.202 C 
ENDROOT
BRANCH   1   2
ATOM      2  C   UNL A   1      37.471  22.617  25.899  1.00  0.00     0.261 C 
BRANCH   2   3
ATOM      3  O   UNL A   1      36.227  22.378  25.217  1.00  0.00    -0.460 OA
BRANCH   3   4
ATOM      4  C   UNL A   1      35.155  22.278  26.030  1.00  0.00     0.338 C 
ATOM      5  O   UNL A   1      34.829  23.064  26.903  1.00  0.00    -0.246 OA
BRANCH   4   6
ATOM      6  C   UNL A   1      34.277  21.178  25.562  1.00  0.00     0.063 A 
ATOM      7  C   UNL A   1      32.864  21.205  25.560  1.00  0.00    -0.024 A 
ATOM      8  C   UNL A   1      32.188  20.123  24.963  1.00  0.00     0.005 A 
ATOM      9  C   UNL A   1      32.886  19.046  24.409  1.00  0.00     0.000 A 
ATOM     10  C   UNL A   1      34.968  20.080  25.018  1.00  0.00     0.016 A 
ATOM     11  C   UNL A   1      34.275  19.019  24.445  1.00  0.00     0.001 A 
BRANCH   7  12
ATOM     12  C   UNL A   1      32.049  22.397  26.006  1.00  0.00     0.136 C 
BRANCH  12  13
ATOM     13  C   UNL A   1      31.863  23.604  25.095  1.00  0.00     0.228 C 
ATOM     14  O   UNL A   1      31.042  23.492  24.180  1.00  0.00    -0.274 OA
ATOM     15  N   UNL A   1      32.533  24.776  25.398  1.00  0.00    -0.326 N 
ATOM     16  H   UNL A   1      32.988  24.820  26.271  1.00  0.00     0.169 HD
BRANCH  15  17
ATOM     17  C   UNL A   1      32.624  25.923  24.561  1.00  0.00     0.044 A 
ATOM     18  C   UNL A   1      33.562  25.928  23.524  1.00  0.00     0.026 A 
ATOM     19  C   UNL A   1      31.736  27.002  24.657  1.00  0.00     0.072 A 
ATOM     20  C   UNL A   1      33.602  26.990  22.611  1.00  0.00     0.006 A 
ATOM     21  C   UNL A   1      31.734  28.037  23.723  1.00  0.00     0.121 A 
ATOM     22  C   UNL A   1      32.681  28.034  22.703  1.00  0.00     0.046 A 
BRANCH  21  23
ATOM     23  O   UNL A   1      30.761  28.994  23.640  1.00  0.00    -0.491 OA
BRANCH  23  24
ATOM     24  C   UNL A   1      30.261  29.325  22.340  1.00  0.00     0.261 C 
BRANCH  24  25
ATOM     25  C   UNL A   1      28.860  29.973  22.302  1.00  0.00     0.156 C 
ATOM     26  C   UNL A   1      28.611  30.965  21.165  1.00  0.00     0.038 C 
ATOM     27  O   UNL A   1      28.477  30.620  23.529  1.00  0.00    -0.375 OA
ATOM     28  C   UNL A   1      28.208  32.240  21.863  1.00  0.00     0.031 C 
ATOM     29  C   UNL A   1      27.653  31.737  23.174  1.00  0.00     0.161 C 
ENDBRANCH  24  25
ENDBRANCH  23  24
ENDBRANCH  21  23
ENDBRANCH  15  17
ENDBRANCH  12  13
ENDBRANCH   7  12
ENDBRANCH   4   6
ENDBRANCH   3   4
ENDBRANCH   2   3
ENDBRANCH   1   2
BRANCH   1  30
ATOM     30  O   UNL A   1      39.399  21.098  26.343  1.00  0.00    -0.376 OA
BRANCH  30  31
ATOM     31  C   UNL A   1      40.215  19.993  25.969  1.00  0.00     0.188 C 
BRANCH  31  32
ATOM     32  C   UNL A   1      41.700  19.984  26.362  1.00  0.00     0.188 C 
BRANCH  32  33
ATOM     33  O   UNL A   1      42.635  20.598  25.497  1.00  0.00    -0.376 OA
BRANCH  33  34
ATOM     34  C   UNL A   1      43.136  21.886  25.828  1.00  0.00     0.202 C 
BRANCH  34  35
ATOM     35  C   UNL A   1      43.592  22.728  24.645  1.00  0.00     0.261 C 
BRANCH  35  36
ATOM     36  O   UNL A   1      43.088  24.060  24.778  1.00  0.00    -0.460 OA
BRANCH  36  37
ATOM     37  C   UNL A   1      43.960  24.980  25.240  1.00  0.00     0.338 C 
ATOM     38  O   UNL A   1      45.071  25.267  24.841  1.00  0.00    -0.246 OA
BRANCH  37  39
ATOM     39  C   UNL A   1      43.257  25.746  26.269  1.00  0.00     0.060 A 
ATOM     40  C   UNL A   1      43.684  27.053  26.538  1.00  0.00     0.016 A 
ATOM     41  C   UNL A   1      42.199  25.158  26.961  1.00  0.00     0.016 A 
ATOM     42  C   UNL A   1      43.063  27.774  27.546  1.00  0.00     0.010 A 
ATOM     43  C   UNL A   1      41.588  25.874  27.977  1.00  0.00     0.010 A 
ATOM     44  C   UNL A   1      42.045  27.165  28.289  1.00  0.00    -0.014 A 
BRANCH  44  45
ATOM     45  C   UNL A   1      41.552  27.787  29.525  1.00  0.00     0.031 A 
ATOM     46  C   UNL A   1      40.359  28.685  29.423  1.00  0.00     0.074 A 
ATOM     47  C   UNL A   1      42.225  27.606  30.670  1.00  0.00     0.049 A 
ATOM     48  N   UNL A   1      39.847  29.485  30.316  1.00  0.00    -0.248 NA
ATOM     49  C   UNL A   1      39.662  28.700  28.124  1.00  0.00     0.031 C 
ATOM     50  C   UNL A   1      43.388  26.733  30.836  1.00  0.00     0.029 A 
ATOM     51  N   UNL A   1      42.047  28.177  31.899  1.00  0.00    -0.354 N 
ATOM     52  C   UNL A   1      38.779  30.110  29.685  1.00  0.00     0.074 A 
ATOM     53  C   UNL A   1      38.727  29.614  28.330  1.00  0.00     0.031 C 
ATOM     54  C   UNL A   1      43.842  26.854  32.095  1.00  0.00     0.029 A 
ATOM     55  C   UNL A   1      43.022  27.835  32.800  1.00  0.00     0.049 A 
ATOM     56  H   UNL A   1      41.295  28.774  32.114  1.00  0.00     0.167 HD
ATOM     57  C   UNL A   1      37.925  31.021  30.204  1.00  0.00     0.037 A 
ATOM     58  C   UNL A   1      43.236  28.301  34.043  1.00  0.00     0.037 A 
ATOM     59  C   UNL A   1      38.022  31.509  31.552  1.00  0.00     0.049 A 
ATOM     60  C   UNL A   1      42.293  29.338  34.587  1.00  0.00     0.074 A 
ATOM     61  C   UNL A   1      37.218  32.426  32.203  1.00  0.00     0.029 A 
ATOM     62  N   UNL A   1      39.001  31.115  32.456  1.00  0.00    -0.354 N 
ATOM     63  N   UNL A   1      41.268  29.910  33.999  1.00  0.00    -0.248 NA
ATOM     64  C   UNL A   1      42.531  29.791  35.962  1.00  0.00     0.031 C 
ATOM     65  C   UNL A   1      37.733  32.610  33.492  1.00  0.00     0.029 A 
ATOM     66  C   UNL A   1      38.831  31.777  33.656  1.00  0.00     0.049 A 
ATOM     67  H   UNL A   1      39.712  30.460  32.267  1.00  0.00     0.167 HD
ATOM     68  C   UNL A   1      40.722  30.774  34.937  1.00  0.00     0.074 A 
ATOM     69  C   UNL A   1      41.526  30.640  36.137  1.00  0.00     0.031 C 
ATOM     70  C   UNL A   1      39.656  31.603  34.826  1.00  0.00     0.037 A 
BRANCH  57  71
ATOM     71  C   UNL A   1      36.856  31.555  29.297  1.00  0.00     0.057 A 
ATOM     72  C   UNL A   1      36.892  32.866  28.803  1.00  0.00     0.134 A 
ATOM     73  C   UNL A   1      35.769  30.756  28.924  1.00  0.00     0.134 A 
ATOM     74  F   UNL A   1      37.894  33.693  29.143  1.00  0.00    -0.206 F 
ATOM     75  C   UNL A   1      35.875  33.370  27.991  1.00  0.00     0.040 A 
ATOM     76  C   UNL A   1      34.757  31.241  28.092  1.00  0.00     0.040 A 
ATOM     77  F   UNL A   1      35.667  29.494  29.366  1.00  0.00    -0.206 F 
ATOM     78  C   UNL A   1      34.805  32.554  27.629  1.00  0.00     0.006 A 
ENDBRANCH  57  71
BRANCH  58  79
ATOM     79  C   UNL A   1      44.378  27.788  34.839  1.00  0.00     0.057 A 
ATOM     80  C   UNL A   1      44.238  26.664  35.659  1.00  0.00     0.134 A 
ATOM     81  C   UNL A   1      45.642  28.389  34.779  1.00  0.00     0.134 A 
ATOM     82  F   UNL A   1      43.048  26.053  35.767  1.00  0.00    -0.206 F 
ATOM     83  C   UNL A   1      45.308  26.160  36.400  1.00  0.00     0.040 A 
ATOM     84  C   UNL A   1      46.727  27.884  35.497  1.00  0.00     0.040 A 
ATOM     85  F   UNL A   1      45.844  29.465  34.004  1.00  0.00    -0.206 F 
ATOM     86  C   UNL A   1      46.560  26.767  36.314  1.00  0.00     0.006 A 
ENDBRANCH  58  79
BRANCH  70  87
ATOM     87  C   UNL A   1      39.285  32.391  36.045  1.00  0.00     0.057 A 
ATOM     88  C   UNL A   1      39.830  33.655  36.298  1.00  0.00     0.134 A 
ATOM     89  C   UNL A   1      38.340  31.893  36.950  1.00  0.00     0.134 A 
ATOM     90  F   UNL A   1      40.749  34.178  35.472  1.00  0.00    -0.206 F 
ATOM     91  C   UNL A   1      39.459  34.391  37.423  1.00  0.00     0.040 A 
ATOM     92  C   UNL A   1      37.944  32.630  38.065  1.00  0.00     0.040 A 
ATOM     93  F   UNL A   1      37.778  30.691  36.754  1.00  0.00    -0.206 F 
ATOM     94  C   UNL A   1      38.508  33.880  38.306  1.00  0.00     0.006 A 
ENDBRANCH  70  87
ENDBRANCH  44  45
ENDBRANCH  37  39
ENDBRANCH  36  37
ENDBRANCH  35  36
ENDBRANCH  34  35
ENDBRANCH  33  34
ENDBRANCH  32  33
ENDBRANCH  31  32
ENDBRANCH  30  31
ENDBRANCH   1  30
TORSDOF 23
ENDMDL
