MODEL 1
REMARK VINA RESULT:     -10.4      0.000      0.000
REMARK SMILES CCCN1C(=O)C[C@H](C(=O)OCCOCCOCCOC(=O)c2ccc(-c3c4nc(c(-c5c(F)cccc5F)c5ccc([nH]5)c(-c5c(F)cccc5F)c5nc(c(-c6c(F)cccc6F)c6ccc3[nH]6)C=C5)C=C4)cc2)[C@@H]1c1cncn1C1CC1
REMARK SMILES IDX 15 1 14 2 13 3 12 4 11 5 9 6 10 7 8 8 4 9 5 10 77 11 6 12
REMARK SMILES IDX 7 13 3 14 2 15 1 16 78 17 79 18 82 19 80 20 81 21 83 22
REMARK SMILES IDX 84 23 85 24 16 25 17 26 18 27 19 28 20 29 21 30 22 31 23 32
REMARK SMILES IDX 24 33 76 34 25 35 75 36 26 37 27 38 28 39 69 40 29 41 74 42
REMARK SMILES IDX 68 43 70 44 30 45 73 46 67 47 66 48 31 50 57 51 40 52 56 53
REMARK SMILES IDX 41 54 44 55 55 56 71 57 42 58 43 59 54 61 72 62 45 63 32 64
REMARK SMILES IDX 33 65 38 66 34 67 35 68 37 69 39 70 36 71 58 72 59 73 64 74
REMARK SMILES IDX 60 75 61 76 63 77 65 78 62 79 46 80 47 81 52 82 48 83 49 84
REMARK SMILES IDX 51 85 53 86 50 87
REMARK H PARENT 70 49 44 60
REMARK Flexibility Score: inf
ROOT
ATOM      1  C   UNL A   1      38.934  21.242  25.660  1.00  0.00     0.188 C 
ENDROOT
BRANCH   1   2
ATOM      2  O   UNL A   1      37.770  21.950  26.069  1.00  0.00    -0.376 OA
BRANCH   2   3
ATOM      3  C   UNL A   1      37.358  23.107  25.354  1.00  0.00     0.202 C 
BRANCH   3   4
ATOM      4  C   UNL A   1      35.880  23.522  25.407  1.00  0.00     0.261 C 
BRANCH   4   5
ATOM      5  O   UNL A   1      34.995  22.871  24.471  1.00  0.00    -0.463 OA
BRANCH   5   6
ATOM      6  C   UNL A   1      33.961  23.616  24.001  1.00  0.00     0.312 C 
ATOM      7  O   UNL A   1      32.995  23.164  23.396  1.00  0.00    -0.252 OA
BRANCH   6   8
ATOM      8  C   UNL A   1      34.103  25.103  24.237  1.00  0.00     0.137 C 
ATOM      9  N   UNL A   1      33.403  27.078  25.300  1.00  0.00    -0.333 N 
ATOM     10  C   UNL A   1      33.664  27.360  23.955  1.00  0.00     0.224 C 
ATOM     11  C   UNL A   1      33.492  25.643  25.538  1.00  0.00     0.148 C 
ATOM     12  O   UNL A   1      33.938  28.429  23.438  1.00  0.00    -0.275 OA
ATOM     13  C   UNL A   1      33.603  26.075  23.192  1.00  0.00     0.118 C 
BRANCH   9  14
ATOM     14  C   UNL A   1      33.707  28.032  26.372  1.00  0.00     0.120 C 
BRANCH  14  15
ATOM     15  C   UNL A   1      32.580  28.941  26.898  1.00  0.00     0.018 C 
ATOM     16  C   UNL A   1      31.528  28.319  27.808  1.00  0.00     0.006 C 
ENDBRANCH  14  15
ENDBRANCH   9  14
BRANCH  11  17
ATOM     17  C   UNL A   1      32.301  24.867  26.039  1.00  0.00     0.061 A 
ATOM     18  C   UNL A   1      32.478  23.742  26.857  1.00  0.00     0.136 A 
ATOM     19  N   UNL A   1      30.923  24.889  25.875  1.00  0.00    -0.330 N 
ATOM     20  N   UNL A   1      31.332  23.057  27.090  1.00  0.00    -0.245 NA
ATOM     21  C   UNL A   1      30.417  23.762  26.485  1.00  0.00     0.199 A 
BRANCH  19  22
ATOM     22  C   UNL A   1      29.954  25.790  25.286  1.00  0.00     0.088 C 
ATOM     23  C   UNL A   1      30.292  26.974  24.433  1.00  0.00     0.027 C 
ATOM     24  C   UNL A   1      29.567  25.821  23.831  1.00  0.00     0.027 C 
ENDBRANCH  19  22
ENDBRANCH  11  17
ENDBRANCH   6   8
ENDBRANCH   5   6
ENDBRANCH   4   5
ENDBRANCH   3   4
ENDBRANCH   2   3
ENDBRANCH   1   2
BRANCH   1  25
ATOM     25  C   UNL A   1      40.261  21.459  26.407  1.00  0.00     0.188 C 
BRANCH  25  26
ATOM     26  O   UNL A   1      41.255  20.506  26.124  1.00  0.00    -0.376 OA
BRANCH  26  27
ATOM     27  C   UNL A   1      42.602  20.854  26.354  1.00  0.00     0.202 C 
BRANCH  27  28
ATOM     28  C   UNL A   1      43.391  21.593  25.261  1.00  0.00     0.261 C 
BRANCH  28  29
ATOM     29  O   UNL A   1      42.928  22.900  24.876  1.00  0.00    -0.460 OA
BRANCH  29  30
ATOM     30  C   UNL A   1      43.772  23.943  25.034  1.00  0.00     0.338 C 
ATOM     31  O   UNL A   1      44.795  24.161  24.399  1.00  0.00    -0.246 OA
BRANCH  30  32
ATOM     32  C   UNL A   1      43.135  24.910  25.961  1.00  0.00     0.060 A 
ATOM     33  C   UNL A   1      43.474  26.270  25.883  1.00  0.00     0.016 A 
ATOM     34  C   UNL A   1      42.191  24.479  26.894  1.00  0.00     0.016 A 
ATOM     35  C   UNL A   1      42.892  27.195  26.757  1.00  0.00     0.010 A 
ATOM     36  C   UNL A   1      41.626  25.402  27.783  1.00  0.00     0.010 A 
ATOM     37  C   UNL A   1      41.995  26.760  27.741  1.00  0.00    -0.014 A 
BRANCH  37  38
ATOM     38  C   UNL A   1      41.591  27.661  28.852  1.00  0.00     0.031 A 
ATOM     39  C   UNL A   1      42.338  27.562  30.155  1.00  0.00     0.074 A 
ATOM     40  C   UNL A   1      40.578  28.537  28.730  1.00  0.00     0.049 A 
ATOM     41  N   UNL A   1      42.103  28.150  31.300  1.00  0.00    -0.248 NA
ATOM     42  C   UNL A   1      43.507  26.668  30.165  1.00  0.00     0.031 C 
ATOM     43  C   UNL A   1      39.801  28.771  27.516  1.00  0.00     0.029 A 
ATOM     44  N   UNL A   1      40.018  29.382  29.658  1.00  0.00    -0.354 N 
ATOM     45  C   UNL A   1      43.083  27.686  32.169  1.00  0.00     0.074 A 
ATOM     46  C   UNL A   1      43.896  26.746  31.428  1.00  0.00     0.031 C 
ATOM     47  C   UNL A   1      38.849  29.686  27.780  1.00  0.00     0.029 A 
ATOM     48  C   UNL A   1      38.926  30.071  29.189  1.00  0.00     0.049 A 
ATOM     49  H   UNL A   1      40.366  29.484  30.574  1.00  0.00     0.167 HD
ATOM     50  C   UNL A   1      43.293  28.016  33.466  1.00  0.00     0.037 A 
ATOM     51  C   UNL A   1      38.069  30.892  29.830  1.00  0.00     0.037 A 
ATOM     52  C   UNL A   1      42.482  28.946  34.208  1.00  0.00     0.049 A 
ATOM     53  C   UNL A   1      38.267  31.176  31.299  1.00  0.00     0.074 A 
ATOM     54  C   UNL A   1      42.625  29.356  35.522  1.00  0.00     0.029 A 
ATOM     55  N   UNL A   1      41.369  29.600  33.702  1.00  0.00    -0.354 N 
ATOM     56  N   UNL A   1      39.206  30.749  32.109  1.00  0.00    -0.248 NA
ATOM     57  C   UNL A   1      37.281  32.057  31.944  1.00  0.00     0.031 C 
ATOM     58  C   UNL A   1      41.562  30.211  35.830  1.00  0.00     0.029 A 
ATOM     59  C   UNL A   1      40.797  30.388  34.688  1.00  0.00     0.049 A 
ATOM     60  H   UNL A   1      41.035  29.518  32.780  1.00  0.00     0.167 HD
ATOM     61  C   UNL A   1      38.946  31.337  33.343  1.00  0.00     0.074 A 
ATOM     62  C   UNL A   1      37.765  32.157  33.174  1.00  0.00     0.031 C 
ATOM     63  C   UNL A   1      39.627  31.212  34.508  1.00  0.00     0.037 A 
BRANCH  50  64
ATOM     64  C   UNL A   1      44.427  27.332  34.176  1.00  0.00     0.057 A 
ATOM     65  C   UNL A   1      44.280  26.072  34.771  1.00  0.00     0.134 A 
ATOM     66  C   UNL A   1      45.688  27.936  34.249  1.00  0.00     0.134 A 
ATOM     67  F   UNL A   1      43.095  25.443  34.750  1.00  0.00    -0.206 F 
ATOM     68  C   UNL A   1      45.337  25.454  35.442  1.00  0.00     0.040 A 
ATOM     69  C   UNL A   1      46.762  27.313  34.889  1.00  0.00     0.040 A 
ATOM     70  F   UNL A   1      45.902  29.139  33.695  1.00  0.00    -0.206 F 
ATOM     71  C   UNL A   1      46.585  26.072  35.496  1.00  0.00     0.006 A 
ENDBRANCH  50  64
BRANCH  51  72
ATOM     72  C   UNL A   1      36.927  31.498  29.098  1.00  0.00     0.057 A 
ATOM     73  C   UNL A   1      36.966  32.829  28.667  1.00  0.00     0.134 A 
ATOM     74  C   UNL A   1      35.757  30.774  28.838  1.00  0.00     0.134 A 
ATOM     75  F   UNL A   1      38.046  33.587  28.913  1.00  0.00    -0.206 F 
ATOM     76  C   UNL A   1      35.881  33.423  28.019  1.00  0.00     0.040 A 
ATOM     77  C   UNL A   1      34.675  31.345  28.166  1.00  0.00     0.040 A 
ATOM     78  F   UNL A   1      35.650  29.496  29.230  1.00  0.00    -0.206 F 
ATOM     79  C   UNL A   1      34.733  32.677  27.760  1.00  0.00     0.006 A 
ENDBRANCH  51  72
BRANCH  63  80
ATOM     80  C   UNL A   1      39.150  32.016  35.686  1.00  0.00     0.057 A 
ATOM     81  C   UNL A   1      38.291  31.485  36.655  1.00  0.00     0.134 A 
ATOM     82  C   UNL A   1      39.602  33.329  35.878  1.00  0.00     0.134 A 
ATOM     83  F   UNL A   1      37.811  30.238  36.530  1.00  0.00    -0.206 F 
ATOM     84  C   UNL A   1      37.880  32.237  37.760  1.00  0.00     0.040 A 
ATOM     85  C   UNL A   1      39.224  34.079  36.993  1.00  0.00     0.040 A 
ATOM     86  F   UNL A   1      40.437  33.899  34.996  1.00  0.00    -0.206 F 
ATOM     87  C   UNL A   1      38.354  33.535  37.935  1.00  0.00     0.006 A 
ENDBRANCH  63  80
ENDBRANCH  37  38
ENDBRANCH  30  32
ENDBRANCH  29  30
ENDBRANCH  28  29
ENDBRANCH  27  28
ENDBRANCH  26  27
ENDBRANCH  25  26
ENDBRANCH   1  25
TORSDOF 21
ENDMDL
MODEL 2
REMARK VINA RESULT:     -10.1      3.739      7.661
REMARK SMILES CCCN1C(=O)C[C@H](C(=O)OCCOCCOCCOC(=O)c2ccc(-c3c4nc(c(-c5c(F)cccc5F)c5ccc([nH]5)c(-c5c(F)cccc5F)c5nc(c(-c6c(F)cccc6F)c6ccc3[nH]6)C=C5)C=C4)cc2)[C@@H]1c1cncn1C1CC1
REMARK SMILES IDX 15 1 14 2 13 3 12 4 11 5 9 6 10 7 8 8 4 9 5 10 77 11 6 12
REMARK SMILES IDX 7 13 3 14 2 15 1 16 78 17 79 18 82 19 80 20 81 21 83 22
REMARK SMILES IDX 84 23 85 24 16 25 17 26 18 27 19 28 20 29 21 30 22 31 23 32
REMARK SMILES IDX 24 33 76 34 25 35 75 36 26 37 27 38 28 39 69 40 29 41 74 42
REMARK SMILES IDX 68 43 70 44 30 45 73 46 67 47 66 48 31 50 57 51 40 52 56 53
REMARK SMILES IDX 41 54 44 55 55 56 71 57 42 58 43 59 54 61 72 62 45 63 32 64
REMARK SMILES IDX 33 65 38 66 34 67 35 68 37 69 39 70 36 71 58 72 59 73 64 74
REMARK SMILES IDX 60 75 61 76 63 77 65 78 62 79 46 80 47 81 52 82 48 83 49 84
REMARK SMILES IDX 51 85 53 86 50 87
REMARK H PARENT 70 49 44 60
REMARK Flexibility Score: inf
ROOT
ATOM      1  C   UNL A   1      36.003  22.245  25.247  1.00  0.00     0.188 C 
ENDROOT
BRANCH   1   2
ATOM      2  O   UNL A   1      35.245  23.225  24.547  1.00  0.00    -0.376 OA
BRANCH   2   3
ATOM      3  C   UNL A   1      35.007  24.494  25.143  1.00  0.00     0.202 C 
BRANCH   3   4
ATOM      4  C   UNL A   1      33.834  24.641  26.124  1.00  0.00     0.261 C 
BRANCH   4   5
ATOM      5  O   UNL A   1      33.162  25.919  26.136  1.00  0.00    -0.463 OA
BRANCH   5   6
ATOM      6  C   UNL A   1      31.806  25.887  26.147  1.00  0.00     0.312 C 
ATOM      7  O   UNL A   1      31.134  24.971  26.613  1.00  0.00    -0.252 OA
BRANCH   6   8
ATOM      8  C   UNL A   1      31.145  27.072  25.480  1.00  0.00     0.137 C 
ATOM      9  N   UNL A   1      30.675  28.331  23.552  1.00  0.00    -0.333 N 
ATOM     10  C   UNL A   1      30.985  29.208  24.597  1.00  0.00     0.224 C 
ATOM     11  C   UNL A   1      30.912  26.953  23.968  1.00  0.00     0.148 C 
ATOM     12  O   UNL A   1      30.678  30.380  24.726  1.00  0.00    -0.275 OA
ATOM     13  C   UNL A   1      31.758  28.447  25.627  1.00  0.00     0.118 C 
BRANCH   9  14
ATOM     14  C   UNL A   1      29.654  28.642  22.546  1.00  0.00     0.120 C 
BRANCH  14  15
ATOM     15  C   UNL A   1      28.180  28.728  22.987  1.00  0.00     0.018 C 
ATOM     16  C   UNL A   1      27.568  30.112  23.162  1.00  0.00     0.006 C 
ENDBRANCH  14  15
ENDBRANCH   9  14
BRANCH  11  17
ATOM     17  C   UNL A   1      31.912  26.088  23.245  1.00  0.00     0.061 A 
ATOM     18  C   UNL A   1      33.043  26.660  22.643  1.00  0.00     0.136 A 
ATOM     19  N   UNL A   1      32.048  24.751  22.901  1.00  0.00    -0.330 N 
ATOM     20  N   UNL A   1      33.758  25.784  21.896  1.00  0.00    -0.245 NA
ATOM     21  C   UNL A   1      33.137  24.649  22.062  1.00  0.00     0.199 A 
BRANCH  19  22
ATOM     22  C   UNL A   1      31.377  23.512  23.234  1.00  0.00     0.088 C 
ATOM     23  C   UNL A   1      31.878  22.144  22.881  1.00  0.00     0.027 C 
ATOM     24  C   UNL A   1      31.808  22.551  24.312  1.00  0.00     0.027 C 
ENDBRANCH  19  22
ENDBRANCH  11  17
ENDBRANCH   6   8
ENDBRANCH   5   6
ENDBRANCH   4   5
ENDBRANCH   3   4
ENDBRANCH   2   3
ENDBRANCH   1   2
BRANCH   1  25
ATOM     25  C   UNL A   1      35.593  20.765  25.168  1.00  0.00     0.188 C 
BRANCH  25  26
ATOM     26  O   UNL A   1      36.659  19.873  24.958  1.00  0.00    -0.376 OA
BRANCH  26  27
ATOM     27  C   UNL A   1      37.970  20.323  25.215  1.00  0.00     0.202 C 
BRANCH  27  28
ATOM     28  C   UNL A   1      39.140  19.328  25.152  1.00  0.00     0.261 C 
BRANCH  28  29
ATOM     29  O   UNL A   1      40.009  19.251  26.296  1.00  0.00    -0.460 OA
BRANCH  29  30
ATOM     30  C   UNL A   1      41.316  19.543  26.121  1.00  0.00     0.338 C 
ATOM     31  O   UNL A   1      42.136  18.889  25.490  1.00  0.00    -0.246 OA
BRANCH  30  32
ATOM     32  C   UNL A   1      41.551  20.915  26.636  1.00  0.00     0.060 A 
ATOM     33  C   UNL A   1      41.876  21.944  25.739  1.00  0.00     0.016 A 
ATOM     34  C   UNL A   1      41.432  21.188  27.999  1.00  0.00     0.016 A 
ATOM     35  C   UNL A   1      42.112  23.242  26.208  1.00  0.00     0.010 A 
ATOM     36  C   UNL A   1      41.691  22.481  28.469  1.00  0.00     0.010 A 
ATOM     37  C   UNL A   1      42.062  23.509  27.582  1.00  0.00    -0.014 A 
BRANCH  37  38
ATOM     38  C   UNL A   1      42.586  24.790  28.126  1.00  0.00     0.031 A 
ATOM     39  C   UNL A   1      41.603  25.887  28.433  1.00  0.00     0.074 A 
ATOM     40  C   UNL A   1      43.900  24.995  28.329  1.00  0.00     0.049 A 
ATOM     41  N   UNL A   1      41.819  27.124  28.801  1.00  0.00    -0.248 NA
ATOM     42  C   UNL A   1      40.180  25.539  28.297  1.00  0.00     0.031 C 
ATOM     43  C   UNL A   1      44.955  24.008  28.119  1.00  0.00     0.029 A 
ATOM     44  N   UNL A   1      44.568  26.123  28.742  1.00  0.00    -0.354 N 
ATOM     45  C   UNL A   1      40.563  27.705  28.925  1.00  0.00     0.074 A 
ATOM     46  C   UNL A   1      39.592  26.695  28.565  1.00  0.00     0.031 C 
ATOM     47  C   UNL A   1      46.144  24.580  28.387  1.00  0.00     0.029 A 
ATOM     48  C   UNL A   1      45.935  25.982  28.747  1.00  0.00     0.049 A 
ATOM     49  H   UNL A   1      44.111  26.953  29.010  1.00  0.00     0.167 HD
ATOM     50  C   UNL A   1      40.244  28.963  29.310  1.00  0.00     0.037 A 
ATOM     51  C   UNL A   1      46.905  26.889  28.984  1.00  0.00     0.037 A 
ATOM     52  C   UNL A   1      41.209  29.973  29.664  1.00  0.00     0.049 A 
ATOM     53  C   UNL A   1      46.530  28.311  29.323  1.00  0.00     0.074 A 
ATOM     54  C   UNL A   1      40.982  31.273  30.081  1.00  0.00     0.029 A 
ATOM     55  N   UNL A   1      42.584  29.798  29.628  1.00  0.00    -0.354 N 
ATOM     56  N   UNL A   1      45.342  28.848  29.457  1.00  0.00    -0.248 NA
ATOM     57  C   UNL A   1      47.637  29.255  29.542  1.00  0.00     0.031 C 
ATOM     58  C   UNL A   1      42.220  31.903  30.238  1.00  0.00     0.029 A 
ATOM     59  C   UNL A   1      43.218  30.975  29.986  1.00  0.00     0.049 A 
ATOM     60  H   UNL A   1      43.040  28.960  29.384  1.00  0.00     0.167 HD
ATOM     61  C   UNL A   1      45.557  30.176  29.812  1.00  0.00     0.074 A 
ATOM     62  C   UNL A   1      46.990  30.363  29.879  1.00  0.00     0.031 C 
ATOM     63  C   UNL A   1      44.648  31.150  30.062  1.00  0.00     0.037 A 
BRANCH  50  64
ATOM     64  C   UNL A   1      38.787  29.329  29.331  1.00  0.00     0.057 A 
ATOM     65  C   UNL A   1      38.036  29.328  30.515  1.00  0.00     0.134 A 
ATOM     66  C   UNL A   1      38.131  29.705  28.152  1.00  0.00     0.134 A 
ATOM     67  F   UNL A   1      38.599  28.965  31.677  1.00  0.00    -0.206 F 
ATOM     68  C   UNL A   1      36.679  29.654  30.518  1.00  0.00     0.040 A 
ATOM     69  C   UNL A   1      36.782  30.064  28.149  1.00  0.00     0.040 A 
ATOM     70  F   UNL A   1      38.790  29.733  26.984  1.00  0.00    -0.206 F 
ATOM     71  C   UNL A   1      36.049  30.031  29.333  1.00  0.00     0.006 A 
ENDBRANCH  50  64
BRANCH  51  72
ATOM     72  C   UNL A   1      48.335  26.494  28.894  1.00  0.00     0.057 A 
ATOM     73  C   UNL A   1      49.023  26.002  30.009  1.00  0.00     0.134 A 
ATOM     74  C   UNL A   1      49.056  26.625  27.701  1.00  0.00     0.134 A 
ATOM     75  F   UNL A   1      48.397  25.881  31.189  1.00  0.00    -0.206 F 
ATOM     76  C   UNL A   1      50.379  25.670  29.946  1.00  0.00     0.040 A 
ATOM     77  C   UNL A   1      50.404  26.271  27.616  1.00  0.00     0.040 A 
ATOM     78  F   UNL A   1      48.459  27.096  26.596  1.00  0.00    -0.206 F 
ATOM     79  C   UNL A   1      51.071  25.798  28.744  1.00  0.00     0.006 A 
ENDBRANCH  51  72
BRANCH  63  80
ATOM     80  C   UNL A   1      45.167  32.497  30.485  1.00  0.00     0.057 A 
ATOM     81  C   UNL A   1      45.392  33.532  29.569  1.00  0.00     0.134 A 
ATOM     82  C   UNL A   1      45.394  32.777  31.840  1.00  0.00     0.134 A 
ATOM     83  F   UNL A   1      45.205  33.331  28.255  1.00  0.00    -0.206 F 
ATOM     84  C   UNL A   1      45.847  34.787  29.981  1.00  0.00     0.040 A 
ATOM     85  C   UNL A   1      45.818  34.036  32.267  1.00  0.00     0.040 A 
ATOM     86  F   UNL A   1      45.187  31.837  32.774  1.00  0.00    -0.206 F 
ATOM     87  C   UNL A   1      46.053  35.044  31.335  1.00  0.00     0.006 A 
ENDBRANCH  63  80
ENDBRANCH  37  38
ENDBRANCH  30  32
ENDBRANCH  29  30
ENDBRANCH  28  29
ENDBRANCH  27  28
ENDBRANCH  26  27
ENDBRANCH  25  26
ENDBRANCH   1  25
TORSDOF 21
ENDMDL
MODEL 3
REMARK VINA RESULT:     -10.1      3.652      5.186
REMARK SMILES CCCN1C(=O)C[C@H](C(=O)OCCOCCOCCOC(=O)c2ccc(-c3c4nc(c(-c5c(F)cccc5F)c5ccc([nH]5)c(-c5c(F)cccc5F)c5nc(c(-c6c(F)cccc6F)c6ccc3[nH]6)C=C5)C=C4)cc2)[C@@H]1c1cncn1C1CC1
REMARK SMILES IDX 15 1 14 2 13 3 12 4 11 5 9 6 10 7 8 8 4 9 5 10 77 11 6 12
REMARK SMILES IDX 7 13 3 14 2 15 1 16 78 17 79 18 82 19 80 20 81 21 83 22
REMARK SMILES IDX 84 23 85 24 16 25 17 26 18 27 19 28 20 29 21 30 22 31 23 32
REMARK SMILES IDX 24 33 76 34 25 35 75 36 26 37 27 38 28 39 69 40 29 41 74 42
REMARK SMILES IDX 68 43 70 44 30 45 73 46 67 47 66 48 31 50 57 51 40 52 56 53
REMARK SMILES IDX 41 54 44 55 55 56 71 57 42 58 43 59 54 61 72 62 45 63 32 64
REMARK SMILES IDX 33 65 38 66 34 67 35 68 37 69 39 70 36 71 58 72 59 73 64 74
REMARK SMILES IDX 60 75 61 76 63 77 65 78 62 79 46 80 47 81 52 82 48 83 49 84
REMARK SMILES IDX 51 85 53 86 50 87
REMARK H PARENT 70 49 44 60
REMARK Flexibility Score: inf
ROOT
ATOM      1  C   UNL A   1      36.294  22.707  25.158  1.00  0.00     0.188 C 
ENDROOT
BRANCH   1   2
ATOM      2  O   UNL A   1      35.579  23.739  24.488  1.00  0.00    -0.376 OA
BRANCH   2   3
ATOM      3  C   UNL A   1      35.148  24.884  25.210  1.00  0.00     0.202 C 
BRANCH   3   4
ATOM      4  C   UNL A   1      33.824  24.814  25.985  1.00  0.00     0.261 C 
BRANCH   4   5
ATOM      5  O   UNL A   1      33.151  26.069  26.225  1.00  0.00    -0.463 OA
BRANCH   5   6
ATOM      6  C   UNL A   1      31.794  26.036  26.219  1.00  0.00     0.312 C 
ATOM      7  O   UNL A   1      31.117  25.124  26.683  1.00  0.00    -0.252 OA
BRANCH   6   8
ATOM      8  C   UNL A   1      31.141  27.216  25.535  1.00  0.00     0.137 C 
ATOM      9  N   UNL A   1      30.677  28.448  23.588  1.00  0.00    -0.333 N 
ATOM     10  C   UNL A   1      30.996  29.339  24.619  1.00  0.00     0.224 C 
ATOM     11  C   UNL A   1      30.903  27.076  24.025  1.00  0.00     0.148 C 
ATOM     12  O   UNL A   1      30.698  30.516  24.729  1.00  0.00    -0.275 OA
ATOM     13  C   UNL A   1      31.765  28.588  25.658  1.00  0.00     0.118 C 
BRANCH   9  14
ATOM     14  C   UNL A   1      29.656  28.751  22.580  1.00  0.00     0.120 C 
BRANCH  14  15
ATOM     15  C   UNL A   1      28.183  28.853  23.022  1.00  0.00     0.018 C 
ATOM     16  C   UNL A   1      27.576  30.242  23.167  1.00  0.00     0.006 C 
ENDBRANCH  14  15
ENDBRANCH   9  14
BRANCH  11  17
ATOM     17  C   UNL A   1      31.896  26.192  23.314  1.00  0.00     0.061 A 
ATOM     18  C   UNL A   1      33.073  26.732  22.776  1.00  0.00     0.136 A 
ATOM     19  N   UNL A   1      31.989  24.861  22.931  1.00  0.00    -0.330 N 
ATOM     20  N   UNL A   1      33.780  25.851  22.029  1.00  0.00    -0.245 NA
ATOM     21  C   UNL A   1      33.106  24.739  22.133  1.00  0.00     0.199 A 
BRANCH  19  22
ATOM     22  C   UNL A   1      31.254  23.642  23.196  1.00  0.00     0.088 C 
ATOM     23  C   UNL A   1      31.811  22.258  23.056  1.00  0.00     0.027 C 
ATOM     24  C   UNL A   1      31.435  22.762  24.405  1.00  0.00     0.027 C 
ENDBRANCH  19  22
ENDBRANCH  11  17
ENDBRANCH   6   8
ENDBRANCH   5   6
ENDBRANCH   4   5
ENDBRANCH   3   4
ENDBRANCH   2   3
ENDBRANCH   1   2
BRANCH   1  25
ATOM     25  C   UNL A   1      35.749  21.269  25.146  1.00  0.00     0.188 C 
BRANCH  25  26
ATOM     26  O   UNL A   1      36.729  20.273  24.994  1.00  0.00    -0.376 OA
BRANCH  26  27
ATOM     27  C   UNL A   1      38.083  20.635  25.150  1.00  0.00     0.202 C 
BRANCH  27  28
ATOM     28  C   UNL A   1      39.153  19.537  25.262  1.00  0.00     0.261 C 
BRANCH  28  29
ATOM     29  O   UNL A   1      40.013  19.564  26.415  1.00  0.00    -0.460 OA
BRANCH  29  30
ATOM     30  C   UNL A   1      41.348  19.597  26.209  1.00  0.00     0.338 C 
ATOM     31  O   UNL A   1      42.018  18.775  25.599  1.00  0.00    -0.246 OA
BRANCH  30  32
ATOM     32  C   UNL A   1      41.847  20.921  26.657  1.00  0.00     0.060 A 
ATOM     33  C   UNL A   1      41.861  21.228  28.026  1.00  0.00     0.016 A 
ATOM     34  C   UNL A   1      42.316  21.852  25.728  1.00  0.00     0.016 A 
ATOM     35  C   UNL A   1      42.317  22.476  28.467  1.00  0.00     0.010 A 
ATOM     36  C   UNL A   1      42.751  23.107  26.168  1.00  0.00     0.010 A 
ATOM     37  C   UNL A   1      42.726  23.439  27.536  1.00  0.00    -0.014 A 
BRANCH  37  38
ATOM     38  C   UNL A   1      42.935  24.852  27.949  1.00  0.00     0.031 A 
ATOM     39  C   UNL A   1      44.337  25.302  28.262  1.00  0.00     0.074 A 
ATOM     40  C   UNL A   1      41.915  25.721  28.065  1.00  0.00     0.049 A 
ATOM     41  N   UNL A   1      44.761  26.439  28.751  1.00  0.00    -0.248 NA
ATOM     42  C   UNL A   1      45.405  24.326  27.993  1.00  0.00     0.031 C 
ATOM     43  C   UNL A   1      40.518  25.436  27.751  1.00  0.00     0.029 A 
ATOM     44  N   UNL A   1      41.905  27.024  28.504  1.00  0.00    -0.354 N 
ATOM     45  C   UNL A   1      46.140  26.310  28.862  1.00  0.00     0.074 A 
ATOM     46  C   UNL A   1      46.478  24.975  28.419  1.00  0.00     0.031 C 
ATOM     47  C   UNL A   1      39.780  26.528  28.025  1.00  0.00     0.029 A 
ATOM     48  C   UNL A   1      40.647  27.572  28.572  1.00  0.00     0.049 A 
ATOM     49  H   UNL A   1      42.721  27.518  28.746  1.00  0.00     0.167 HD
ATOM     50  C   UNL A   1      47.046  27.222  29.288  1.00  0.00     0.037 A 
ATOM     51  C   UNL A   1      40.239  28.766  29.049  1.00  0.00     0.037 A 
ATOM     52  C   UNL A   1      46.712  28.549  29.736  1.00  0.00     0.049 A 
ATOM     53  C   UNL A   1      41.255  29.734  29.605  1.00  0.00     0.074 A 
ATOM     54  C   UNL A   1      47.562  29.550  30.173  1.00  0.00     0.029 A 
ATOM     55  N   UNL A   1      45.423  29.055  29.816  1.00  0.00    -0.354 N 
ATOM     56  N   UNL A   1      42.558  29.613  29.690  1.00  0.00    -0.248 NA
ATOM     57  C   UNL A   1      40.740  31.006  30.135  1.00  0.00     0.031 C 
ATOM     58  C   UNL A   1      46.783  30.640  30.576  1.00  0.00     0.029 A 
ATOM     59  C   UNL A   1      45.452  30.343  30.324  1.00  0.00     0.049 A 
ATOM     60  H   UNL A   1      44.609  28.569  29.550  1.00  0.00     0.167 HD
ATOM     61  C   UNL A   1      43.019  30.802  30.244  1.00  0.00     0.074 A 
ATOM     62  C   UNL A   1      41.858  31.636  30.470  1.00  0.00     0.031 C 
ATOM     63  C   UNL A   1      44.291  31.171  30.536  1.00  0.00     0.037 A 
BRANCH  50  64
ATOM     64  C   UNL A   1      48.486  26.796  29.327  1.00  0.00     0.057 A 
ATOM     65  C   UNL A   1      49.056  26.202  30.461  1.00  0.00     0.134 A 
ATOM     66  C   UNL A   1      49.309  26.967  28.206  1.00  0.00     0.134 A 
ATOM     67  F   UNL A   1      48.328  26.021  31.573  1.00  0.00    -0.206 F 
ATOM     68  C   UNL A   1      50.400  25.825  30.489  1.00  0.00     0.040 A 
ATOM     69  C   UNL A   1      50.646  26.564  28.212  1.00  0.00     0.040 A 
ATOM     70  F   UNL A   1      48.827  27.524  27.085  1.00  0.00    -0.206 F 
ATOM     71  C   UNL A   1      51.198  25.999  29.360  1.00  0.00     0.006 A 
ENDBRANCH  50  64
BRANCH  51  72
ATOM     72  C   UNL A   1      38.795  29.118  29.044  1.00  0.00     0.057 A 
ATOM     73  C   UNL A   1      38.007  28.964  30.191  1.00  0.00     0.134 A 
ATOM     74  C   UNL A   1      38.161  29.589  27.888  1.00  0.00     0.134 A 
ATOM     75  F   UNL A   1      38.548  28.489  31.323  1.00  0.00    -0.206 F 
ATOM     76  C   UNL A   1      36.639  29.250  30.184  1.00  0.00     0.040 A 
ATOM     77  C   UNL A   1      36.801  29.905  27.874  1.00  0.00     0.040 A 
ATOM     78  F   UNL A   1      38.856  29.753  26.753  1.00  0.00    -0.206 F 
ATOM     79  C   UNL A   1      36.035  29.729  29.024  1.00  0.00     0.006 A 
ENDBRANCH  51  72
BRANCH  63  80
ATOM     80  C   UNL A   1      44.508  32.555  31.083  1.00  0.00     0.057 A 
ATOM     81  C   UNL A   1      44.528  32.820  32.458  1.00  0.00     0.134 A 
ATOM     82  C   UNL A   1      44.755  33.630  30.218  1.00  0.00     0.134 A 
ATOM     83  F   UNL A   1      44.291  31.840  33.344  1.00  0.00    -0.206 F 
ATOM     84  C   UNL A   1      44.761  34.107  32.951  1.00  0.00     0.040 A 
ATOM     85  C   UNL A   1      45.019  34.913  30.699  1.00  0.00     0.040 A 
ATOM     86  F   UNL A   1      44.763  33.447  28.889  1.00  0.00    -0.206 F 
ATOM     87  C   UNL A   1      45.016  35.156  32.071  1.00  0.00     0.006 A 
ENDBRANCH  63  80
ENDBRANCH  37  38
ENDBRANCH  30  32
ENDBRANCH  29  30
ENDBRANCH  28  29
ENDBRANCH  27  28
ENDBRANCH  26  27
ENDBRANCH  25  26
ENDBRANCH   1  25
TORSDOF 21
ENDMDL
