MODEL 1
REMARK VINA RESULT:     -10.3      0.000      0.000
REMARK SMILES O=C(OCCOCCOCCOC(=O)[C@H]1C[C@@H](O)CN1C(=O)CCc1ccc(Cl)cc1Cl)c1ccc(-c2c3nc(c(-c4c(F)cccc4F)c4ccc([nH]4)c(-c4c(F)cccc4F)c4nc(c(-c5c(F)cccc5F)c5ccc2[nH]5)C=C4)C=C3)cc1
REMARK SMILES IDX 8 1 7 2 6 3 5 4 4 5 3 6 2 7 1 8 33 9 34 10 86 11 35 12 85 13
REMARK SMILES IDX 36 14 37 15 38 16 79 17 39 18 84 19 78 20 80 21 40 22 83 23
REMARK SMILES IDX 77 24 76 25 41 27 67 28 50 29 66 30 51 31 54 32 65 33 81 34
REMARK SMILES IDX 52 35 53 36 64 38 82 39 55 40 42 41 43 42 48 43 44 44 45 45
REMARK SMILES IDX 47 46 49 47 46 48 68 49 69 50 74 51 70 52 71 53 73 54 75 55
REMARK SMILES IDX 72 56 56 57 57 58 62 59 58 60 59 61 61 62 63 63 60 64 9 65
REMARK SMILES IDX 10 66 11 67 12 68 13 69 14 70 15 71 16 72 20 73 17 74 19 75
REMARK SMILES IDX 21 76 22 77 23 78 24 79 25 80 26 81 31 82 27 83 30 84 32 85
REMARK SMILES IDX 28 86 29 87 18 88
REMARK H PARENT 80 26 54 37 18 89
REMARK Flexibility Score: inf
ROOT
ATOM      1  C   UNL A   1      34.537  32.180  28.929  1.00  0.00     0.188 C 
ENDROOT
BRANCH   1   2
ATOM      2  C   UNL A   1      34.933  33.656  28.943  1.00  0.00     0.188 C 
BRANCH   2   3
ATOM      3  O   UNL A   1      35.238  34.204  30.224  1.00  0.00    -0.376 OA
BRANCH   3   4
ATOM      4  C   UNL A   1      34.186  34.040  31.185  1.00  0.00     0.202 C 
BRANCH   4   5
ATOM      5  C   UNL A   1      34.610  33.702  32.633  1.00  0.00     0.261 C 
BRANCH   5   6
ATOM      6  O   UNL A   1      35.177  32.388  32.796  1.00  0.00    -0.460 OA
BRANCH   6   7
ATOM      7  C   UNL A   1      36.422  32.049  33.225  1.00  0.00     0.338 C 
ATOM      8  O   UNL A   1      36.715  32.249  34.402  1.00  0.00    -0.246 OA
BRANCH   7   9
ATOM      9  C   UNL A   1      37.467  31.471  32.327  1.00  0.00     0.060 A 
ATOM     10  C   UNL A   1      38.553  30.728  32.776  1.00  0.00     0.016 A 
ATOM     11  C   UNL A   1      37.303  31.619  30.939  1.00  0.00     0.016 A 
ATOM     12  C   UNL A   1      39.508  30.234  31.909  1.00  0.00     0.010 A 
ATOM     13  C   UNL A   1      38.228  31.063  30.044  1.00  0.00     0.010 A 
ATOM     14  C   UNL A   1      39.353  30.393  30.536  1.00  0.00    -0.014 A 
BRANCH  14  15
ATOM     15  C   UNL A   1      40.483  29.953  29.697  1.00  0.00     0.031 A 
ATOM     16  C   UNL A   1      41.661  30.868  29.570  1.00  0.00     0.074 A 
ATOM     17  C   UNL A   1      40.530  28.678  29.266  1.00  0.00     0.049 A 
ATOM     18  N   UNL A   1      42.807  30.664  28.981  1.00  0.00    -0.248 NA
ATOM     19  C   UNL A   1      41.544  32.186  30.221  1.00  0.00     0.031 C 
ATOM     20  C   UNL A   1      39.470  27.685  29.460  1.00  0.00     0.029 A 
ATOM     21  N   UNL A   1      41.524  27.978  28.636  1.00  0.00    -0.354 N 
ATOM     22  C   UNL A   1      43.542  31.823  29.185  1.00  0.00     0.074 A 
ATOM     23  C   UNL A   1      42.708  32.740  29.926  1.00  0.00     0.031 C 
ATOM     24  C   UNL A   1      39.884  26.498  28.993  1.00  0.00     0.029 A 
ATOM     25  C   UNL A   1      41.211  26.659  28.413  1.00  0.00     0.049 A 
ATOM     26  H   UNL A   1      42.381  28.382  28.368  1.00  0.00     0.167 HD
ATOM     27  C   UNL A   1      44.807  32.089  28.792  1.00  0.00     0.037 A 
ATOM     28  C   UNL A   1      41.916  25.701  27.784  1.00  0.00     0.037 A 
ATOM     29  C   UNL A   1      45.613  31.164  28.045  1.00  0.00     0.049 A 
ATOM     30  C   UNL A   1      43.279  26.064  27.259  1.00  0.00     0.074 A 
ATOM     31  C   UNL A   1      46.867  31.350  27.500  1.00  0.00     0.029 A 
ATOM     32  N   UNL A   1      45.228  29.864  27.744  1.00  0.00    -0.354 N 
ATOM     33  N   UNL A   1      43.940  27.191  27.391  1.00  0.00    -0.248 NA
ATOM     34  C   UNL A   1      43.989  25.034  26.493  1.00  0.00     0.031 C 
ATOM     35  C   UNL A   1      47.227  30.172  26.835  1.00  0.00     0.029 A 
ATOM     36  C   UNL A   1      46.217  29.236  27.009  1.00  0.00     0.049 A 
ATOM     37  H   UNL A   1      44.376  29.449  28.015  1.00  0.00     0.167 HD
ATOM     38  C   UNL A   1      45.146  27.003  26.733  1.00  0.00     0.074 A 
ATOM     39  C   UNL A   1      45.139  25.641  26.235  1.00  0.00     0.031 C 
ATOM     40  C   UNL A   1      46.167  27.875  26.540  1.00  0.00     0.037 A 
BRANCH  27  41
ATOM     41  C   UNL A   1      45.344  33.449  29.120  1.00  0.00     0.057 A 
ATOM     42  C   UNL A   1      46.055  33.701  30.302  1.00  0.00     0.134 A 
ATOM     43  C   UNL A   1      45.103  34.532  28.267  1.00  0.00     0.134 A 
ATOM     44  F   UNL A   1      46.287  32.713  31.180  1.00  0.00    -0.206 F 
ATOM     45  C   UNL A   1      46.485  34.988  30.634  1.00  0.00     0.040 A 
ATOM     46  C   UNL A   1      45.548  35.819  28.578  1.00  0.00     0.040 A 
ATOM     47  F   UNL A   1      44.418  34.361  27.128  1.00  0.00    -0.206 F 
ATOM     48  C   UNL A   1      46.233  36.050  29.767  1.00  0.00     0.006 A 
ENDBRANCH  27  41
BRANCH  28  49
ATOM     49  C   UNL A   1      41.337  24.349  27.559  1.00  0.00     0.057 A 
ATOM     50  C   UNL A   1      40.291  24.133  26.654  1.00  0.00     0.134 A 
ATOM     51  C   UNL A   1      41.787  23.239  28.288  1.00  0.00     0.134 A 
ATOM     52  F   UNL A   1      39.799  25.152  25.935  1.00  0.00    -0.206 F 
ATOM     53  C   UNL A   1      39.693  22.878  26.508  1.00  0.00     0.040 A 
ATOM     54  C   UNL A   1      41.221  21.973  28.130  1.00  0.00     0.040 A 
ATOM     55  F   UNL A   1      42.789  23.368  29.171  1.00  0.00    -0.206 F 
ATOM     56  C   UNL A   1      40.160  21.792  27.246  1.00  0.00     0.006 A 
ENDBRANCH  28  49
BRANCH  40  57
ATOM     57  C   UNL A   1      47.354  27.363  25.781  1.00  0.00     0.057 A 
ATOM     58  C   UNL A   1      48.393  26.675  26.419  1.00  0.00     0.134 A 
ATOM     59  C   UNL A   1      47.439  27.536  24.395  1.00  0.00     0.134 A 
ATOM     60  F   UNL A   1      48.373  26.492  27.748  1.00  0.00    -0.206 F 
ATOM     61  C   UNL A   1      49.493  26.201  25.707  1.00  0.00     0.040 A 
ATOM     62  C   UNL A   1      48.520  27.040  23.668  1.00  0.00     0.040 A 
ATOM     63  F   UNL A   1      46.470  28.178  23.726  1.00  0.00    -0.206 F 
ATOM     64  C   UNL A   1      49.555  26.377  24.325  1.00  0.00     0.006 A 
ENDBRANCH  40  57
ENDBRANCH  14  15
ENDBRANCH   7   9
ENDBRANCH   6   7
ENDBRANCH   5   6
ENDBRANCH   4   5
ENDBRANCH   3   4
ENDBRANCH   2   3
ENDBRANCH   1   2
BRANCH   1  65
ATOM     65  O   UNL A   1      34.540  31.467  27.701  1.00  0.00    -0.376 OA
BRANCH  65  66
ATOM     66  C   UNL A   1      33.352  30.817  27.275  1.00  0.00     0.202 C 
BRANCH  66  67
ATOM     67  C   UNL A   1      33.379  29.892  26.045  1.00  0.00     0.261 C 
BRANCH  67  68
ATOM     68  O   UNL A   1      32.471  28.777  26.040  1.00  0.00    -0.462 OA
BRANCH  68  69
ATOM     69  C   UNL A   1      31.412  28.944  25.207  1.00  0.00     0.329 C 
ATOM     70  O   UNL A   1      30.945  30.042  24.911  1.00  0.00    -0.250 OA
BRANCH  69  71
ATOM     71  C   UNL A   1      30.879  27.623  24.623  1.00  0.00     0.197 C 
ATOM     72  C   UNL A   1      29.864  27.985  23.529  1.00  0.00     0.070 C 
ATOM     73  N   UNL A   1      31.909  26.890  23.874  1.00  0.00    -0.326 N 
ATOM     74  C   UNL A   1      30.727  28.233  22.284  1.00  0.00     0.136 C 
ATOM     75  C   UNL A   1      31.971  27.375  22.511  1.00  0.00     0.152 C 
BRANCH  73  76
ATOM     76  C   UNL A   1      32.366  25.639  24.247  1.00  0.00     0.223 C 
ATOM     77  O   UNL A   1      31.664  24.874  24.912  1.00  0.00    -0.275 OA
BRANCH  76  78
ATOM     78  C   UNL A   1      33.802  25.250  23.887  1.00  0.00     0.105 C 
BRANCH  78  79
ATOM     79  C   UNL A   1      34.725  24.776  25.027  1.00  0.00     0.047 C 
BRANCH  79  80
ATOM     80  C   UNL A   1      35.322  23.395  24.841  1.00  0.00    -0.029 A 
ATOM     81  C   UNL A   1      36.430  23.256  23.983  1.00  0.00     0.007 A 
ATOM     82  C   UNL A   1      34.910  22.272  25.589  1.00  0.00     0.045 A 
ATOM     83  C   UNL A   1      37.186  22.082  23.983  1.00  0.00     0.021 A 
ATOM     84  C   UNL A   1      35.686  21.108  25.608  1.00  0.00     0.041 A 
ATOM     85  Cl  UNL A   1      33.504  22.302  26.592  1.00  0.00    -0.084 Cl
ATOM     86  C   UNL A   1      36.836  21.031  24.828  1.00  0.00     0.042 A 
ATOM     87  Cl  UNL A   1      37.864  19.659  24.953  1.00  0.00    -0.084 Cl
ENDBRANCH  79  80
ENDBRANCH  78  79
ENDBRANCH  76  78
ENDBRANCH  73  76
BRANCH  74  88
ATOM     88  O   UNL A   1      31.052  29.602  22.096  1.00  0.00    -0.391 OA
ATOM     89  H   UNL A   1      31.627  29.899  22.819  1.00  0.00     0.211 HD
ENDBRANCH  74  88
ENDBRANCH  69  71
ENDBRANCH  68  69
ENDBRANCH  67  68
ENDBRANCH  66  67
ENDBRANCH  65  66
ENDBRANCH   1  65
TORSDOF 22
ENDMDL
MODEL 2
REMARK VINA RESULT:      -9.9      2.926      8.342
REMARK SMILES O=C(OCCOCCOCCOC(=O)[C@H]1C[C@@H](O)CN1C(=O)CCc1ccc(Cl)cc1Cl)c1ccc(-c2c3nc(c(-c4c(F)cccc4F)c4ccc([nH]4)c(-c4c(F)cccc4F)c4nc(c(-c5c(F)cccc5F)c5ccc2[nH]5)C=C4)C=C3)cc1
REMARK SMILES IDX 8 1 7 2 6 3 5 4 4 5 3 6 2 7 1 8 33 9 34 10 86 11 35 12 85 13
REMARK SMILES IDX 36 14 37 15 38 16 79 17 39 18 84 19 78 20 80 21 40 22 83 23
REMARK SMILES IDX 77 24 76 25 41 27 67 28 50 29 66 30 51 31 54 32 65 33 81 34
REMARK SMILES IDX 52 35 53 36 64 38 82 39 55 40 42 41 43 42 48 43 44 44 45 45
REMARK SMILES IDX 47 46 49 47 46 48 68 49 69 50 74 51 70 52 71 53 73 54 75 55
REMARK SMILES IDX 72 56 56 57 57 58 62 59 58 60 59 61 61 62 63 63 60 64 9 65
REMARK SMILES IDX 10 66 11 67 12 68 13 69 14 70 15 71 16 72 20 73 17 74 19 75
REMARK SMILES IDX 21 76 22 77 23 78 24 79 25 80 26 81 31 82 27 83 30 84 32 85
REMARK SMILES IDX 28 86 29 87 18 88
REMARK H PARENT 80 26 54 37 18 89
REMARK Flexibility Score: inf
ROOT
ATOM      1  C   UNL A   1      33.420  22.202  23.478  1.00  0.00     0.188 C 
ENDROOT
BRANCH   1   2
ATOM      2  C   UNL A   1      32.993  20.997  24.315  1.00  0.00     0.188 C 
BRANCH   2   3
ATOM      3  O   UNL A   1      34.053  20.195  24.834  1.00  0.00    -0.376 OA
BRANCH   3   4
ATOM      4  C   UNL A   1      35.135  20.959  25.385  1.00  0.00     0.202 C 
BRANCH   4   5
ATOM      5  C   UNL A   1      36.567  20.483  25.051  1.00  0.00     0.261 C 
BRANCH   5   6
ATOM      6  O   UNL A   1      37.573  21.509  25.149  1.00  0.00    -0.460 OA
BRANCH   6   7
ATOM      7  C   UNL A   1      38.754  21.477  25.823  1.00  0.00     0.338 C 
ATOM      8  O   UNL A   1      39.320  20.397  25.970  1.00  0.00    -0.246 OA
BRANCH   7   9
ATOM      9  C   UNL A   1      39.385  22.692  26.423  1.00  0.00     0.060 A 
ATOM     10  C   UNL A   1      38.985  23.994  26.143  1.00  0.00     0.016 A 
ATOM     11  C   UNL A   1      40.391  22.508  27.387  1.00  0.00     0.016 A 
ATOM     12  C   UNL A   1      39.616  25.088  26.703  1.00  0.00     0.010 A 
ATOM     13  C   UNL A   1      40.992  23.608  28.016  1.00  0.00     0.010 A 
ATOM     14  C   UNL A   1      40.621  24.905  27.647  1.00  0.00    -0.014 A 
BRANCH  14  15
ATOM     15  C   UNL A   1      41.327  26.121  28.092  1.00  0.00     0.031 A 
ATOM     16  C   UNL A   1      42.722  26.345  27.595  1.00  0.00     0.074 A 
ATOM     17  C   UNL A   1      40.640  27.091  28.725  1.00  0.00     0.049 A 
ATOM     18  N   UNL A   1      43.502  27.377  27.758  1.00  0.00    -0.248 NA
ATOM     19  C   UNL A   1      43.310  25.268  26.777  1.00  0.00     0.031 C 
ATOM     20  C   UNL A   1      39.235  26.997  29.134  1.00  0.00     0.029 A 
ATOM     21  N   UNL A   1      41.001  28.363  29.081  1.00  0.00    -0.354 N 
ATOM     22  C   UNL A   1      44.669  27.074  27.071  1.00  0.00     0.074 A 
ATOM     23  C   UNL A   1      44.511  25.752  26.512  1.00  0.00     0.031 C 
ATOM     24  C   UNL A   1      38.845  28.172  29.650  1.00  0.00     0.029 A 
ATOM     25  C   UNL A   1      39.984  29.080  29.665  1.00  0.00     0.049 A 
ATOM     26  H   UNL A   1      41.903  28.729  28.933  1.00  0.00     0.167 HD
ATOM     27  C   UNL A   1      45.770  27.842  26.917  1.00  0.00     0.037 A 
ATOM     28  C   UNL A   1      39.992  30.325  30.177  1.00  0.00     0.037 A 
ATOM     29  C   UNL A   1      45.907  29.150  27.493  1.00  0.00     0.049 A 
ATOM     30  C   UNL A   1      41.271  31.111  30.088  1.00  0.00     0.074 A 
ATOM     31  C   UNL A   1      47.007  29.984  27.498  1.00  0.00     0.029 A 
ATOM     32  N   UNL A   1      44.892  29.812  28.170  1.00  0.00    -0.354 N 
ATOM     33  N   UNL A   1      42.400  30.787  29.500  1.00  0.00    -0.248 NA
ATOM     34  C   UNL A   1      41.286  32.427  30.737  1.00  0.00     0.031 C 
ATOM     35  C   UNL A   1      46.668  31.140  28.211  1.00  0.00     0.029 A 
ATOM     36  C   UNL A   1      45.342  31.044  28.608  1.00  0.00     0.049 A 
ATOM     37  H   UNL A   1      43.984  29.458  28.316  1.00  0.00     0.167 HD
ATOM     38  C   UNL A   1      43.255  31.860  29.701  1.00  0.00     0.074 A 
ATOM     39  C   UNL A   1      42.501  32.859  30.433  1.00  0.00     0.031 C 
ATOM     40  C   UNL A   1      44.551  32.009  29.330  1.00  0.00     0.037 A 
BRANCH  27  41
ATOM     41  C   UNL A   1      46.908  27.242  26.148  1.00  0.00     0.057 A 
ATOM     42  C   UNL A   1      47.916  26.497  26.775  1.00  0.00     0.134 A 
ATOM     43  C   UNL A   1      47.025  27.455  24.770  1.00  0.00     0.134 A 
ATOM     44  F   UNL A   1      47.882  26.287  28.101  1.00  0.00    -0.206 F 
ATOM     45  C   UNL A   1      49.012  26.006  26.062  1.00  0.00     0.040 A 
ATOM     46  C   UNL A   1      48.104  26.951  24.042  1.00  0.00     0.040 A 
ATOM     47  F   UNL A   1      46.101  28.171  24.112  1.00  0.00    -0.206 F 
ATOM     48  C   UNL A   1      49.105  26.231  24.689  1.00  0.00     0.006 A 
ENDBRANCH  27  41
BRANCH  28  49
ATOM     49  C   UNL A   1      38.793  30.874  30.866  1.00  0.00     0.057 A 
ATOM     50  C   UNL A   1      37.889  31.722  30.215  1.00  0.00     0.134 A 
ATOM     51  C   UNL A   1      38.549  30.602  32.220  1.00  0.00     0.134 A 
ATOM     52  F   UNL A   1      38.070  32.039  28.925  1.00  0.00    -0.206 F 
ATOM     53  C   UNL A   1      36.812  32.304  30.890  1.00  0.00     0.040 A 
ATOM     54  C   UNL A   1      37.459  31.150  32.898  1.00  0.00     0.040 A 
ATOM     55  F   UNL A   1      39.370  29.795  32.908  1.00  0.00    -0.206 F 
ATOM     56  C   UNL A   1      36.593  32.015  32.235  1.00  0.00     0.006 A 
ENDBRANCH  28  49
BRANCH  40  57
ATOM     57  C   UNL A   1      45.209  33.305  29.695  1.00  0.00     0.057 A 
ATOM     58  C   UNL A   1      45.098  34.440  28.883  1.00  0.00     0.134 A 
ATOM     59  C   UNL A   1      45.936  33.423  30.886  1.00  0.00     0.134 A 
ATOM     60  F   UNL A   1      44.428  34.384  27.723  1.00  0.00    -0.206 F 
ATOM     61  C   UNL A   1      45.712  35.643  29.230  1.00  0.00     0.040 A 
ATOM     62  C   UNL A   1      46.529  34.628  31.258  1.00  0.00     0.040 A 
ATOM     63  F   UNL A   1      46.069  32.373  31.710  1.00  0.00    -0.206 F 
ATOM     64  C   UNL A   1      46.425  35.740  30.425  1.00  0.00     0.006 A 
ENDBRANCH  40  57
ENDBRANCH  14  15
ENDBRANCH   7   9
ENDBRANCH   6   7
ENDBRANCH   5   6
ENDBRANCH   4   5
ENDBRANCH   3   4
ENDBRANCH   2   3
ENDBRANCH   1   2
BRANCH   1  65
ATOM     65  O   UNL A   1      33.051  23.508  23.894  1.00  0.00    -0.376 OA
BRANCH  65  66
ATOM     66  C   UNL A   1      32.205  23.661  25.024  1.00  0.00     0.202 C 
BRANCH  66  67
ATOM     67  C   UNL A   1      32.228  24.972  25.830  1.00  0.00     0.261 C 
BRANCH  67  68
ATOM     68  O   UNL A   1      31.115  25.867  25.664  1.00  0.00    -0.462 OA
BRANCH  68  69
ATOM     69  C   UNL A   1      30.714  26.000  24.373  1.00  0.00     0.329 C 
ATOM     70  O   UNL A   1      29.625  25.610  23.956  1.00  0.00    -0.250 OA
BRANCH  69  71
ATOM     71  C   UNL A   1      31.736  26.735  23.487  1.00  0.00     0.197 C 
ATOM     72  C   UNL A   1      30.998  27.188  22.219  1.00  0.00     0.070 C 
ATOM     73  N   UNL A   1      32.169  28.009  24.078  1.00  0.00    -0.326 N 
ATOM     74  C   UNL A   1      30.336  28.512  22.624  1.00  0.00     0.136 C 
ATOM     75  C   UNL A   1      31.233  29.060  23.733  1.00  0.00     0.152 C 
BRANCH  73  76
ATOM     76  C   UNL A   1      33.476  28.263  24.452  1.00  0.00     0.223 C 
ATOM     77  O   UNL A   1      34.346  28.502  23.611  1.00  0.00    -0.275 OA
BRANCH  76  78
ATOM     78  C   UNL A   1      33.845  28.158  25.933  1.00  0.00     0.105 C 
BRANCH  78  79
ATOM     79  C   UNL A   1      32.923  28.855  26.953  1.00  0.00     0.047 C 
BRANCH  79  80
ATOM     80  C   UNL A   1      33.147  30.346  27.111  1.00  0.00    -0.029 A 
ATOM     81  C   UNL A   1      32.096  31.219  26.769  1.00  0.00     0.007 A 
ATOM     82  C   UNL A   1      34.302  30.891  27.711  1.00  0.00     0.045 A 
ATOM     83  C   UNL A   1      32.139  32.564  27.146  1.00  0.00     0.021 A 
ATOM     84  C   UNL A   1      34.329  32.230  28.112  1.00  0.00     0.041 A 
ATOM     85  Cl  UNL A   1      35.689  29.928  28.076  1.00  0.00    -0.084 Cl
ATOM     86  C   UNL A   1      33.234  33.051  27.854  1.00  0.00     0.042 A 
ATOM     87  Cl  UNL A   1      33.208  34.657  28.466  1.00  0.00    -0.084 Cl
ENDBRANCH  79  80
ENDBRANCH  78  79
ENDBRANCH  76  78
ENDBRANCH  73  76
BRANCH  74  88
ATOM     88  O   UNL A   1      28.993  28.354  23.056  1.00  0.00    -0.391 OA
ATOM     89  H   UNL A   1      28.653  27.499  22.746  1.00  0.00     0.211 HD
ENDBRANCH  74  88
ENDBRANCH  69  71
ENDBRANCH  68  69
ENDBRANCH  67  68
ENDBRANCH  66  67
ENDBRANCH  65  66
ENDBRANCH   1  65
TORSDOF 22
ENDMDL
MODEL 3
REMARK VINA RESULT:      -9.9      4.078      9.423
REMARK SMILES O=C(OCCOCCOCCOC(=O)[C@H]1C[C@@H](O)CN1C(=O)CCc1ccc(Cl)cc1Cl)c1ccc(-c2c3nc(c(-c4c(F)cccc4F)c4ccc([nH]4)c(-c4c(F)cccc4F)c4nc(c(-c5c(F)cccc5F)c5ccc2[nH]5)C=C4)C=C3)cc1
REMARK SMILES IDX 8 1 7 2 6 3 5 4 4 5 3 6 2 7 1 8 33 9 34 10 86 11 35 12 85 13
REMARK SMILES IDX 36 14 37 15 38 16 79 17 39 18 84 19 78 20 80 21 40 22 83 23
REMARK SMILES IDX 77 24 76 25 41 27 67 28 50 29 66 30 51 31 54 32 65 33 81 34
REMARK SMILES IDX 52 35 53 36 64 38 82 39 55 40 42 41 43 42 48 43 44 44 45 45
REMARK SMILES IDX 47 46 49 47 46 48 68 49 69 50 74 51 70 52 71 53 73 54 75 55
REMARK SMILES IDX 72 56 56 57 57 58 62 59 58 60 59 61 61 62 63 63 60 64 9 65
REMARK SMILES IDX 10 66 11 67 12 68 13 69 14 70 15 71 16 72 20 73 17 74 19 75
REMARK SMILES IDX 21 76 22 77 23 78 24 79 25 80 26 81 31 82 27 83 30 84 32 85
REMARK SMILES IDX 28 86 29 87 18 88
REMARK H PARENT 80 26 54 37 18 89
REMARK Flexibility Score: inf
ROOT
ATOM      1  C   UNL A   1      39.170  22.216  26.519  1.00  0.00     0.188 C 
ENDROOT
BRANCH   1   2
ATOM      2  C   UNL A   1      40.599  21.712  26.720  1.00  0.00     0.188 C 
BRANCH   2   3
ATOM      3  O   UNL A   1      40.894  20.439  26.146  1.00  0.00    -0.376 OA
BRANCH   3   4
ATOM      4  C   UNL A   1      41.688  19.597  26.994  1.00  0.00     0.202 C 
BRANCH   4   5
ATOM      5  C   UNL A   1      42.695  18.654  26.295  1.00  0.00     0.261 C 
BRANCH   5   6
ATOM      6  O   UNL A   1      43.141  19.113  25.004  1.00  0.00    -0.460 OA
BRANCH   6   7
ATOM      7  C   UNL A   1      44.347  19.639  24.663  1.00  0.00     0.338 C 
ATOM      8  O   UNL A   1      45.184  18.907  24.140  1.00  0.00    -0.246 OA
BRANCH   7   9
ATOM      9  C   UNL A   1      44.720  21.063  24.920  1.00  0.00     0.060 A 
ATOM     10  C   UNL A   1      45.286  21.516  26.107  1.00  0.00     0.016 A 
ATOM     11  C   UNL A   1      44.561  21.989  23.875  1.00  0.00     0.016 A 
ATOM     12  C   UNL A   1      45.591  22.848  26.309  1.00  0.00     0.010 A 
ATOM     13  C   UNL A   1      44.932  23.331  24.042  1.00  0.00     0.010 A 
ATOM     14  C   UNL A   1      45.421  23.766  25.278  1.00  0.00    -0.014 A 
BRANCH  14  15
ATOM     15  C   UNL A   1      45.645  25.182  25.623  1.00  0.00     0.031 A 
ATOM     16  C   UNL A   1      44.516  25.938  26.254  1.00  0.00     0.074 A 
ATOM     17  C   UNL A   1      46.894  25.684  25.581  1.00  0.00     0.049 A 
ATOM     18  N   UNL A   1      44.502  27.150  26.738  1.00  0.00    -0.248 NA
ATOM     19  C   UNL A   1      43.235  25.220  26.384  1.00  0.00     0.031 C 
ATOM     20  C   UNL A   1      48.074  24.964  25.094  1.00  0.00     0.029 A 
ATOM     21  N   UNL A   1      47.395  26.885  26.006  1.00  0.00    -0.354 N 
ATOM     22  C   UNL A   1      43.216  27.340  27.223  1.00  0.00     0.074 A 
ATOM     23  C   UNL A   1      42.467  26.135  26.952  1.00  0.00     0.031 C 
ATOM     24  C   UNL A   1      49.164  25.722  25.282  1.00  0.00     0.029 A 
ATOM     25  C   UNL A   1      48.754  27.002  25.844  1.00  0.00     0.049 A 
ATOM     26  H   UNL A   1      46.834  27.597  26.392  1.00  0.00     0.167 HD
ATOM     27  C   UNL A   1      42.712  28.427  27.848  1.00  0.00     0.037 A 
ATOM     28  C   UNL A   1      49.566  28.045  26.102  1.00  0.00     0.037 A 
ATOM     29  C   UNL A   1      43.473  29.619  28.095  1.00  0.00     0.049 A 
ATOM     30  C   UNL A   1      48.950  29.283  26.694  1.00  0.00     0.074 A 
ATOM     31  C   UNL A   1      43.053  30.823  28.623  1.00  0.00     0.029 A 
ATOM     32  N   UNL A   1      44.830  29.746  27.825  1.00  0.00    -0.354 N 
ATOM     33  N   UNL A   1      47.712  29.484  27.083  1.00  0.00    -0.248 NA
ATOM     34  C   UNL A   1      49.834  30.439  26.876  1.00  0.00     0.031 C 
ATOM     35  C   UNL A   1      44.149  31.693  28.640  1.00  0.00     0.029 A 
ATOM     36  C   UNL A   1      45.263  31.014  28.167  1.00  0.00     0.049 A 
ATOM     37  H   UNL A   1      45.400  29.037  27.447  1.00  0.00     0.167 HD
ATOM     38  C   UNL A   1      47.670  30.784  27.563  1.00  0.00     0.074 A 
ATOM     39  C   UNL A   1      49.017  31.311  27.450  1.00  0.00     0.031 C 
ATOM     40  C   UNL A   1      46.617  31.491  28.041  1.00  0.00     0.037 A 
BRANCH  27  41
ATOM     41  C   UNL A   1      41.265  28.372  28.236  1.00  0.00     0.057 A 
ATOM     42  C   UNL A   1      40.850  27.879  29.481  1.00  0.00     0.134 A 
ATOM     43  C   UNL A   1      40.272  28.771  27.335  1.00  0.00     0.134 A 
ATOM     44  F   UNL A   1      41.751  27.446  30.376  1.00  0.00    -0.206 F 
ATOM     45  C   UNL A   1      39.496  27.762  29.804  1.00  0.00     0.040 A 
ATOM     46  C   UNL A   1      38.916  28.680  27.655  1.00  0.00     0.040 A 
ATOM     47  F   UNL A   1      40.602  29.240  26.122  1.00  0.00    -0.206 F 
ATOM     48  C   UNL A   1      38.525  28.166  28.889  1.00  0.00     0.006 A 
ENDBRANCH  27  41
BRANCH  28  49
ATOM     49  C   UNL A   1      51.011  27.993  25.748  1.00  0.00     0.057 A 
ATOM     50  C   UNL A   1      51.459  28.195  24.438  1.00  0.00     0.134 A 
ATOM     51  C   UNL A   1      51.981  27.689  26.714  1.00  0.00     0.134 A 
ATOM     52  F   UNL A   1      50.586  28.473  23.460  1.00  0.00    -0.206 F 
ATOM     53  C   UNL A   1      52.808  28.062  24.094  1.00  0.00     0.040 A 
ATOM     54  C   UNL A   1      53.335  27.584  26.392  1.00  0.00     0.040 A 
ATOM     55  F   UNL A   1      51.626  27.487  27.992  1.00  0.00    -0.206 F 
ATOM     56  C   UNL A   1      53.751  27.758  25.075  1.00  0.00     0.006 A 
ENDBRANCH  28  49
BRANCH  40  57
ATOM     57  C   UNL A   1      46.899  32.892  28.493  1.00  0.00     0.057 A 
ATOM     58  C   UNL A   1      47.264  33.180  29.813  1.00  0.00     0.134 A 
ATOM     59  C   UNL A   1      46.831  33.958  27.588  1.00  0.00     0.134 A 
ATOM     60  F   UNL A   1      47.331  32.201  30.729  1.00  0.00    -0.206 F 
ATOM     61  C   UNL A   1      47.526  34.485  30.226  1.00  0.00     0.040 A 
ATOM     62  C   UNL A   1      47.119  35.264  27.982  1.00  0.00     0.040 A 
ATOM     63  F   UNL A   1      46.496  33.745  26.307  1.00  0.00    -0.206 F 
ATOM     64  C   UNL A   1      47.460  35.531  29.306  1.00  0.00     0.006 A 
ENDBRANCH  40  57
ENDBRANCH  14  15
ENDBRANCH   7   9
ENDBRANCH   6   7
ENDBRANCH   5   6
ENDBRANCH   4   5
ENDBRANCH   3   4
ENDBRANCH   2   3
ENDBRANCH   1   2
BRANCH   1  65
ATOM     65  O   UNL A   1      38.478  21.898  25.320  1.00  0.00    -0.376 OA
BRANCH  65  66
ATOM     66  C   UNL A   1      37.140  22.342  25.155  1.00  0.00     0.202 C 
BRANCH  66  67
ATOM     67  C   UNL A   1      36.773  23.253  23.970  1.00  0.00     0.261 C 
BRANCH  67  68
ATOM     68  O   UNL A   1      35.621  22.888  23.191  1.00  0.00    -0.462 OA
BRANCH  68  69
ATOM     69  C   UNL A   1      34.539  22.559  23.943  1.00  0.00     0.329 C 
ATOM     70  O   UNL A   1      34.250  21.405  24.252  1.00  0.00    -0.250 OA
BRANCH  69  71
ATOM     71  C   UNL A   1      33.731  23.780  24.418  1.00  0.00     0.197 C 
ATOM     72  C   UNL A   1      33.827  24.847  23.319  1.00  0.00     0.070 C 
ATOM     73  N   UNL A   1      32.288  23.506  24.473  1.00  0.00    -0.326 N 
ATOM     74  C   UNL A   1      32.727  24.457  22.321  1.00  0.00     0.136 C 
ATOM     75  C   UNL A   1      31.693  23.719  23.170  1.00  0.00     0.152 C 
BRANCH  73  76
ATOM     76  C   UNL A   1      31.557  23.541  25.647  1.00  0.00     0.223 C 
ATOM     77  O   UNL A   1      31.557  22.588  26.428  1.00  0.00    -0.275 OA
BRANCH  76  78
ATOM     78  C   UNL A   1      30.675  24.762  25.920  1.00  0.00     0.105 C 
BRANCH  78  79
ATOM     79  C   UNL A   1      31.348  26.149  25.916  1.00  0.00     0.047 C 
BRANCH  79  80
ATOM     80  C   UNL A   1      31.063  26.999  24.694  1.00  0.00    -0.029 A 
ATOM     81  C   UNL A   1      29.806  26.874  24.071  1.00  0.00     0.007 A 
ATOM     82  C   UNL A   1      31.941  28.004  24.235  1.00  0.00     0.045 A 
ATOM     83  C   UNL A   1      29.385  27.812  23.125  1.00  0.00     0.021 A 
ATOM     84  C   UNL A   1      31.506  28.958  23.309  1.00  0.00     0.041 A 
ATOM     85  Cl  UNL A   1      33.543  28.179  24.856  1.00  0.00    -0.084 Cl
ATOM     86  C   UNL A   1      30.220  28.874  22.783  1.00  0.00     0.042 A 
ATOM     87  Cl  UNL A   1      29.635  30.119  21.751  1.00  0.00    -0.084 Cl
ENDBRANCH  79  80
ENDBRANCH  78  79
ENDBRANCH  76  78
ENDBRANCH  73  76
BRANCH  74  88
ATOM     88  O   UNL A   1      33.205  23.657  21.251  1.00  0.00    -0.391 OA
ATOM     89  H   UNL A   1      33.802  22.976  21.598  1.00  0.00     0.211 HD
ENDBRANCH  74  88
ENDBRANCH  69  71
ENDBRANCH  68  69
ENDBRANCH  67  68
ENDBRANCH  66  67
ENDBRANCH  65  66
ENDBRANCH   1  65
TORSDOF 22
ENDMDL
