MODEL 1
REMARK VINA RESULT:      -9.7      0.000      0.000
REMARK SMILES CCCc1nnc(SCC(=O)OCCOCCOCCOC(=O)c2ccc(-c3c4nc(c(-c5c(F)cccc5F)c5ccc([nH]5)c(-c5c(F)cccc5F)c5nc(c(-c6c(F)cccc6F)c6ccc3[nH]6)C=C5)C=C4)cc2)n1C[C@H]1CCCO1
REMARK SMILES IDX 16 1 15 2 14 3 13 4 12 5 10 6 11 7 9 8 8 9 7 10 4 11 5 12
REMARK SMILES IDX 78 13 6 14 3 15 2 16 1 17 79 18 80 19 81 20 84 21 82 22
REMARK SMILES IDX 83 23 17 24 18 25 19 26 20 27 21 28 22 29 23 30 24 31 25 32
REMARK SMILES IDX 77 33 26 34 76 35 27 36 28 37 29 38 70 39 30 40 75 41 69 42
REMARK SMILES IDX 71 43 31 44 74 45 68 46 67 47 32 49 58 50 41 51 57 52 42 53
REMARK SMILES IDX 45 54 56 55 72 56 43 57 44 58 55 60 73 61 46 62 33 63 34 64
REMARK SMILES IDX 39 65 35 66 36 67 38 68 40 69 37 70 59 71 60 72 65 73 61 74
REMARK SMILES IDX 62 75 64 76 66 77 63 78 47 79 48 80 53 81 49 82 50 83 52 84
REMARK SMILES IDX 54 85 51 86
REMARK H PARENT 71 48 45 59
REMARK Flexibility Score: inf
ROOT
ATOM      1  C   UNL A   1      38.149  23.569  26.135  1.00  0.00     0.188 C 
ENDROOT
BRANCH   1   2
ATOM      2  O   UNL A   1      36.862  23.089  25.785  1.00  0.00    -0.376 OA
BRANCH   2   3
ATOM      3  C   UNL A   1      36.736  22.354  24.567  1.00  0.00     0.202 C 
BRANCH   3   4
ATOM      4  C   UNL A   1      35.607  22.770  23.603  1.00  0.00     0.261 C 
BRANCH   4   5
ATOM      5  O   UNL A   1      34.285  22.282  23.958  1.00  0.00    -0.463 OA
BRANCH   5   6
ATOM      6  C   UNL A   1      33.225  22.855  23.332  1.00  0.00     0.316 C 
ATOM      7  O   UNL A   1      32.552  22.267  22.484  1.00  0.00    -0.251 OA
BRANCH   6   8
ATOM      8  C   UNL A   1      32.770  24.222  23.827  1.00  0.00     0.200 C 
BRANCH   8   9
ATOM      9  S   UNL A   1      32.428  25.547  22.679  1.00  0.00    -0.074 SA
BRANCH   9  10
ATOM     10  C   UNL A   1      31.145  26.548  23.341  1.00  0.00     0.191 A 
ATOM     11  C   UNL A   1      29.628  28.118  23.135  1.00  0.00     0.133 A 
ATOM     12  N   UNL A   1      29.018  27.010  23.501  1.00  0.00    -0.134 NA
ATOM     13  N   UNL A   1      30.997  27.924  23.318  1.00  0.00    -0.303 N 
ATOM     14  N   UNL A   1      29.968  26.026  23.617  1.00  0.00    -0.123 NA
BRANCH  11  15
ATOM     15  C   UNL A   1      28.950  29.332  22.561  1.00  0.00     0.077 C 
BRANCH  15  16
ATOM     16  C   UNL A   1      28.979  30.563  23.493  1.00  0.00     0.005 C 
ATOM     17  C   UNL A   1      27.657  31.315  23.569  1.00  0.00     0.004 C 
ENDBRANCH  15  16
ENDBRANCH  11  15
BRANCH  13  18
ATOM     18  C   UNL A   1      32.004  28.954  23.343  1.00  0.00     0.158 C 
BRANCH  18  19
ATOM     19  C   UNL A   1      32.665  29.368  24.675  1.00  0.00     0.138 C 
ATOM     20  C   UNL A   1      31.810  29.597  25.913  1.00  0.00     0.036 C 
ATOM     21  O   UNL A   1      33.583  28.298  25.000  1.00  0.00    -0.376 OA
ATOM     22  C   UNL A   1      32.070  28.424  26.831  1.00  0.00     0.031 C 
ATOM     23  C   UNL A   1      33.366  27.834  26.337  1.00  0.00     0.160 C 
ENDBRANCH  18  19
ENDBRANCH  13  18
ENDBRANCH   9  10
ENDBRANCH   8   9
ENDBRANCH   6   8
ENDBRANCH   5   6
ENDBRANCH   4   5
ENDBRANCH   3   4
ENDBRANCH   2   3
ENDBRANCH   1   2
BRANCH   1  24
ATOM     24  C   UNL A   1      39.238  22.538  26.468  1.00  0.00     0.188 C 
BRANCH  24  25
ATOM     25  O   UNL A   1      40.048  22.836  27.585  1.00  0.00    -0.376 OA
BRANCH  25  26
ATOM     26  C   UNL A   1      41.440  22.906  27.351  1.00  0.00     0.202 C 
BRANCH  26  27
ATOM     27  C   UNL A   1      41.995  24.327  27.468  1.00  0.00     0.261 C 
BRANCH  27  28
ATOM     28  O   UNL A   1      41.291  25.179  28.378  1.00  0.00    -0.460 OA
BRANCH  28  29
ATOM     29  C   UNL A   1      40.867  26.317  27.816  1.00  0.00     0.338 C 
ATOM     30  O   UNL A   1      41.575  27.169  27.272  1.00  0.00    -0.246 OA
BRANCH  29  31
ATOM     31  C   UNL A   1      39.407  26.482  28.044  1.00  0.00     0.060 A 
ATOM     32  C   UNL A   1      38.962  27.699  27.511  1.00  0.00     0.016 A 
ATOM     33  C   UNL A   1      39.223  26.226  29.401  1.00  0.00     0.016 A 
ATOM     34  C   UNL A   1      39.006  28.804  28.336  1.00  0.00     0.010 A 
ATOM     35  C   UNL A   1      39.300  27.313  30.241  1.00  0.00     0.010 A 
ATOM     36  C   UNL A   1      39.308  28.602  29.684  1.00  0.00    -0.014 A 
BRANCH  36  37
ATOM     37  C   UNL A   1      39.356  29.751  30.580  1.00  0.00     0.031 A 
ATOM     38  C   UNL A   1      40.739  30.325  30.670  1.00  0.00     0.074 A 
ATOM     39  C   UNL A   1      38.186  30.297  30.983  1.00  0.00     0.049 A 
ATOM     40  N   UNL A   1      41.313  30.969  31.635  1.00  0.00    -0.248 NA
ATOM     41  C   UNL A   1      41.655  30.040  29.533  1.00  0.00     0.031 C 
ATOM     42  C   UNL A   1      36.837  29.773  30.705  1.00  0.00     0.029 A 
ATOM     43  N   UNL A   1      37.914  31.509  31.548  1.00  0.00    -0.354 N 
ATOM     44  C   UNL A   1      42.561  31.340  31.128  1.00  0.00     0.074 A 
ATOM     45  C   UNL A   1      42.793  30.589  29.932  1.00  0.00     0.031 C 
ATOM     46  C   UNL A   1      35.936  30.768  30.839  1.00  0.00     0.029 A 
ATOM     47  C   UNL A   1      36.631  31.972  31.252  1.00  0.00     0.049 A 
ATOM     48  H   UNL A   1      38.556  32.006  32.105  1.00  0.00     0.167 HD
ATOM     49  C   UNL A   1      43.182  32.478  31.521  1.00  0.00     0.037 A 
ATOM     50  C   UNL A   1      36.210  33.263  31.195  1.00  0.00     0.037 A 
ATOM     51  C   UNL A   1      42.845  32.830  32.866  1.00  0.00     0.049 A 
ATOM     52  C   UNL A   1      37.271  34.110  31.792  1.00  0.00     0.074 A 
ATOM     53  C   UNL A   1      43.002  32.199  34.083  1.00  0.00     0.029 A 
ATOM     54  N   UNL A   1      41.933  33.833  33.067  1.00  0.00    -0.354 N 
ATOM     55  N   UNL A   1      37.577  34.137  33.058  1.00  0.00    -0.248 NA
ATOM     56  C   UNL A   1      38.296  34.624  30.894  1.00  0.00     0.031 C 
ATOM     57  C   UNL A   1      41.857  32.563  34.842  1.00  0.00     0.029 A 
ATOM     58  C   UNL A   1      41.086  33.426  34.064  1.00  0.00     0.049 A 
ATOM     59  H   UNL A   1      41.895  34.690  32.583  1.00  0.00     0.167 HD
ATOM     60  C   UNL A   1      38.958  34.267  33.086  1.00  0.00     0.074 A 
ATOM     61  C   UNL A   1      39.335  34.655  31.731  1.00  0.00     0.031 C 
ATOM     62  C   UNL A   1      39.686  33.777  34.130  1.00  0.00     0.037 A 
BRANCH  49  63
ATOM     63  C   UNL A   1      43.781  33.429  30.519  1.00  0.00     0.057 A 
ATOM     64  C   UNL A   1      45.134  33.779  30.616  1.00  0.00     0.134 A 
ATOM     65  C   UNL A   1      43.019  34.213  29.620  1.00  0.00     0.134 A 
ATOM     66  F   UNL A   1      45.949  33.133  31.464  1.00  0.00    -0.206 F 
ATOM     67  C   UNL A   1      45.679  34.851  29.899  1.00  0.00     0.040 A 
ATOM     68  C   UNL A   1      43.565  35.246  28.858  1.00  0.00     0.040 A 
ATOM     69  F   UNL A   1      41.691  34.088  29.502  1.00  0.00    -0.206 F 
ATOM     70  C   UNL A   1      44.896  35.587  29.017  1.00  0.00     0.006 A 
ENDBRANCH  49  63
BRANCH  50  71
ATOM     71  C   UNL A   1      35.130  33.847  30.354  1.00  0.00     0.057 A 
ATOM     72  C   UNL A   1      34.085  34.594  30.921  1.00  0.00     0.134 A 
ATOM     73  C   UNL A   1      35.204  33.881  28.948  1.00  0.00     0.134 A 
ATOM     74  F   UNL A   1      33.956  34.680  32.252  1.00  0.00    -0.206 F 
ATOM     75  C   UNL A   1      33.172  35.320  30.139  1.00  0.00     0.040 A 
ATOM     76  C   UNL A   1      34.290  34.584  28.157  1.00  0.00     0.040 A 
ATOM     77  F   UNL A   1      36.220  33.303  28.291  1.00  0.00    -0.206 F 
ATOM     78  C   UNL A   1      33.273  35.317  28.752  1.00  0.00     0.006 A 
ENDBRANCH  50  71
BRANCH  62  79
ATOM     79  C   UNL A   1      38.935  33.325  35.351  1.00  0.00     0.057 A 
ATOM     80  C   UNL A   1      38.477  32.012  35.543  1.00  0.00     0.134 A 
ATOM     81  C   UNL A   1      38.810  34.203  36.431  1.00  0.00     0.134 A 
ATOM     82  F   UNL A   1      38.651  31.074  34.603  1.00  0.00    -0.206 F 
ATOM     83  C   UNL A   1      37.881  31.606  36.738  1.00  0.00     0.040 A 
ATOM     84  C   UNL A   1      38.251  33.800  37.645  1.00  0.00     0.040 A 
ATOM     85  F   UNL A   1      39.281  35.457  36.342  1.00  0.00    -0.206 F 
ATOM     86  C   UNL A   1      37.773  32.500  37.798  1.00  0.00     0.006 A 
ENDBRANCH  62  79
ENDBRANCH  36  37
ENDBRANCH  29  31
ENDBRANCH  28  29
ENDBRANCH  27  28
ENDBRANCH  26  27
ENDBRANCH  25  26
ENDBRANCH  24  25
ENDBRANCH   1  24
TORSDOF 23
ENDMDL
MODEL 2
REMARK VINA RESULT:      -9.5      4.768      9.978
REMARK SMILES CCCc1nnc(SCC(=O)OCCOCCOCCOC(=O)c2ccc(-c3c4nc(c(-c5c(F)cccc5F)c5ccc([nH]5)c(-c5c(F)cccc5F)c5nc(c(-c6c(F)cccc6F)c6ccc3[nH]6)C=C5)C=C4)cc2)n1C[C@H]1CCCO1
REMARK SMILES IDX 16 1 15 2 14 3 13 4 12 5 10 6 11 7 9 8 8 9 7 10 4 11 5 12
REMARK SMILES IDX 78 13 6 14 3 15 2 16 1 17 79 18 80 19 81 20 84 21 82 22
REMARK SMILES IDX 83 23 17 24 18 25 19 26 20 27 21 28 22 29 23 30 24 31 25 32
REMARK SMILES IDX 77 33 26 34 76 35 27 36 28 37 29 38 70 39 30 40 75 41 69 42
REMARK SMILES IDX 71 43 31 44 74 45 68 46 67 47 32 49 58 50 41 51 57 52 42 53
REMARK SMILES IDX 45 54 56 55 72 56 43 57 44 58 55 60 73 61 46 62 33 63 34 64
REMARK SMILES IDX 39 65 35 66 36 67 38 68 40 69 37 70 59 71 60 72 65 73 61 74
REMARK SMILES IDX 62 75 64 76 66 77 63 78 47 79 48 80 53 81 49 82 50 83 52 84
REMARK SMILES IDX 54 85 51 86
REMARK H PARENT 71 48 45 59
REMARK Flexibility Score: inf
ROOT
ATOM      1  C   UNL A   1      34.213  29.179  27.236  1.00  0.00     0.188 C 
ENDROOT
BRANCH   1   2
ATOM      2  O   UNL A   1      33.039  28.545  26.758  1.00  0.00    -0.376 OA
BRANCH   2   3
ATOM      3  C   UNL A   1      32.047  29.364  26.138  1.00  0.00     0.202 C 
BRANCH   3   4
ATOM      4  C   UNL A   1      32.033  29.415  24.596  1.00  0.00     0.261 C 
BRANCH   4   5
ATOM      5  O   UNL A   1      30.786  28.994  23.979  1.00  0.00    -0.463 OA
BRANCH   5   6
ATOM      6  C   UNL A   1      30.621  27.664  23.764  1.00  0.00     0.316 C 
ATOM      7  O   UNL A   1      30.019  26.930  24.548  1.00  0.00    -0.251 OA
BRANCH   6   8
ATOM      8  C   UNL A   1      31.068  27.109  22.417  1.00  0.00     0.200 C 
BRANCH   8   9
ATOM      9  S   UNL A   1      32.738  26.525  22.173  1.00  0.00    -0.074 SA
BRANCH   9  10
ATOM     10  C   UNL A   1      33.284  25.744  23.648  1.00  0.00     0.191 A 
ATOM     11  C   UNL A   1      34.585  24.336  24.714  1.00  0.00     0.133 A 
ATOM     12  N   UNL A   1      34.787  25.536  25.217  1.00  0.00    -0.134 NA
ATOM     13  N   UNL A   1      33.431  24.397  23.932  1.00  0.00    -0.303 N 
ATOM     14  N   UNL A   1      33.980  26.417  24.540  1.00  0.00    -0.123 NA
BRANCH  11  15
ATOM     15  C   UNL A   1      35.490  23.151  24.907  1.00  0.00     0.077 C 
BRANCH  15  16
ATOM     16  C   UNL A   1      36.982  23.456  24.653  1.00  0.00     0.005 C 
ATOM     17  C   UNL A   1      37.790  23.703  25.919  1.00  0.00     0.004 C 
ENDBRANCH  15  16
ENDBRANCH  11  15
BRANCH  13  18
ATOM     18  C   UNL A   1      32.672  23.271  23.451  1.00  0.00     0.158 C 
BRANCH  18  19
ATOM     19  C   UNL A   1      31.600  22.612  24.347  1.00  0.00     0.138 C 
ATOM     20  C   UNL A   1      32.013  21.840  25.591  1.00  0.00     0.036 C 
ATOM     21  O   UNL A   1      30.751  23.695  24.795  1.00  0.00    -0.376 OA
ATOM     22  C   UNL A   1      31.623  22.699  26.772  1.00  0.00     0.031 C 
ATOM     23  C   UNL A   1      30.608  23.668  26.219  1.00  0.00     0.160 C 
ENDBRANCH  18  19
ENDBRANCH  13  18
ENDBRANCH   9  10
ENDBRANCH   8   9
ENDBRANCH   6   8
ENDBRANCH   5   6
ENDBRANCH   4   5
ENDBRANCH   3   4
ENDBRANCH   2   3
ENDBRANCH   1   2
BRANCH   1  24
ATOM     24  C   UNL A   1      34.130  30.669  27.601  1.00  0.00     0.188 C 
BRANCH  24  25
ATOM     25  O   UNL A   1      35.362  31.318  27.826  1.00  0.00    -0.376 OA
BRANCH  25  26
ATOM     26  C   UNL A   1      35.568  31.846  29.121  1.00  0.00     0.202 C 
BRANCH  26  27
ATOM     27  C   UNL A   1      37.037  32.157  29.413  1.00  0.00     0.261 C 
BRANCH  27  28
ATOM     28  O   UNL A   1      37.981  31.343  28.707  1.00  0.00    -0.460 OA
BRANCH  28  29
ATOM     29  C   UNL A   1      38.207  30.164  29.298  1.00  0.00     0.338 C 
ATOM     30  O   UNL A   1      38.610  29.992  30.452  1.00  0.00    -0.246 OA
BRANCH  29  31
ATOM     31  C   UNL A   1      38.022  29.062  28.317  1.00  0.00     0.060 A 
ATOM     32  C   UNL A   1      38.218  27.820  28.933  1.00  0.00     0.016 A 
ATOM     33  C   UNL A   1      38.814  29.412  27.226  1.00  0.00     0.016 A 
ATOM     34  C   UNL A   1      39.501  27.314  28.945  1.00  0.00     0.010 A 
ATOM     35  C   UNL A   1      40.109  28.947  27.240  1.00  0.00     0.010 A 
ATOM     36  C   UNL A   1      40.471  27.975  28.189  1.00  0.00    -0.014 A 
BRANCH  36  37
ATOM     37  C   UNL A   1      41.835  27.461  28.177  1.00  0.00     0.031 A 
ATOM     38  C   UNL A   1      42.616  27.939  29.365  1.00  0.00     0.074 A 
ATOM     39  C   UNL A   1      42.136  26.466  27.311  1.00  0.00     0.049 A 
ATOM     40  N   UNL A   1      43.887  28.136  29.502  1.00  0.00    -0.248 NA
ATOM     41  C   UNL A   1      41.830  28.359  30.556  1.00  0.00     0.031 C 
ATOM     42  C   UNL A   1      41.248  25.915  26.273  1.00  0.00     0.029 A 
ATOM     43  N   UNL A   1      43.193  25.604  27.276  1.00  0.00    -0.354 N 
ATOM     44  C   UNL A   1      44.056  28.489  30.843  1.00  0.00     0.074 A 
ATOM     45  C   UNL A   1      42.767  28.798  31.383  1.00  0.00     0.031 C 
ATOM     46  C   UNL A   1      41.675  24.682  25.930  1.00  0.00     0.029 A 
ATOM     47  C   UNL A   1      42.877  24.380  26.683  1.00  0.00     0.049 A 
ATOM     48  H   UNL A   1      44.085  25.821  27.631  1.00  0.00     0.167 HD
ATOM     49  C   UNL A   1      45.184  28.182  31.527  1.00  0.00     0.037 A 
ATOM     50  C   UNL A   1      43.459  23.174  26.914  1.00  0.00     0.037 A 
ATOM     51  C   UNL A   1      46.329  28.139  30.671  1.00  0.00     0.049 A 
ATOM     52  C   UNL A   1      44.699  23.414  27.693  1.00  0.00     0.074 A 
ATOM     53  C   UNL A   1      46.947  29.070  29.861  1.00  0.00     0.029 A 
ATOM     54  N   UNL A   1      46.808  26.915  30.287  1.00  0.00    -0.354 N 
ATOM     55  N   UNL A   1      45.773  23.980  27.223  1.00  0.00    -0.248 NA
ATOM     56  C   UNL A   1      44.586  23.404  29.145  1.00  0.00     0.031 C 
ATOM     57  C   UNL A   1      47.425  28.333  28.743  1.00  0.00     0.029 A 
ATOM     58  C   UNL A   1      47.109  26.990  28.952  1.00  0.00     0.049 A 
ATOM     59  H   UNL A   1      46.918  26.126  30.865  1.00  0.00     0.167 HD
ATOM     60  C   UNL A   1      46.252  24.756  28.269  1.00  0.00     0.074 A 
ATOM     61  C   UNL A   1      45.535  24.290  29.452  1.00  0.00     0.031 C 
ATOM     62  C   UNL A   1      46.975  25.887  28.029  1.00  0.00     0.037 A 
BRANCH  49  63
ATOM     63  C   UNL A   1      45.124  27.560  32.898  1.00  0.00     0.057 A 
ATOM     64  C   UNL A   1      44.487  26.325  33.071  1.00  0.00     0.134 A 
ATOM     65  C   UNL A   1      45.442  28.249  34.093  1.00  0.00     0.134 A 
ATOM     66  F   UNL A   1      44.102  25.598  32.012  1.00  0.00    -0.206 F 
ATOM     67  C   UNL A   1      44.158  25.830  34.339  1.00  0.00     0.040 A 
ATOM     68  C   UNL A   1      45.170  27.738  35.362  1.00  0.00     0.040 A 
ATOM     69  F   UNL A   1      45.940  29.492  34.097  1.00  0.00    -0.206 F 
ATOM     70  C   UNL A   1      44.500  26.534  35.489  1.00  0.00     0.006 A 
ENDBRANCH  49  63
BRANCH  50  71
ATOM     71  C   UNL A   1      42.849  21.820  26.821  1.00  0.00     0.057 A 
ATOM     72  C   UNL A   1      41.690  21.491  27.542  1.00  0.00     0.134 A 
ATOM     73  C   UNL A   1      43.249  20.877  25.855  1.00  0.00     0.134 A 
ATOM     74  F   UNL A   1      41.186  22.343  28.445  1.00  0.00    -0.206 F 
ATOM     75  C   UNL A   1      40.982  20.298  27.321  1.00  0.00     0.040 A 
ATOM     76  C   UNL A   1      42.564  19.677  25.638  1.00  0.00     0.040 A 
ATOM     77  F   UNL A   1      44.271  21.123  25.024  1.00  0.00    -0.206 F 
ATOM     78  C   UNL A   1      41.419  19.386  26.366  1.00  0.00     0.006 A 
ENDBRANCH  50  71
BRANCH  62  79
ATOM     79  C   UNL A   1      47.447  26.125  26.622  1.00  0.00     0.057 A 
ATOM     80  C   UNL A   1      46.734  26.877  25.676  1.00  0.00     0.134 A 
ATOM     81  C   UNL A   1      48.735  25.713  26.263  1.00  0.00     0.134 A 
ATOM     82  F   UNL A   1      45.538  27.403  25.969  1.00  0.00    -0.206 F 
ATOM     83  C   UNL A   1      47.259  27.167  24.415  1.00  0.00     0.040 A 
ATOM     84  C   UNL A   1      49.287  26.029  25.020  1.00  0.00     0.040 A 
ATOM     85  F   UNL A   1      49.500  25.043  27.139  1.00  0.00    -0.206 F 
ATOM     86  C   UNL A   1      48.544  26.748  24.086  1.00  0.00     0.006 A 
ENDBRANCH  62  79
ENDBRANCH  36  37
ENDBRANCH  29  31
ENDBRANCH  28  29
ENDBRANCH  27  28
ENDBRANCH  26  27
ENDBRANCH  25  26
ENDBRANCH  24  25
ENDBRANCH   1  24
TORSDOF 23
ENDMDL
MODEL 3
REMARK VINA RESULT:      -9.4      1.461      2.495
REMARK SMILES CCCc1nnc(SCC(=O)OCCOCCOCCOC(=O)c2ccc(-c3c4nc(c(-c5c(F)cccc5F)c5ccc([nH]5)c(-c5c(F)cccc5F)c5nc(c(-c6c(F)cccc6F)c6ccc3[nH]6)C=C5)C=C4)cc2)n1C[C@H]1CCCO1
REMARK SMILES IDX 16 1 15 2 14 3 13 4 12 5 10 6 11 7 9 8 8 9 7 10 4 11 5 12
REMARK SMILES IDX 78 13 6 14 3 15 2 16 1 17 79 18 80 19 81 20 84 21 82 22
REMARK SMILES IDX 83 23 17 24 18 25 19 26 20 27 21 28 22 29 23 30 24 31 25 32
REMARK SMILES IDX 77 33 26 34 76 35 27 36 28 37 29 38 70 39 30 40 75 41 69 42
REMARK SMILES IDX 71 43 31 44 74 45 68 46 67 47 32 49 58 50 41 51 57 52 42 53
REMARK SMILES IDX 45 54 56 55 72 56 43 57 44 58 55 60 73 61 46 62 33 63 34 64
REMARK SMILES IDX 39 65 35 66 36 67 38 68 40 69 37 70 59 71 60 72 65 73 61 74
REMARK SMILES IDX 62 75 64 76 66 77 63 78 47 79 48 80 53 81 49 82 50 83 52 84
REMARK SMILES IDX 54 85 51 86
REMARK H PARENT 71 48 45 59
REMARK Flexibility Score: inf
ROOT
ATOM      1  C   UNL A   1      37.868  23.917  26.084  1.00  0.00     0.188 C 
ENDROOT
BRANCH   1   2
ATOM      2  O   UNL A   1      36.587  23.796  25.491  1.00  0.00    -0.376 OA
BRANCH   2   3
ATOM      3  C   UNL A   1      36.418  22.812  24.470  1.00  0.00     0.202 C 
BRANCH   3   4
ATOM      4  C   UNL A   1      35.663  23.236  23.195  1.00  0.00     0.261 C 
BRANCH   4   5
ATOM      5  O   UNL A   1      34.239  22.942  23.197  1.00  0.00    -0.463 OA
BRANCH   5   6
ATOM      6  C   UNL A   1      33.490  23.505  22.215  1.00  0.00     0.316 C 
ATOM      7  O   UNL A   1      33.616  23.210  21.026  1.00  0.00    -0.251 OA
BRANCH   6   8
ATOM      8  C   UNL A   1      32.344  24.416  22.640  1.00  0.00     0.200 C 
BRANCH   8   9
ATOM      9  S   UNL A   1      32.555  26.188  22.700  1.00  0.00    -0.074 SA
BRANCH   9  10
ATOM     10  C   UNL A   1      32.071  26.759  24.289  1.00  0.00     0.191 A 
ATOM     11  C   UNL A   1      32.516  27.731  26.204  1.00  0.00     0.133 A 
ATOM     12  N   UNL A   1      31.561  28.419  25.613  1.00  0.00    -0.134 NA
ATOM     13  N   UNL A   1      32.642  26.519  25.527  1.00  0.00    -0.303 N 
ATOM     14  N   UNL A   1      31.292  27.815  24.409  1.00  0.00    -0.123 NA
BRANCH  11  15
ATOM     15  C   UNL A   1      33.351  28.221  27.355  1.00  0.00     0.077 C 
BRANCH  15  16
ATOM     16  C   UNL A   1      34.256  29.421  27.005  1.00  0.00     0.005 C 
ATOM     17  C   UNL A   1      33.584  30.777  27.177  1.00  0.00     0.004 C 
ENDBRANCH  15  16
ENDBRANCH  11  15
BRANCH  13  18
ATOM     18  C   UNL A   1      33.333  25.348  26.005  1.00  0.00     0.158 C 
BRANCH  18  19
ATOM     19  C   UNL A   1      32.555  24.214  26.706  1.00  0.00     0.138 C 
ATOM     20  C   UNL A   1      31.045  24.108  26.541  1.00  0.00     0.036 C 
ATOM     21  O   UNL A   1      33.114  22.984  26.190  1.00  0.00    -0.376 OA
ATOM     22  C   UNL A   1      30.800  22.918  25.642  1.00  0.00     0.031 C 
ATOM     23  C   UNL A   1      32.079  22.121  25.709  1.00  0.00     0.160 C 
ENDBRANCH  18  19
ENDBRANCH  13  18
ENDBRANCH   9  10
ENDBRANCH   8   9
ENDBRANCH   6   8
ENDBRANCH   5   6
ENDBRANCH   4   5
ENDBRANCH   3   4
ENDBRANCH   2   3
ENDBRANCH   1   2
BRANCH   1  24
ATOM     24  C   UNL A   1      38.743  22.659  26.173  1.00  0.00     0.188 C 
BRANCH  24  25
ATOM     25  O   UNL A   1      39.749  22.675  27.164  1.00  0.00    -0.376 OA
BRANCH  25  26
ATOM     26  C   UNL A   1      41.084  22.720  26.703  1.00  0.00     0.202 C 
BRANCH  26  27
ATOM     27  C   UNL A   1      41.773  24.055  26.994  1.00  0.00     0.261 C 
BRANCH  27  28
ATOM     28  O   UNL A   1      41.242  24.780  28.108  1.00  0.00    -0.460 OA
BRANCH  28  29
ATOM     29  C   UNL A   1      41.101  26.089  27.868  1.00  0.00     0.338 C 
ATOM     30  O   UNL A   1      42.014  26.914  27.770  1.00  0.00    -0.246 OA
BRANCH  29  31
ATOM     31  C   UNL A   1      39.659  26.450  27.854  1.00  0.00     0.060 A 
ATOM     32  C   UNL A   1      39.476  27.715  27.283  1.00  0.00     0.016 A 
ATOM     33  C   UNL A   1      39.217  26.221  29.155  1.00  0.00     0.016 A 
ATOM     34  C   UNL A   1      39.527  28.805  28.128  1.00  0.00     0.010 A 
ATOM     35  C   UNL A   1      39.295  27.287  30.021  1.00  0.00     0.010 A 
ATOM     36  C   UNL A   1      39.569  28.564  29.502  1.00  0.00    -0.014 A 
BRANCH  36  37
ATOM     37  C   UNL A   1      39.618  29.695  30.420  1.00  0.00     0.031 A 
ATOM     38  C   UNL A   1      41.013  30.224  30.573  1.00  0.00     0.074 A 
ATOM     39  C   UNL A   1      38.450  30.271  30.789  1.00  0.00     0.049 A 
ATOM     40  N   UNL A   1      41.570  30.833  31.569  1.00  0.00    -0.248 NA
ATOM     41  C   UNL A   1      41.963  29.929  29.466  1.00  0.00     0.031 C 
ATOM     42  C   UNL A   1      37.098  29.794  30.450  1.00  0.00     0.029 A 
ATOM     43  N   UNL A   1      38.195  31.482  31.364  1.00  0.00    -0.354 N 
ATOM     44  C   UNL A   1      42.847  31.173  31.117  1.00  0.00     0.074 A 
ATOM     45  C   UNL A   1      43.101  30.435  29.918  1.00  0.00     0.031 C 
ATOM     46  C   UNL A   1      36.223  30.815  30.568  1.00  0.00     0.029 A 
ATOM     47  C   UNL A   1      36.939  31.989  31.028  1.00  0.00     0.049 A 
ATOM     48  H   UNL A   1      38.830  31.949  31.954  1.00  0.00     0.167 HD
ATOM     49  C   UNL A   1      43.488  32.284  31.554  1.00  0.00     0.037 A 
ATOM     50  C   UNL A   1      36.560  33.294  30.978  1.00  0.00     0.037 A 
ATOM     51  C   UNL A   1      43.110  32.624  32.891  1.00  0.00     0.049 A 
ATOM     52  C   UNL A   1      37.624  34.097  31.630  1.00  0.00     0.074 A 
ATOM     53  C   UNL A   1      43.201  31.968  34.101  1.00  0.00     0.029 A 
ATOM     54  N   UNL A   1      42.223  33.651  33.075  1.00  0.00    -0.354 N 
ATOM     55  N   UNL A   1      37.881  34.093  32.906  1.00  0.00    -0.248 NA
ATOM     56  C   UNL A   1      38.698  34.593  30.780  1.00  0.00     0.031 C 
ATOM     57  C   UNL A   1      42.039  32.355  34.823  1.00  0.00     0.029 A 
ATOM     58  C   UNL A   1      41.325  33.255  34.032  1.00  0.00     0.049 A 
ATOM     59  H   UNL A   1      42.229  34.517  32.605  1.00  0.00     0.167 HD
ATOM     60  C   UNL A   1      39.263  34.179  32.990  1.00  0.00     0.074 A 
ATOM     61  C   UNL A   1      39.705  34.578  31.657  1.00  0.00     0.031 C 
ATOM     62  C   UNL A   1      39.936  33.649  34.051  1.00  0.00     0.037 A 
BRANCH  49  63
ATOM     63  C   UNL A   1      44.154  33.233  30.592  1.00  0.00     0.057 A 
ATOM     64  C   UNL A   1      43.385  33.893  29.625  1.00  0.00     0.134 A 
ATOM     65  C   UNL A   1      45.554  33.323  30.414  1.00  0.00     0.134 A 
ATOM     66  F   UNL A   1      42.045  33.847  29.667  1.00  0.00    -0.206 F 
ATOM     67  C   UNL A   1      43.967  34.564  28.542  1.00  0.00     0.040 A 
ATOM     68  C   UNL A   1      46.146  34.036  29.371  1.00  0.00     0.040 A 
ATOM     69  F   UNL A   1      46.423  32.648  31.178  1.00  0.00    -0.206 F 
ATOM     70  C   UNL A   1      45.350  34.638  28.413  1.00  0.00     0.006 A 
ENDBRANCH  49  63
BRANCH  50  71
ATOM     71  C   UNL A   1      35.532  33.925  30.107  1.00  0.00     0.057 A 
ATOM     72  C   UNL A   1      35.606  33.837  28.708  1.00  0.00     0.134 A 
ATOM     73  C   UNL A   1      34.326  34.443  30.618  1.00  0.00     0.134 A 
ATOM     74  F   UNL A   1      36.685  33.305  28.117  1.00  0.00    -0.206 F 
ATOM     75  C   UNL A   1      34.553  34.244  27.874  1.00  0.00     0.040 A 
ATOM     76  C   UNL A   1      33.276  34.870  29.797  1.00  0.00     0.040 A 
ATOM     77  F   UNL A   1      34.084  34.473  31.936  1.00  0.00    -0.206 F 
ATOM     78  C   UNL A   1      33.383  34.763  28.418  1.00  0.00     0.006 A 
ENDBRANCH  50  71
BRANCH  62  79
ATOM     79  C   UNL A   1      39.124  33.200  35.234  1.00  0.00     0.057 A 
ATOM     80  C   UNL A   1      38.670  31.885  35.414  1.00  0.00     0.134 A 
ATOM     81  C   UNL A   1      38.933  34.088  36.298  1.00  0.00     0.134 A 
ATOM     82  F   UNL A   1      38.902  30.940  34.495  1.00  0.00    -0.206 F 
ATOM     83  C   UNL A   1      38.014  31.484  36.580  1.00  0.00     0.040 A 
ATOM     84  C   UNL A   1      38.314  33.690  37.484  1.00  0.00     0.040 A 
ATOM     85  F   UNL A   1      39.397  35.345  36.222  1.00  0.00    -0.206 F 
ATOM     86  C   UNL A   1      37.841  32.387  37.624  1.00  0.00     0.006 A 
ENDBRANCH  62  79
ENDBRANCH  36  37
ENDBRANCH  29  31
ENDBRANCH  28  29
ENDBRANCH  27  28
ENDBRANCH  26  27
ENDBRANCH  25  26
ENDBRANCH  24  25
ENDBRANCH   1  24
TORSDOF 23
ENDMDL
