MODEL 1
REMARK VINA RESULT:      -9.6      0.000      0.000
REMARK SMILES O=C(COc1ccc2c(c1)CCC2)N[C@@H](CO)C(=O)OCCOCCOCCOC(=O)c1ccc(-c2c3nc(c(-c4c(F)cccc4F)c4ccc([nH]4)c(-c4c(F)cccc4F)c4nc(c(-c5c(F)cccc5F)c5ccc2[nH]5)C=C4)C=C3)cc1
REMARK SMILES IDX 24 1 23 2 22 3 21 4 20 5 18 6 19 7 15 8 14 9 1 10 2 11 3 13
REMARK SMILES IDX 4 14 5 15 6 16 10 17 7 18 9 19 8 20 11 21 13 22 12 23 16 24
REMARK SMILES IDX 17 25 25 27 26 28 27 29 28 30 29 31 30 32 31 33 32 34 33 35
REMARK SMILES IDX 85 36 34 37 84 38 35 39 36 40 37 41 78 42 38 43 83 44 77 45
REMARK SMILES IDX 79 46 39 47 82 48 76 49 75 50 40 52 66 53 49 54 65 55 50 56
REMARK SMILES IDX 53 57 64 58 80 59 51 60 52 61 63 63 81 64 54 65 41 66 42 67
REMARK SMILES IDX 47 68 43 69 44 70 46 71 48 72 45 73 67 74 68 75 73 76 69 77
REMARK SMILES IDX 70 78 72 79 74 80 71 81 55 82 56 83 61 84 57 85 58 86 60 87
REMARK SMILES IDX 62 88 59 89
REMARK H PARENT 14 12 17 26 79 51 53 62
REMARK Flexibility Score: inf
ROOT
ATOM      1  C   UNL A   1      41.147  20.547  26.213  1.00  0.00     0.188 C 
ENDROOT
BRANCH   1   2
ATOM      2  O   UNL A   1      40.270  21.259  27.075  1.00  0.00    -0.376 OA
BRANCH   2   3
ATOM      3  C   UNL A   1      39.340  22.170  26.500  1.00  0.00     0.202 C 
BRANCH   3   4
ATOM      4  C   UNL A   1      38.392  21.617  25.429  1.00  0.00     0.261 C 
BRANCH   4   5
ATOM      5  O   UNL A   1      37.002  21.607  25.831  1.00  0.00    -0.462 OA
BRANCH   5   6
ATOM      6  C   UNL A   1      36.110  21.914  24.849  1.00  0.00     0.331 C 
ATOM      7  O   UNL A   1      36.428  22.189  23.695  1.00  0.00    -0.250 OA
BRANCH   6   8
ATOM      8  C   UNL A   1      34.633  21.810  25.285  1.00  0.00     0.218 C 
BRANCH   8   9
ATOM      9  N   UNL A   1      33.704  22.954  25.140  1.00  0.00    -0.338 N 
ATOM     10  O   UNL A   1      33.768  23.459  27.370  1.00  0.00    -0.271 OA
ATOM     11  C   UNL A   1      33.317  23.691  26.248  1.00  0.00     0.258 C 
ATOM     12  H   UNL A   1      33.358  23.193  24.250  1.00  0.00     0.164 HD
BRANCH  11  13
ATOM     13  C   UNL A   1      32.249  24.778  26.031  1.00  0.00     0.329 C 
BRANCH  13  14
ATOM     14  O   UNL A   1      32.500  25.739  25.020  1.00  0.00    -0.484 OA
BRANCH  14  15
ATOM     15  C   UNL A   1      32.577  27.058  25.390  1.00  0.00     0.120 A 
ATOM     16  C   UNL A   1      31.523  27.980  25.327  1.00  0.00     0.047 A 
ATOM     17  C   UNL A   1      33.804  27.450  25.945  1.00  0.00     0.050 A 
ATOM     18  C   UNL A   1      31.659  29.262  25.883  1.00  0.00     0.008 A 
ATOM     19  C   UNL A   1      33.923  28.716  26.504  1.00  0.00    -0.041 A 
ATOM     20  C   UNL A   1      32.841  29.594  26.522  1.00  0.00    -0.045 A 
ATOM     21  C   UNL A   1      35.131  29.359  27.110  1.00  0.00     0.036 C 
ATOM     22  C   UNL A   1      33.166  30.840  27.287  1.00  0.00     0.036 C 
ATOM     23  C   UNL A   1      34.487  30.453  27.972  1.00  0.00     0.010 C 
ENDBRANCH  14  15
ENDBRANCH  13  14
ENDBRANCH  11  13
ENDBRANCH   8   9
BRANCH   8  24
ATOM     24  C   UNL A   1      34.040  20.576  24.593  1.00  0.00     0.193 C 
BRANCH  24  25
ATOM     25  O   UNL A   1      34.292  19.398  25.363  1.00  0.00    -0.394 OA
ATOM     26  H   UNL A   1      33.667  19.355  26.103  1.00  0.00     0.210 HD
ENDBRANCH  24  25
ENDBRANCH   8  24
ENDBRANCH   6   8
ENDBRANCH   5   6
ENDBRANCH   4   5
ENDBRANCH   3   4
ENDBRANCH   2   3
ENDBRANCH   1   2
BRANCH   1  27
ATOM     27  C   UNL A   1      42.669  20.629  26.453  1.00  0.00     0.188 C 
BRANCH  27  28
ATOM     28  O   UNL A   1      43.427  21.255  25.431  1.00  0.00    -0.376 OA
BRANCH  28  29
ATOM     29  C   UNL A   1      42.948  22.538  25.039  1.00  0.00     0.202 C 
BRANCH  29  30
ATOM     30  C   UNL A   1      43.160  23.624  26.095  1.00  0.00     0.261 C 
BRANCH  30  31
ATOM     31  O   UNL A   1      42.034  24.523  26.102  1.00  0.00    -0.460 OA
BRANCH  31  32
ATOM     32  C   UNL A   1      42.232  25.813  25.788  1.00  0.00     0.338 C 
ATOM     33  O   UNL A   1      42.790  26.240  24.785  1.00  0.00    -0.246 OA
BRANCH  32  34
ATOM     34  C   UNL A   1      41.723  26.681  26.881  1.00  0.00     0.060 A 
ATOM     35  C   UNL A   1      42.231  27.963  27.132  1.00  0.00     0.016 A 
ATOM     36  C   UNL A   1      40.750  26.161  27.732  1.00  0.00     0.016 A 
ATOM     37  C   UNL A   1      41.817  28.698  28.246  1.00  0.00     0.010 A 
ATOM     38  C   UNL A   1      40.317  26.901  28.834  1.00  0.00     0.010 A 
ATOM     39  C   UNL A   1      40.871  28.161  29.119  1.00  0.00    -0.014 A 
BRANCH  39  40
ATOM     40  C   UNL A   1      40.485  28.859  30.365  1.00  0.00     0.031 A 
ATOM     41  C   UNL A   1      39.377  29.873  30.332  1.00  0.00     0.074 A 
ATOM     42  C   UNL A   1      41.157  28.631  31.508  1.00  0.00     0.049 A 
ATOM     43  N   UNL A   1      39.064  30.787  31.211  1.00  0.00    -0.248 NA
ATOM     44  C   UNL A   1      38.505  29.850  29.146  1.00  0.00     0.031 C 
ATOM     45  C   UNL A   1      42.188  27.612  31.697  1.00  0.00     0.029 A 
ATOM     46  N   UNL A   1      41.094  29.278  32.717  1.00  0.00    -0.354 N 
ATOM     47  C   UNL A   1      37.984  31.474  30.672  1.00  0.00     0.074 A 
ATOM     48  C   UNL A   1      37.684  30.863  29.395  1.00  0.00     0.031 C 
ATOM     49  C   UNL A   1      42.693  27.730  32.936  1.00  0.00     0.029 A 
ATOM     50  C   UNL A   1      42.072  28.875  33.594  1.00  0.00     0.049 A 
ATOM     51  H   UNL A   1      40.419  29.961  32.933  1.00  0.00     0.167 HD
ATOM     52  C   UNL A   1      37.318  32.530  31.196  1.00  0.00     0.037 A 
ATOM     53  C   UNL A   1      42.472  29.416  34.760  1.00  0.00     0.037 A 
ATOM     54  C   UNL A   1      37.615  33.119  32.475  1.00  0.00     0.049 A 
ATOM     55  C   UNL A   1      41.791  30.654  35.270  1.00  0.00     0.074 A 
ATOM     56  C   UNL A   1      36.983  34.177  33.106  1.00  0.00     0.029 A 
ATOM     57  N   UNL A   1      38.635  32.703  33.315  1.00  0.00    -0.354 N 
ATOM     58  N   UNL A   1      40.795  31.326  34.745  1.00  0.00    -0.248 NA
ATOM     59  C   UNL A   1      42.303  31.222  36.524  1.00  0.00     0.031 C 
ATOM     60  C   UNL A   1      37.651  34.430  34.308  1.00  0.00     0.029 A 
ATOM     61  C   UNL A   1      38.670  33.503  34.446  1.00  0.00     0.049 A 
ATOM     62  H   UNL A   1      39.244  31.952  33.135  1.00  0.00     0.167 HD
ATOM     63  C   UNL A   1      40.546  32.379  35.614  1.00  0.00     0.074 A 
ATOM     64  C   UNL A   1      41.491  32.254  36.705  1.00  0.00     0.031 C 
ATOM     65  C   UNL A   1      39.616  33.361  35.521  1.00  0.00     0.037 A 
BRANCH  52  66
ATOM     66  C   UNL A   1      36.229  33.152  30.374  1.00  0.00     0.057 A 
ATOM     67  C   UNL A   1      34.876  33.006  30.699  1.00  0.00     0.134 A 
ATOM     68  C   UNL A   1      36.551  33.976  29.288  1.00  0.00     0.134 A 
ATOM     69  F   UNL A   1      34.501  32.220  31.719  1.00  0.00    -0.206 F 
ATOM     70  C   UNL A   1      33.880  33.660  29.970  1.00  0.00     0.040 A 
ATOM     71  C   UNL A   1      35.565  34.648  28.564  1.00  0.00     0.040 A 
ATOM     72  F   UNL A   1      37.831  34.157  28.928  1.00  0.00    -0.206 F 
ATOM     73  C   UNL A   1      34.225  34.492  28.906  1.00  0.00     0.006 A 
ENDBRANCH  52  66
BRANCH  53  74
ATOM     74  C   UNL A   1      43.623  28.829  35.487  1.00  0.00     0.057 A 
ATOM     75  C   UNL A   1      44.938  29.194  35.179  1.00  0.00     0.134 A 
ATOM     76  C   UNL A   1      43.437  27.883  36.503  1.00  0.00     0.134 A 
ATOM     77  F   UNL A   1      45.180  30.073  34.195  1.00  0.00    -0.206 F 
ATOM     78  C   UNL A   1      46.026  28.635  35.850  1.00  0.00     0.040 A 
ATOM     79  C   UNL A   1      44.514  27.336  37.201  1.00  0.00     0.040 A 
ATOM     80  F   UNL A   1      42.201  27.489  36.842  1.00  0.00    -0.206 F 
ATOM     81  C   UNL A   1      45.815  27.709  36.870  1.00  0.00     0.006 A 
ENDBRANCH  53  74
BRANCH  65  82
ATOM     82  C   UNL A   1      39.555  34.349  36.646  1.00  0.00     0.057 A 
ATOM     83  C   UNL A   1      38.883  34.065  37.841  1.00  0.00     0.134 A 
ATOM     84  C   UNL A   1      40.192  35.591  36.538  1.00  0.00     0.134 A 
ATOM     85  F   UNL A   1      38.241  32.898  37.999  1.00  0.00    -0.206 F 
ATOM     86  C   UNL A   1      38.827  34.994  38.881  1.00  0.00     0.040 A 
ATOM     87  C   UNL A   1      40.162  36.518  37.580  1.00  0.00     0.040 A 
ATOM     88  F   UNL A   1      40.859  35.920  35.421  1.00  0.00    -0.206 F 
ATOM     89  C   UNL A   1      39.473  36.223  38.754  1.00  0.00     0.006 A 
ENDBRANCH  65  82
ENDBRANCH  39  40
ENDBRANCH  32  34
ENDBRANCH  31  32
ENDBRANCH  30  31
ENDBRANCH  29  30
ENDBRANCH  28  29
ENDBRANCH  27  28
ENDBRANCH   1  27
TORSDOF 23
ENDMDL
MODEL 2
REMARK VINA RESULT:      -9.5      3.064      9.385
REMARK SMILES O=C(COc1ccc2c(c1)CCC2)N[C@@H](CO)C(=O)OCCOCCOCCOC(=O)c1ccc(-c2c3nc(c(-c4c(F)cccc4F)c4ccc([nH]4)c(-c4c(F)cccc4F)c4nc(c(-c5c(F)cccc5F)c5ccc2[nH]5)C=C4)C=C3)cc1
REMARK SMILES IDX 24 1 23 2 22 3 21 4 20 5 18 6 19 7 15 8 14 9 1 10 2 11 3 13
REMARK SMILES IDX 4 14 5 15 6 16 10 17 7 18 9 19 8 20 11 21 13 22 12 23 16 24
REMARK SMILES IDX 17 25 25 27 26 28 27 29 28 30 29 31 30 32 31 33 32 34 33 35
REMARK SMILES IDX 85 36 34 37 84 38 35 39 36 40 37 41 78 42 38 43 83 44 77 45
REMARK SMILES IDX 79 46 39 47 82 48 76 49 75 50 40 52 66 53 49 54 65 55 50 56
REMARK SMILES IDX 53 57 64 58 80 59 51 60 52 61 63 63 81 64 54 65 41 66 42 67
REMARK SMILES IDX 47 68 43 69 44 70 46 71 48 72 45 73 67 74 68 75 73 76 69 77
REMARK SMILES IDX 70 78 72 79 74 80 71 81 55 82 56 83 61 84 57 85 58 86 60 87
REMARK SMILES IDX 62 88 59 89
REMARK H PARENT 14 12 17 26 79 51 53 62
REMARK Flexibility Score: inf
ROOT
ATOM      1  C   UNL A   1      34.185  32.658  27.662  1.00  0.00     0.188 C 
ENDROOT
BRANCH   1   2
ATOM      2  O   UNL A   1      34.241  31.268  27.373  1.00  0.00    -0.376 OA
BRANCH   2   3
ATOM      3  C   UNL A   1      33.019  30.547  27.257  1.00  0.00     0.202 C 
BRANCH   3   4
ATOM      4  C   UNL A   1      33.118  29.040  26.994  1.00  0.00     0.261 C 
BRANCH   4   5
ATOM      5  O   UNL A   1      32.099  28.538  26.099  1.00  0.00    -0.462 OA
BRANCH   5   6
ATOM      6  C   UNL A   1      31.602  27.309  26.413  1.00  0.00     0.331 C 
ATOM      7  O   UNL A   1      30.775  27.110  27.299  1.00  0.00    -0.250 OA
BRANCH   6   8
ATOM      8  C   UNL A   1      32.108  26.173  25.500  1.00  0.00     0.218 C 
BRANCH   8   9
ATOM      9  N   UNL A   1      32.696  24.935  26.063  1.00  0.00    -0.338 N 
ATOM     10  O   UNL A   1      34.484  24.978  24.638  1.00  0.00    -0.271 OA
ATOM     11  C   UNL A   1      33.868  24.411  25.540  1.00  0.00     0.258 C 
ATOM     12  H   UNL A   1      32.251  24.481  26.815  1.00  0.00     0.164 HD
BRANCH  11  13
ATOM     13  C   UNL A   1      34.340  23.055  26.094  1.00  0.00     0.329 C 
BRANCH  13  14
ATOM     14  O   UNL A   1      34.959  22.164  25.182  1.00  0.00    -0.484 OA
BRANCH  14  15
ATOM     15  C   UNL A   1      34.253  21.057  24.782  1.00  0.00     0.120 A 
ATOM     16  C   UNL A   1      33.001  21.079  24.153  1.00  0.00     0.047 A 
ATOM     17  C   UNL A   1      34.912  19.833  24.963  1.00  0.00     0.050 A 
ATOM     18  C   UNL A   1      32.438  19.901  23.636  1.00  0.00     0.008 A 
ATOM     19  C   UNL A   1      34.353  18.675  24.436  1.00  0.00    -0.041 A 
ATOM     20  C   UNL A   1      33.152  18.720  23.730  1.00  0.00    -0.045 A 
ATOM     21  C   UNL A   1      34.850  17.267  24.538  1.00  0.00     0.036 C 
ATOM     22  C   UNL A   1      32.815  17.381  23.149  1.00  0.00     0.036 C 
ATOM     23  C   UNL A   1      34.128  16.608  23.356  1.00  0.00     0.010 C 
ENDBRANCH  14  15
ENDBRANCH  13  14
ENDBRANCH  11  13
ENDBRANCH   8   9
BRANCH   8  24
ATOM     24  C   UNL A   1      30.962  25.809  24.548  1.00  0.00     0.193 C 
BRANCH  24  25
ATOM     25  O   UNL A   1      29.830  25.334  25.281  1.00  0.00    -0.394 OA
ATOM     26  H   UNL A   1      29.322  24.719  24.729  1.00  0.00     0.210 HD
ENDBRANCH  24  25
ENDBRANCH   8  24
ENDBRANCH   6   8
ENDBRANCH   5   6
ENDBRANCH   4   5
ENDBRANCH   3   4
ENDBRANCH   2   3
ENDBRANCH   1   2
BRANCH   1  27
ATOM     27  C   UNL A   1      35.349  33.312  28.436  1.00  0.00     0.188 C 
BRANCH  27  28
ATOM     28  O   UNL A   1      34.982  34.236  29.448  1.00  0.00    -0.376 OA
BRANCH  28  29
ATOM     29  C   UNL A   1      34.225  35.350  28.987  1.00  0.00     0.202 C 
BRANCH  29  30
ATOM     30  C   UNL A   1      32.857  35.486  29.658  1.00  0.00     0.261 C 
BRANCH  30  31
ATOM     31  O   UNL A   1      32.953  36.385  30.781  1.00  0.00    -0.460 OA
BRANCH  31  32
ATOM     32  C   UNL A   1      32.606  35.940  31.998  1.00  0.00     0.338 C 
ATOM     33  O   UNL A   1      31.541  36.140  32.569  1.00  0.00    -0.246 OA
BRANCH  32  34
ATOM     34  C   UNL A   1      33.740  35.198  32.605  1.00  0.00     0.060 A 
ATOM     35  C   UNL A   1      35.042  35.714  32.663  1.00  0.00     0.016 A 
ATOM     36  C   UNL A   1      33.505  33.904  33.069  1.00  0.00     0.016 A 
ATOM     37  C   UNL A   1      36.108  34.937  33.125  1.00  0.00     0.010 A 
ATOM     38  C   UNL A   1      34.563  33.131  33.552  1.00  0.00     0.010 A 
ATOM     39  C   UNL A   1      35.877  33.629  33.552  1.00  0.00    -0.014 A 
BRANCH  39  40
ATOM     40  C   UNL A   1      36.990  32.738  33.948  1.00  0.00     0.031 A 
ATOM     41  C   UNL A   1      37.723  32.996  35.233  1.00  0.00     0.074 A 
ATOM     42  C   UNL A   1      37.381  31.739  33.137  1.00  0.00     0.049 A 
ATOM     43  N   UNL A   1      38.877  32.534  35.636  1.00  0.00    -0.248 NA
ATOM     44  C   UNL A   1      37.063  33.895  36.193  1.00  0.00     0.031 C 
ATOM     45  C   UNL A   1      36.702  31.326  31.910  1.00  0.00     0.029 A 
ATOM     46  N   UNL A   1      38.478  30.915  33.210  1.00  0.00    -0.354 N 
ATOM     47  C   UNL A   1      39.102  33.114  36.878  1.00  0.00     0.074 A 
ATOM     48  C   UNL A   1      37.958  33.950  37.172  1.00  0.00     0.031 C 
ATOM     49  C   UNL A   1      37.419  30.356  31.321  1.00  0.00     0.029 A 
ATOM     50  C   UNL A   1      38.639  30.134  32.091  1.00  0.00     0.049 A 
ATOM     51  H   UNL A   1      39.086  30.887  33.983  1.00  0.00     0.167 HD
ATOM     52  C   UNL A   1      40.177  32.967  37.687  1.00  0.00     0.037 A 
ATOM     53  C   UNL A   1      39.686  29.385  31.696  1.00  0.00     0.037 A 
ATOM     54  C   UNL A   1      41.303  32.120  37.391  1.00  0.00     0.049 A 
ATOM     55  C   UNL A   1      40.916  29.325  32.558  1.00  0.00     0.074 A 
ATOM     56  C   UNL A   1      42.431  31.885  38.157  1.00  0.00     0.029 A 
ATOM     57  N   UNL A   1      41.443  31.373  36.232  1.00  0.00    -0.354 N 
ATOM     58  N   UNL A   1      41.144  29.900  33.714  1.00  0.00    -0.248 NA
ATOM     59  C   UNL A   1      42.040  28.528  32.050  1.00  0.00     0.031 C 
ATOM     60  C   UNL A   1      43.276  31.031  37.440  1.00  0.00     0.029 A 
ATOM     61  C   UNL A   1      42.653  30.701  36.248  1.00  0.00     0.049 A 
ATOM     62  H   UNL A   1      40.780  31.329  35.506  1.00  0.00     0.167 HD
ATOM     63  C   UNL A   1      42.426  29.516  34.083  1.00  0.00     0.074 A 
ATOM     64  C   UNL A   1      42.924  28.653  33.031  1.00  0.00     0.031 C 
ATOM     65  C   UNL A   1      43.130  29.845  35.193  1.00  0.00     0.037 A 
BRANCH  52  66
ATOM     66  C   UNL A   1      40.220  33.770  38.953  1.00  0.00     0.057 A 
ATOM     67  C   UNL A   1      39.624  33.325  40.137  1.00  0.00     0.134 A 
ATOM     68  C   UNL A   1      40.939  34.972  38.999  1.00  0.00     0.134 A 
ATOM     69  F   UNL A   1      38.911  32.189  40.155  1.00  0.00    -0.206 F 
ATOM     70  C   UNL A   1      39.744  34.047  41.327  1.00  0.00     0.040 A 
ATOM     71  C   UNL A   1      41.080  35.693  40.185  1.00  0.00     0.040 A 
ATOM     72  F   UNL A   1      41.534  35.452  37.896  1.00  0.00    -0.206 F 
ATOM     73  C   UNL A   1      40.482  35.229  41.355  1.00  0.00     0.006 A 
ENDBRANCH  52  66
BRANCH  53  74
ATOM     74  C   UNL A   1      39.643  28.692  30.386  1.00  0.00     0.057 A 
ATOM     75  C   UNL A   1      40.091  29.319  29.219  1.00  0.00     0.134 A 
ATOM     76  C   UNL A   1      39.144  27.388  30.269  1.00  0.00     0.134 A 
ATOM     77  F   UNL A   1      40.551  30.577  29.264  1.00  0.00    -0.206 F 
ATOM     78  C   UNL A   1      40.040  28.676  27.981  1.00  0.00     0.040 A 
ATOM     79  C   UNL A   1      39.112  26.725  29.043  1.00  0.00     0.040 A 
ATOM     80  F   UNL A   1      38.695  26.735  31.351  1.00  0.00    -0.206 F 
ATOM     81  C   UNL A   1      39.556  27.372  27.892  1.00  0.00     0.006 A 
ENDBRANCH  53  74
BRANCH  65  82
ATOM     82  C   UNL A   1      44.492  29.238  35.341  1.00  0.00     0.057 A 
ATOM     83  C   UNL A   1      45.630  29.840  34.793  1.00  0.00     0.134 A 
ATOM     84  C   UNL A   1      44.665  28.048  36.057  1.00  0.00     0.134 A 
ATOM     85  F   UNL A   1      45.526  30.973  34.084  1.00  0.00    -0.206 F 
ATOM     86  C   UNL A   1      46.894  29.263  34.932  1.00  0.00     0.040 A 
ATOM     87  C   UNL A   1      45.927  27.474  36.222  1.00  0.00     0.040 A 
ATOM     88  F   UNL A   1      43.614  27.427  36.613  1.00  0.00    -0.206 F 
ATOM     89  C   UNL A   1      47.045  28.080  35.653  1.00  0.00     0.006 A 
ENDBRANCH  65  82
ENDBRANCH  39  40
ENDBRANCH  32  34
ENDBRANCH  31  32
ENDBRANCH  30  31
ENDBRANCH  29  30
ENDBRANCH  28  29
ENDBRANCH  27  28
ENDBRANCH   1  27
TORSDOF 23
ENDMDL
MODEL 3
REMARK VINA RESULT:      -9.3      3.446      9.128
REMARK SMILES O=C(COc1ccc2c(c1)CCC2)N[C@@H](CO)C(=O)OCCOCCOCCOC(=O)c1ccc(-c2c3nc(c(-c4c(F)cccc4F)c4ccc([nH]4)c(-c4c(F)cccc4F)c4nc(c(-c5c(F)cccc5F)c5ccc2[nH]5)C=C4)C=C3)cc1
REMARK SMILES IDX 24 1 23 2 22 3 21 4 20 5 18 6 19 7 15 8 14 9 1 10 2 11 3 13
REMARK SMILES IDX 4 14 5 15 6 16 10 17 7 18 9 19 8 20 11 21 13 22 12 23 16 24
REMARK SMILES IDX 17 25 25 27 26 28 27 29 28 30 29 31 30 32 31 33 32 34 33 35
REMARK SMILES IDX 85 36 34 37 84 38 35 39 36 40 37 41 78 42 38 43 83 44 77 45
REMARK SMILES IDX 79 46 39 47 82 48 76 49 75 50 40 52 66 53 49 54 65 55 50 56
REMARK SMILES IDX 53 57 64 58 80 59 51 60 52 61 63 63 81 64 54 65 41 66 42 67
REMARK SMILES IDX 47 68 43 69 44 70 46 71 48 72 45 73 67 74 68 75 73 76 69 77
REMARK SMILES IDX 70 78 72 79 74 80 71 81 55 82 56 83 61 84 57 85 58 86 60 87
REMARK SMILES IDX 62 88 59 89
REMARK H PARENT 14 12 17 26 79 51 53 62
REMARK Flexibility Score: inf
ROOT
ATOM      1  C   UNL A   1      34.647  32.422  27.719  1.00  0.00     0.188 C 
ENDROOT
BRANCH   1   2
ATOM      2  O   UNL A   1      34.494  31.048  27.386  1.00  0.00    -0.376 OA
BRANCH   2   3
ATOM      3  C   UNL A   1      33.194  30.568  27.062  1.00  0.00     0.202 C 
BRANCH   3   4
ATOM      4  C   UNL A   1      33.097  29.152  26.481  1.00  0.00     0.261 C 
BRANCH   4   5
ATOM      5  O   UNL A   1      31.854  28.893  25.787  1.00  0.00    -0.462 OA
BRANCH   5   6
ATOM      6  C   UNL A   1      31.322  27.656  25.990  1.00  0.00     0.331 C 
ATOM      7  O   UNL A   1      31.237  27.118  27.091  1.00  0.00    -0.250 OA
BRANCH   6   8
ATOM      8  C   UNL A   1      30.748  27.000  24.716  1.00  0.00     0.218 C 
BRANCH   8   9
ATOM      9  N   UNL A   1      31.630  26.347  23.721  1.00  0.00    -0.338 N 
ATOM     10  O   UNL A   1      30.717  27.489  21.964  1.00  0.00    -0.271 OA
ATOM     11  C   UNL A   1      31.511  26.643  22.372  1.00  0.00     0.258 C 
ATOM     12  H   UNL A   1      32.306  25.696  24.020  1.00  0.00     0.164 HD
BRANCH  11  13
ATOM     13  C   UNL A   1      32.373  25.825  21.394  1.00  0.00     0.329 C 
BRANCH  13  14
ATOM     14  O   UNL A   1      33.696  25.516  21.801  1.00  0.00    -0.484 OA
BRANCH  14  15
ATOM     15  C   UNL A   1      33.891  24.388  22.557  1.00  0.00     0.120 A 
ATOM     16  C   UNL A   1      34.793  24.274  23.625  1.00  0.00     0.047 A 
ATOM     17  C   UNL A   1      33.040  23.314  22.256  1.00  0.00     0.050 A 
ATOM     18  C   UNL A   1      34.798  23.131  24.439  1.00  0.00     0.008 A 
ATOM     19  C   UNL A   1      33.044  22.193  23.077  1.00  0.00    -0.041 A 
ATOM     20  C   UNL A   1      33.878  22.127  24.191  1.00  0.00    -0.045 A 
ATOM     21  C   UNL A   1      32.262  20.926  22.930  1.00  0.00     0.036 C 
ATOM     22  C   UNL A   1      33.616  20.888  24.992  1.00  0.00     0.036 C 
ATOM     23  C   UNL A   1      32.309  20.377  24.362  1.00  0.00     0.010 C 
ENDBRANCH  14  15
ENDBRANCH  13  14
ENDBRANCH  11  13
ENDBRANCH   8   9
BRANCH   8  24
ATOM     24  C   UNL A   1      29.659  26.017  25.161  1.00  0.00     0.193 C 
BRANCH  24  25
ATOM     25  O   UNL A   1      30.200  24.703  25.317  1.00  0.00    -0.394 OA
ATOM     26  H   UNL A   1      29.554  24.048  25.009  1.00  0.00     0.210 HD
ENDBRANCH  24  25
ENDBRANCH   8  24
ENDBRANCH   6   8
ENDBRANCH   5   6
ENDBRANCH   4   5
ENDBRANCH   3   4
ENDBRANCH   2   3
ENDBRANCH   1   2
BRANCH   1  27
ATOM     27  C   UNL A   1      35.346  32.802  29.041  1.00  0.00     0.188 C 
BRANCH  27  28
ATOM     28  O   UNL A   1      34.887  33.988  29.668  1.00  0.00    -0.376 OA
BRANCH  28  29
ATOM     29  C   UNL A   1      34.056  34.807  28.852  1.00  0.00     0.202 C 
BRANCH  29  30
ATOM     30  C   UNL A   1      32.793  35.301  29.560  1.00  0.00     0.261 C 
BRANCH  30  31
ATOM     31  O   UNL A   1      33.152  36.223  30.608  1.00  0.00    -0.460 OA
BRANCH  31  32
ATOM     32  C   UNL A   1      32.840  35.915  31.876  1.00  0.00     0.338 C 
ATOM     33  O   UNL A   1      31.815  36.226  32.469  1.00  0.00    -0.246 OA
BRANCH  32  34
ATOM     34  C   UNL A   1      33.963  35.172  32.505  1.00  0.00     0.060 A 
ATOM     35  C   UNL A   1      35.268  35.679  32.567  1.00  0.00     0.016 A 
ATOM     36  C   UNL A   1      33.713  33.888  32.984  1.00  0.00     0.016 A 
ATOM     37  C   UNL A   1      36.324  34.900  33.050  1.00  0.00     0.010 A 
ATOM     38  C   UNL A   1      34.761  33.113  33.488  1.00  0.00     0.010 A 
ATOM     39  C   UNL A   1      36.079  33.601  33.494  1.00  0.00    -0.014 A 
BRANCH  39  40
ATOM     40  C   UNL A   1      37.181  32.706  33.912  1.00  0.00     0.031 A 
ATOM     41  C   UNL A   1      37.902  32.975  35.202  1.00  0.00     0.074 A 
ATOM     42  C   UNL A   1      37.573  31.695  33.118  1.00  0.00     0.049 A 
ATOM     43  N   UNL A   1      39.048  32.510  35.623  1.00  0.00    -0.248 NA
ATOM     44  C   UNL A   1      37.238  33.890  36.144  1.00  0.00     0.031 C 
ATOM     45  C   UNL A   1      36.905  31.272  31.889  1.00  0.00     0.029 A 
ATOM     46  N   UNL A   1      38.663  30.864  33.213  1.00  0.00    -0.354 N 
ATOM     47  C   UNL A   1      39.264  33.104  36.860  1.00  0.00     0.074 A 
ATOM     48  C   UNL A   1      38.123  33.951  37.131  1.00  0.00     0.031 C 
ATOM     49  C   UNL A   1      37.622  30.289  31.319  1.00  0.00     0.029 A 
ATOM     50  C   UNL A   1      38.831  30.069  32.106  1.00  0.00     0.049 A 
ATOM     51  H   UNL A   1      39.262  30.842  33.993  1.00  0.00     0.167 HD
ATOM     52  C   UNL A   1      40.329  32.959  37.683  1.00  0.00     0.037 A 
ATOM     53  C   UNL A   1      39.876  29.308  31.731  1.00  0.00     0.037 A 
ATOM     54  C   UNL A   1      41.451  32.101  37.410  1.00  0.00     0.049 A 
ATOM     55  C   UNL A   1      41.096  29.249  32.607  1.00  0.00     0.074 A 
ATOM     56  C   UNL A   1      42.570  31.867  38.191  1.00  0.00     0.029 A 
ATOM     57  N   UNL A   1      41.598  31.339  36.261  1.00  0.00    -0.354 N 
ATOM     58  N   UNL A   1      41.316  29.836  33.758  1.00  0.00    -0.248 NA
ATOM     59  C   UNL A   1      42.221  28.438  32.121  1.00  0.00     0.031 C 
ATOM     60  C   UNL A   1      43.416  30.998  37.494  1.00  0.00     0.029 A 
ATOM     61  C   UNL A   1      42.804  30.658  36.299  1.00  0.00     0.049 A 
ATOM     62  H   UNL A   1      40.944  31.290  35.529  1.00  0.00     0.167 HD
ATOM     63  C   UNL A   1      42.592  29.448  34.146  1.00  0.00     0.074 A 
ATOM     64  C   UNL A   1      43.095  28.569  33.110  1.00  0.00     0.031 C 
ATOM     65  C   UNL A   1      43.286  29.786  35.260  1.00  0.00     0.037 A 
BRANCH  52  66
ATOM     66  C   UNL A   1      40.363  33.778  38.939  1.00  0.00     0.057 A 
ATOM     67  C   UNL A   1      40.968  35.038  38.990  1.00  0.00     0.134 A 
ATOM     68  C   UNL A   1      39.709  33.324  40.092  1.00  0.00     0.134 A 
ATOM     69  F   UNL A   1      41.621  35.523  37.924  1.00  0.00    -0.206 F 
ATOM     70  C   UNL A   1      40.919  35.821  40.145  1.00  0.00     0.040 A 
ATOM     71  C   UNL A   1      39.639  34.105  41.246  1.00  0.00     0.040 A 
ATOM     72  F   UNL A   1      39.110  32.123  40.106  1.00  0.00    -0.206 F 
ATOM     73  C   UNL A   1      40.244  35.359  41.274  1.00  0.00     0.006 A 
ENDBRANCH  52  66
BRANCH  53  74
ATOM     74  C   UNL A   1      39.843  28.599  30.429  1.00  0.00     0.057 A 
ATOM     75  C   UNL A   1      40.427  29.154  29.286  1.00  0.00     0.134 A 
ATOM     76  C   UNL A   1      39.217  27.352  30.296  1.00  0.00     0.134 A 
ATOM     77  F   UNL A   1      41.013  30.358  29.346  1.00  0.00    -0.206 F 
ATOM     78  C   UNL A   1      40.386  28.497  28.055  1.00  0.00     0.040 A 
ATOM     79  C   UNL A   1      39.193  26.673  29.078  1.00  0.00     0.040 A 
ATOM     80  F   UNL A   1      38.635  26.770  31.354  1.00  0.00    -0.206 F 
ATOM     81  C   UNL A   1      39.774  27.250  27.950  1.00  0.00     0.006 A 
ENDBRANCH  53  74
BRANCH  65  82
ATOM     82  C   UNL A   1      44.641  29.171  35.430  1.00  0.00     0.057 A 
ATOM     83  C   UNL A   1      45.801  29.801  34.962  1.00  0.00     0.134 A 
ATOM     84  C   UNL A   1      44.788  27.943  36.086  1.00  0.00     0.134 A 
ATOM     85  F   UNL A   1      45.724  30.972  34.313  1.00  0.00    -0.206 F 
ATOM     86  C   UNL A   1      47.058  29.218  35.122  1.00  0.00     0.040 A 
ATOM     87  C   UNL A   1      46.043  27.361  36.271  1.00  0.00     0.040 A 
ATOM     88  F   UNL A   1      43.716  27.293  36.564  1.00  0.00    -0.206 F 
ATOM     89  C   UNL A   1      47.182  27.997  35.783  1.00  0.00     0.006 A 
ENDBRANCH  65  82
ENDBRANCH  39  40
ENDBRANCH  32  34
ENDBRANCH  31  32
ENDBRANCH  30  31
ENDBRANCH  29  30
ENDBRANCH  28  29
ENDBRANCH  27  28
ENDBRANCH   1  27
TORSDOF 23
ENDMDL
