MODEL 1
REMARK VINA RESULT:     -11.1      0.000      0.000
REMARK SMILES COc1ccc(CCC(=O)Nc2ccc(N3CCCC3)cc2C(=O)OCCOCCOCCOC(=O)c2ccc(-c3c4nc(c(-c5c(F)cccc5F)c5ccc([nH]5)c(-c5c(F)cccc5F)c5nc(c(-c6c(F)cccc6F)c6ccc3[nH]6)C=C5)C=C4)cc2)cc1
REMARK SMILES IDX 28 1 27 2 26 3 25 4 23 5 24 6 22 7 12 8 13 9 14 10 21 11
REMARK SMILES IDX 15 12 11 13 9 14 10 15 8 17 7 18 6 19 3 20 4 21 92 22 5 23
REMARK SMILES IDX 91 24 2 25 1 26 16 27 17 28 20 29 18 30 19 31 29 32 30 33
REMARK SMILES IDX 31 34 32 35 33 36 34 37 35 38 36 39 37 40 38 41 90 42 39 43
REMARK SMILES IDX 89 44 40 45 41 46 42 47 83 48 43 49 88 50 82 51 84 52 44 53
REMARK SMILES IDX 87 54 81 55 80 56 45 58 71 59 54 60 70 61 55 62 58 63 69 64
REMARK SMILES IDX 85 65 56 66 57 67 68 69 86 70 59 71 46 72 47 73 52 74 48 75
REMARK SMILES IDX 49 76 51 77 53 78 50 79 72 80 73 81 78 82 74 83 75 84 77 85
REMARK SMILES IDX 79 86 76 87 60 88 61 89 66 90 62 91 63 92 65 93 67 94 64 95
REMARK H PARENT 11 16 84 57 58 68
REMARK Flexibility Score: inf
ROOT
ATOM      1  O   UNL A   1      34.757  32.094  27.921  1.00  0.00    -0.376 OA
ENDROOT
BRANCH   1   2
ATOM      2  C   UNL A   1      33.740  31.163  27.577  1.00  0.00     0.202 C 
BRANCH   2   3
ATOM      3  C   UNL A   1      34.168  29.847  26.831  1.00  0.00     0.261 C 
BRANCH   3   4
ATOM      4  O   UNL A   1      33.386  29.256  25.707  1.00  0.00    -0.460 OA
BRANCH   4   5
ATOM      5  C   UNL A   1      32.502  28.281  26.066  1.00  0.00     0.340 C 
ATOM      6  O   UNL A   1      31.382  28.676  26.343  1.00  0.00    -0.246 OA
BRANCH   5   7
ATOM      7  C   UNL A   1      33.032  26.709  26.110  1.00  0.00     0.085 A 
ATOM      8  C   UNL A   1      31.968  25.893  26.131  1.00  0.00     0.055 A 
ATOM      9  C   UNL A   1      32.115  24.557  26.550  1.00  0.00     0.029 A 
ATOM     10  C   UNL A   1      33.367  23.915  26.405  1.00  0.00     0.028 A 
ATOM     11  C   UNL A   1      34.131  25.942  25.564  1.00  0.00     0.043 A 
ATOM     12  C   UNL A   1      34.372  24.557  25.714  1.00  0.00     0.038 A 
BRANCH   8  13
ATOM     13  N   UNL A   1      31.008  26.272  25.176  1.00  0.00    -0.325 N 
ATOM     14  C   UNL A   1      30.640  25.511  24.044  1.00  0.00     0.224 C 
ATOM     15  O   UNL A   1      30.037  26.151  23.167  1.00  0.00    -0.275 OA
ATOM     16  H   UNL A   1      30.555  27.137  25.307  1.00  0.00     0.169 HD
BRANCH  14  17
ATOM     17  C   UNL A   1      30.833  23.795  23.855  1.00  0.00     0.105 C 
BRANCH  17  18
ATOM     18  C   UNL A   1      31.849  22.551  23.043  1.00  0.00     0.045 C 
BRANCH  18  19
ATOM     19  C   UNL A   1      32.485  21.080  23.411  1.00  0.00    -0.047 A 
ATOM     20  C   UNL A   1      32.569  18.394  24.523  1.00  0.00     0.118 A 
ATOM     21  C   UNL A   1      33.005  19.467  25.243  1.00  0.00     0.046 A 
ATOM     22  C   UNL A   1      32.337  18.610  23.161  1.00  0.00     0.046 A 
ATOM     23  C   UNL A   1      33.069  20.733  24.639  1.00  0.00     0.007 A 
ATOM     24  C   UNL A   1      32.281  19.945  22.612  1.00  0.00     0.007 A 
BRANCH  20  25
ATOM     25  O   UNL A   1      32.024  17.409  25.303  1.00  0.00    -0.497 OA
ATOM     26  C   UNL A   1      32.628  16.146  25.495  1.00  0.00     0.278 C 
ENDBRANCH  20  25
ENDBRANCH  18  19
ENDBRANCH  17  18
ENDBRANCH  14  17
ENDBRANCH   8  13
BRANCH  12  27
ATOM     27  N   UNL A   1      35.485  23.898  25.210  1.00  0.00    -0.372 N 
ATOM     28  C   UNL A   1      35.697  23.735  23.775  1.00  0.00     0.116 C 
ATOM     29  C   UNL A   1      36.276  22.877  25.915  1.00  0.00     0.116 C 
ATOM     30  C   UNL A   1      36.239  22.322  23.580  1.00  0.00     0.023 C 
ATOM     31  C   UNL A   1      37.095  22.159  24.813  1.00  0.00     0.023 C 
ENDBRANCH  12  27
ENDBRANCH   5   7
ENDBRANCH   4   5
ENDBRANCH   3   4
ENDBRANCH   2   3
ENDBRANCH   1   2
BRANCH   1  32
ATOM     32  C   UNL A   1      34.341  33.162  28.745  1.00  0.00     0.188 C 
BRANCH  32  33
ATOM     33  C   UNL A   1      34.609  32.906  30.241  1.00  0.00     0.188 C 
BRANCH  33  34
ATOM     34  O   UNL A   1      34.806  34.040  31.080  1.00  0.00    -0.376 OA
BRANCH  34  35
ATOM     35  C   UNL A   1      36.059  34.147  31.738  1.00  0.00     0.202 C 
BRANCH  35  36
ATOM     36  C   UNL A   1      37.176  33.200  31.272  1.00  0.00     0.261 C 
BRANCH  36  37
ATOM     37  O   UNL A   1      37.575  32.170  32.207  1.00  0.00    -0.460 OA
BRANCH  37  38
ATOM     38  C   UNL A   1      37.185  30.902  31.896  1.00  0.00     0.338 C 
ATOM     39  O   UNL A   1      36.098  30.408  32.092  1.00  0.00    -0.246 OA
BRANCH  38  40
ATOM     40  C   UNL A   1      38.231  30.185  31.118  1.00  0.00     0.060 A 
ATOM     41  C   UNL A   1      39.300  29.650  31.826  1.00  0.00     0.016 A 
ATOM     42  C   UNL A   1      38.291  30.203  29.722  1.00  0.00     0.016 A 
ATOM     43  C   UNL A   1      40.396  29.123  31.140  1.00  0.00     0.010 A 
ATOM     44  C   UNL A   1      39.436  29.708  29.046  1.00  0.00     0.010 A 
ATOM     45  C   UNL A   1      40.517  29.171  29.757  1.00  0.00    -0.014 A 
BRANCH  45  46
ATOM     46  C   UNL A   1      41.857  28.853  29.167  1.00  0.00     0.031 A 
ATOM     47  C   UNL A   1      42.093  27.476  28.598  1.00  0.00     0.074 A 
ATOM     48  C   UNL A   1      42.812  29.786  28.967  1.00  0.00     0.049 A 
ATOM     49  N   UNL A   1      43.194  26.941  28.132  1.00  0.00    -0.248 NA
ATOM     50  C   UNL A   1      40.920  26.592  28.533  1.00  0.00     0.031 C 
ATOM     51  C   UNL A   1      42.692  31.203  29.294  1.00  0.00     0.029 A 
ATOM     52  N   UNL A   1      44.078  29.678  28.429  1.00  0.00    -0.354 N 
ATOM     53  C   UNL A   1      42.863  25.639  27.777  1.00  0.00     0.074 A 
ATOM     54  C   UNL A   1      41.451  25.476  28.058  1.00  0.00     0.031 C 
ATOM     55  C   UNL A   1      43.835  31.830  28.963  1.00  0.00     0.029 A 
ATOM     56  C   UNL A   1      44.801  30.849  28.471  1.00  0.00     0.049 A 
ATOM     57  H   UNL A   1      44.431  28.840  28.050  1.00  0.00     0.167 HD
ATOM     58  C   UNL A   1      43.661  24.660  27.285  1.00  0.00     0.037 A 
ATOM     59  C   UNL A   1      46.102  31.096  28.203  1.00  0.00     0.037 A 
ATOM     60  C   UNL A   1      45.062  24.818  26.985  1.00  0.00     0.049 A 
ATOM     61  C   UNL A   1      47.008  29.965  27.776  1.00  0.00     0.074 A 
ATOM     62  C   UNL A   1      45.952  23.871  26.505  1.00  0.00     0.029 A 
ATOM     63  N   UNL A   1      45.778  25.994  27.136  1.00  0.00    -0.354 N 
ATOM     64  N   UNL A   1      46.709  28.714  27.521  1.00  0.00    -0.248 NA
ATOM     65  C   UNL A   1      48.439  30.277  27.619  1.00  0.00     0.031 C 
ATOM     66  C   UNL A   1      47.219  24.458  26.425  1.00  0.00     0.029 A 
ATOM     67  C   UNL A   1      47.105  25.789  26.788  1.00  0.00     0.049 A 
ATOM     68  H   UNL A   1      45.401  26.850  27.443  1.00  0.00     0.167 HD
ATOM     69  C   UNL A   1      47.905  28.099  27.159  1.00  0.00     0.074 A 
ATOM     70  C   UNL A   1      48.930  29.118  27.204  1.00  0.00     0.031 C 
ATOM     71  C   UNL A   1      48.129  26.804  26.825  1.00  0.00     0.037 A 
BRANCH  58  72
ATOM     72  C   UNL A   1      43.055  23.296  27.123  1.00  0.00     0.057 A 
ATOM     73  C   UNL A   1      42.838  22.433  28.204  1.00  0.00     0.134 A 
ATOM     74  C   UNL A   1      42.671  22.847  25.852  1.00  0.00     0.134 A 
ATOM     75  F   UNL A   1      43.199  22.794  29.446  1.00  0.00    -0.206 F 
ATOM     76  C   UNL A   1      42.290  21.161  28.022  1.00  0.00     0.040 A 
ATOM     77  C   UNL A   1      42.093  21.592  25.662  1.00  0.00     0.040 A 
ATOM     78  F   UNL A   1      42.844  23.626  24.774  1.00  0.00    -0.206 F 
ATOM     79  C   UNL A   1      41.910  20.741  26.749  1.00  0.00     0.006 A 
ENDBRANCH  58  72
BRANCH  59  80
ATOM     80  C   UNL A   1      46.673  32.456  28.420  1.00  0.00     0.057 A 
ATOM     81  C   UNL A   1      46.731  33.403  27.391  1.00  0.00     0.134 A 
ATOM     82  C   UNL A   1      47.233  32.819  29.653  1.00  0.00     0.134 A 
ATOM     83  F   UNL A   1      46.252  33.108  26.173  1.00  0.00    -0.206 F 
ATOM     84  C   UNL A   1      47.331  34.652  27.575  1.00  0.00     0.040 A 
ATOM     85  C   UNL A   1      47.805  34.074  29.861  1.00  0.00     0.040 A 
ATOM     86  F   UNL A   1      47.231  31.953  30.678  1.00  0.00    -0.206 F 
ATOM     87  C   UNL A   1      47.864  34.993  28.816  1.00  0.00     0.006 A 
ENDBRANCH  59  80
BRANCH  71  88
ATOM     88  C   UNL A   1      49.529  26.413  26.437  1.00  0.00     0.057 A 
ATOM     89  C   UNL A   1      50.406  25.788  27.332  1.00  0.00     0.134 A 
ATOM     90  C   UNL A   1      49.994  26.632  25.132  1.00  0.00     0.134 A 
ATOM     91  F   UNL A   1      50.033  25.556  28.599  1.00  0.00    -0.206 F 
ATOM     92  C   UNL A   1      51.700  25.420  26.953  1.00  0.00     0.040 A 
ATOM     93  C   UNL A   1      51.274  26.242  24.732  1.00  0.00     0.040 A 
ATOM     94  F   UNL A   1      49.205  27.216  24.217  1.00  0.00    -0.206 F 
ATOM     95  C   UNL A   1      52.135  25.642  25.648  1.00  0.00     0.006 A 
ENDBRANCH  71  88
ENDBRANCH  45  46
ENDBRANCH  38  40
ENDBRANCH  37  38
ENDBRANCH  36  37
ENDBRANCH  35  36
ENDBRANCH  34  35
ENDBRANCH  33  34
ENDBRANCH  32  33
ENDBRANCH   1  32
TORSDOF 23
ENDMDL
MODEL 2
REMARK VINA RESULT:     -10.9      5.329     12.231
REMARK SMILES COc1ccc(CCC(=O)Nc2ccc(N3CCCC3)cc2C(=O)OCCOCCOCCOC(=O)c2ccc(-c3c4nc(c(-c5c(F)cccc5F)c5ccc([nH]5)c(-c5c(F)cccc5F)c5nc(c(-c6c(F)cccc6F)c6ccc3[nH]6)C=C5)C=C4)cc2)cc1
REMARK SMILES IDX 28 1 27 2 26 3 25 4 23 5 24 6 22 7 12 8 13 9 14 10 21 11
REMARK SMILES IDX 15 12 11 13 9 14 10 15 8 17 7 18 6 19 3 20 4 21 92 22 5 23
REMARK SMILES IDX 91 24 2 25 1 26 16 27 17 28 20 29 18 30 19 31 29 32 30 33
REMARK SMILES IDX 31 34 32 35 33 36 34 37 35 38 36 39 37 40 38 41 90 42 39 43
REMARK SMILES IDX 89 44 40 45 41 46 42 47 83 48 43 49 88 50 82 51 84 52 44 53
REMARK SMILES IDX 87 54 81 55 80 56 45 58 71 59 54 60 70 61 55 62 58 63 69 64
REMARK SMILES IDX 85 65 56 66 57 67 68 69 86 70 59 71 46 72 47 73 52 74 48 75
REMARK SMILES IDX 49 76 51 77 53 78 50 79 72 80 73 81 78 82 74 83 75 84 77 85
REMARK SMILES IDX 79 86 76 87 60 88 61 89 66 90 62 91 63 92 65 93 67 94 64 95
REMARK H PARENT 11 16 84 57 58 68
REMARK Flexibility Score: inf
ROOT
ATOM      1  O   UNL A   1      44.317  18.425  24.581  1.00  0.00    -0.376 OA
ENDROOT
BRANCH   1   2
ATOM      2  C   UNL A   1      45.515  19.148  24.333  1.00  0.00     0.202 C 
BRANCH   2   3
ATOM      3  C   UNL A   1      45.768  20.462  25.158  1.00  0.00     0.261 C 
BRANCH   3   4
ATOM      4  O   UNL A   1      46.144  21.761  24.528  1.00  0.00    -0.460 OA
BRANCH   4   5
ATOM      5  C   UNL A   1      45.141  22.681  24.454  1.00  0.00     0.340 C 
ATOM      6  O   UNL A   1      44.031  22.221  24.240  1.00  0.00    -0.246 OA
BRANCH   5   7
ATOM      7  C   UNL A   1      45.524  24.286  24.632  1.00  0.00     0.085 A 
ATOM      8  C   UNL A   1      44.572  24.881  25.367  1.00  0.00     0.055 A 
ATOM      9  C   UNL A   1      44.444  26.283  25.348  1.00  0.00     0.029 A 
ATOM     10  C   UNL A   1      45.574  27.083  25.061  1.00  0.00     0.028 A 
ATOM     11  C   UNL A   1      46.723  25.082  24.788  1.00  0.00     0.043 A 
ATOM     12  C   UNL A   1      46.811  26.483  24.962  1.00  0.00     0.038 A 
BRANCH   8  13
ATOM     13  N   UNL A   1      44.243  24.118  26.501  1.00  0.00    -0.325 N 
ATOM     14  C   UNL A   1      44.959  24.122  27.720  1.00  0.00     0.224 C 
ATOM     15  O   UNL A   1      44.715  23.157  28.463  1.00  0.00    -0.275 OA
ATOM     16  H   UNL A   1      43.451  23.535  26.442  1.00  0.00     0.169 HD
BRANCH  14  17
ATOM     17  C   UNL A   1      46.000  25.387  28.295  1.00  0.00     0.105 C 
BRANCH  17  18
ATOM     18  C   UNL A   1      46.195  26.587  29.622  1.00  0.00     0.045 C 
BRANCH  18  19
ATOM     19  C   UNL A   1      45.316  27.130  30.901  1.00  0.00    -0.047 A 
ATOM     20  C   UNL A   1      43.186  28.541  32.289  1.00  0.00     0.118 A 
ATOM     21  C   UNL A   1      44.386  29.142  32.048  1.00  0.00     0.046 A 
ATOM     22  C   UNL A   1      43.126  27.160  32.080  1.00  0.00     0.046 A 
ATOM     23  C   UNL A   1      45.437  28.398  31.489  1.00  0.00     0.007 A 
ATOM     24  C   UNL A   1      44.178  26.462  31.377  1.00  0.00     0.007 A 
BRANCH  20  25
ATOM     25  O   UNL A   1      42.134  29.419  32.281  1.00  0.00    -0.497 OA
ATOM     26  C   UNL A   1      41.874  30.329  33.329  1.00  0.00     0.278 C 
ENDBRANCH  20  25
ENDBRANCH  18  19
ENDBRANCH  17  18
ENDBRANCH  14  17
ENDBRANCH   8  13
BRANCH  12  27
ATOM     27  N   UNL A   1      48.004  27.187  25.043  1.00  0.00    -0.372 N 
ATOM     28  C   UNL A   1      49.035  27.072  24.015  1.00  0.00     0.116 C 
ATOM     29  C   UNL A   1      48.632  27.681  26.278  1.00  0.00     0.116 C 
ATOM     30  C   UNL A   1      50.370  27.040  24.752  1.00  0.00     0.023 C 
ATOM     31  C   UNL A   1      50.102  27.988  25.896  1.00  0.00     0.023 C 
ENDBRANCH  12  27
ENDBRANCH   5   7
ENDBRANCH   4   5
ENDBRANCH   3   4
ENDBRANCH   2   3
ENDBRANCH   1   2
BRANCH   1  32
ATOM     32  C   UNL A   1      44.122  18.025  25.921  1.00  0.00     0.188 C 
BRANCH  32  33
ATOM     33  C   UNL A   1      42.654  18.148  26.377  1.00  0.00     0.188 C 
BRANCH  33  34
ATOM     34  O   UNL A   1      41.882  19.213  25.834  1.00  0.00    -0.376 OA
BRANCH  34  35
ATOM     35  C   UNL A   1      41.509  20.257  26.720  1.00  0.00     0.202 C 
BRANCH  35  36
ATOM     36  C   UNL A   1      40.955  21.545  26.089  1.00  0.00     0.261 C 
BRANCH  36  37
ATOM     37  O   UNL A   1      41.290  22.783  26.759  1.00  0.00    -0.460 OA
BRANCH  37  38
ATOM     38  C   UNL A   1      40.361  23.775  26.673  1.00  0.00     0.338 C 
ATOM     39  O   UNL A   1      39.172  23.643  26.488  1.00  0.00    -0.246 OA
BRANCH  38  40
ATOM     40  C   UNL A   1      40.950  25.104  26.987  1.00  0.00     0.060 A 
ATOM     41  C   UNL A   1      41.539  25.264  28.235  1.00  0.00     0.016 A 
ATOM     42  C   UNL A   1      40.762  26.233  26.183  1.00  0.00     0.016 A 
ATOM     43  C   UNL A   1      41.949  26.531  28.655  1.00  0.00     0.010 A 
ATOM     44  C   UNL A   1      41.141  27.518  26.650  1.00  0.00     0.010 A 
ATOM     45  C   UNL A   1      41.732  27.682  27.909  1.00  0.00    -0.014 A 
BRANCH  45  46
ATOM     46  C   UNL A   1      41.940  29.000  28.592  1.00  0.00     0.031 A 
ATOM     47  C   UNL A   1      43.292  29.661  28.498  1.00  0.00     0.074 A 
ATOM     48  C   UNL A   1      40.933  29.706  29.147  1.00  0.00     0.049 A 
ATOM     49  N   UNL A   1      43.736  30.744  29.086  1.00  0.00    -0.248 NA
ATOM     50  C   UNL A   1      44.267  29.020  27.603  1.00  0.00     0.031 C 
ATOM     51  C   UNL A   1      39.531  29.304  29.175  1.00  0.00     0.029 A 
ATOM     52  N   UNL A   1      40.939  30.926  29.793  1.00  0.00    -0.354 N 
ATOM     53  C   UNL A   1      45.060  30.878  28.685  1.00  0.00     0.074 A 
ATOM     54  C   UNL A   1      45.336  29.781  27.780  1.00  0.00     0.031 C 
ATOM     55  C   UNL A   1      38.814  30.247  29.812  1.00  0.00     0.029 A 
ATOM     56  C   UNL A   1      39.715  31.288  30.307  1.00  0.00     0.049 A 
ATOM     57  H   UNL A   1      41.745  31.486  29.877  1.00  0.00     0.167 HD
ATOM     58  C   UNL A   1      45.971  31.814  29.050  1.00  0.00     0.037 A 
ATOM     59  C   UNL A   1      39.364  32.301  31.130  1.00  0.00     0.037 A 
ATOM     60  C   UNL A   1      45.701  32.920  29.934  1.00  0.00     0.049 A 
ATOM     61  C   UNL A   1      40.418  33.262  31.628  1.00  0.00     0.074 A 
ATOM     62  C   UNL A   1      46.573  33.901  30.376  1.00  0.00     0.029 A 
ATOM     63  N   UNL A   1      44.472  33.192  30.512  1.00  0.00    -0.354 N 
ATOM     64  N   UNL A   1      41.688  33.337  31.311  1.00  0.00    -0.248 NA
ATOM     65  C   UNL A   1      39.992  34.268  32.616  1.00  0.00     0.031 C 
ATOM     66  C   UNL A   1      45.887  34.730  31.269  1.00  0.00     0.029 A 
ATOM     67  C   UNL A   1      44.570  34.307  31.331  1.00  0.00     0.049 A 
ATOM     68  H   UNL A   1      43.650  32.671  30.363  1.00  0.00     0.167 HD
ATOM     69  C   UNL A   1      42.205  34.402  32.045  1.00  0.00     0.074 A 
ATOM     70  C   UNL A   1      41.107  34.959  32.804  1.00  0.00     0.031 C 
ATOM     71  C   UNL A   1      43.477  34.870  32.084  1.00  0.00     0.037 A 
BRANCH  58  72
ATOM     72  C   UNL A   1      47.379  31.629  28.561  1.00  0.00     0.057 A 
ATOM     73  C   UNL A   1      47.840  32.179  27.359  1.00  0.00     0.134 A 
ATOM     74  C   UNL A   1      48.293  30.889  29.325  1.00  0.00     0.134 A 
ATOM     75  F   UNL A   1      47.012  32.882  26.572  1.00  0.00    -0.206 F 
ATOM     76  C   UNL A   1      49.150  31.974  26.920  1.00  0.00     0.040 A 
ATOM     77  C   UNL A   1      49.612  30.705  28.913  1.00  0.00     0.040 A 
ATOM     78  F   UNL A   1      47.919  30.340  30.491  1.00  0.00    -0.206 F 
ATOM     79  C   UNL A   1      50.041  31.240  27.700  1.00  0.00     0.006 A 
ENDBRANCH  58  72
BRANCH  59  80
ATOM     80  C   UNL A   1      37.963  32.421  31.626  1.00  0.00     0.057 A 
ATOM     81  C   UNL A   1      37.004  33.184  30.948  1.00  0.00     0.134 A 
ATOM     82  C   UNL A   1      37.567  31.822  32.830  1.00  0.00     0.134 A 
ATOM     83  F   UNL A   1      37.326  33.819  29.812  1.00  0.00    -0.206 F 
ATOM     84  C   UNL A   1      35.711  33.354  31.452  1.00  0.00     0.040 A 
ATOM     85  C   UNL A   1      36.271  31.957  33.328  1.00  0.00     0.040 A 
ATOM     86  F   UNL A   1      38.440  31.094  33.543  1.00  0.00    -0.206 F 
ATOM     87  C   UNL A   1      35.340  32.732  32.642  1.00  0.00     0.006 A 
ENDBRANCH  59  80
BRANCH  71  88
ATOM     88  C   UNL A   1      43.754  36.073  32.945  1.00  0.00     0.057 A 
ATOM     89  C   UNL A   1      43.767  37.374  32.428  1.00  0.00     0.134 A 
ATOM     90  C   UNL A   1      43.971  35.928  34.323  1.00  0.00     0.134 A 
ATOM     91  F   UNL A   1      43.576  37.587  31.117  1.00  0.00    -0.206 F 
ATOM     92  C   UNL A   1      44.013  38.483  33.242  1.00  0.00     0.040 A 
ATOM     93  C   UNL A   1      44.188  37.030  35.152  1.00  0.00     0.040 A 
ATOM     94  F   UNL A   1      43.962  34.712  34.890  1.00  0.00    -0.206 F 
ATOM     95  C   UNL A   1      44.218  38.313  34.610  1.00  0.00     0.006 A 
ENDBRANCH  71  88
ENDBRANCH  45  46
ENDBRANCH  38  40
ENDBRANCH  37  38
ENDBRANCH  36  37
ENDBRANCH  35  36
ENDBRANCH  34  35
ENDBRANCH  33  34
ENDBRANCH  32  33
ENDBRANCH   1  32
TORSDOF 23
ENDMDL
MODEL 3
REMARK VINA RESULT:     -10.9      1.782      3.015
REMARK SMILES COc1ccc(CCC(=O)Nc2ccc(N3CCCC3)cc2C(=O)OCCOCCOCCOC(=O)c2ccc(-c3c4nc(c(-c5c(F)cccc5F)c5ccc([nH]5)c(-c5c(F)cccc5F)c5nc(c(-c6c(F)cccc6F)c6ccc3[nH]6)C=C5)C=C4)cc2)cc1
REMARK SMILES IDX 28 1 27 2 26 3 25 4 23 5 24 6 22 7 12 8 13 9 14 10 21 11
REMARK SMILES IDX 15 12 11 13 9 14 10 15 8 17 7 18 6 19 3 20 4 21 92 22 5 23
REMARK SMILES IDX 91 24 2 25 1 26 16 27 17 28 20 29 18 30 19 31 29 32 30 33
REMARK SMILES IDX 31 34 32 35 33 36 34 37 35 38 36 39 37 40 38 41 90 42 39 43
REMARK SMILES IDX 89 44 40 45 41 46 42 47 83 48 43 49 88 50 82 51 84 52 44 53
REMARK SMILES IDX 87 54 81 55 80 56 45 58 71 59 54 60 70 61 55 62 58 63 69 64
REMARK SMILES IDX 85 65 56 66 57 67 68 69 86 70 59 71 46 72 47 73 52 74 48 75
REMARK SMILES IDX 49 76 51 77 53 78 50 79 72 80 73 81 78 82 74 83 75 84 77 85
REMARK SMILES IDX 79 86 76 87 60 88 61 89 66 90 62 91 63 92 65 93 67 94 64 95
REMARK H PARENT 11 16 84 57 58 68
REMARK Flexibility Score: inf
ROOT
ATOM      1  O   UNL A   1      34.748  32.173  28.495  1.00  0.00    -0.376 OA
ENDROOT
BRANCH   1   2
ATOM      2  C   UNL A   1      33.658  31.789  27.669  1.00  0.00     0.202 C 
BRANCH   2   3
ATOM      3  C   UNL A   1      33.511  30.267  27.302  1.00  0.00     0.261 C 
BRANCH   3   4
ATOM      4  O   UNL A   1      33.249  29.784  25.915  1.00  0.00    -0.460 OA
BRANCH   4   5
ATOM      5  C   UNL A   1      31.946  29.844  25.517  1.00  0.00     0.340 C 
ATOM      6  O   UNL A   1      31.432  30.948  25.591  1.00  0.00    -0.246 OA
BRANCH   5   7
ATOM      7  C   UNL A   1      31.208  28.446  25.013  1.00  0.00     0.085 A 
ATOM      8  C   UNL A   1      31.045  28.496  23.682  1.00  0.00     0.055 A 
ATOM      9  C   UNL A   1      30.122  27.638  23.055  1.00  0.00     0.029 A 
ATOM     10  C   UNL A   1      29.800  26.399  23.657  1.00  0.00     0.028 A 
ATOM     11  C   UNL A   1      31.226  27.044  25.374  1.00  0.00     0.043 A 
ATOM     12  C   UNL A   1      30.512  25.988  24.763  1.00  0.00     0.038 A 
BRANCH   8  13
ATOM     13  N   UNL A   1      32.215  28.932  23.036  1.00  0.00    -0.325 N 
ATOM     14  C   UNL A   1      33.268  28.094  22.604  1.00  0.00     0.224 C 
ATOM     15  O   UNL A   1      34.332  28.687  22.365  1.00  0.00    -0.275 OA
ATOM     16  H   UNL A   1      32.308  29.899  22.870  1.00  0.00     0.169 HD
BRANCH  14  17
ATOM     17  C   UNL A   1      33.153  26.395  22.264  1.00  0.00     0.105 C 
BRANCH  17  18
ATOM     18  C   UNL A   1      33.312  24.771  23.022  1.00  0.00     0.045 C 
BRANCH  18  19
ATOM     19  C   UNL A   1      34.477  23.904  23.794  1.00  0.00    -0.047 A 
ATOM     20  C   UNL A   1      37.006  23.411  25.141  1.00  0.00     0.118 A 
ATOM     21  C   UNL A   1      36.883  23.242  23.793  1.00  0.00     0.046 A 
ATOM     22  C   UNL A   1      35.818  23.568  25.861  1.00  0.00     0.046 A 
ATOM     23  C   UNL A   1      35.623  23.366  23.188  1.00  0.00     0.007 A 
ATOM     24  C   UNL A   1      34.564  23.828  25.192  1.00  0.00     0.007 A 
BRANCH  20  25
ATOM     25  O   UNL A   1      38.256  23.823  25.519  1.00  0.00    -0.497 OA
ATOM     26  C   UNL A   1      38.692  23.855  26.863  1.00  0.00     0.278 C 
ENDBRANCH  20  25
ENDBRANCH  18  19
ENDBRANCH  17  18
ENDBRANCH  14  17
ENDBRANCH   8  13
BRANCH  12  27
ATOM     27  N   UNL A   1      30.531  24.672  25.205  1.00  0.00    -0.372 N 
ATOM     28  C   UNL A   1      30.884  24.329  26.579  1.00  0.00     0.116 C 
ATOM     29  C   UNL A   1      30.731  23.482  24.363  1.00  0.00     0.116 C 
ATOM     30  C   UNL A   1      31.748  23.075  26.498  1.00  0.00     0.023 C 
ATOM     31  C   UNL A   1      31.105  22.343  25.345  1.00  0.00     0.023 C 
ENDBRANCH  12  27
ENDBRANCH   5   7
ENDBRANCH   4   5
ENDBRANCH   3   4
ENDBRANCH   2   3
ENDBRANCH   1   2
BRANCH   1  32
ATOM     32  C   UNL A   1      34.547  33.348  29.250  1.00  0.00     0.188 C 
BRANCH  32  33
ATOM     33  C   UNL A   1      34.717  33.125  30.766  1.00  0.00     0.188 C 
BRANCH  33  34
ATOM     34  O   UNL A   1      35.108  34.241  31.558  1.00  0.00    -0.376 OA
BRANCH  34  35
ATOM     35  C   UNL A   1      36.424  34.227  32.089  1.00  0.00     0.202 C 
BRANCH  35  36
ATOM     36  C   UNL A   1      37.356  33.100  31.617  1.00  0.00     0.261 C 
BRANCH  36  37
ATOM     37  O   UNL A   1      37.611  32.039  32.567  1.00  0.00    -0.460 OA
BRANCH  37  38
ATOM     38  C   UNL A   1      37.190  30.797  32.199  1.00  0.00     0.338 C 
ATOM     39  O   UNL A   1      36.091  30.321  32.374  1.00  0.00    -0.246 OA
BRANCH  38  40
ATOM     40  C   UNL A   1      38.217  30.091  31.387  1.00  0.00     0.060 A 
ATOM     41  C   UNL A   1      39.311  29.561  32.058  1.00  0.00     0.016 A 
ATOM     42  C   UNL A   1      38.233  30.114  29.989  1.00  0.00     0.016 A 
ATOM     43  C   UNL A   1      40.389  29.046  31.337  1.00  0.00     0.010 A 
ATOM     44  C   UNL A   1      39.361  29.630  29.276  1.00  0.00     0.010 A 
ATOM     45  C   UNL A   1      40.467  29.099  29.951  1.00  0.00    -0.014 A 
BRANCH  45  46
ATOM     46  C   UNL A   1      41.791  28.794  29.318  1.00  0.00     0.031 A 
ATOM     47  C   UNL A   1      42.014  27.426  28.724  1.00  0.00     0.074 A 
ATOM     48  C   UNL A   1      42.737  29.733  29.106  1.00  0.00     0.049 A 
ATOM     49  N   UNL A   1      43.102  26.902  28.218  1.00  0.00    -0.248 NA
ATOM     50  C   UNL A   1      40.842  26.540  28.678  1.00  0.00     0.031 C 
ATOM     51  C   UNL A   1      42.622  31.145  29.457  1.00  0.00     0.029 A 
ATOM     52  N   UNL A   1      43.988  29.636  28.531  1.00  0.00    -0.354 N 
ATOM     53  C   UNL A   1      42.764  25.604  27.854  1.00  0.00     0.074 A 
ATOM     54  C   UNL A   1      41.362  25.433  28.172  1.00  0.00     0.031 C 
ATOM     55  C   UNL A   1      43.754  31.780  29.102  1.00  0.00     0.029 A 
ATOM     56  C   UNL A   1      44.708  30.808  28.569  1.00  0.00     0.049 A 
ATOM     57  H   UNL A   1      44.332  28.805  28.129  1.00  0.00     0.167 HD
ATOM     58  C   UNL A   1      43.551  24.635  27.325  1.00  0.00     0.037 A 
ATOM     59  C   UNL A   1      46.001  31.063  28.268  1.00  0.00     0.037 A 
ATOM     60  C   UNL A   1      44.943  24.801  26.987  1.00  0.00     0.049 A 
ATOM     61  C   UNL A   1      46.897  29.941  27.798  1.00  0.00     0.074 A 
ATOM     62  C   UNL A   1      45.820  23.864  26.469  1.00  0.00     0.029 A 
ATOM     63  N   UNL A   1      45.659  25.977  27.135  1.00  0.00    -0.354 N 
ATOM     64  N   UNL A   1      46.595  28.693  27.534  1.00  0.00    -0.248 NA
ATOM     65  C   UNL A   1      48.322  30.260  27.606  1.00  0.00     0.031 C 
ATOM     66  C   UNL A   1      47.083  24.455  26.361  1.00  0.00     0.029 A 
ATOM     67  C   UNL A   1      46.977  25.780  26.747  1.00  0.00     0.049 A 
ATOM     68  H   UNL A   1      45.289  26.827  27.466  1.00  0.00     0.167 HD
ATOM     69  C   UNL A   1      47.781  28.087  27.130  1.00  0.00     0.074 A 
ATOM     70  C   UNL A   1      48.804  29.109  27.160  1.00  0.00     0.031 C 
ATOM     71  C   UNL A   1      47.998  26.798  26.770  1.00  0.00     0.037 A 
BRANCH  58  72
ATOM     72  C   UNL A   1      42.944  23.271  27.161  1.00  0.00     0.057 A 
ATOM     73  C   UNL A   1      42.739  22.401  28.238  1.00  0.00     0.134 A 
ATOM     74  C   UNL A   1      42.546  22.830  25.890  1.00  0.00     0.134 A 
ATOM     75  F   UNL A   1      43.112  22.754  29.478  1.00  0.00    -0.206 F 
ATOM     76  C   UNL A   1      42.189  21.130  28.053  1.00  0.00     0.040 A 
ATOM     77  C   UNL A   1      41.967  21.576  25.698  1.00  0.00     0.040 A 
ATOM     78  F   UNL A   1      42.708  23.617  24.816  1.00  0.00    -0.206 F 
ATOM     79  C   UNL A   1      41.797  20.718  26.781  1.00  0.00     0.006 A 
ENDBRANCH  58  72
BRANCH  59  80
ATOM     80  C   UNL A   1      46.574  32.422  28.489  1.00  0.00     0.057 A 
ATOM     81  C   UNL A   1      47.133  32.795  29.717  1.00  0.00     0.134 A 
ATOM     82  C   UNL A   1      46.519  33.402  27.488  1.00  0.00     0.134 A 
ATOM     83  F   UNL A   1      47.181  31.920  30.732  1.00  0.00    -0.206 F 
ATOM     84  C   UNL A   1      47.605  34.091  29.945  1.00  0.00     0.040 A 
ATOM     85  C   UNL A   1      47.016  34.690  27.691  1.00  0.00     0.040 A 
ATOM     86  F   UNL A   1      45.978  33.120  26.293  1.00  0.00    -0.206 F 
ATOM     87  C   UNL A   1      47.553  35.041  28.927  1.00  0.00     0.006 A 
ENDBRANCH  59  80
BRANCH  71  88
ATOM     88  C   UNL A   1      49.388  26.417  26.336  1.00  0.00     0.057 A 
ATOM     89  C   UNL A   1      49.869  26.686  25.048  1.00  0.00     0.134 A 
ATOM     90  C   UNL A   1      50.273  25.807  27.237  1.00  0.00     0.134 A 
ATOM     91  F   UNL A   1      49.074  27.259  24.132  1.00  0.00    -0.206 F 
ATOM     92  C   UNL A   1      51.166  26.338  24.663  1.00  0.00     0.040 A 
ATOM     93  C   UNL A   1      51.582  25.482  26.873  1.00  0.00     0.040 A 
ATOM     94  F   UNL A   1      49.886  25.529  28.491  1.00  0.00    -0.206 F 
ATOM     95  C   UNL A   1      52.029  25.740  25.580  1.00  0.00     0.006 A 
ENDBRANCH  71  88
ENDBRANCH  45  46
ENDBRANCH  38  40
ENDBRANCH  37  38
ENDBRANCH  36  37
ENDBRANCH  35  36
ENDBRANCH  34  35
ENDBRANCH  33  34
ENDBRANCH  32  33
ENDBRANCH   1  32
TORSDOF 23
ENDMDL
