MODEL 1
REMARK VINA RESULT:     -11.4      0.000      0.000
REMARK SMILES O=C(OCCOCCOCCOC(=O)c1ccc(-c2c3nc(c(-c4c(F)cccc4F)c4ccc([nH]4)c(-c4c(F)cccc4F)c4nc(c(-c5c(F)cccc5F)c5ccc2[nH]5)C=C4)C=C3)cc1)C1=Cc2c(ccc(Cl)c2Sc2ccccc2)O[C@H]1C(F)(F)F
REMARK SMILES IDX 7 1 6 2 5 3 4 4 3 5 2 6 1 7 69 8 70 9 86 10 71 11 85 12
REMARK SMILES IDX 72 13 77 14 73 15 75 16 74 17 76 18 87 19 88 20 89 21 90 22
REMARK SMILES IDX 78 23 79 24 80 25 84 26 81 27 83 28 82 29 8 30 9 31 10 32
REMARK SMILES IDX 11 33 12 34 13 35 14 36 15 37 16 38 68 39 17 40 67 41 18 42
REMARK SMILES IDX 19 43 20 44 61 45 21 46 66 47 60 48 62 49 22 50 65 51 59 52
REMARK SMILES IDX 58 53 23 55 49 56 32 57 48 58 33 59 36 60 47 61 63 62 34 63
REMARK SMILES IDX 35 64 46 66 64 67 37 68 24 69 25 70 30 71 26 72 27 73 29 74
REMARK SMILES IDX 31 75 28 76 50 77 51 78 56 79 52 80 53 81 55 82 57 83 54 84
REMARK SMILES IDX 38 85 39 86 44 87 40 88 41 89 43 90 45 91 42 92
REMARK H PARENT 62 54 36 65
REMARK Flexibility Score: inf
ROOT
ATOM      1  C   UNL A   1      34.521  34.010  29.146  1.00  0.00     0.188 C 
ENDROOT
BRANCH   1   2
ATOM      2  O   UNL A   1      34.266  33.134  28.064  1.00  0.00    -0.376 OA
BRANCH   2   3
ATOM      3  C   UNL A   1      35.306  32.243  27.842  1.00  0.00     0.202 C 
BRANCH   3   4
ATOM      4  C   UNL A   1      35.010  30.713  28.046  1.00  0.00     0.261 C 
BRANCH   4   5
ATOM      5  O   UNL A   1      35.093  29.857  26.867  1.00  0.00    -0.460 OA
BRANCH   5   6
ATOM      6  C   UNL A   1      34.138  28.896  26.656  1.00  0.00     0.338 C 
ATOM      7  O   UNL A   1      33.686  28.178  27.540  1.00  0.00    -0.246 OA
BRANCH   6   8
ATOM      8  C   UNL A   1      33.763  28.664  25.248  1.00  0.00     0.087 C 
ATOM      9  C   UNL A   1      33.549  27.372  25.085  1.00  0.00     0.028 C 
ATOM     10  C   UNL A   1      32.742  29.508  24.534  1.00  0.00     0.316 C 
ATOM     11  C   UNL A   1      33.523  26.698  23.841  1.00  0.00     0.033 A 
ATOM     12  O   UNL A   1      32.180  28.759  23.346  1.00  0.00    -0.475 OA
ATOM     13  C   UNL A   1      32.652  27.478  23.006  1.00  0.00     0.129 A 
ATOM     14  C   UNL A   1      33.946  25.324  23.671  1.00  0.00     0.042 A 
ATOM     15  C   UNL A   1      32.113  26.861  21.903  1.00  0.00     0.049 A 
ATOM     16  C   UNL A   1      33.331  24.770  22.517  1.00  0.00     0.055 A 
ATOM     17  C   UNL A   1      32.443  25.516  21.675  1.00  0.00     0.025 A 
ATOM     18  Cl  UNL A   1      33.521  23.104  22.054  1.00  0.00    -0.083 Cl
BRANCH  10  19
ATOM     19  C   UNL A   1      31.615  29.983  25.515  1.00  0.00     0.430 C 
ATOM     20  F   UNL A   1      32.054  30.946  26.362  1.00  0.00    -0.167 F 
ATOM     21  F   UNL A   1      30.552  30.501  24.854  1.00  0.00    -0.167 F 
ATOM     22  F   UNL A   1      31.132  28.972  26.271  1.00  0.00    -0.167 F 
ENDBRANCH  10  19
BRANCH  14  23
ATOM     23  S   UNL A   1      35.109  24.106  24.641  1.00  0.00    -0.088 SA
BRANCH  23  24
ATOM     24  C   UNL A   1      35.215  22.267  24.676  1.00  0.00     0.012 A 
ATOM     25  C   UNL A   1      36.438  21.598  24.597  1.00  0.00     0.015 A 
ATOM     26  C   UNL A   1      34.148  21.357  24.482  1.00  0.00     0.015 A 
ATOM     27  C   UNL A   1      36.546  20.189  24.781  1.00  0.00     0.001 A 
ATOM     28  C   UNL A   1      34.203  19.989  24.839  1.00  0.00     0.001 A 
ATOM     29  C   UNL A   1      35.430  19.412  25.065  1.00  0.00     0.000 A 
ENDBRANCH  23  24
ENDBRANCH  14  23
ENDBRANCH   6   8
ENDBRANCH   5   6
ENDBRANCH   4   5
ENDBRANCH   3   4
ENDBRANCH   2   3
ENDBRANCH   1   2
BRANCH   1  30
ATOM     30  C   UNL A   1      33.450  34.983  29.732  1.00  0.00     0.188 C 
BRANCH  30  31
ATOM     31  O   UNL A   1      33.024  34.832  31.076  1.00  0.00    -0.376 OA
BRANCH  31  32
ATOM     32  C   UNL A   1      33.960  35.194  32.071  1.00  0.00     0.202 C 
BRANCH  32  33
ATOM     33  C   UNL A   1      34.088  34.003  33.029  1.00  0.00     0.261 C 
BRANCH  33  34
ATOM     34  O   UNL A   1      34.966  32.970  32.510  1.00  0.00    -0.460 OA
BRANCH  34  35
ATOM     35  C   UNL A   1      36.069  32.637  33.246  1.00  0.00     0.338 C 
ATOM     36  O   UNL A   1      36.229  32.821  34.440  1.00  0.00    -0.246 OA
BRANCH  35  37
ATOM     37  C   UNL A   1      37.006  31.799  32.422  1.00  0.00     0.060 A 
ATOM     38  C   UNL A   1      37.695  30.737  33.043  1.00  0.00     0.016 A 
ATOM     39  C   UNL A   1      37.112  31.951  31.035  1.00  0.00     0.016 A 
ATOM     40  C   UNL A   1      38.505  29.868  32.292  1.00  0.00     0.010 A 
ATOM     41  C   UNL A   1      37.957  31.110  30.292  1.00  0.00     0.010 A 
ATOM     42  C   UNL A   1      38.693  30.091  30.920  1.00  0.00    -0.014 A 
BRANCH  42  43
ATOM     43  C   UNL A   1      39.897  29.532  30.237  1.00  0.00     0.031 A 
ATOM     44  C   UNL A   1      41.052  30.484  30.027  1.00  0.00     0.074 A 
ATOM     45  C   UNL A   1      39.999  28.266  29.790  1.00  0.00     0.049 A 
ATOM     46  N   UNL A   1      42.204  30.290  29.437  1.00  0.00    -0.248 NA
ATOM     47  C   UNL A   1      40.875  31.846  30.562  1.00  0.00     0.031 C 
ATOM     48  C   UNL A   1      38.989  27.220  29.928  1.00  0.00     0.029 A 
ATOM     49  N   UNL A   1      41.023  27.652  29.102  1.00  0.00    -0.354 N 
ATOM     50  C   UNL A   1      42.890  31.494  29.552  1.00  0.00     0.074 A 
ATOM     51  C   UNL A   1      42.017  32.422  30.233  1.00  0.00     0.031 C 
ATOM     52  C   UNL A   1      39.435  26.100  29.325  1.00  0.00     0.029 A 
ATOM     53  C   UNL A   1      40.753  26.354  28.736  1.00  0.00     0.049 A 
ATOM     54  H   UNL A   1      41.872  28.103  28.891  1.00  0.00     0.167 HD
ATOM     55  C   UNL A   1      44.137  31.810  29.135  1.00  0.00     0.037 A 
ATOM     56  C   UNL A   1      41.475  25.484  27.997  1.00  0.00     0.037 A 
ATOM     57  C   UNL A   1      45.002  30.925  28.405  1.00  0.00     0.049 A 
ATOM     58  C   UNL A   1      42.827  25.894  27.451  1.00  0.00     0.074 A 
ATOM     59  C   UNL A   1      46.275  31.172  27.924  1.00  0.00     0.029 A 
ATOM     60  N   UNL A   1      44.674  29.632  28.036  1.00  0.00    -0.354 N 
ATOM     61  N   UNL A   1      43.483  27.019  27.608  1.00  0.00    -0.248 NA
ATOM     62  C   UNL A   1      43.539  24.905  26.626  1.00  0.00     0.031 C 
ATOM     63  C   UNL A   1      46.701  30.042  27.219  1.00  0.00     0.029 A 
ATOM     64  C   UNL A   1      45.715  29.074  27.313  1.00  0.00     0.049 A 
ATOM     65  H   UNL A   1      43.829  29.178  28.255  1.00  0.00     0.167 HD
ATOM     66  C   UNL A   1      44.691  26.857  26.934  1.00  0.00     0.074 A 
ATOM     67  C   UNL A   1      44.687  25.519  26.384  1.00  0.00     0.031 C 
ATOM     68  C   UNL A   1      45.711  27.737  26.779  1.00  0.00     0.037 A 
BRANCH  55  69
ATOM     69  C   UNL A   1      44.629  33.192  29.445  1.00  0.00     0.057 A 
ATOM     70  C   UNL A   1      45.364  33.462  30.606  1.00  0.00     0.134 A 
ATOM     71  C   UNL A   1      44.384  34.254  28.568  1.00  0.00     0.134 A 
ATOM     72  F   UNL A   1      45.609  32.491  31.499  1.00  0.00    -0.206 F 
ATOM     73  C   UNL A   1      45.829  34.747  30.890  1.00  0.00     0.040 A 
ATOM     74  C   UNL A   1      44.864  35.537  28.828  1.00  0.00     0.040 A 
ATOM     75  F   UNL A   1      43.680  34.060  27.441  1.00  0.00    -0.206 F 
ATOM     76  C   UNL A   1      45.586  35.787  29.995  1.00  0.00     0.006 A 
ENDBRANCH  55  69
BRANCH  56  77
ATOM     77  C   UNL A   1      40.947  24.127  27.682  1.00  0.00     0.057 A 
ATOM     78  C   UNL A   1      41.447  22.983  28.319  1.00  0.00     0.134 A 
ATOM     79  C   UNL A   1      40.004  23.931  26.665  1.00  0.00     0.134 A 
ATOM     80  F   UNL A   1      42.383  23.096  29.273  1.00  0.00    -0.206 F 
ATOM     81  C   UNL A   1      41.055  21.697  27.935  1.00  0.00     0.040 A 
ATOM     82  C   UNL A   1      39.580  22.653  26.294  1.00  0.00     0.040 A 
ATOM     83  F   UNL A   1      39.497  24.981  26.000  1.00  0.00    -0.206 F 
ATOM     84  C   UNL A   1      40.115  21.531  26.921  1.00  0.00     0.006 A 
ENDBRANCH  56  77
BRANCH  68  85
ATOM     85  C   UNL A   1      46.927  27.274  26.028  1.00  0.00     0.057 A 
ATOM     86  C   UNL A   1      47.996  26.628  26.663  1.00  0.00     0.134 A 
ATOM     87  C   UNL A   1      47.014  27.445  24.639  1.00  0.00     0.134 A 
ATOM     88  F   UNL A   1      47.982  26.436  27.991  1.00  0.00    -0.206 F 
ATOM     89  C   UNL A   1      49.120  26.200  25.952  1.00  0.00     0.040 A 
ATOM     90  C   UNL A   1      48.119  26.994  23.913  1.00  0.00     0.040 A 
ATOM     91  F   UNL A   1      46.021  28.039  23.961  1.00  0.00    -0.206 F 
ATOM     92  C   UNL A   1      49.181  26.379  24.572  1.00  0.00     0.006 A 
ENDBRANCH  68  85
ENDBRANCH  42  43
ENDBRANCH  35  37
ENDBRANCH  34  35
ENDBRANCH  33  34
ENDBRANCH  32  33
ENDBRANCH  31  32
ENDBRANCH  30  31
ENDBRANCH   1  30
TORSDOF 20
ENDMDL
MODEL 2
REMARK VINA RESULT:     -10.9      4.292      8.010
REMARK SMILES O=C(OCCOCCOCCOC(=O)c1ccc(-c2c3nc(c(-c4c(F)cccc4F)c4ccc([nH]4)c(-c4c(F)cccc4F)c4nc(c(-c5c(F)cccc5F)c5ccc2[nH]5)C=C4)C=C3)cc1)C1=Cc2c(ccc(Cl)c2Sc2ccccc2)O[C@H]1C(F)(F)F
REMARK SMILES IDX 7 1 6 2 5 3 4 4 3 5 2 6 1 7 69 8 70 9 86 10 71 11 85 12
REMARK SMILES IDX 72 13 77 14 73 15 75 16 74 17 76 18 87 19 88 20 89 21 90 22
REMARK SMILES IDX 78 23 79 24 80 25 84 26 81 27 83 28 82 29 8 30 9 31 10 32
REMARK SMILES IDX 11 33 12 34 13 35 14 36 15 37 16 38 68 39 17 40 67 41 18 42
REMARK SMILES IDX 19 43 20 44 61 45 21 46 66 47 60 48 62 49 22 50 65 51 59 52
REMARK SMILES IDX 58 53 23 55 49 56 32 57 48 58 33 59 36 60 47 61 63 62 34 63
REMARK SMILES IDX 35 64 46 66 64 67 37 68 24 69 25 70 30 71 26 72 27 73 29 74
REMARK SMILES IDX 31 75 28 76 50 77 51 78 56 79 52 80 53 81 55 82 57 83 54 84
REMARK SMILES IDX 38 85 39 86 44 87 40 88 41 89 43 90 45 91 42 92
REMARK H PARENT 62 54 36 65
REMARK Flexibility Score: inf
ROOT
ATOM      1  C   UNL A   1      34.488  33.364  28.711  1.00  0.00     0.188 C 
ENDROOT
BRANCH   1   2
ATOM      2  O   UNL A   1      35.659  33.078  27.971  1.00  0.00    -0.376 OA
BRANCH   2   3
ATOM      3  C   UNL A   1      35.970  31.726  27.963  1.00  0.00     0.202 C 
BRANCH   3   4
ATOM      4  C   UNL A   1      34.782  30.707  27.815  1.00  0.00     0.261 C 
BRANCH   4   5
ATOM      5  O   UNL A   1      34.946  29.634  26.838  1.00  0.00    -0.460 OA
BRANCH   5   6
ATOM      6  C   UNL A   1      33.932  28.733  26.642  1.00  0.00     0.338 C 
ATOM      7  O   UNL A   1      33.249  28.268  27.547  1.00  0.00    -0.246 OA
BRANCH   6   8
ATOM      8  C   UNL A   1      33.781  28.227  25.264  1.00  0.00     0.087 C 
ATOM      9  C   UNL A   1      33.570  26.926  25.322  1.00  0.00     0.028 C 
ATOM     10  C   UNL A   1      32.905  28.905  24.246  1.00  0.00     0.316 C 
ATOM     11  C   UNL A   1      33.728  26.023  24.245  1.00  0.00     0.033 A 
ATOM     12  O   UNL A   1      32.525  27.934  23.151  1.00  0.00    -0.475 OA
ATOM     13  C   UNL A   1      33.019  26.616  23.145  1.00  0.00     0.129 A 
ATOM     14  C   UNL A   1      34.145  24.647  24.413  1.00  0.00     0.042 A 
ATOM     15  C   UNL A   1      32.650  25.791  22.110  1.00  0.00     0.049 A 
ATOM     16  C   UNL A   1      33.711  23.872  23.305  1.00  0.00     0.055 A 
ATOM     17  C   UNL A   1      32.983  24.432  22.203  1.00  0.00     0.025 A 
ATOM     18  Cl  UNL A   1      33.937  22.151  23.209  1.00  0.00    -0.083 Cl
BRANCH  10  19
ATOM     19  C   UNL A   1      31.646  29.550  24.923  1.00  0.00     0.430 C 
ATOM     20  F   UNL A   1      31.967  30.656  25.638  1.00  0.00    -0.167 F 
ATOM     21  F   UNL A   1      30.719  29.931  24.011  1.00  0.00    -0.167 F 
ATOM     22  F   UNL A   1      31.020  28.695  25.762  1.00  0.00    -0.167 F 
ENDBRANCH  10  19
BRANCH  14  23
ATOM     23  S   UNL A   1      35.112  23.654  25.775  1.00  0.00    -0.088 SA
BRANCH  23  24
ATOM     24  C   UNL A   1      36.877  23.139  25.906  1.00  0.00     0.012 A 
ATOM     25  C   UNL A   1      37.866  24.010  26.366  1.00  0.00     0.015 A 
ATOM     26  C   UNL A   1      37.469  22.000  25.310  1.00  0.00     0.015 A 
ATOM     27  C   UNL A   1      39.200  23.578  26.621  1.00  0.00     0.001 A 
ATOM     28  C   UNL A   1      38.722  21.467  25.698  1.00  0.00     0.001 A 
ATOM     29  C   UNL A   1      39.576  22.253  26.435  1.00  0.00     0.000 A 
ENDBRANCH  23  24
ENDBRANCH  14  23
ENDBRANCH   6   8
ENDBRANCH   5   6
ENDBRANCH   4   5
ENDBRANCH   3   4
ENDBRANCH   2   3
ENDBRANCH   1   2
BRANCH   1  30
ATOM     30  C   UNL A   1      33.188  33.944  28.071  1.00  0.00     0.188 C 
BRANCH  30  31
ATOM     31  O   UNL A   1      32.541  35.053  28.674  1.00  0.00    -0.376 OA
BRANCH  31  32
ATOM     32  C   UNL A   1      33.321  36.222  28.828  1.00  0.00     0.202 C 
BRANCH  32  33
ATOM     33  C   UNL A   1      32.950  36.838  30.183  1.00  0.00     0.261 C 
BRANCH  33  34
ATOM     34  O   UNL A   1      32.488  35.844  31.133  1.00  0.00    -0.460 OA
BRANCH  34  35
ATOM     35  C   UNL A   1      32.939  35.930  32.421  1.00  0.00     0.338 C 
ATOM     36  O   UNL A   1      32.358  36.442  33.362  1.00  0.00    -0.246 OA
BRANCH  35  37
ATOM     37  C   UNL A   1      34.183  35.102  32.590  1.00  0.00     0.060 A 
ATOM     38  C   UNL A   1      34.111  33.911  33.341  1.00  0.00     0.016 A 
ATOM     39  C   UNL A   1      35.371  35.404  31.915  1.00  0.00     0.016 A 
ATOM     40  C   UNL A   1      35.223  33.058  33.443  1.00  0.00     0.010 A 
ATOM     41  C   UNL A   1      36.496  34.574  32.055  1.00  0.00     0.010 A 
ATOM     42  C   UNL A   1      36.445  33.420  32.854  1.00  0.00    -0.014 A 
BRANCH  42  43
ATOM     43  C   UNL A   1      37.716  32.825  33.361  1.00  0.00     0.031 A 
ATOM     44  C   UNL A   1      38.305  31.701  32.541  1.00  0.00     0.074 A 
ATOM     45  C   UNL A   1      38.338  33.208  34.493  1.00  0.00     0.049 A 
ATOM     46  N   UNL A   1      39.374  30.976  32.752  1.00  0.00    -0.248 NA
ATOM     47  C   UNL A   1      37.580  31.350  31.305  1.00  0.00     0.031 C 
ATOM     48  C   UNL A   1      37.915  34.284  35.385  1.00  0.00     0.029 A 
ATOM     49  N   UNL A   1      39.474  32.706  35.090  1.00  0.00    -0.354 N 
ATOM     50  C   UNL A   1      39.457  30.107  31.671  1.00  0.00     0.074 A 
ATOM     51  C   UNL A   1      38.316  30.365  30.823  1.00  0.00     0.031 C 
ATOM     52  C   UNL A   1      38.767  34.346  36.428  1.00  0.00     0.029 A 
ATOM     53  C   UNL A   1      39.785  33.300  36.291  1.00  0.00     0.049 A 
ATOM     54  H   UNL A   1      40.014  31.984  34.693  1.00  0.00     0.167 HD
ATOM     55  C   UNL A   1      40.396  29.174  31.394  1.00  0.00     0.037 A 
ATOM     56  C   UNL A   1      40.761  33.018  37.180  1.00  0.00     0.037 A 
ATOM     57  C   UNL A   1      41.507  28.857  32.247  1.00  0.00     0.049 A 
ATOM     58  C   UNL A   1      41.742  31.899  36.899  1.00  0.00     0.074 A 
ATOM     59  C   UNL A   1      42.496  27.909  32.054  1.00  0.00     0.029 A 
ATOM     60  N   UNL A   1      41.764  29.466  33.463  1.00  0.00    -0.354 N 
ATOM     61  N   UNL A   1      41.837  31.117  35.851  1.00  0.00    -0.248 NA
ATOM     62  C   UNL A   1      42.756  31.629  37.932  1.00  0.00     0.031 C 
ATOM     63  C   UNL A   1      43.327  27.911  33.179  1.00  0.00     0.029 A 
ATOM     64  C   UNL A   1      42.887  28.899  34.043  1.00  0.00     0.049 A 
ATOM     65  H   UNL A   1      41.230  30.193  33.856  1.00  0.00     0.167 HD
ATOM     66  C   UNL A   1      42.935  30.293  36.083  1.00  0.00     0.074 A 
ATOM     67  C   UNL A   1      43.487  30.682  37.362  1.00  0.00     0.031 C 
ATOM     68  C   UNL A   1      43.440  29.300  35.310  1.00  0.00     0.037 A 
BRANCH  55  69
ATOM     69  C   UNL A   1      40.241  28.411  30.113  1.00  0.00     0.057 A 
ATOM     70  C   UNL A   1      39.394  27.299  30.023  1.00  0.00     0.134 A 
ATOM     71  C   UNL A   1      40.927  28.802  28.957  1.00  0.00     0.134 A 
ATOM     72  F   UNL A   1      38.730  26.860  31.103  1.00  0.00    -0.206 F 
ATOM     73  C   UNL A   1      39.244  26.593  28.829  1.00  0.00     0.040 A 
ATOM     74  C   UNL A   1      40.765  28.120  27.751  1.00  0.00     0.040 A 
ATOM     75  F   UNL A   1      41.758  29.855  28.981  1.00  0.00    -0.206 F 
ATOM     76  C   UNL A   1      39.925  27.010  27.686  1.00  0.00     0.006 A 
ENDBRANCH  55  69
BRANCH  56  77
ATOM     77  C   UNL A   1      40.873  33.776  38.459  1.00  0.00     0.057 A 
ATOM     78  C   UNL A   1      41.815  34.800  38.620  1.00  0.00     0.134 A 
ATOM     79  C   UNL A   1      40.110  33.427  39.580  1.00  0.00     0.134 A 
ATOM     80  F   UNL A   1      42.608  35.156  37.599  1.00  0.00    -0.206 F 
ATOM     81  C   UNL A   1      42.019  35.424  39.855  1.00  0.00     0.040 A 
ATOM     82  C   UNL A   1      40.280  34.064  40.811  1.00  0.00     0.040 A 
ATOM     83  F   UNL A   1      39.201  32.443  39.502  1.00  0.00    -0.206 F 
ATOM     84  C   UNL A   1      41.246  35.057  40.954  1.00  0.00     0.006 A 
ENDBRANCH  56  77
BRANCH  68  85
ATOM     85  C   UNL A   1      44.675  28.594  35.796  1.00  0.00     0.057 A 
ATOM     86  C   UNL A   1      45.963  29.011  35.437  1.00  0.00     0.134 A 
ATOM     87  C   UNL A   1      44.573  27.499  36.667  1.00  0.00     0.134 A 
ATOM     88  F   UNL A   1      46.134  30.048  34.603  1.00  0.00    -0.206 F 
ATOM     89  C   UNL A   1      47.102  28.347  35.898  1.00  0.00     0.040 A 
ATOM     90  C   UNL A   1      45.705  26.847  37.158  1.00  0.00     0.040 A 
ATOM     91  F   UNL A   1      43.373  27.055  37.066  1.00  0.00    -0.206 F 
ATOM     92  C   UNL A   1      46.975  27.264  36.765  1.00  0.00     0.006 A 
ENDBRANCH  68  85
ENDBRANCH  42  43
ENDBRANCH  35  37
ENDBRANCH  34  35
ENDBRANCH  33  34
ENDBRANCH  32  33
ENDBRANCH  31  32
ENDBRANCH  30  31
ENDBRANCH   1  30
TORSDOF 20
ENDMDL
MODEL 3
REMARK VINA RESULT:     -10.8      3.177      8.646
REMARK SMILES O=C(OCCOCCOCCOC(=O)c1ccc(-c2c3nc(c(-c4c(F)cccc4F)c4ccc([nH]4)c(-c4c(F)cccc4F)c4nc(c(-c5c(F)cccc5F)c5ccc2[nH]5)C=C4)C=C3)cc1)C1=Cc2c(ccc(Cl)c2Sc2ccccc2)O[C@H]1C(F)(F)F
REMARK SMILES IDX 7 1 6 2 5 3 4 4 3 5 2 6 1 7 69 8 70 9 86 10 71 11 85 12
REMARK SMILES IDX 72 13 77 14 73 15 75 16 74 17 76 18 87 19 88 20 89 21 90 22
REMARK SMILES IDX 78 23 79 24 80 25 84 26 81 27 83 28 82 29 8 30 9 31 10 32
REMARK SMILES IDX 11 33 12 34 13 35 14 36 15 37 16 38 68 39 17 40 67 41 18 42
REMARK SMILES IDX 19 43 20 44 61 45 21 46 66 47 60 48 62 49 22 50 65 51 59 52
REMARK SMILES IDX 58 53 23 55 49 56 32 57 48 58 33 59 36 60 47 61 63 62 34 63
REMARK SMILES IDX 35 64 46 66 64 67 37 68 24 69 25 70 30 71 26 72 27 73 29 74
REMARK SMILES IDX 31 75 28 76 50 77 51 78 56 79 52 80 53 81 55 82 57 83 54 84
REMARK SMILES IDX 38 85 39 86 44 87 40 88 41 89 43 90 45 91 42 92
REMARK H PARENT 62 54 36 65
REMARK Flexibility Score: inf
ROOT
ATOM      1  C   UNL A   1      33.778  20.298  25.699  1.00  0.00     0.188 C 
ENDROOT
BRANCH   1   2
ATOM      2  O   UNL A   1      33.329  21.184  26.707  1.00  0.00    -0.376 OA
BRANCH   2   3
ATOM      3  C   UNL A   1      34.338  22.012  27.178  1.00  0.00     0.202 C 
BRANCH   3   4
ATOM      4  C   UNL A   1      34.515  23.412  26.484  1.00  0.00     0.261 C 
BRANCH   4   5
ATOM      5  O   UNL A   1      33.317  24.231  26.327  1.00  0.00    -0.460 OA
BRANCH   5   6
ATOM      6  C   UNL A   1      33.400  25.441  25.688  1.00  0.00     0.338 C 
ATOM      7  O   UNL A   1      34.367  26.190  25.769  1.00  0.00    -0.246 OA
BRANCH   6   8
ATOM      8  C   UNL A   1      32.180  25.879  24.983  1.00  0.00     0.087 C 
ATOM      9  C   UNL A   1      32.244  27.186  24.821  1.00  0.00     0.028 C 
ATOM     10  C   UNL A   1      31.658  25.174  23.760  1.00  0.00     0.316 C 
ATOM     11  C   UNL A   1      31.146  28.028  24.523  1.00  0.00     0.033 A 
ATOM     12  O   UNL A   1      30.762  26.098  22.965  1.00  0.00    -0.475 OA
ATOM     13  C   UNL A   1      30.475  27.399  23.419  1.00  0.00     0.129 A 
ATOM     14  C   UNL A   1      31.045  29.398  24.979  1.00  0.00     0.042 A 
ATOM     15  C   UNL A   1      29.638  28.180  22.659  1.00  0.00     0.049 A 
ATOM     16  C   UNL A   1      30.172  30.126  24.129  1.00  0.00     0.055 A 
ATOM     17  C   UNL A   1      29.504  29.532  23.008  1.00  0.00     0.025 A 
ATOM     18  Cl  UNL A   1      29.889  31.833  24.304  1.00  0.00    -0.083 Cl
BRANCH  10  19
ATOM     19  C   UNL A   1      32.831  24.602  22.891  1.00  0.00     0.430 C 
ATOM     20  F   UNL A   1      32.550  24.650  21.567  1.00  0.00    -0.167 F 
ATOM     21  F   UNL A   1      33.981  25.297  23.070  1.00  0.00    -0.167 F 
ATOM     22  F   UNL A   1      33.117  23.317  23.197  1.00  0.00    -0.167 F 
ENDBRANCH  10  19
BRANCH  14  23
ATOM     23  S   UNL A   1      31.824  30.432  26.429  1.00  0.00    -0.088 SA
BRANCH  23  24
ATOM     24  C   UNL A   1      33.532  30.500  27.115  1.00  0.00     0.012 A 
ATOM     25  C   UNL A   1      34.313  29.352  27.263  1.00  0.00     0.015 A 
ATOM     26  C   UNL A   1      34.115  31.580  27.821  1.00  0.00     0.015 A 
ATOM     27  C   UNL A   1      35.685  29.412  27.643  1.00  0.00     0.001 A 
ATOM     28  C   UNL A   1      35.507  31.724  28.036  1.00  0.00     0.001 A 
ATOM     29  C   UNL A   1      36.319  30.627  27.870  1.00  0.00     0.000 A 
ENDBRANCH  23  24
ENDBRANCH  14  23
ENDBRANCH   6   8
ENDBRANCH   5   6
ENDBRANCH   4   5
ENDBRANCH   3   4
ENDBRANCH   2   3
ENDBRANCH   1   2
BRANCH   1  30
ATOM     30  C   UNL A   1      35.165  20.429  24.997  1.00  0.00     0.188 C 
BRANCH  30  31
ATOM     31  O   UNL A   1      36.063  19.331  25.001  1.00  0.00    -0.376 OA
BRANCH  31  32
ATOM     32  C   UNL A   1      37.432  19.645  24.848  1.00  0.00     0.202 C 
BRANCH  32  33
ATOM     33  C   UNL A   1      37.648  21.037  25.453  1.00  0.00     0.261 C 
BRANCH  33  34
ATOM     34  O   UNL A   1      39.033  21.464  25.375  1.00  0.00    -0.460 OA
BRANCH  34  35
ATOM     35  C   UNL A   1      39.801  21.358  26.501  1.00  0.00     0.338 C 
ATOM     36  O   UNL A   1      40.272  20.335  26.966  1.00  0.00    -0.246 OA
BRANCH  35  37
ATOM     37  C   UNL A   1      40.184  22.724  26.997  1.00  0.00     0.060 A 
ATOM     38  C   UNL A   1      39.423  23.837  26.583  1.00  0.00     0.016 A 
ATOM     39  C   UNL A   1      41.181  22.910  27.961  1.00  0.00     0.016 A 
ATOM     40  C   UNL A   1      39.684  25.118  27.098  1.00  0.00     0.010 A 
ATOM     41  C   UNL A   1      41.471  24.198  28.442  1.00  0.00     0.010 A 
ATOM     42  C   UNL A   1      40.756  25.317  27.981  1.00  0.00    -0.014 A 
BRANCH  42  43
ATOM     43  C   UNL A   1      41.353  26.677  28.127  1.00  0.00     0.031 A 
ATOM     44  C   UNL A   1      42.762  26.850  27.608  1.00  0.00     0.074 A 
ATOM     45  C   UNL A   1      40.731  27.725  28.701  1.00  0.00     0.049 A 
ATOM     46  N   UNL A   1      43.543  27.900  27.630  1.00  0.00    -0.248 NA
ATOM     47  C   UNL A   1      43.370  25.666  26.975  1.00  0.00     0.031 C 
ATOM     48  C   UNL A   1      39.371  27.732  29.233  1.00  0.00     0.029 A 
ATOM     49  N   UNL A   1      41.191  29.001  28.943  1.00  0.00    -0.354 N 
ATOM     50  C   UNL A   1      44.716  27.507  26.997  1.00  0.00     0.074 A 
ATOM     51  C   UNL A   1      44.564  26.117  26.634  1.00  0.00     0.031 C 
ATOM     52  C   UNL A   1      39.115  28.946  29.758  1.00  0.00     0.029 A 
ATOM     53  C   UNL A   1      40.299  29.798  29.621  1.00  0.00     0.049 A 
ATOM     54  H   UNL A   1      42.079  29.313  28.656  1.00  0.00     0.167 HD
ATOM     55  C   UNL A   1      45.828  28.230  26.731  1.00  0.00     0.037 A 
ATOM     56  C   UNL A   1      40.433  31.057  30.093  1.00  0.00     0.037 A 
ATOM     57  C   UNL A   1      46.028  29.595  27.132  1.00  0.00     0.049 A 
ATOM     58  C   UNL A   1      41.726  31.814  29.875  1.00  0.00     0.074 A 
ATOM     59  C   UNL A   1      47.135  30.398  26.924  1.00  0.00     0.029 A 
ATOM     60  N   UNL A   1      45.109  30.350  27.840  1.00  0.00    -0.354 N 
ATOM     61  N   UNL A   1      42.809  31.446  29.233  1.00  0.00    -0.248 NA
ATOM     62  C   UNL A   1      41.809  33.167  30.448  1.00  0.00     0.031 C 
ATOM     63  C   UNL A   1      46.905  31.628  27.549  1.00  0.00     0.029 A 
ATOM     64  C   UNL A   1      45.632  31.606  28.095  1.00  0.00     0.049 A 
ATOM     65  H   UNL A   1      44.217  30.040  28.119  1.00  0.00     0.167 HD
ATOM     66  C   UNL A   1      43.681  32.530  29.298  1.00  0.00     0.074 A 
ATOM     67  C   UNL A   1      42.995  33.578  30.022  1.00  0.00     0.031 C 
ATOM     68  C   UNL A   1      44.939  32.650  28.804  1.00  0.00     0.037 A 
BRANCH  55  69
ATOM     69  C   UNL A   1      46.928  27.538  25.985  1.00  0.00     0.057 A 
ATOM     70  C   UNL A   1      47.940  26.839  26.656  1.00  0.00     0.134 A 
ATOM     71  C   UNL A   1      46.966  27.553  24.586  1.00  0.00     0.134 A 
ATOM     72  F   UNL A   1      47.973  26.811  27.998  1.00  0.00    -0.206 F 
ATOM     73  C   UNL A   1      48.960  26.189  25.961  1.00  0.00     0.040 A 
ATOM     74  C   UNL A   1      47.965  26.885  23.879  1.00  0.00     0.040 A 
ATOM     75  F   UNL A   1      46.029  28.210  23.886  1.00  0.00    -0.206 F 
ATOM     76  C   UNL A   1      48.969  26.204  24.568  1.00  0.00     0.006 A 
ENDBRANCH  55  69
BRANCH  56  77
ATOM     77  C   UNL A   1      39.331  31.708  30.856  1.00  0.00     0.057 A 
ATOM     78  C   UNL A   1      38.437  32.592  30.237  1.00  0.00     0.134 A 
ATOM     79  C   UNL A   1      39.209  31.542  32.241  1.00  0.00     0.134 A 
ATOM     80  F   UNL A   1      38.526  32.829  28.920  1.00  0.00    -0.206 F 
ATOM     81  C   UNL A   1      37.487  33.310  30.969  1.00  0.00     0.040 A 
ATOM     82  C   UNL A   1      38.243  32.228  32.981  1.00  0.00     0.040 A 
ATOM     83  F   UNL A   1      40.043  30.724  32.902  1.00  0.00    -0.206 F 
ATOM     84  C   UNL A   1      37.386  33.125  32.346  1.00  0.00     0.006 A 
ENDBRANCH  56  77
BRANCH  68  85
ATOM     85  C   UNL A   1      45.641  33.966  28.987  1.00  0.00     0.057 A 
ATOM     86  C   UNL A   1      45.473  35.030  28.092  1.00  0.00     0.134 A 
ATOM     87  C   UNL A   1      46.470  34.184  30.097  1.00  0.00     0.134 A 
ATOM     88  F   UNL A   1      44.699  34.890  27.005  1.00  0.00    -0.206 F 
ATOM     89  C   UNL A   1      46.130  36.250  28.275  1.00  0.00     0.040 A 
ATOM     90  C   UNL A   1      47.107  35.408  30.306  1.00  0.00     0.040 A 
ATOM     91  F   UNL A   1      46.663  33.215  31.004  1.00  0.00    -0.206 F 
ATOM     92  C   UNL A   1      46.946  36.443  29.387  1.00  0.00     0.006 A 
ENDBRANCH  68  85
ENDBRANCH  42  43
ENDBRANCH  35  37
ENDBRANCH  34  35
ENDBRANCH  33  34
ENDBRANCH  32  33
ENDBRANCH  31  32
ENDBRANCH  30  31
ENDBRANCH   1  30
TORSDOF 20
ENDMDL
