MODEL 1
REMARK VINA RESULT:     -12.5      0.000      0.000
REMARK SMILES O=C(OCCOCCOCCOC(=O)c1ccc(-c2c3nc(c(-c4c(F)cccc4F)c4ccc([nH]4)c(-c4c(F)cccc4F)c4nc(c(-c5c(F)cccc5F)c5ccc2[nH]5)C=C4)C=C3)cc1)C1=Cc2c(ccc(Cl)c2-c2ccccc2)O[C@H]1C(F)(F)F
REMARK SMILES IDX 8 1 7 2 6 3 5 4 4 5 3 6 2 7 1 8 69 9 70 10 85 11 71 12 84 13
REMARK SMILES IDX 72 14 77 15 73 16 75 17 74 18 76 19 86 20 87 21 88 22 89 23
REMARK SMILES IDX 78 24 79 25 83 26 80 27 82 28 81 29 9 30 10 31 11 32 12 33
REMARK SMILES IDX 13 34 14 35 15 36 16 37 68 38 17 39 67 40 18 41 19 42 20 43
REMARK SMILES IDX 61 44 21 45 66 46 60 47 62 48 22 49 65 50 59 51 58 52 23 54
REMARK SMILES IDX 49 55 32 56 48 57 33 58 36 59 47 60 63 61 34 62 35 63 46 65
REMARK SMILES IDX 64 66 37 67 24 68 25 69 30 70 26 71 27 72 29 73 31 74 28 75
REMARK SMILES IDX 50 76 51 77 56 78 52 79 53 80 55 81 57 82 54 83 38 84 39 85
REMARK SMILES IDX 44 86 40 87 41 88 43 89 45 90 42 91
REMARK H PARENT 62 53 36 64
REMARK Flexibility Score: inf
ROOT
ATOM      1  C   UNL A   1      42.842  19.039  25.882  1.00  0.00     0.188 C 
ENDROOT
BRANCH   1   2
ATOM      2  C   UNL A   1      41.216  19.439  26.008  1.00  0.00     0.188 C 
BRANCH   2   3
ATOM      3  O   UNL A   1      40.730  20.241  27.084  1.00  0.00    -0.376 OA
BRANCH   3   4
ATOM      4  C   UNL A   1      40.200  21.531  26.839  1.00  0.00     0.202 C 
BRANCH   4   5
ATOM      5  C   UNL A   1      39.014  21.717  25.884  1.00  0.00     0.261 C 
BRANCH   5   6
ATOM      6  O   UNL A   1      37.893  22.347  26.560  1.00  0.00    -0.460 OA
BRANCH   6   7
ATOM      7  C   UNL A   1      37.014  23.266  26.105  1.00  0.00     0.338 C 
ATOM      8  O   UNL A   1      37.422  24.366  25.738  1.00  0.00    -0.246 OA
BRANCH   7   9
ATOM      9  C   UNL A   1      35.570  22.981  25.970  1.00  0.00     0.087 C 
ATOM     10  C   UNL A   1      34.682  23.744  25.324  1.00  0.00     0.028 C 
ATOM     11  C   UNL A   1      35.174  21.530  26.167  1.00  0.00     0.316 C 
ATOM     12  C   UNL A   1      33.289  23.631  25.744  1.00  0.00     0.027 A 
ATOM     13  O   UNL A   1      33.778  21.369  26.559  1.00  0.00    -0.475 OA
ATOM     14  C   UNL A   1      32.928  22.435  26.390  1.00  0.00     0.128 A 
ATOM     15  C   UNL A   1      32.389  24.716  25.561  1.00  0.00     0.011 A 
ATOM     16  C   UNL A   1      31.656  22.298  26.916  1.00  0.00     0.049 A 
ATOM     17  C   UNL A   1      31.117  24.551  26.154  1.00  0.00     0.049 A 
ATOM     18  C   UNL A   1      30.764  23.363  26.820  1.00  0.00     0.025 A 
ATOM     19  Cl  UNL A   1      29.871  25.754  26.092  1.00  0.00    -0.084 Cl
BRANCH  11  20
ATOM     20  C   UNL A   1      35.482  20.729  24.876  1.00  0.00     0.430 C 
ATOM     21  F   UNL A   1      36.411  19.765  25.101  1.00  0.00    -0.167 F 
ATOM     22  F   UNL A   1      34.387  20.090  24.395  1.00  0.00    -0.167 F 
ATOM     23  F   UNL A   1      35.949  21.519  23.883  1.00  0.00    -0.167 F 
ENDBRANCH  11  20
BRANCH  15  24
ATOM     24  C   UNL A   1      32.763  25.934  24.759  1.00  0.00    -0.016 A 
ATOM     25  C   UNL A   1      32.942  25.835  22.963  1.00  0.00     0.009 A 
ATOM     26  C   UNL A   1      33.201  27.502  25.581  1.00  0.00     0.009 A 
ATOM     27  C   UNL A   1      33.634  27.196  22.002  1.00  0.00     0.001 A 
ATOM     28  C   UNL A   1      33.915  28.881  24.607  1.00  0.00     0.001 A 
ATOM     29  C   UNL A   1      34.107  28.723  22.817  1.00  0.00     0.000 A 
ENDBRANCH  15  24
ENDBRANCH   7   9
ENDBRANCH   6   7
ENDBRANCH   5   6
ENDBRANCH   4   5
ENDBRANCH   3   4
ENDBRANCH   2   3
ENDBRANCH   1   2
BRANCH   1  30
ATOM     30  O   UNL A   1      44.433  20.065  25.263  1.00  0.00    -0.376 OA
BRANCH  30  31
ATOM     31  C   UNL A   1      45.611  21.018  25.503  1.00  0.00     0.202 C 
BRANCH  31  32
ATOM     32  C   UNL A   1      45.475  22.469  26.061  1.00  0.00     0.261 C 
BRANCH  32  33
ATOM     33  O   UNL A   1      44.159  22.761  26.603  1.00  0.00    -0.460 OA
BRANCH  33  34
ATOM     34  C   UNL A   1      43.282  23.314  25.738  1.00  0.00     0.338 C 
ATOM     35  O   UNL A   1      42.991  22.900  24.616  1.00  0.00    -0.246 OA
BRANCH  34  36
ATOM     36  C   UNL A   1      42.566  24.450  26.349  1.00  0.00     0.060 A 
ATOM     37  C   UNL A   1      42.948  25.767  26.038  1.00  0.00     0.016 A 
ATOM     38  C   UNL A   1      41.673  24.217  27.392  1.00  0.00     0.016 A 
ATOM     39  C   UNL A   1      42.486  26.845  26.793  1.00  0.00     0.010 A 
ATOM     40  C   UNL A   1      41.215  25.296  28.155  1.00  0.00     0.010 A 
ATOM     41  C   UNL A   1      41.659  26.607  27.889  1.00  0.00    -0.014 A 
BRANCH  41  42
ATOM     42  C   UNL A   1      41.424  27.663  28.901  1.00  0.00     0.031 A 
ATOM     43  C   UNL A   1      42.256  27.643  30.149  1.00  0.00     0.074 A 
ATOM     44  C   UNL A   1      40.468  28.591  28.741  1.00  0.00     0.049 A 
ATOM     45  N   UNL A   1      42.064  28.255  31.288  1.00  0.00    -0.248 NA
ATOM     46  C   UNL A   1      43.466  26.807  30.105  1.00  0.00     0.031 C 
ATOM     47  C   UNL A   1      39.667  28.786  27.537  1.00  0.00     0.029 A 
ATOM     48  N   UNL A   1      39.984  29.517  29.631  1.00  0.00    -0.354 N 
ATOM     49  C   UNL A   1      43.100  27.840  32.115  1.00  0.00     0.074 A 
ATOM     50  C   UNL A   1      43.923  26.934  31.342  1.00  0.00     0.031 C 
ATOM     51  C   UNL A   1      38.749  29.738  27.781  1.00  0.00     0.029 A 
ATOM     52  C   UNL A   1      38.865  30.167  29.174  1.00  0.00     0.049 A 
ATOM     53  H   UNL A   1      40.397  29.698  30.506  1.00  0.00     0.167 HD
ATOM     54  C   UNL A   1      43.328  28.168  33.408  1.00  0.00     0.037 A 
ATOM     55  C   UNL A   1      37.995  30.960  29.828  1.00  0.00     0.037 A 
ATOM     56  C   UNL A   1      42.500  29.069  34.164  1.00  0.00     0.049 A 
ATOM     57  C   UNL A   1      38.207  31.250  31.290  1.00  0.00     0.074 A 
ATOM     58  C   UNL A   1      42.638  29.471  35.481  1.00  0.00     0.029 A 
ATOM     59  N   UNL A   1      41.372  29.705  33.666  1.00  0.00    -0.354 N 
ATOM     60  N   UNL A   1      39.159  30.828  32.089  1.00  0.00    -0.248 NA
ATOM     61  C   UNL A   1      37.219  32.118  31.948  1.00  0.00     0.031 C 
ATOM     62  C   UNL A   1      41.561  30.309  35.794  1.00  0.00     0.029 A 
ATOM     63  C   UNL A   1      40.787  30.475  34.657  1.00  0.00     0.049 A 
ATOM     64  H   UNL A   1      41.036  29.620  32.745  1.00  0.00     0.167 HD
ATOM     65  C   UNL A   1      38.902  31.397  33.330  1.00  0.00     0.074 A 
ATOM     66  C   UNL A   1      37.702  32.197  33.181  1.00  0.00     0.031 C 
ATOM     67  C   UNL A   1      39.599  31.275  34.487  1.00  0.00     0.037 A 
BRANCH  54  68
ATOM     68  C   UNL A   1      44.473  27.483  34.095  1.00  0.00     0.057 A 
ATOM     69  C   UNL A   1      45.759  28.033  34.140  1.00  0.00     0.134 A 
ATOM     70  C   UNL A   1      44.283  26.235  34.703  1.00  0.00     0.134 A 
ATOM     71  F   UNL A   1      46.014  29.217  33.561  1.00  0.00    -0.206 F 
ATOM     72  C   UNL A   1      46.825  27.350  34.730  1.00  0.00     0.040 A 
ATOM     73  C   UNL A   1      45.333  25.555  35.321  1.00  0.00     0.040 A 
ATOM     74  F   UNL A   1      43.075  25.652  34.700  1.00  0.00    -0.206 F 
ATOM     75  C   UNL A   1      46.611  26.108  35.326  1.00  0.00     0.006 A 
ENDBRANCH  54  68
BRANCH  55  76
ATOM     76  C   UNL A   1      36.808  31.488  29.110  1.00  0.00     0.057 A 
ATOM     77  C   UNL A   1      36.767  32.806  28.647  1.00  0.00     0.134 A 
ATOM     78  C   UNL A   1      35.696  30.676  28.851  1.00  0.00     0.134 A 
ATOM     79  F   UNL A   1      37.791  33.638  28.888  1.00  0.00    -0.206 F 
ATOM     80  C   UNL A   1      35.663  33.301  27.950  1.00  0.00     0.040 A 
ATOM     81  C   UNL A   1      34.596  31.150  28.134  1.00  0.00     0.040 A 
ATOM     82  F   UNL A   1      35.672  29.403  29.272  1.00  0.00    -0.206 F 
ATOM     83  C   UNL A   1      34.577  32.468  27.683  1.00  0.00     0.006 A 
ENDBRANCH  55  76
BRANCH  67  84
ATOM     84  C   UNL A   1      39.121  32.058  35.676  1.00  0.00     0.057 A 
ATOM     85  C   UNL A   1      38.295  31.494  36.655  1.00  0.00     0.134 A 
ATOM     86  C   UNL A   1      39.559  33.374  35.878  1.00  0.00     0.134 A 
ATOM     87  F   UNL A   1      37.831  30.243  36.516  1.00  0.00    -0.206 F 
ATOM     88  C   UNL A   1      37.913  32.214  37.789  1.00  0.00     0.040 A 
ATOM     89  C   UNL A   1      39.205  34.095  37.018  1.00  0.00     0.040 A 
ATOM     90  F   UNL A   1      40.361  33.969  34.983  1.00  0.00    -0.206 F 
ATOM     91  C   UNL A   1      38.377  33.515  37.978  1.00  0.00     0.006 A 
ENDBRANCH  67  84
ENDBRANCH  41  42
ENDBRANCH  34  36
ENDBRANCH  33  34
ENDBRANCH  32  33
ENDBRANCH  31  32
ENDBRANCH  30  31
ENDBRANCH   1  30
TORSDOF 19
ENDMDL
MODEL 2
REMARK VINA RESULT:     -12.4      0.941      6.077
REMARK SMILES O=C(OCCOCCOCCOC(=O)c1ccc(-c2c3nc(c(-c4c(F)cccc4F)c4ccc([nH]4)c(-c4c(F)cccc4F)c4nc(c(-c5c(F)cccc5F)c5ccc2[nH]5)C=C4)C=C3)cc1)C1=Cc2c(ccc(Cl)c2-c2ccccc2)O[C@H]1C(F)(F)F
REMARK SMILES IDX 8 1 7 2 6 3 5 4 4 5 3 6 2 7 1 8 69 9 70 10 85 11 71 12 84 13
REMARK SMILES IDX 72 14 77 15 73 16 75 17 74 18 76 19 86 20 87 21 88 22 89 23
REMARK SMILES IDX 78 24 79 25 83 26 80 27 82 28 81 29 9 30 10 31 11 32 12 33
REMARK SMILES IDX 13 34 14 35 15 36 16 37 68 38 17 39 67 40 18 41 19 42 20 43
REMARK SMILES IDX 61 44 21 45 66 46 60 47 62 48 22 49 65 50 59 51 58 52 23 54
REMARK SMILES IDX 49 55 32 56 48 57 33 58 36 59 47 60 63 61 34 62 35 63 46 65
REMARK SMILES IDX 64 66 37 67 24 68 25 69 30 70 26 71 27 72 29 73 31 74 28 75
REMARK SMILES IDX 50 76 51 77 56 78 52 79 53 80 55 81 57 82 54 83 38 84 39 85
REMARK SMILES IDX 44 86 40 87 41 88 43 89 45 90 42 91
REMARK H PARENT 62 53 36 64
REMARK Flexibility Score: inf
ROOT
ATOM      1  C   UNL A   1      42.930  19.827  25.867  1.00  0.00     0.188 C 
ENDROOT
BRANCH   1   2
ATOM      2  C   UNL A   1      41.286  19.929  26.192  1.00  0.00     0.188 C 
BRANCH   2   3
ATOM      3  O   UNL A   1      40.806  20.398  27.452  1.00  0.00    -0.376 OA
BRANCH   3   4
ATOM      4  C   UNL A   1      40.878  21.774  27.783  1.00  0.00     0.202 C 
BRANCH   4   5
ATOM      5  C   UNL A   1      40.279  22.832  26.848  1.00  0.00     0.261 C 
BRANCH   5   6
ATOM      6  O   UNL A   1      38.837  22.685  26.749  1.00  0.00    -0.460 OA
BRANCH   6   7
ATOM      7  C   UNL A   1      37.918  23.514  26.207  1.00  0.00     0.338 C 
ATOM      8  O   UNL A   1      38.270  24.607  25.770  1.00  0.00    -0.246 OA
BRANCH   7   9
ATOM      9  C   UNL A   1      36.498  23.131  26.060  1.00  0.00     0.087 C 
ATOM     10  C   UNL A   1      35.557  23.853  25.443  1.00  0.00     0.028 C 
ATOM     11  C   UNL A   1      36.207  21.649  26.199  1.00  0.00     0.316 C 
ATOM     12  C   UNL A   1      34.177  23.626  25.856  1.00  0.00     0.027 A 
ATOM     13  O   UNL A   1      34.826  21.374  26.583  1.00  0.00    -0.475 OA
ATOM     14  C   UNL A   1      33.903  22.382  26.455  1.00  0.00     0.128 A 
ATOM     15  C   UNL A   1      33.201  24.650  25.715  1.00  0.00     0.011 A 
ATOM     16  C   UNL A   1      32.644  22.134  26.973  1.00  0.00     0.049 A 
ATOM     17  C   UNL A   1      31.945  24.371  26.299  1.00  0.00     0.049 A 
ATOM     18  C   UNL A   1      31.679  23.135  26.918  1.00  0.00     0.025 A 
ATOM     19  Cl  UNL A   1      30.616  25.483  26.282  1.00  0.00    -0.084 Cl
BRANCH  11  20
ATOM     20  C   UNL A   1      36.570  20.924  24.878  1.00  0.00     0.430 C 
ATOM     21  F   UNL A   1      35.701  19.915  24.612  1.00  0.00    -0.167 F 
ATOM     22  F   UNL A   1      36.518  21.753  23.807  1.00  0.00    -0.167 F 
ATOM     23  F   UNL A   1      37.812  20.393  24.911  1.00  0.00    -0.167 F 
ENDBRANCH  11  20
BRANCH  15  24
ATOM     24  C   UNL A   1      33.485  25.922  24.961  1.00  0.00    -0.016 A 
ATOM     25  C   UNL A   1      33.642  27.496  25.836  1.00  0.00     0.009 A 
ATOM     26  C   UNL A   1      33.521  25.945  23.138  1.00  0.00     0.009 A 
ATOM     27  C   UNL A   1      33.724  29.067  24.954  1.00  0.00     0.001 A 
ATOM     28  C   UNL A   1      33.592  27.541  22.241  1.00  0.00     0.001 A 
ATOM     29  C   UNL A   1      33.714  29.093  23.160  1.00  0.00     0.000 A 
ENDBRANCH  15  24
ENDBRANCH   7   9
ENDBRANCH   6   7
ENDBRANCH   5   6
ENDBRANCH   4   5
ENDBRANCH   3   4
ENDBRANCH   2   3
ENDBRANCH   1   2
BRANCH   1  30
ATOM     30  O   UNL A   1      44.108  20.795  24.585  1.00  0.00    -0.376 OA
BRANCH  30  31
ATOM     31  C   UNL A   1      44.817  22.058  24.082  1.00  0.00     0.202 C 
BRANCH  31  32
ATOM     32  C   UNL A   1      45.161  23.294  24.972  1.00  0.00     0.261 C 
BRANCH  32  33
ATOM     33  O   UNL A   1      44.330  24.454  24.697  1.00  0.00    -0.460 OA
BRANCH  33  34
ATOM     34  C   UNL A   1      44.822  25.636  25.126  1.00  0.00     0.338 C 
ATOM     35  O   UNL A   1      45.882  26.161  24.789  1.00  0.00    -0.246 OA
BRANCH  34  36
ATOM     36  C   UNL A   1      43.851  26.344  25.984  1.00  0.00     0.060 A 
ATOM     37  C   UNL A   1      44.138  27.642  26.442  1.00  0.00     0.016 A 
ATOM     38  C   UNL A   1      42.769  25.647  26.515  1.00  0.00     0.016 A 
ATOM     39  C   UNL A   1      43.386  28.226  27.460  1.00  0.00     0.010 A 
ATOM     40  C   UNL A   1      42.018  26.228  27.542  1.00  0.00     0.010 A 
ATOM     41  C   UNL A   1      42.355  27.497  28.051  1.00  0.00    -0.014 A 
BRANCH  41  42
ATOM     42  C   UNL A   1      41.763  27.936  29.337  1.00  0.00     0.031 A 
ATOM     43  C   UNL A   1      40.492  28.732  29.294  1.00  0.00     0.074 A 
ATOM     44  C   UNL A   1      42.357  27.676  30.511  1.00  0.00     0.049 A 
ATOM     45  N   UNL A   1      39.936  29.466  30.223  1.00  0.00    -0.248 NA
ATOM     46  C   UNL A   1      39.754  28.702  28.021  1.00  0.00     0.031 C 
ATOM     47  C   UNL A   1      43.530  26.828  30.699  1.00  0.00     0.029 A 
ATOM     48  N   UNL A   1      42.068  28.148  31.767  1.00  0.00    -0.354 N 
ATOM     49  C   UNL A   1      38.810  30.026  29.633  1.00  0.00     0.074 A 
ATOM     50  C   UNL A   1      38.757  29.537  28.272  1.00  0.00     0.031 C 
ATOM     51  C   UNL A   1      43.897  26.882  31.991  1.00  0.00     0.029 A 
ATOM     52  C   UNL A   1      43.020  27.816  32.698  1.00  0.00     0.049 A 
ATOM     53  H   UNL A   1      41.261  28.671  31.979  1.00  0.00     0.167 HD
ATOM     54  C   UNL A   1      37.917  30.887  30.174  1.00  0.00     0.037 A 
ATOM     55  C   UNL A   1      43.203  28.271  33.953  1.00  0.00     0.037 A 
ATOM     56  C   UNL A   1      37.985  31.365  31.529  1.00  0.00     0.049 A 
ATOM     57  C   UNL A   1      42.255  29.296  34.517  1.00  0.00     0.074 A 
ATOM     58  C   UNL A   1      37.135  32.241  32.180  1.00  0.00     0.029 A 
ATOM     59  N   UNL A   1      38.968  31.008  32.440  1.00  0.00    -0.354 N 
ATOM     60  N   UNL A   1      41.215  29.862  33.952  1.00  0.00    -0.248 NA
ATOM     61  C   UNL A   1      42.512  29.756  35.889  1.00  0.00     0.031 C 
ATOM     62  C   UNL A   1      37.635  32.455  33.470  1.00  0.00     0.029 A 
ATOM     63  C   UNL A   1      38.762  31.667  33.640  1.00  0.00     0.049 A 
ATOM     64  H   UNL A   1      39.704  30.380  32.260  1.00  0.00     0.167 HD
ATOM     65  C   UNL A   1      40.679  30.721  34.904  1.00  0.00     0.074 A 
ATOM     66  C   UNL A   1      41.509  30.603  36.086  1.00  0.00     0.031 C 
ATOM     67  C   UNL A   1      39.594  31.528  34.811  1.00  0.00     0.037 A 
BRANCH  54  68
ATOM     68  C   UNL A   1      36.847  31.420  29.268  1.00  0.00     0.057 A 
ATOM     69  C   UNL A   1      36.889  32.714  28.735  1.00  0.00     0.134 A 
ATOM     70  C   UNL A   1      35.739  30.625  28.944  1.00  0.00     0.134 A 
ATOM     71  F   UNL A   1      37.912  33.535  29.021  1.00  0.00    -0.206 F 
ATOM     72  C   UNL A   1      35.850  33.212  27.945  1.00  0.00     0.040 A 
ATOM     73  C   UNL A   1      34.710  31.100  28.132  1.00  0.00     0.040 A 
ATOM     74  F   UNL A   1      35.637  29.374  29.418  1.00  0.00    -0.206 F 
ATOM     75  C   UNL A   1      34.758  32.402  27.639  1.00  0.00     0.006 A 
ENDBRANCH  54  68
BRANCH  55  76
ATOM     76  C   UNL A   1      44.370  27.797  34.737  1.00  0.00     0.057 A 
ATOM     77  C   UNL A   1      44.279  26.679  35.570  1.00  0.00     0.134 A 
ATOM     78  C   UNL A   1      45.612  28.440  34.652  1.00  0.00     0.134 A 
ATOM     79  F   UNL A   1      43.109  26.038  35.712  1.00  0.00    -0.206 F 
ATOM     80  C   UNL A   1      45.380  26.214  36.292  1.00  0.00     0.040 A 
ATOM     81  C   UNL A   1      46.727  27.973  35.348  1.00  0.00     0.040 A 
ATOM     82  F   UNL A   1      45.764  29.521  33.872  1.00  0.00    -0.206 F 
ATOM     83  C   UNL A   1      46.611  26.857  36.174  1.00  0.00     0.006 A 
ENDBRANCH  55  76
BRANCH  67  84
ATOM     84  C   UNL A   1      39.202  32.313  36.030  1.00  0.00     0.057 A 
ATOM     85  C   UNL A   1      39.662  33.616  36.255  1.00  0.00     0.134 A 
ATOM     86  C   UNL A   1      38.290  31.781  36.951  1.00  0.00     0.134 A 
ATOM     87  F   UNL A   1      40.545  34.180  35.417  1.00  0.00    -0.206 F 
ATOM     88  C   UNL A   1      39.236  34.359  37.358  1.00  0.00     0.040 A 
ATOM     89  C   UNL A   1      37.838  32.521  38.044  1.00  0.00     0.040 A 
ATOM     90  F   UNL A   1      37.803  30.542  36.788  1.00  0.00    -0.206 F 
ATOM     91  C   UNL A   1      38.314  33.815  38.251  1.00  0.00     0.006 A 
ENDBRANCH  67  84
ENDBRANCH  41  42
ENDBRANCH  34  36
ENDBRANCH  33  34
ENDBRANCH  32  33
ENDBRANCH  31  32
ENDBRANCH  30  31
ENDBRANCH   1  30
TORSDOF 19
ENDMDL
MODEL 3
REMARK VINA RESULT:     -11.7      1.539      6.395
REMARK SMILES O=C(OCCOCCOCCOC(=O)c1ccc(-c2c3nc(c(-c4c(F)cccc4F)c4ccc([nH]4)c(-c4c(F)cccc4F)c4nc(c(-c5c(F)cccc5F)c5ccc2[nH]5)C=C4)C=C3)cc1)C1=Cc2c(ccc(Cl)c2-c2ccccc2)O[C@H]1C(F)(F)F
REMARK SMILES IDX 8 1 7 2 6 3 5 4 4 5 3 6 2 7 1 8 69 9 70 10 85 11 71 12 84 13
REMARK SMILES IDX 72 14 77 15 73 16 75 17 74 18 76 19 86 20 87 21 88 22 89 23
REMARK SMILES IDX 78 24 79 25 83 26 80 27 82 28 81 29 9 30 10 31 11 32 12 33
REMARK SMILES IDX 13 34 14 35 15 36 16 37 68 38 17 39 67 40 18 41 19 42 20 43
REMARK SMILES IDX 61 44 21 45 66 46 60 47 62 48 22 49 65 50 59 51 58 52 23 54
REMARK SMILES IDX 49 55 32 56 48 57 33 58 36 59 47 60 63 61 34 62 35 63 46 65
REMARK SMILES IDX 64 66 37 67 24 68 25 69 30 70 26 71 27 72 29 73 31 74 28 75
REMARK SMILES IDX 50 76 51 77 56 78 52 79 53 80 55 81 57 82 54 83 38 84 39 85
REMARK SMILES IDX 44 86 40 87 41 88 43 89 45 90 42 91
REMARK H PARENT 62 53 36 64
REMARK Flexibility Score: inf
ROOT
ATOM      1  C   UNL A   1      43.196  20.749  25.606  1.00  0.00     0.188 C 
ENDROOT
BRANCH   1   2
ATOM      2  C   UNL A   1      42.170  19.574  26.224  1.00  0.00     0.188 C 
BRANCH   2   3
ATOM      3  O   UNL A   1      40.957  19.924  26.891  1.00  0.00    -0.376 OA
BRANCH   3   4
ATOM      4  C   UNL A   1      39.884  20.510  26.174  1.00  0.00     0.202 C 
BRANCH   4   5
ATOM      5  C   UNL A   1      39.712  22.033  26.137  1.00  0.00     0.261 C 
BRANCH   5   6
ATOM      6  O   UNL A   1      38.411  22.399  25.606  1.00  0.00    -0.460 OA
BRANCH   6   7
ATOM      7  C   UNL A   1      37.473  23.232  26.109  1.00  0.00     0.338 C 
ATOM      8  O   UNL A   1      37.820  24.285  26.639  1.00  0.00    -0.246 OA
BRANCH   7   9
ATOM      9  C   UNL A   1      36.026  22.956  25.992  1.00  0.00     0.087 C 
ATOM     10  C   UNL A   1      35.138  23.717  25.344  1.00  0.00     0.028 C 
ATOM     11  C   UNL A   1      35.620  21.511  26.213  1.00  0.00     0.316 C 
ATOM     12  C   UNL A   1      33.749  23.622  25.779  1.00  0.00     0.027 A 
ATOM     13  O   UNL A   1      34.227  21.367  26.621  1.00  0.00    -0.475 OA
ATOM     14  C   UNL A   1      33.384  22.438  26.446  1.00  0.00     0.128 A 
ATOM     15  C   UNL A   1      32.856  24.711  25.590  1.00  0.00     0.011 A 
ATOM     16  C   UNL A   1      32.116  22.318  26.986  1.00  0.00     0.049 A 
ATOM     17  C   UNL A   1      31.588  24.565  26.197  1.00  0.00     0.049 A 
ATOM     18  C   UNL A   1      31.232  23.389  26.883  1.00  0.00     0.025 A 
ATOM     19  Cl  UNL A   1      30.351  25.777  26.130  1.00  0.00    -0.084 Cl
BRANCH  11  20
ATOM     20  C   UNL A   1      35.910  20.690  24.931  1.00  0.00     0.430 C 
ATOM     21  F   UNL A   1      36.953  19.840  25.112  1.00  0.00    -0.167 F 
ATOM     22  F   UNL A   1      34.856  19.917  24.569  1.00  0.00    -0.167 F 
ATOM     23  F   UNL A   1      36.206  21.479  23.875  1.00  0.00    -0.167 F 
ENDBRANCH  11  20
BRANCH  15  24
ATOM     24  C   UNL A   1      33.231  25.915  24.766  1.00  0.00    -0.016 A 
ATOM     25  C   UNL A   1      33.549  27.509  25.556  1.00  0.00     0.009 A 
ATOM     26  C   UNL A   1      33.220  25.846  22.943  1.00  0.00     0.009 A 
ATOM     27  C   UNL A   1      33.745  29.022  24.593  1.00  0.00     0.001 A 
ATOM     28  C   UNL A   1      33.408  27.384  21.966  1.00  0.00     0.001 A 
ATOM     29  C   UNL A   1      33.690  28.961  22.801  1.00  0.00     0.000 A 
ENDBRANCH  15  24
ENDBRANCH   7   9
ENDBRANCH   6   7
ENDBRANCH   5   6
ENDBRANCH   4   5
ENDBRANCH   3   4
ENDBRANCH   2   3
ENDBRANCH   1   2
BRANCH   1  30
ATOM     30  O   UNL A   1      43.215  22.734  25.765  1.00  0.00    -0.376 OA
BRANCH  30  31
ATOM     31  C   UNL A   1      43.900  24.061  26.117  1.00  0.00     0.202 C 
BRANCH  31  32
ATOM     32  C   UNL A   1      43.877  25.335  25.215  1.00  0.00     0.261 C 
BRANCH  32  33
ATOM     33  O   UNL A   1      42.548  25.893  25.036  1.00  0.00    -0.460 OA
BRANCH  33  34
ATOM     34  C   UNL A   1      42.412  27.193  25.376  1.00  0.00     0.338 C 
ATOM     35  O   UNL A   1      42.246  28.143  24.611  1.00  0.00    -0.246 OA
BRANCH  34  36
ATOM     36  C   UNL A   1      42.344  27.363  26.840  1.00  0.00     0.060 A 
ATOM     37  C   UNL A   1      41.347  26.700  27.576  1.00  0.00     0.016 A 
ATOM     38  C   UNL A   1      43.118  28.346  27.454  1.00  0.00     0.016 A 
ATOM     39  C   UNL A   1      41.083  27.046  28.901  1.00  0.00     0.010 A 
ATOM     40  C   UNL A   1      42.849  28.699  28.780  1.00  0.00     0.010 A 
ATOM     41  C   UNL A   1      41.799  28.086  29.491  1.00  0.00    -0.014 A 
BRANCH  41  42
ATOM     42  C   UNL A   1      41.331  28.702  30.755  1.00  0.00     0.031 A 
ATOM     43  C   UNL A   1      40.160  29.638  30.694  1.00  0.00     0.074 A 
ATOM     44  C   UNL A   1      41.955  28.476  31.921  1.00  0.00     0.049 A 
ATOM     45  N   UNL A   1      39.744  30.510  31.573  1.00  0.00    -0.248 NA
ATOM     46  C   UNL A   1      39.356  29.586  29.462  1.00  0.00     0.031 C 
ATOM     47  C   UNL A   1      43.030  27.513  32.135  1.00  0.00     0.029 A 
ATOM     48  N   UNL A   1      41.790  29.087  33.139  1.00  0.00    -0.354 N 
ATOM     49  C   UNL A   1      38.660  31.148  30.983  1.00  0.00     0.074 A 
ATOM     50  C   UNL A   1      38.477  30.552  29.677  1.00  0.00     0.031 C 
ATOM     51  C   UNL A   1      43.470  27.635  33.400  1.00  0.00     0.029 A 
ATOM     52  C   UNL A   1      42.747  28.725  34.054  1.00  0.00     0.049 A 
ATOM     53  H   UNL A   1      41.061  29.718  33.336  1.00  0.00     0.167 HD
ATOM     54  C   UNL A   1      37.903  32.154  31.480  1.00  0.00     0.037 A 
ATOM     55  C   UNL A   1      43.048  29.262  35.252  1.00  0.00     0.037 A 
ATOM     56  C   UNL A   1      38.098  32.736  32.781  1.00  0.00     0.049 A 
ATOM     57  C   UNL A   1      42.257  30.438  35.760  1.00  0.00     0.074 A 
ATOM     58  C   UNL A   1      37.391  33.761  33.385  1.00  0.00     0.029 A 
ATOM     59  N   UNL A   1      39.082  32.345  33.678  1.00  0.00    -0.354 N 
ATOM     60  N   UNL A   1      41.259  31.074  35.190  1.00  0.00    -0.248 NA
ATOM     61  C   UNL A   1      42.639  30.982  37.071  1.00  0.00     0.031 C 
ATOM     62  C   UNL A   1      37.981  34.024  34.626  1.00  0.00     0.029 A 
ATOM     63  C   UNL A   1      39.018  33.125  34.820  1.00  0.00     0.049 A 
ATOM     64  H   UNL A   1      39.729  31.620  33.525  1.00  0.00     0.167 HD
ATOM     65  C   UNL A   1      40.878  32.070  36.082  1.00  0.00     0.074 A 
ATOM     66  C   UNL A   1      41.752  31.956  37.232  1.00  0.00     0.031 C 
ATOM     67  C   UNL A   1      39.890  32.990  35.962  1.00  0.00     0.037 A 
BRANCH  54  68
ATOM     68  C   UNL A   1      36.854  32.730  30.576  1.00  0.00     0.057 A 
ATOM     69  C   UNL A   1      35.502  32.380  30.676  1.00  0.00     0.134 A 
ATOM     70  C   UNL A   1      37.212  33.636  29.570  1.00  0.00     0.134 A 
ATOM     71  F   UNL A   1      35.093  31.502  31.606  1.00  0.00    -0.206 F 
ATOM     72  C   UNL A   1      34.550  32.879  29.784  1.00  0.00     0.040 A 
ATOM     73  C   UNL A   1      36.267  34.166  28.691  1.00  0.00     0.040 A 
ATOM     74  F   UNL A   1      38.490  34.019  29.420  1.00  0.00    -0.206 F 
ATOM     75  C   UNL A   1      34.933  33.778  28.789  1.00  0.00     0.006 A 
ENDBRANCH  54  68
BRANCH  55  76
ATOM     76  C   UNL A   1      44.194  28.722  36.026  1.00  0.00     0.057 A 
ATOM     77  C   UNL A   1      44.040  27.627  36.881  1.00  0.00     0.134 A 
ATOM     78  C   UNL A   1      45.475  29.276  35.908  1.00  0.00     0.134 A 
ATOM     79  F   UNL A   1      42.831  27.072  37.055  1.00  0.00    -0.206 F 
ATOM     80  C   UNL A   1      45.119  27.100  37.593  1.00  0.00     0.040 A 
ATOM     81  C   UNL A   1      46.568  28.744  36.595  1.00  0.00     0.040 A 
ATOM     82  F   UNL A   1      45.688  30.330  35.106  1.00  0.00    -0.206 F 
ATOM     83  C   UNL A   1      46.389  27.653  37.443  1.00  0.00     0.006 A 
ENDBRANCH  55  76
BRANCH  67  84
ATOM     84  C   UNL A   1      39.658  33.920  37.118  1.00  0.00     0.057 A 
ATOM     85  C   UNL A   1      40.168  35.223  37.138  1.00  0.00     0.134 A 
ATOM     86  C   UNL A   1      38.847  33.525  38.190  1.00  0.00     0.134 A 
ATOM     87  F   UNL A   1      40.959  35.659  36.147  1.00  0.00    -0.206 F 
ATOM     88  C   UNL A   1      39.887  36.099  38.190  1.00  0.00     0.040 A 
ATOM     89  C   UNL A   1      38.540  34.397  39.235  1.00  0.00     0.040 A 
ATOM     90  F   UNL A   1      38.318  32.292  38.227  1.00  0.00    -0.206 F 
ATOM     91  C   UNL A   1      39.063  35.689  39.237  1.00  0.00     0.006 A 
ENDBRANCH  67  84
ENDBRANCH  41  42
ENDBRANCH  34  36
ENDBRANCH  33  34
ENDBRANCH  32  33
ENDBRANCH  31  32
ENDBRANCH  30  31
ENDBRANCH   1  30
TORSDOF 19
ENDMDL
