MODEL 1
REMARK VINA RESULT:     -10.3      0.000      0.000
REMARK SMILES Cc1cc(NC(=O)c2sccc2/C=C/C(=O)OCCOCCOCCOC(=O)c2ccc(-c3c4nc(c(-c5c(F)cccc5F)c5ccc([nH]5)c(-c5c(F)cccc5F)c5nc(c(-c6c(F)cccc6F)c6ccc3[nH]6)C=C5)C=C4)cc2)ccn1
REMARK SMILES IDX 21 1 20 2 19 3 18 4 17 5 15 6 16 7 14 8 13 9 12 10 8 11 9 12
REMARK SMILES IDX 10 13 11 14 6 15 5 16 7 18 4 19 1 20 2 21 3 22 85 23 84 24
REMARK SMILES IDX 83 25 22 26 23 27 24 28 25 29 26 30 27 31 28 32 29 33 30 34
REMARK SMILES IDX 82 35 31 36 81 37 32 38 33 39 34 40 75 41 35 42 80 43 74 44
REMARK SMILES IDX 76 45 36 46 79 47 73 48 72 49 37 51 63 52 46 53 62 54 47 55
REMARK SMILES IDX 50 56 61 57 77 58 48 59 49 60 60 62 78 63 51 64 38 65 39 66
REMARK SMILES IDX 44 67 40 68 41 69 43 70 45 71 42 72 64 73 65 74 70 75 66 76
REMARK SMILES IDX 67 77 69 78 71 79 68 80 52 81 53 82 58 83 54 84 55 85 57 86
REMARK SMILES IDX 59 87 56 88
REMARK H PARENT 5 17 76 50 50 61
REMARK Flexibility Score: inf
ROOT
ATOM      1  C   UNL A   1      40.258  21.061  26.386  1.00  0.00     0.188 C 
ENDROOT
BRANCH   1   2
ATOM      2  O   UNL A   1      38.935  21.561  26.326  1.00  0.00    -0.376 OA
BRANCH   2   3
ATOM      3  C   UNL A   1      38.679  22.953  26.444  1.00  0.00     0.202 C 
BRANCH   3   4
ATOM      4  C   UNL A   1      37.796  23.710  25.441  1.00  0.00     0.261 C 
BRANCH   4   5
ATOM      5  O   UNL A   1      36.783  22.932  24.792  1.00  0.00    -0.460 OA
BRANCH   5   6
ATOM      6  C   UNL A   1      35.619  22.821  25.477  1.00  0.00     0.330 C 
ATOM      7  O   UNL A   1      35.307  21.908  26.228  1.00  0.00    -0.247 OA
BRANCH   6   8
ATOM      8  C   UNL A   1      34.760  24.014  25.337  1.00  0.00     0.094 C 
ATOM      9  C   UNL A   1      33.849  24.450  26.224  1.00  0.00     0.017 C 
BRANCH   9  10
ATOM     10  C   UNL A   1      33.152  25.698  26.087  1.00  0.00    -0.002 A 
ATOM     11  C   UNL A   1      31.772  25.795  25.947  1.00  0.00     0.099 A 
ATOM     12  S   UNL A   1      31.275  27.436  25.803  1.00  0.00    -0.138 S 
ATOM     13  C   UNL A   1      32.864  28.012  26.033  1.00  0.00     0.066 A 
ATOM     14  C   UNL A   1      33.774  26.986  26.146  1.00  0.00     0.020 A 
BRANCH  11  15
ATOM     15  C   UNL A   1      30.735  24.773  25.899  1.00  0.00     0.266 C 
ATOM     16  N   UNL A   1      30.559  23.998  24.766  1.00  0.00    -0.321 N 
ATOM     17  H   UNL A   1      29.698  23.520  24.736  1.00  0.00     0.170 HD
ATOM     18  O   UNL A   1      29.926  24.602  26.815  1.00  0.00    -0.268 OA
BRANCH  16  19
ATOM     19  C   UNL A   1      31.384  23.770  23.651  1.00  0.00     0.044 A 
ATOM     20  C   UNL A   1      32.791  25.840  20.814  1.00  0.00     0.067 C 
ATOM     21  C   UNL A   1      32.481  24.691  21.725  1.00  0.00     0.039 A 
ATOM     22  C   UNL A   1      31.567  24.832  22.764  1.00  0.00     0.049 A 
ATOM     23  N   UNL A   1      33.190  23.557  21.532  1.00  0.00    -0.261 NA
ATOM     24  C   UNL A   1      32.950  22.523  22.361  1.00  0.00     0.113 A 
ATOM     25  C   UNL A   1      32.048  22.571  23.408  1.00  0.00     0.046 A 
ENDBRANCH  16  19
ENDBRANCH  11  15
ENDBRANCH   9  10
ENDBRANCH   6   8
ENDBRANCH   5   6
ENDBRANCH   4   5
ENDBRANCH   3   4
ENDBRANCH   2   3
ENDBRANCH   1   2
BRANCH   1  26
ATOM     26  C   UNL A   1      41.438  21.907  25.869  1.00  0.00     0.188 C 
BRANCH  26  27
ATOM     27  O   UNL A   1      42.714  21.602  26.369  1.00  0.00    -0.376 OA
BRANCH  27  28
ATOM     28  C   UNL A   1      43.847  21.687  25.521  1.00  0.00     0.202 C 
BRANCH  28  29
ATOM     29  C   UNL A   1      44.149  22.815  24.508  1.00  0.00     0.261 C 
BRANCH  29  30
ATOM     30  O   UNL A   1      43.562  24.104  24.713  1.00  0.00    -0.460 OA
BRANCH  30  31
ATOM     31  C   UNL A   1      44.380  25.056  25.219  1.00  0.00     0.338 C 
ATOM     32  O   UNL A   1      45.487  25.380  24.804  1.00  0.00    -0.246 OA
BRANCH  31  33
ATOM     33  C   UNL A   1      43.650  25.808  26.255  1.00  0.00     0.060 A 
ATOM     34  C   UNL A   1      44.005  27.143  26.502  1.00  0.00     0.016 A 
ATOM     35  C   UNL A   1      42.639  25.195  26.994  1.00  0.00     0.016 A 
ATOM     36  C   UNL A   1      43.358  27.863  27.506  1.00  0.00     0.010 A 
ATOM     37  C   UNL A   1      42.010  25.911  28.016  1.00  0.00     0.010 A 
ATOM     38  C   UNL A   1      42.384  27.239  28.295  1.00  0.00    -0.014 A 
BRANCH  38  39
ATOM     39  C   UNL A   1      41.883  27.904  29.523  1.00  0.00     0.031 A 
ATOM     40  C   UNL A   1      40.645  28.751  29.425  1.00  0.00     0.074 A 
ATOM     41  C   UNL A   1      42.513  27.764  30.702  1.00  0.00     0.049 A 
ATOM     42  N   UNL A   1      40.073  29.498  30.334  1.00  0.00    -0.248 NA
ATOM     43  C   UNL A   1      39.962  28.758  28.121  1.00  0.00     0.031 C 
ATOM     44  C   UNL A   1      43.697  26.940  30.939  1.00  0.00     0.029 A 
ATOM     45  N   UNL A   1      42.249  28.334  31.924  1.00  0.00    -0.354 N 
ATOM     46  C   UNL A   1      38.973  30.074  29.710  1.00  0.00     0.074 A 
ATOM     47  C   UNL A   1      38.971  29.610  28.339  1.00  0.00     0.031 C 
ATOM     48  C   UNL A   1      44.070  27.076  32.225  1.00  0.00     0.029 A 
ATOM     49  C   UNL A   1      43.176  28.023  32.889  1.00  0.00     0.049 A 
ATOM     50  H   UNL A   1      41.468  28.911  32.091  1.00  0.00     0.167 HD
ATOM     51  C   UNL A   1      38.048  30.912  30.233  1.00  0.00     0.037 A 
ATOM     52  C   UNL A   1      43.304  28.478  34.151  1.00  0.00     0.037 A 
ATOM     53  C   UNL A   1      38.052  31.374  31.595  1.00  0.00     0.049 A 
ATOM     54  C   UNL A   1      42.302  29.469  34.689  1.00  0.00     0.074 A 
ATOM     55  C   UNL A   1      37.144  32.207  32.224  1.00  0.00     0.029 A 
ATOM     56  N   UNL A   1      39.017  31.051  32.536  1.00  0.00    -0.354 N 
ATOM     57  N   UNL A   1      41.250  29.987  34.101  1.00  0.00    -0.248 NA
ATOM     58  C   UNL A   1      42.504  29.937  36.068  1.00  0.00     0.031 C 
ATOM     59  C   UNL A   1      37.589  32.433  33.529  1.00  0.00     0.029 A 
ATOM     60  C   UNL A   1      38.742  31.690  33.733  1.00  0.00     0.049 A 
ATOM     61  H   UNL A   1      39.784  30.455  32.376  1.00  0.00     0.167 HD
ATOM     62  C   UNL A   1      40.649  30.811  35.047  1.00  0.00     0.074 A 
ATOM     63  C   UNL A   1      41.448  30.716  36.250  1.00  0.00     0.031 C 
ATOM     64  C   UNL A   1      39.535  31.575  34.930  1.00  0.00     0.037 A 
BRANCH  51  65
ATOM     65  C   UNL A   1      36.967  31.410  29.318  1.00  0.00     0.057 A 
ATOM     66  C   UNL A   1      35.875  30.612  28.954  1.00  0.00     0.134 A 
ATOM     67  C   UNL A   1      37.001  32.721  28.826  1.00  0.00     0.134 A 
ATOM     68  F   UNL A   1      35.790  29.341  29.378  1.00  0.00    -0.206 F 
ATOM     69  C   UNL A   1      34.865  31.095  28.120  1.00  0.00     0.040 A 
ATOM     70  C   UNL A   1      35.984  33.224  28.015  1.00  0.00     0.040 A 
ATOM     71  F   UNL A   1      38.017  33.540  29.139  1.00  0.00    -0.206 F 
ATOM     72  C   UNL A   1      34.913  32.408  27.655  1.00  0.00     0.006 A 
ENDBRANCH  51  65
BRANCH  52  73
ATOM     73  C   UNL A   1      44.438  28.025  34.999  1.00  0.00     0.057 A 
ATOM     74  C   UNL A   1      44.317  26.916  35.844  1.00  0.00     0.134 A 
ATOM     75  C   UNL A   1      45.656  28.716  35.014  1.00  0.00     0.134 A 
ATOM     76  F   UNL A   1      43.166  26.229  35.895  1.00  0.00    -0.206 F 
ATOM     77  C   UNL A   1      45.356  26.524  36.690  1.00  0.00     0.040 A 
ATOM     78  C   UNL A   1      46.713  28.317  35.833  1.00  0.00     0.040 A 
ATOM     79  F   UNL A   1      45.836  29.789  34.230  1.00  0.00    -0.206 F 
ATOM     80  C   UNL A   1      46.561  27.223  36.682  1.00  0.00     0.006 A 
ENDBRANCH  52  73
BRANCH  64  81
ATOM     81  C   UNL A   1      39.078  32.328  36.147  1.00  0.00     0.057 A 
ATOM     82  C   UNL A   1      39.472  33.649  36.398  1.00  0.00     0.134 A 
ATOM     83  C   UNL A   1      38.189  31.738  37.055  1.00  0.00     0.134 A 
ATOM     84  F   UNL A   1      40.330  34.271  35.575  1.00  0.00    -0.206 F 
ATOM     85  C   UNL A   1      39.018  34.345  37.521  1.00  0.00     0.040 A 
ATOM     86  C   UNL A   1      37.705  32.433  38.163  1.00  0.00     0.040 A 
ATOM     87  F   UNL A   1      37.761  30.479  36.869  1.00  0.00    -0.206 F 
ATOM     88  C   UNL A   1      38.125  33.739  38.402  1.00  0.00     0.006 A 
ENDBRANCH  64  81
ENDBRANCH  38  39
ENDBRANCH  31  33
ENDBRANCH  30  31
ENDBRANCH  29  30
ENDBRANCH  28  29
ENDBRANCH  27  28
ENDBRANCH  26  27
ENDBRANCH   1  26
TORSDOF 20
ENDMDL
MODEL 2
REMARK VINA RESULT:     -10.1      1.027      6.165
REMARK SMILES Cc1cc(NC(=O)c2sccc2/C=C/C(=O)OCCOCCOCCOC(=O)c2ccc(-c3c4nc(c(-c5c(F)cccc5F)c5ccc([nH]5)c(-c5c(F)cccc5F)c5nc(c(-c6c(F)cccc6F)c6ccc3[nH]6)C=C5)C=C4)cc2)ccn1
REMARK SMILES IDX 21 1 20 2 19 3 18 4 17 5 15 6 16 7 14 8 13 9 12 10 8 11 9 12
REMARK SMILES IDX 10 13 11 14 6 15 5 16 7 18 4 19 1 20 2 21 3 22 85 23 84 24
REMARK SMILES IDX 83 25 22 26 23 27 24 28 25 29 26 30 27 31 28 32 29 33 30 34
REMARK SMILES IDX 82 35 31 36 81 37 32 38 33 39 34 40 75 41 35 42 80 43 74 44
REMARK SMILES IDX 76 45 36 46 79 47 73 48 72 49 37 51 63 52 46 53 62 54 47 55
REMARK SMILES IDX 50 56 61 57 77 58 48 59 49 60 60 62 78 63 51 64 38 65 39 66
REMARK SMILES IDX 44 67 40 68 41 69 43 70 45 71 42 72 64 73 65 74 70 75 66 76
REMARK SMILES IDX 67 77 69 78 71 79 68 80 52 81 53 82 58 83 54 84 55 85 57 86
REMARK SMILES IDX 59 87 56 88
REMARK H PARENT 5 17 76 50 50 61
REMARK Flexibility Score: inf
ROOT
ATOM      1  C   UNL A   1      40.367  21.154  26.531  1.00  0.00     0.188 C 
ENDROOT
BRANCH   1   2
ATOM      2  O   UNL A   1      39.266  21.989  26.839  1.00  0.00    -0.376 OA
BRANCH   2   3
ATOM      3  C   UNL A   1      39.108  23.247  26.200  1.00  0.00     0.202 C 
BRANCH   3   4
ATOM      4  C   UNL A   1      37.807  24.057  26.299  1.00  0.00     0.261 C 
BRANCH   4   5
ATOM      5  O   UNL A   1      36.867  23.858  25.236  1.00  0.00    -0.460 OA
BRANCH   5   6
ATOM      6  C   UNL A   1      35.571  23.777  25.624  1.00  0.00     0.330 C 
ATOM      7  O   UNL A   1      35.095  22.942  26.379  1.00  0.00    -0.247 OA
BRANCH   6   8
ATOM      8  C   UNL A   1      34.759  24.910  25.138  1.00  0.00     0.094 C 
ATOM      9  C   UNL A   1      34.264  25.914  25.882  1.00  0.00     0.017 C 
BRANCH   9  10
ATOM     10  C   UNL A   1      33.603  27.059  25.320  1.00  0.00    -0.002 A 
ATOM     11  C   UNL A   1      32.318  27.453  25.672  1.00  0.00     0.099 A 
ATOM     12  S   UNL A   1      31.838  28.859  24.804  1.00  0.00    -0.138 S 
ATOM     13  C   UNL A   1      33.362  29.001  24.052  1.00  0.00     0.066 A 
ATOM     14  C   UNL A   1      34.204  27.967  24.390  1.00  0.00     0.020 A 
BRANCH  11  15
ATOM     15  C   UNL A   1      31.360  26.884  26.611  1.00  0.00     0.266 C 
ATOM     16  N   UNL A   1      30.692  25.709  26.314  1.00  0.00    -0.321 N 
ATOM     17  H   UNL A   1      29.904  25.539  26.880  1.00  0.00     0.170 HD
ATOM     18  O   UNL A   1      31.040  27.449  27.660  1.00  0.00    -0.268 OA
BRANCH  16  19
ATOM     19  C   UNL A   1      30.935  24.713  25.351  1.00  0.00     0.044 A 
ATOM     20  C   UNL A   1      32.152  21.131  25.360  1.00  0.00     0.067 C 
ATOM     21  C   UNL A   1      31.641  22.463  24.902  1.00  0.00     0.039 A 
ATOM     22  C   UNL A   1      31.510  23.522  25.796  1.00  0.00     0.049 A 
ATOM     23  N   UNL A   1      31.244  22.550  23.613  1.00  0.00    -0.261 NA
ATOM     24  C   UNL A   1      30.751  23.729  23.189  1.00  0.00     0.113 A 
ATOM     25  C   UNL A   1      30.602  24.837  24.005  1.00  0.00     0.046 A 
ENDBRANCH  16  19
ENDBRANCH  11  15
ENDBRANCH   9  10
ENDBRANCH   6   8
ENDBRANCH   5   6
ENDBRANCH   4   5
ENDBRANCH   3   4
ENDBRANCH   2   3
ENDBRANCH   1   2
BRANCH   1  26
ATOM     26  C   UNL A   1      41.619  21.732  25.841  1.00  0.00     0.188 C 
BRANCH  26  27
ATOM     27  O   UNL A   1      42.869  21.352  26.355  1.00  0.00    -0.376 OA
BRANCH  27  28
ATOM     28  C   UNL A   1      44.016  21.378  25.522  1.00  0.00     0.202 C 
BRANCH  28  29
ATOM     29  C   UNL A   1      44.361  22.460  24.474  1.00  0.00     0.261 C 
BRANCH  29  30
ATOM     30  O   UNL A   1      43.781  23.762  24.608  1.00  0.00    -0.460 OA
BRANCH  30  31
ATOM     31  C   UNL A   1      44.601  24.734  25.069  1.00  0.00     0.338 C 
ATOM     32  O   UNL A   1      45.729  25.004  24.671  1.00  0.00    -0.246 OA
BRANCH  31  33
ATOM     33  C   UNL A   1      43.852  25.578  26.017  1.00  0.00     0.060 A 
ATOM     34  C   UNL A   1      44.021  26.970  25.969  1.00  0.00     0.016 A 
ATOM     35  C   UNL A   1      43.007  24.999  26.963  1.00  0.00     0.016 A 
ATOM     36  C   UNL A   1      43.355  27.786  26.882  1.00  0.00     0.010 A 
ATOM     37  C   UNL A   1      42.361  25.818  27.894  1.00  0.00     0.010 A 
ATOM     38  C   UNL A   1      42.553  27.212  27.875  1.00  0.00    -0.014 A 
BRANCH  38  39
ATOM     39  C   UNL A   1      42.057  28.040  29.002  1.00  0.00     0.031 A 
ATOM     40  C   UNL A   1      42.804  27.995  30.307  1.00  0.00     0.074 A 
ATOM     41  C   UNL A   1      40.966  28.814  28.876  1.00  0.00     0.049 A 
ATOM     42  N   UNL A   1      42.512  28.555  31.452  1.00  0.00    -0.248 NA
ATOM     43  C   UNL A   1      44.046  27.205  30.320  1.00  0.00     0.031 C 
ATOM     44  C   UNL A   1      40.178  28.978  27.655  1.00  0.00     0.029 A 
ATOM     45  N   UNL A   1      40.320  29.598  29.801  1.00  0.00    -0.354 N 
ATOM     46  C   UNL A   1      43.524  28.176  32.325  1.00  0.00     0.074 A 
ATOM     47  C   UNL A   1      44.425  27.318  31.585  1.00  0.00     0.031 C 
ATOM     48  C   UNL A   1      39.141  29.794  27.914  1.00  0.00     0.029 A 
ATOM     49  C   UNL A   1      39.170  30.179  29.325  1.00  0.00     0.049 A 
ATOM     50  H   UNL A   1      40.651  29.730  30.720  1.00  0.00     0.167 HD
ATOM     51  C   UNL A   1      43.690  28.513  33.626  1.00  0.00     0.037 A 
ATOM     52  C   UNL A   1      38.235  30.909  29.964  1.00  0.00     0.037 A 
ATOM     53  C   UNL A   1      42.793  29.364  34.361  1.00  0.00     0.049 A 
ATOM     54  C   UNL A   1      38.404  31.211  31.432  1.00  0.00     0.074 A 
ATOM     55  C   UNL A   1      42.889  29.782  35.677  1.00  0.00     0.029 A 
ATOM     56  N   UNL A   1      41.631  29.918  33.848  1.00  0.00    -0.354 N 
ATOM     57  N   UNL A   1      39.377  30.872  32.242  1.00  0.00    -0.248 NA
ATOM     58  C   UNL A   1      37.342  32.000  32.074  1.00  0.00     0.031 C 
ATOM     59  C   UNL A   1      41.756  30.543  35.977  1.00  0.00     0.029 A 
ATOM     60  C   UNL A   1      40.986  30.652  34.829  1.00  0.00     0.049 A 
ATOM     61  H   UNL A   1      41.312  29.807  32.924  1.00  0.00     0.167 HD
ATOM     62  C   UNL A   1      39.064  31.434  33.475  1.00  0.00     0.074 A 
ATOM     63  C   UNL A   1      37.815  32.144  33.304  1.00  0.00     0.031 C 
ATOM     64  C   UNL A   1      39.750  31.369  34.643  1.00  0.00     0.037 A 
BRANCH  51  65
ATOM     65  C   UNL A   1      44.873  27.935  34.347  1.00  0.00     0.057 A 
ATOM     66  C   UNL A   1      46.126  28.560  34.340  1.00  0.00     0.134 A 
ATOM     67  C   UNL A   1      44.743  26.756  35.092  1.00  0.00     0.134 A 
ATOM     68  F   UNL A   1      46.321  29.684  33.631  1.00  0.00    -0.206 F 
ATOM     69  C   UNL A   1      47.212  28.024  35.033  1.00  0.00     0.040 A 
ATOM     70  C   UNL A   1      45.813  26.226  35.813  1.00  0.00     0.040 A 
ATOM     71  F   UNL A   1      43.569  26.109  35.145  1.00  0.00    -0.206 F 
ATOM     72  C   UNL A   1      47.055  26.857  35.780  1.00  0.00     0.006 A 
ENDBRANCH  51  65
BRANCH  52  73
ATOM     73  C   UNL A   1      37.034  31.392  29.233  1.00  0.00     0.057 A 
ATOM     74  C   UNL A   1      35.911  30.576  29.059  1.00  0.00     0.134 A 
ATOM     75  C   UNL A   1      36.998  32.669  28.657  1.00  0.00     0.134 A 
ATOM     76  F   UNL A   1      35.895  29.333  29.563  1.00  0.00    -0.206 F 
ATOM     77  C   UNL A   1      34.806  31.000  28.319  1.00  0.00     0.040 A 
ATOM     78  C   UNL A   1      35.888  33.117  27.940  1.00  0.00     0.040 A 
ATOM     79  F   UNL A   1      38.043  33.500  28.784  1.00  0.00    -0.206 F 
ATOM     80  C   UNL A   1      34.790  32.277  27.760  1.00  0.00     0.006 A 
ENDBRANCH  52  73
BRANCH  64  81
ATOM     81  C   UNL A   1      39.199  32.129  35.816  1.00  0.00     0.057 A 
ATOM     82  C   UNL A   1      39.524  33.471  36.055  1.00  0.00     0.134 A 
ATOM     83  C   UNL A   1      38.290  31.521  36.692  1.00  0.00     0.134 A 
ATOM     84  F   UNL A   1      40.397  34.111  35.261  1.00  0.00    -0.206 F 
ATOM     85  C   UNL A   1      38.984  34.171  37.136  1.00  0.00     0.040 A 
ATOM     86  C   UNL A   1      37.720  32.220  37.757  1.00  0.00     0.040 A 
ATOM     87  F   UNL A   1      37.924  30.242  36.515  1.00  0.00    -0.206 F 
ATOM     88  C   UNL A   1      38.073  33.548  37.984  1.00  0.00     0.006 A 
ENDBRANCH  64  81
ENDBRANCH  38  39
ENDBRANCH  31  33
ENDBRANCH  30  31
ENDBRANCH  29  30
ENDBRANCH  28  29
ENDBRANCH  27  28
ENDBRANCH  26  27
ENDBRANCH   1  26
TORSDOF 20
ENDMDL
MODEL 3
REMARK VINA RESULT:     -10.1      1.307      2.056
REMARK SMILES Cc1cc(NC(=O)c2sccc2/C=C/C(=O)OCCOCCOCCOC(=O)c2ccc(-c3c4nc(c(-c5c(F)cccc5F)c5ccc([nH]5)c(-c5c(F)cccc5F)c5nc(c(-c6c(F)cccc6F)c6ccc3[nH]6)C=C5)C=C4)cc2)ccn1
REMARK SMILES IDX 21 1 20 2 19 3 18 4 17 5 15 6 16 7 14 8 13 9 12 10 8 11 9 12
REMARK SMILES IDX 10 13 11 14 6 15 5 16 7 18 4 19 1 20 2 21 3 22 85 23 84 24
REMARK SMILES IDX 83 25 22 26 23 27 24 28 25 29 26 30 27 31 28 32 29 33 30 34
REMARK SMILES IDX 82 35 31 36 81 37 32 38 33 39 34 40 75 41 35 42 80 43 74 44
REMARK SMILES IDX 76 45 36 46 79 47 73 48 72 49 37 51 63 52 46 53 62 54 47 55
REMARK SMILES IDX 50 56 61 57 77 58 48 59 49 60 60 62 78 63 51 64 38 65 39 66
REMARK SMILES IDX 44 67 40 68 41 69 43 70 45 71 42 72 64 73 65 74 70 75 66 76
REMARK SMILES IDX 67 77 69 78 71 79 68 80 52 81 53 82 58 83 54 84 55 85 57 86
REMARK SMILES IDX 59 87 56 88
REMARK H PARENT 5 17 76 50 50 61
REMARK Flexibility Score: inf
ROOT
ATOM      1  C   UNL A   1      40.842  21.064  26.769  1.00  0.00     0.188 C 
ENDROOT
BRANCH   1   2
ATOM      2  O   UNL A   1      39.647  21.740  27.115  1.00  0.00    -0.376 OA
BRANCH   2   3
ATOM      3  C   UNL A   1      39.490  23.123  26.838  1.00  0.00     0.202 C 
BRANCH   3   4
ATOM      4  C   UNL A   1      38.135  23.730  26.444  1.00  0.00     0.261 C 
BRANCH   4   5
ATOM      5  O   UNL A   1      37.848  23.752  25.040  1.00  0.00    -0.460 OA
BRANCH   5   6
ATOM      6  C   UNL A   1      37.045  22.752  24.603  1.00  0.00     0.330 C 
ATOM      7  O   UNL A   1      37.384  21.599  24.383  1.00  0.00    -0.247 OA
BRANCH   6   8
ATOM      8  C   UNL A   1      35.626  23.152  24.529  1.00  0.00     0.094 C 
ATOM      9  C   UNL A   1      34.583  22.349  24.257  1.00  0.00     0.017 C 
BRANCH   9  10
ATOM     10  C   UNL A   1      33.216  22.778  24.343  1.00  0.00    -0.002 A 
ATOM     11  C   UNL A   1      32.599  23.575  23.385  1.00  0.00     0.099 A 
ATOM     12  S   UNL A   1      30.963  23.902  23.805  1.00  0.00    -0.138 S 
ATOM     13  C   UNL A   1      31.045  22.906  25.188  1.00  0.00     0.066 A 
ATOM     14  C   UNL A   1      32.306  22.388  25.377  1.00  0.00     0.020 A 
BRANCH  11  15
ATOM     15  C   UNL A   1      33.102  24.151  22.145  1.00  0.00     0.266 C 
ATOM     16  N   UNL A   1      33.113  25.522  21.957  1.00  0.00    -0.321 N 
ATOM     17  H   UNL A   1      33.233  25.799  21.020  1.00  0.00     0.170 HD
ATOM     18  O   UNL A   1      33.460  23.461  21.186  1.00  0.00    -0.268 OA
BRANCH  16  19
ATOM     19  C   UNL A   1      32.984  26.591  22.862  1.00  0.00     0.044 A 
ATOM     20  C   UNL A   1      30.346  29.171  23.697  1.00  0.00     0.067 C 
ATOM     21  C   UNL A   1      31.610  28.367  23.711  1.00  0.00     0.039 A 
ATOM     22  C   UNL A   1      31.842  27.386  22.752  1.00  0.00     0.049 A 
ATOM     23  N   UNL A   1      32.458  28.590  24.739  1.00  0.00    -0.261 NA
ATOM     24  C   UNL A   1      33.586  27.855  24.789  1.00  0.00     0.113 A 
ATOM     25  C   UNL A   1      33.903  26.871  23.869  1.00  0.00     0.046 A 
ENDBRANCH  16  19
ENDBRANCH  11  15
ENDBRANCH   9  10
ENDBRANCH   6   8
ENDBRANCH   5   6
ENDBRANCH   4   5
ENDBRANCH   3   4
ENDBRANCH   2   3
ENDBRANCH   1   2
BRANCH   1  26
ATOM     26  C   UNL A   1      41.912  21.759  25.906  1.00  0.00     0.188 C 
BRANCH  26  27
ATOM     27  O   UNL A   1      43.255  21.434  26.160  1.00  0.00    -0.376 OA
BRANCH  27  28
ATOM     28  C   UNL A   1      44.244  21.688  25.178  1.00  0.00     0.202 C 
BRANCH  28  29
ATOM     29  C   UNL A   1      44.351  22.950  24.292  1.00  0.00     0.261 C 
BRANCH  29  30
ATOM     30  O   UNL A   1      43.669  24.141  24.700  1.00  0.00    -0.460 OA
BRANCH  30  31
ATOM     31  C   UNL A   1      44.448  25.140  25.175  1.00  0.00     0.338 C 
ATOM     32  O   UNL A   1      45.528  25.513  24.731  1.00  0.00    -0.246 OA
BRANCH  31  33
ATOM     33  C   UNL A   1      43.705  25.869  26.217  1.00  0.00     0.060 A 
ATOM     34  C   UNL A   1      44.008  27.218  26.451  1.00  0.00     0.016 A 
ATOM     35  C   UNL A   1      42.731  25.219  26.977  1.00  0.00     0.016 A 
ATOM     36  C   UNL A   1      43.347  27.919  27.460  1.00  0.00     0.010 A 
ATOM     37  C   UNL A   1      42.089  25.916  28.004  1.00  0.00     0.010 A 
ATOM     38  C   UNL A   1      42.413  27.260  28.268  1.00  0.00    -0.014 A 
BRANCH  38  39
ATOM     39  C   UNL A   1      41.903  27.913  29.500  1.00  0.00     0.031 A 
ATOM     40  C   UNL A   1      40.658  28.750  29.405  1.00  0.00     0.074 A 
ATOM     41  C   UNL A   1      42.532  27.769  30.679  1.00  0.00     0.049 A 
ATOM     42  N   UNL A   1      40.079  29.486  30.318  1.00  0.00    -0.248 NA
ATOM     43  C   UNL A   1      39.978  28.761  28.099  1.00  0.00     0.031 C 
ATOM     44  C   UNL A   1      43.722  26.954  30.913  1.00  0.00     0.029 A 
ATOM     45  N   UNL A   1      42.260  28.329  31.904  1.00  0.00    -0.354 N 
ATOM     46  C   UNL A   1      38.976  30.058  29.695  1.00  0.00     0.074 A 
ATOM     47  C   UNL A   1      38.980  29.604  28.321  1.00  0.00     0.031 C 
ATOM     48  C   UNL A   1      44.092  27.084  32.200  1.00  0.00     0.029 A 
ATOM     49  C   UNL A   1      43.188  28.019  32.869  1.00  0.00     0.049 A 
ATOM     50  H   UNL A   1      41.475  28.899  32.074  1.00  0.00     0.167 HD
ATOM     51  C   UNL A   1      38.042  30.885  30.222  1.00  0.00     0.037 A 
ATOM     52  C   UNL A   1      43.309  28.466  34.134  1.00  0.00     0.037 A 
ATOM     53  C   UNL A   1      38.040  31.337  31.587  1.00  0.00     0.049 A 
ATOM     54  C   UNL A   1      42.298  29.445  34.677  1.00  0.00     0.074 A 
ATOM     55  C   UNL A   1      37.124  32.158  32.221  1.00  0.00     0.029 A 
ATOM     56  N   UNL A   1      39.006  31.015  32.528  1.00  0.00    -0.354 N 
ATOM     57  N   UNL A   1      41.244  29.959  34.091  1.00  0.00    -0.248 NA
ATOM     58  C   UNL A   1      42.495  29.905  36.060  1.00  0.00     0.031 C 
ATOM     59  C   UNL A   1      37.565  32.379  33.528  1.00  0.00     0.029 A 
ATOM     60  C   UNL A   1      38.723  31.644  33.729  1.00  0.00     0.049 A 
ATOM     61  H   UNL A   1      39.778  30.427  32.366  1.00  0.00     0.167 HD
ATOM     62  C   UNL A   1      40.635  30.771  35.041  1.00  0.00     0.074 A 
ATOM     63  C   UNL A   1      41.431  30.674  36.245  1.00  0.00     0.031 C 
ATOM     64  C   UNL A   1      39.515  31.527  34.927  1.00  0.00     0.037 A 
BRANCH  51  65
ATOM     65  C   UNL A   1      36.960  31.380  29.308  1.00  0.00     0.057 A 
ATOM     66  C   UNL A   1      35.868  30.581  28.948  1.00  0.00     0.134 A 
ATOM     67  C   UNL A   1      36.992  32.691  28.815  1.00  0.00     0.134 A 
ATOM     68  F   UNL A   1      35.785  29.311  29.373  1.00  0.00    -0.206 F 
ATOM     69  C   UNL A   1      34.856  31.061  28.115  1.00  0.00     0.040 A 
ATOM     70  C   UNL A   1      35.972  33.192  28.005  1.00  0.00     0.040 A 
ATOM     71  F   UNL A   1      38.007  33.512  29.125  1.00  0.00    -0.206 F 
ATOM     72  C   UNL A   1      34.902  32.374  27.648  1.00  0.00     0.006 A 
ENDBRANCH  51  65
BRANCH  52  73
ATOM     73  C   UNL A   1      44.445  28.016  34.982  1.00  0.00     0.057 A 
ATOM     74  C   UNL A   1      44.341  26.884  35.797  1.00  0.00     0.134 A 
ATOM     75  C   UNL A   1      45.648  28.733  35.026  1.00  0.00     0.134 A 
ATOM     76  F   UNL A   1      43.205  26.170  35.820  1.00  0.00    -0.206 F 
ATOM     77  C   UNL A   1      45.380  26.492  36.643  1.00  0.00     0.040 A 
ATOM     78  C   UNL A   1      46.706  28.336  35.845  1.00  0.00     0.040 A 
ATOM     79  F   UNL A   1      45.812  29.830  34.272  1.00  0.00    -0.206 F 
ATOM     80  C   UNL A   1      46.570  27.218  36.665  1.00  0.00     0.006 A 
ENDBRANCH  52  73
BRANCH  64  81
ATOM     81  C   UNL A   1      39.049  32.268  36.148  1.00  0.00     0.057 A 
ATOM     82  C   UNL A   1      39.427  33.592  36.406  1.00  0.00     0.134 A 
ATOM     83  C   UNL A   1      38.168  31.662  37.053  1.00  0.00     0.134 A 
ATOM     84  F   UNL A   1      40.276  34.229  35.586  1.00  0.00    -0.206 F 
ATOM     85  C   UNL A   1      38.965  34.276  37.533  1.00  0.00     0.040 A 
ATOM     86  C   UNL A   1      37.676  32.345  38.166  1.00  0.00     0.040 A 
ATOM     87  F   UNL A   1      37.755  30.399  36.860  1.00  0.00    -0.206 F 
ATOM     88  C   UNL A   1      38.080  33.655  38.411  1.00  0.00     0.006 A 
ENDBRANCH  64  81
ENDBRANCH  38  39
ENDBRANCH  31  33
ENDBRANCH  30  31
ENDBRANCH  29  30
ENDBRANCH  28  29
ENDBRANCH  27  28
ENDBRANCH  26  27
ENDBRANCH   1  26
TORSDOF 20
ENDMDL
