MODEL 1
REMARK VINA RESULT:     -10.9      0.000      0.000
REMARK SMILES CC(C)(C)OC(=O)N1CCN(c2nc3ccccc3s2)[C@H](C(=O)OCCOCCOCCOC(=O)c2ccc(-c3c4nc(c(-c5c(F)cccc5F)c5ccc([nH]5)c(-c5c(F)cccc5F)c5nc(c(-c6c(F)cccc6F)c6ccc3[nH]6)C=C5)C=C4)cc2)C1
REMARK SMILES IDX 28 1 27 2 26 3 25 4 24 5 22 6 23 7 21 8 8 9 9 10 90 11 10 12
REMARK SMILES IDX 11 13 6 14 7 15 5 16 2 17 1 18 3 19 4 20 12 21 13 22 20 23
REMARK SMILES IDX 14 24 19 25 15 26 18 27 16 28 17 29 29 30 30 31 31 32 32 33
REMARK SMILES IDX 33 34 34 35 35 36 36 37 37 38 89 39 38 40 88 41 39 42 40 43
REMARK SMILES IDX 41 44 82 45 42 46 87 47 81 48 83 49 43 50 86 51 80 52 79 53
REMARK SMILES IDX 44 55 70 56 53 57 69 58 54 59 57 60 68 61 84 62 55 63 56 64
REMARK SMILES IDX 67 66 85 67 58 68 45 69 46 70 51 71 47 72 48 73 50 74 52 75
REMARK SMILES IDX 49 76 71 77 72 78 77 79 73 80 74 81 76 82 78 83 75 84 59 85
REMARK SMILES IDX 60 86 65 87 61 88 62 89 64 90 66 91 63 92
REMARK H PARENT 83 54 57 65
REMARK Flexibility Score: inf
ROOT
ATOM      1  C   UNL A   1      34.063  32.564  28.038  1.00  0.00     0.188 C 
ENDROOT
BRANCH   1   2
ATOM      2  O   UNL A   1      34.431  31.299  27.536  1.00  0.00    -0.376 OA
BRANCH   2   3
ATOM      3  C   UNL A   1      33.524  30.224  27.463  1.00  0.00     0.202 C 
BRANCH   3   4
ATOM      4  C   UNL A   1      33.084  29.610  26.128  1.00  0.00     0.261 C 
BRANCH   4   5
ATOM      5  O   UNL A   1      33.341  28.219  25.906  1.00  0.00    -0.462 OA
BRANCH   5   6
ATOM      6  C   UNL A   1      32.224  27.434  25.874  1.00  0.00     0.330 C 
ATOM      7  O   UNL A   1      31.142  27.785  26.329  1.00  0.00    -0.250 OA
BRANCH   6   8
ATOM      8  C   UNL A   1      32.493  26.103  25.138  1.00  0.00     0.214 C 
ATOM      9  N   UNL A   1      34.458  24.667  24.370  1.00  0.00    -0.304 N 
ATOM     10  C   UNL A   1      33.990  24.763  22.984  1.00  0.00     0.144 C 
ATOM     11  C   UNL A   1      33.997  25.732  25.285  1.00  0.00     0.160 C 
ATOM     12  C   UNL A   1      32.474  24.993  22.913  1.00  0.00     0.141 C 
ATOM     13  N   UNL A   1      32.162  26.182  23.691  1.00  0.00    -0.331 N 
BRANCH   9  14
ATOM     14  C   UNL A   1      35.497  23.803  24.645  1.00  0.00     0.410 C 
ATOM     15  O   UNL A   1      36.505  24.163  25.263  1.00  0.00    -0.224 OA
BRANCH  14  16
ATOM     16  O   UNL A   1      35.339  22.564  24.115  1.00  0.00    -0.444 OA
BRANCH  16  17
ATOM     17  C   UNL A   1      34.790  21.488  24.939  1.00  0.00     0.106 C 
ATOM     18  C   UNL A   1      33.439  21.124  24.302  1.00  0.00     0.056 C 
ATOM     19  C   UNL A   1      34.545  21.980  26.370  1.00  0.00     0.056 C 
ATOM     20  C   UNL A   1      35.656  20.215  24.929  1.00  0.00     0.056 C 
ENDBRANCH  16  17
ENDBRANCH  14  16
ENDBRANCH   9  14
BRANCH  13  21
ATOM     21  C   UNL A   1      31.210  27.043  23.270  1.00  0.00     0.187 A 
ATOM     22  N   UNL A   1      29.920  26.819  23.332  1.00  0.00    -0.220 NA
ATOM     23  S   UNL A   1      31.659  28.636  22.780  1.00  0.00    -0.097 S 
ATOM     24  C   UNL A   1      29.237  28.020  23.207  1.00  0.00     0.084 A 
ATOM     25  C   UNL A   1      30.042  29.149  23.044  1.00  0.00     0.056 A 
ATOM     26  C   UNL A   1      27.841  28.197  23.292  1.00  0.00     0.030 A 
ATOM     27  C   UNL A   1      29.522  30.452  23.093  1.00  0.00     0.021 A 
ATOM     28  C   UNL A   1      27.307  29.490  23.308  1.00  0.00     0.002 A 
ATOM     29  C   UNL A   1      28.142  30.602  23.244  1.00  0.00     0.002 A 
ENDBRANCH  13  21
ENDBRANCH   6   8
ENDBRANCH   5   6
ENDBRANCH   4   5
ENDBRANCH   3   4
ENDBRANCH   2   3
ENDBRANCH   1   2
BRANCH   1  30
ATOM     30  C   UNL A   1      34.743  33.207  29.261  1.00  0.00     0.188 C 
BRANCH  30  31
ATOM     31  O   UNL A   1      33.999  33.509  30.424  1.00  0.00    -0.376 OA
BRANCH  31  32
ATOM     32  C   UNL A   1      34.636  34.181  31.496  1.00  0.00     0.202 C 
BRANCH  32  33
ATOM     33  C   UNL A   1      34.834  33.439  32.823  1.00  0.00     0.261 C 
BRANCH  33  34
ATOM     34  O   UNL A   1      35.418  32.129  32.682  1.00  0.00    -0.460 OA
BRANCH  34  35
ATOM     35  C   UNL A   1      36.606  31.934  33.301  1.00  0.00     0.338 C 
ATOM     36  O   UNL A   1      36.867  32.149  34.479  1.00  0.00    -0.246 OA
BRANCH  35  37
ATOM     37  C   UNL A   1      37.554  31.249  32.397  1.00  0.00     0.060 A 
ATOM     38  C   UNL A   1      38.626  30.541  32.962  1.00  0.00     0.016 A 
ATOM     39  C   UNL A   1      37.437  31.357  31.011  1.00  0.00     0.016 A 
ATOM     40  C   UNL A   1      39.615  29.988  32.144  1.00  0.00     0.010 A 
ATOM     41  C   UNL A   1      38.435  30.813  30.194  1.00  0.00     0.010 A 
ATOM     42  C   UNL A   1      39.550  30.160  30.754  1.00  0.00    -0.014 A 
BRANCH  42  43
ATOM     43  C   UNL A   1      40.719  29.832  29.897  1.00  0.00     0.031 A 
ATOM     44  C   UNL A   1      40.820  28.450  29.309  1.00  0.00     0.074 A 
ATOM     45  C   UNL A   1      41.684  30.732  29.639  1.00  0.00     0.049 A 
ATOM     46  N   UNL A   1      41.781  27.907  28.605  1.00  0.00    -0.248 NA
ATOM     47  C   UNL A   1      39.677  27.558  29.555  1.00  0.00     0.031 C 
ATOM     48  C   UNL A   1      41.690  32.121  30.090  1.00  0.00     0.029 A 
ATOM     49  N   UNL A   1      42.856  30.600  28.934  1.00  0.00    -0.354 N 
ATOM     50  C   UNL A   1      41.364  26.610  28.331  1.00  0.00     0.074 A 
ATOM     51  C   UNL A   1      40.079  26.438  28.975  1.00  0.00     0.031 C 
ATOM     52  C   UNL A   1      42.815  32.715  29.653  1.00  0.00     0.029 A 
ATOM     53  C   UNL A   1      43.626  31.737  28.926  1.00  0.00     0.049 A 
ATOM     54  H   UNL A   1      43.119  29.769  28.477  1.00  0.00     0.167 HD
ATOM     55  C   UNL A   1      41.985  25.651  27.603  1.00  0.00     0.037 A 
ATOM     56  C   UNL A   1      44.852  31.956  28.410  1.00  0.00     0.037 A 
ATOM     57  C   UNL A   1      43.271  25.811  26.975  1.00  0.00     0.049 A 
ATOM     58  C   UNL A   1      45.578  30.839  27.704  1.00  0.00     0.074 A 
ATOM     59  C   UNL A   1      43.982  24.897  26.216  1.00  0.00     0.029 A 
ATOM     60  N   UNL A   1      44.045  26.960  27.042  1.00  0.00    -0.354 N 
ATOM     61  N   UNL A   1      45.175  29.620  27.443  1.00  0.00    -0.248 NA
ATOM     62  C   UNL A   1      46.940  31.133  27.228  1.00  0.00     0.031 C 
ATOM     63  C   UNL A   1      45.211  25.473  25.874  1.00  0.00     0.029 A 
ATOM     64  C   UNL A   1      45.240  26.767  26.366  1.00  0.00     0.049 A 
ATOM     65  H   UNL A   1      43.784  27.790  27.503  1.00  0.00     0.167 HD
ATOM     66  C   UNL A   1      46.211  29.015  26.739  1.00  0.00     0.074 A 
ATOM     67  C   UNL A   1      47.262  30.003  26.613  1.00  0.00     0.031 C 
ATOM     68  C   UNL A   1      46.281  27.757  26.237  1.00  0.00     0.037 A 
BRANCH  55  69
ATOM     69  C   UNL A   1      41.289  24.324  27.492  1.00  0.00     0.057 A 
ATOM     70  C   UNL A   1      41.704  23.204  28.225  1.00  0.00     0.134 A 
ATOM     71  C   UNL A   1      40.199  24.161  26.628  1.00  0.00     0.134 A 
ATOM     72  F   UNL A   1      42.751  23.286  29.060  1.00  0.00    -0.206 F 
ATOM     73  C   UNL A   1      41.088  21.959  28.069  1.00  0.00     0.040 A 
ATOM     74  C   UNL A   1      39.555  22.930  26.488  1.00  0.00     0.040 A 
ATOM     75  F   UNL A   1      39.743  25.193  25.902  1.00  0.00    -0.206 F 
ATOM     76  C   UNL A   1      40.008  21.822  27.200  1.00  0.00     0.006 A 
ENDBRANCH  55  69
BRANCH  56  77
ATOM     77  C   UNL A   1      45.483  33.295  28.535  1.00  0.00     0.057 A 
ATOM     78  C   UNL A   1      45.224  34.301  27.595  1.00  0.00     0.134 A 
ATOM     79  C   UNL A   1      46.369  33.598  29.575  1.00  0.00     0.134 A 
ATOM     80  F   UNL A   1      44.408  34.061  26.558  1.00  0.00    -0.206 F 
ATOM     81  C   UNL A   1      45.831  35.555  27.679  1.00  0.00     0.040 A 
ATOM     82  C   UNL A   1      46.964  34.856  29.685  1.00  0.00     0.040 A 
ATOM     83  F   UNL A   1      46.665  32.676  30.502  1.00  0.00    -0.206 F 
ATOM     84  C   UNL A   1      46.699  35.837  28.732  1.00  0.00     0.006 A 
ENDBRANCH  56  77
BRANCH  68  85
ATOM     85  C   UNL A   1      47.515  27.384  25.462  1.00  0.00     0.057 A 
ATOM     86  C   UNL A   1      47.624  27.601  24.084  1.00  0.00     0.134 A 
ATOM     87  C   UNL A   1      48.626  26.836  26.118  1.00  0.00     0.134 A 
ATOM     88  F   UNL A   1      46.594  28.111  23.391  1.00  0.00    -0.206 F 
ATOM     89  C   UNL A   1      48.785  27.268  23.381  1.00  0.00     0.040 A 
ATOM     90  C   UNL A   1      49.802  26.525  25.432  1.00  0.00     0.040 A 
ATOM     91  F   UNL A   1      48.594  26.609  27.440  1.00  0.00    -0.206 F 
ATOM     92  C   UNL A   1      49.881  26.735  24.057  1.00  0.00     0.006 A 
ENDBRANCH  68  85
ENDBRANCH  42  43
ENDBRANCH  35  37
ENDBRANCH  34  35
ENDBRANCH  33  34
ENDBRANCH  32  33
ENDBRANCH  31  32
ENDBRANCH  30  31
ENDBRANCH   1  30
TORSDOF 21
ENDMDL
MODEL 2
REMARK VINA RESULT:     -10.9      3.884      7.293
REMARK SMILES CC(C)(C)OC(=O)N1CCN(c2nc3ccccc3s2)[C@H](C(=O)OCCOCCOCCOC(=O)c2ccc(-c3c4nc(c(-c5c(F)cccc5F)c5ccc([nH]5)c(-c5c(F)cccc5F)c5nc(c(-c6c(F)cccc6F)c6ccc3[nH]6)C=C5)C=C4)cc2)C1
REMARK SMILES IDX 28 1 27 2 26 3 25 4 24 5 22 6 23 7 21 8 8 9 9 10 90 11 10 12
REMARK SMILES IDX 11 13 6 14 7 15 5 16 2 17 1 18 3 19 4 20 12 21 13 22 20 23
REMARK SMILES IDX 14 24 19 25 15 26 18 27 16 28 17 29 29 30 30 31 31 32 32 33
REMARK SMILES IDX 33 34 34 35 35 36 36 37 37 38 89 39 38 40 88 41 39 42 40 43
REMARK SMILES IDX 41 44 82 45 42 46 87 47 81 48 83 49 43 50 86 51 80 52 79 53
REMARK SMILES IDX 44 55 70 56 53 57 69 58 54 59 57 60 68 61 84 62 55 63 56 64
REMARK SMILES IDX 67 66 85 67 58 68 45 69 46 70 51 71 47 72 48 73 50 74 52 75
REMARK SMILES IDX 49 76 71 77 72 78 77 79 73 80 74 81 76 82 78 83 75 84 59 85
REMARK SMILES IDX 60 86 65 87 61 88 62 89 64 90 66 91 63 92
REMARK H PARENT 83 54 57 65
REMARK Flexibility Score: inf
ROOT
ATOM      1  C   UNL A   1      33.975  29.527  26.872  1.00  0.00     0.188 C 
ENDROOT
BRANCH   1   2
ATOM      2  O   UNL A   1      33.372  28.296  27.199  1.00  0.00    -0.376 OA
BRANCH   2   3
ATOM      3  C   UNL A   1      32.034  28.202  27.627  1.00  0.00     0.202 C 
BRANCH   3   4
ATOM      4  C   UNL A   1      30.966  27.448  26.825  1.00  0.00     0.261 C 
BRANCH   4   5
ATOM      5  O   UNL A   1      31.375  26.315  26.052  1.00  0.00    -0.462 OA
BRANCH   5   6
ATOM      6  C   UNL A   1      30.585  26.052  24.969  1.00  0.00     0.330 C 
ATOM      7  O   UNL A   1      29.388  26.312  24.931  1.00  0.00    -0.250 OA
BRANCH   6   8
ATOM      8  C   UNL A   1      31.407  25.459  23.803  1.00  0.00     0.214 C 
ATOM      9  N   UNL A   1      33.651  24.317  23.389  1.00  0.00    -0.304 N 
ATOM     10  C   UNL A   1      34.023  25.383  22.453  1.00  0.00     0.144 C 
ATOM     11  C   UNL A   1      32.611  24.661  24.381  1.00  0.00     0.160 C 
ATOM     12  C   UNL A   1      32.787  26.035  21.818  1.00  0.00     0.141 C 
ATOM     13  N   UNL A   1      31.927  26.510  22.890  1.00  0.00    -0.331 N 
BRANCH   9  14
ATOM     14  C   UNL A   1      34.475  23.215  23.478  1.00  0.00     0.410 C 
ATOM     15  O   UNL A   1      35.464  23.074  22.750  1.00  0.00    -0.224 OA
BRANCH  14  16
ATOM     16  O   UNL A   1      34.058  22.285  24.374  1.00  0.00    -0.444 OA
BRANCH  16  17
ATOM     17  C   UNL A   1      34.851  22.028  25.574  1.00  0.00     0.106 C 
ATOM     18  C   UNL A   1      35.837  20.913  25.191  1.00  0.00     0.056 C 
ATOM     19  C   UNL A   1      33.956  21.527  26.713  1.00  0.00     0.056 C 
ATOM     20  C   UNL A   1      35.688  23.243  26.019  1.00  0.00     0.056 C 
ENDBRANCH  16  17
ENDBRANCH  14  16
ENDBRANCH   9  14
BRANCH  13  21
ATOM     21  C   UNL A   1      31.257  27.675  22.762  1.00  0.00     0.187 A 
ATOM     22  N   UNL A   1      30.150  27.829  22.076  1.00  0.00    -0.220 NA
ATOM     23  S   UNL A   1      31.741  29.044  23.695  1.00  0.00    -0.097 S 
ATOM     24  C   UNL A   1      29.522  29.000  22.471  1.00  0.00     0.084 A 
ATOM     25  C   UNL A   1      30.182  29.726  23.463  1.00  0.00     0.056 A 
ATOM     26  C   UNL A   1      28.276  29.472  22.010  1.00  0.00     0.030 A 
ATOM     27  C   UNL A   1      29.592  30.826  24.104  1.00  0.00     0.021 A 
ATOM     28  C   UNL A   1      27.690  30.589  22.619  1.00  0.00     0.002 A 
ATOM     29  C   UNL A   1      28.328  31.234  23.675  1.00  0.00     0.002 A 
ENDBRANCH  13  21
ENDBRANCH   6   8
ENDBRANCH   5   6
ENDBRANCH   4   5
ENDBRANCH   3   4
ENDBRANCH   2   3
ENDBRANCH   1   2
BRANCH   1  30
ATOM     30  C   UNL A   1      33.351  30.887  27.240  1.00  0.00     0.188 C 
BRANCH  30  31
ATOM     31  O   UNL A   1      32.032  31.205  26.849  1.00  0.00    -0.376 OA
BRANCH  31  32
ATOM     32  C   UNL A   1      31.606  32.556  26.889  1.00  0.00     0.202 C 
BRANCH  32  33
ATOM     33  C   UNL A   1      32.644  33.651  27.159  1.00  0.00     0.261 C 
BRANCH  33  34
ATOM     34  O   UNL A   1      32.372  34.441  28.333  1.00  0.00    -0.460 OA
BRANCH  34  35
ATOM     35  C   UNL A   1      33.444  35.008  28.934  1.00  0.00     0.338 C 
ATOM     36  O   UNL A   1      33.527  36.151  29.369  1.00  0.00    -0.246 OA
BRANCH  35  37
ATOM     37  C   UNL A   1      34.500  34.000  29.167  1.00  0.00     0.060 A 
ATOM     38  C   UNL A   1      34.184  32.859  29.920  1.00  0.00     0.016 A 
ATOM     39  C   UNL A   1      35.804  34.202  28.713  1.00  0.00     0.016 A 
ATOM     40  C   UNL A   1      35.183  31.946  30.271  1.00  0.00     0.010 A 
ATOM     41  C   UNL A   1      36.805  33.293  29.076  1.00  0.00     0.010 A 
ATOM     42  C   UNL A   1      36.511  32.182  29.889  1.00  0.00    -0.014 A 
BRANCH  42  43
ATOM     43  C   UNL A   1      37.620  31.389  30.482  1.00  0.00     0.031 A 
ATOM     44  C   UNL A   1      37.992  31.631  31.920  1.00  0.00     0.074 A 
ATOM     45  C   UNL A   1      38.296  30.471  29.768  1.00  0.00     0.049 A 
ATOM     46  N   UNL A   1      38.972  31.126  32.627  1.00  0.00    -0.248 NA
ATOM     47  C   UNL A   1      37.142  32.576  32.658  1.00  0.00     0.031 C 
ATOM     48  C   UNL A   1      38.009  30.091  28.388  1.00  0.00     0.029 A 
ATOM     49  N   UNL A   1      39.376  29.697  30.116  1.00  0.00    -0.354 N 
ATOM     50  C   UNL A   1      38.862  31.698  33.889  1.00  0.00     0.074 A 
ATOM     51  C   UNL A   1      37.741  32.613  33.838  1.00  0.00     0.031 C 
ATOM     52  C   UNL A   1      38.895  29.155  28.003  1.00  0.00     0.029 A 
ATOM     53  C   UNL A   1      39.835  28.900  29.095  1.00  0.00     0.049 A 
ATOM     54  H   UNL A   1      39.784  29.711  31.012  1.00  0.00     0.167 HD
ATOM     55  C   UNL A   1      39.615  31.478  34.994  1.00  0.00     0.037 A 
ATOM     56  C   UNL A   1      40.902  28.079  29.043  1.00  0.00     0.037 A 
ATOM     57  C   UNL A   1      40.740  30.581  35.045  1.00  0.00     0.049 A 
ATOM     58  C   UNL A   1      41.797  27.936  30.247  1.00  0.00     0.074 A 
ATOM     59  C   UNL A   1      41.566  30.291  36.119  1.00  0.00     0.029 A 
ATOM     60  N   UNL A   1      41.209  29.838  33.971  1.00  0.00    -0.354 N 
ATOM     61  N   UNL A   1      41.682  28.472  31.437  1.00  0.00    -0.248 NA
ATOM     62  C   UNL A   1      42.981  27.074  30.093  1.00  0.00     0.031 C 
ATOM     63  C   UNL A   1      42.567  29.417  35.678  1.00  0.00     0.029 A 
ATOM     64  C   UNL A   1      42.330  29.115  34.347  1.00  0.00     0.049 A 
ATOM     65  H   UNL A   1      40.804  29.828  33.074  1.00  0.00     0.167 HD
ATOM     66  C   UNL A   1      42.749  27.985  32.184  1.00  0.00     0.074 A 
ATOM     67  C   UNL A   1      43.501  27.106  31.312  1.00  0.00     0.031 C 
ATOM     68  C   UNL A   1      43.071  28.236  33.477  1.00  0.00     0.037 A 
BRANCH  55  69
ATOM     69  C   UNL A   1      39.261  32.262  36.226  1.00  0.00     0.057 A 
ATOM     70  C   UNL A   1      39.824  33.517  36.495  1.00  0.00     0.134 A 
ATOM     71  C   UNL A   1      38.356  31.748  37.163  1.00  0.00     0.134 A 
ATOM     72  F   UNL A   1      40.710  34.061  35.646  1.00  0.00    -0.206 F 
ATOM     73  C   UNL A   1      39.535  34.210  37.672  1.00  0.00     0.040 A 
ATOM     74  C   UNL A   1      38.034  32.447  38.328  1.00  0.00     0.040 A 
ATOM     75  F   UNL A   1      37.772  30.556  36.966  1.00  0.00    -0.206 F 
ATOM     76  C   UNL A   1      38.635  33.676  38.591  1.00  0.00     0.006 A 
ENDBRANCH  55  69
BRANCH  56  77
ATOM     77  C   UNL A   1      41.191  27.313  27.802  1.00  0.00     0.057 A 
ATOM     78  C   UNL A   1      41.963  27.872  26.776  1.00  0.00     0.134 A 
ATOM     79  C   UNL A   1      40.689  26.022  27.601  1.00  0.00     0.134 A 
ATOM     80  F   UNL A   1      42.445  29.118  26.898  1.00  0.00    -0.206 F 
ATOM     81  C   UNL A   1      42.219  27.179  25.592  1.00  0.00     0.040 A 
ATOM     82  C   UNL A   1      40.958  25.308  26.432  1.00  0.00     0.040 A 
ATOM     83  F   UNL A   1      39.935  25.434  28.541  1.00  0.00    -0.206 F 
ATOM     84  C   UNL A   1      41.721  25.889  25.421  1.00  0.00     0.006 A 
ENDBRANCH  56  77
BRANCH  68  85
ATOM     85  C   UNL A   1      44.263  27.520  34.050  1.00  0.00     0.057 A 
ATOM     86  C   UNL A   1      45.548  28.077  34.033  1.00  0.00     0.134 A 
ATOM     87  C   UNL A   1      44.111  26.269  34.665  1.00  0.00     0.134 A 
ATOM     88  F   UNL A   1      45.767  29.265  33.449  1.00  0.00    -0.206 F 
ATOM     89  C   UNL A   1      46.642  27.408  34.587  1.00  0.00     0.040 A 
ATOM     90  C   UNL A   1      45.192  25.604  35.249  1.00  0.00     0.040 A 
ATOM     91  F   UNL A   1      42.907  25.681  34.726  1.00  0.00    -0.206 F 
ATOM     92  C   UNL A   1      46.464  26.171  35.204  1.00  0.00     0.006 A 
ENDBRANCH  68  85
ENDBRANCH  42  43
ENDBRANCH  35  37
ENDBRANCH  34  35
ENDBRANCH  33  34
ENDBRANCH  32  33
ENDBRANCH  31  32
ENDBRANCH  30  31
ENDBRANCH   1  30
TORSDOF 21
ENDMDL
MODEL 3
REMARK VINA RESULT:     -10.5      1.182      6.114
REMARK SMILES CC(C)(C)OC(=O)N1CCN(c2nc3ccccc3s2)[C@H](C(=O)OCCOCCOCCOC(=O)c2ccc(-c3c4nc(c(-c5c(F)cccc5F)c5ccc([nH]5)c(-c5c(F)cccc5F)c5nc(c(-c6c(F)cccc6F)c6ccc3[nH]6)C=C5)C=C4)cc2)C1
REMARK SMILES IDX 28 1 27 2 26 3 25 4 24 5 22 6 23 7 21 8 8 9 9 10 90 11 10 12
REMARK SMILES IDX 11 13 6 14 7 15 5 16 2 17 1 18 3 19 4 20 12 21 13 22 20 23
REMARK SMILES IDX 14 24 19 25 15 26 18 27 16 28 17 29 29 30 30 31 31 32 32 33
REMARK SMILES IDX 33 34 34 35 35 36 36 37 37 38 89 39 38 40 88 41 39 42 40 43
REMARK SMILES IDX 41 44 82 45 42 46 87 47 81 48 83 49 43 50 86 51 80 52 79 53
REMARK SMILES IDX 44 55 70 56 53 57 69 58 54 59 57 60 68 61 84 62 55 63 56 64
REMARK SMILES IDX 67 66 85 67 58 68 45 69 46 70 51 71 47 72 48 73 50 74 52 75
REMARK SMILES IDX 49 76 71 77 72 78 77 79 73 80 74 81 76 82 78 83 75 84 59 85
REMARK SMILES IDX 60 86 65 87 61 88 62 89 64 90 66 91 63 92
REMARK H PARENT 83 54 57 65
REMARK Flexibility Score: inf
ROOT
ATOM      1  C   UNL A   1      35.075  30.355  27.567  1.00  0.00     0.188 C 
ENDROOT
BRANCH   1   2
ATOM      2  O   UNL A   1      34.708  29.146  26.942  1.00  0.00    -0.376 OA
BRANCH   2   3
ATOM      3  C   UNL A   1      33.489  28.496  27.214  1.00  0.00     0.202 C 
BRANCH   3   4
ATOM      4  C   UNL A   1      32.716  27.718  26.142  1.00  0.00     0.261 C 
BRANCH   4   5
ATOM      5  O   UNL A   1      32.914  26.302  26.060  1.00  0.00    -0.462 OA
BRANCH   5   6
ATOM      6  C   UNL A   1      31.769  25.563  26.155  1.00  0.00     0.330 C 
ATOM      7  O   UNL A   1      30.758  25.959  26.721  1.00  0.00    -0.250 OA
BRANCH   6   8
ATOM      8  C   UNL A   1      31.904  24.219  25.404  1.00  0.00     0.214 C 
ATOM      9  N   UNL A   1      33.646  22.411  24.951  1.00  0.00    -0.304 N 
ATOM     10  C   UNL A   1      33.503  22.631  23.508  1.00  0.00     0.144 C 
ATOM     11  C   UNL A   1      33.236  23.532  25.821  1.00  0.00     0.160 C 
ATOM     12  C   UNL A   1      32.115  23.183  23.155  1.00  0.00     0.141 C 
ATOM     13  N   UNL A   1      31.901  24.396  23.928  1.00  0.00    -0.331 N 
BRANCH   9  14
ATOM     14  C   UNL A   1      34.406  21.339  25.371  1.00  0.00     0.410 C 
ATOM     15  O   UNL A   1      35.012  21.345  26.447  1.00  0.00    -0.224 OA
BRANCH  14  16
ATOM     16  O   UNL A   1      34.479  20.328  24.468  1.00  0.00    -0.444 OA
BRANCH  16  17
ATOM     17  C   UNL A   1      33.564  19.193  24.576  1.00  0.00     0.106 C 
ATOM     18  C   UNL A   1      34.430  17.939  24.376  1.00  0.00     0.056 C 
ATOM     19  C   UNL A   1      32.509  19.246  23.465  1.00  0.00     0.056 C 
ATOM     20  C   UNL A   1      32.905  19.075  25.963  1.00  0.00     0.056 C 
ENDBRANCH  16  17
ENDBRANCH  14  16
ENDBRANCH   9  14
BRANCH  13  21
ATOM     21  C   UNL A   1      31.255  25.448  23.383  1.00  0.00     0.187 A 
ATOM     22  N   UNL A   1      29.992  25.737  23.586  1.00  0.00    -0.220 NA
ATOM     23  S   UNL A   1      32.148  26.632  22.500  1.00  0.00    -0.097 S 
ATOM     24  C   UNL A   1      29.757  27.056  23.228  1.00  0.00     0.084 A 
ATOM     25  C   UNL A   1      30.869  27.751  22.747  1.00  0.00     0.056 A 
ATOM     26  C   UNL A   1      28.539  27.752  23.365  1.00  0.00     0.030 A 
ATOM     27  C   UNL A   1      30.847  29.135  22.522  1.00  0.00     0.021 A 
ATOM     28  C   UNL A   1      28.495  29.127  23.112  1.00  0.00     0.002 A 
ATOM     29  C   UNL A   1      29.644  29.814  22.729  1.00  0.00     0.002 A 
ENDBRANCH  13  21
ENDBRANCH   6   8
ENDBRANCH   5   6
ENDBRANCH   4   5
ENDBRANCH   3   4
ENDBRANCH   2   3
ENDBRANCH   1   2
BRANCH   1  30
ATOM     30  C   UNL A   1      34.127  31.566  27.665  1.00  0.00     0.188 C 
BRANCH  30  31
ATOM     31  O   UNL A   1      34.628  32.852  27.962  1.00  0.00    -0.376 OA
BRANCH  31  32
ATOM     32  C   UNL A   1      34.022  33.608  28.996  1.00  0.00     0.202 C 
BRANCH  32  33
ATOM     33  C   UNL A   1      34.606  33.529  30.411  1.00  0.00     0.261 C 
BRANCH  33  34
ATOM     34  O   UNL A   1      34.909  32.189  30.847  1.00  0.00    -0.460 OA
BRANCH  34  35
ATOM     35  C   UNL A   1      35.780  32.077  31.877  1.00  0.00     0.338 C 
ATOM     36  O   UNL A   1      35.509  32.046  33.071  1.00  0.00    -0.246 OA
BRANCH  35  37
ATOM     37  C   UNL A   1      37.146  31.823  31.373  1.00  0.00     0.060 A 
ATOM     38  C   UNL A   1      37.403  32.008  30.006  1.00  0.00     0.016 A 
ATOM     39  C   UNL A   1      38.148  31.340  32.216  1.00  0.00     0.016 A 
ATOM     40  C   UNL A   1      38.644  31.656  29.467  1.00  0.00     0.010 A 
ATOM     41  C   UNL A   1      39.386  30.977  31.672  1.00  0.00     0.010 A 
ATOM     42  C   UNL A   1      39.629  31.095  30.290  1.00  0.00    -0.014 A 
BRANCH  42  43
ATOM     43  C   UNL A   1      40.836  30.459  29.698  1.00  0.00     0.031 A 
ATOM     44  C   UNL A   1      42.061  31.304  29.471  1.00  0.00     0.074 A 
ATOM     45  C   UNL A   1      40.858  29.159  29.359  1.00  0.00     0.049 A 
ATOM     46  N   UNL A   1      43.195  30.996  28.895  1.00  0.00    -0.248 NA
ATOM     47  C   UNL A   1      41.990  32.690  29.960  1.00  0.00     0.031 C 
ATOM     48  C   UNL A   1      39.770  28.208  29.573  1.00  0.00     0.029 A 
ATOM     49  N   UNL A   1      41.840  28.417  28.749  1.00  0.00    -0.354 N 
ATOM     50  C   UNL A   1      43.970  32.149  28.944  1.00  0.00     0.074 A 
ATOM     51  C   UNL A   1      43.162  33.171  29.575  1.00  0.00     0.031 C 
ATOM     52  C   UNL A   1      40.144  27.006  29.099  1.00  0.00     0.029 A 
ATOM     53  C   UNL A   1      41.480  27.112  28.512  1.00  0.00     0.049 A 
ATOM     54  H   UNL A   1      42.721  28.784  28.505  1.00  0.00     0.167 HD
ATOM     55  C   UNL A   1      45.241  32.341  28.514  1.00  0.00     0.037 A 
ATOM     56  C   UNL A   1      42.144  26.126  27.876  1.00  0.00     0.037 A 
ATOM     57  C   UNL A   1      46.043  31.334  27.871  1.00  0.00     0.049 A 
ATOM     58  C   UNL A   1      43.511  26.394  27.301  1.00  0.00     0.074 A 
ATOM     59  C   UNL A   1      47.341  31.433  27.399  1.00  0.00     0.029 A 
ATOM     60  N   UNL A   1      45.618  30.042  27.596  1.00  0.00    -0.354 N 
ATOM     61  N   UNL A   1      44.239  27.482  27.359  1.00  0.00    -0.248 NA
ATOM     62  C   UNL A   1      44.146  25.290  26.562  1.00  0.00     0.031 C 
ATOM     63  C   UNL A   1      47.680  30.220  26.789  1.00  0.00     0.029 A 
ATOM     64  C   UNL A   1      46.616  29.345  26.933  1.00  0.00     0.049 A 
ATOM     65  H   UNL A   1      44.736  29.675  27.835  1.00  0.00     0.167 HD
ATOM     66  C   UNL A   1      45.429  27.184  26.703  1.00  0.00     0.074 A 
ATOM     67  C   UNL A   1      45.326  25.810  26.256  1.00  0.00     0.031 C 
ATOM     68  C   UNL A   1      46.511  27.975  26.497  1.00  0.00     0.037 A 
BRANCH  55  69
ATOM     69  C   UNL A   1      45.818  33.718  28.692  1.00  0.00     0.057 A 
ATOM     70  C   UNL A   1      45.673  34.715  27.719  1.00  0.00     0.134 A 
ATOM     71  C   UNL A   1      46.541  34.044  29.846  1.00  0.00     0.134 A 
ATOM     72  F   UNL A   1      45.004  34.466  26.583  1.00  0.00    -0.206 F 
ATOM     73  C   UNL A   1      46.265  35.972  27.867  1.00  0.00     0.040 A 
ATOM     74  C   UNL A   1      47.110  35.307  30.020  1.00  0.00     0.040 A 
ATOM     75  F   UNL A   1      46.712  33.140  30.823  1.00  0.00    -0.206 F 
ATOM     76  C   UNL A   1      46.984  36.270  29.022  1.00  0.00     0.006 A 
ENDBRANCH  55  69
BRANCH  56  77
ATOM     77  C   UNL A   1      41.530  24.780  27.748  1.00  0.00     0.057 A 
ATOM     78  C   UNL A   1      42.014  23.696  28.491  1.00  0.00     0.134 A 
ATOM     79  C   UNL A   1      40.466  24.536  26.872  1.00  0.00     0.134 A 
ATOM     80  F   UNL A   1      43.053  23.859  29.323  1.00  0.00    -0.206 F 
ATOM     81  C   UNL A   1      41.469  22.417  28.360  1.00  0.00     0.040 A 
ATOM     82  C   UNL A   1      39.895  23.268  26.751  1.00  0.00     0.040 A 
ATOM     83  F   UNL A   1      39.961  25.530  26.126  1.00  0.00    -0.206 F 
ATOM     84  C   UNL A   1      40.400  22.203  27.493  1.00  0.00     0.006 A 
ENDBRANCH  56  77
BRANCH  68  85
ATOM     85  C   UNL A   1      47.695  27.367  25.796  1.00  0.00     0.057 A 
ATOM     86  C   UNL A   1      47.868  27.456  24.409  1.00  0.00     0.134 A 
ATOM     87  C   UNL A   1      48.698  26.718  26.529  1.00  0.00     0.134 A 
ATOM     88  F   UNL A   1      46.940  28.052  23.644  1.00  0.00    -0.206 F 
ATOM     89  C   UNL A   1      48.983  26.903  23.774  1.00  0.00     0.040 A 
ATOM     90  C   UNL A   1      49.831  26.187  25.910  1.00  0.00     0.040 A 
ATOM     91  F   UNL A   1      48.602  26.605  27.863  1.00  0.00    -0.206 F 
ATOM     92  C   UNL A   1      49.973  26.273  24.527  1.00  0.00     0.006 A 
ENDBRANCH  68  85
ENDBRANCH  42  43
ENDBRANCH  35  37
ENDBRANCH  34  35
ENDBRANCH  33  34
ENDBRANCH  32  33
ENDBRANCH  31  32
ENDBRANCH  30  31
ENDBRANCH   1  30
TORSDOF 21
ENDMDL
