MODEL 1
REMARK VINA RESULT:     -10.8      0.000      0.000
REMARK SMILES CC[C@@H](C(=O)Nc1ccc(OC(C)=O)cc1C(=O)OCCOCCOCCOC(=O)c1ccc(-c2c3nc(c(-c4c(F)cccc4F)c4ccc([nH]4)c(-c4c(F)cccc4F)c4nc(c(-c5c(F)cccc5F)c5ccc2[nH]5)C=C4)C=C3)cc1)c1ccccc1
REMARK SMILES IDX 23 1 22 2 21 3 20 4 19 5 17 6 18 7 16 8 7 9 8 10 9 11 15 12
REMARK SMILES IDX 10 13 6 14 4 15 5 16 3 18 2 19 1 20 85 21 86 22 90 23 87 24
REMARK SMILES IDX 89 25 88 26 11 27 12 28 13 29 14 30 24 31 25 32 26 33 27 34
REMARK SMILES IDX 28 35 29 36 30 37 31 38 32 39 84 40 33 41 83 42 34 43 35 44
REMARK SMILES IDX 36 45 77 46 37 47 82 48 76 49 78 50 38 51 81 52 75 53 74 54
REMARK SMILES IDX 39 56 65 57 48 58 64 59 49 60 52 61 63 62 79 63 50 64 51 65
REMARK SMILES IDX 62 67 80 68 53 69 40 70 41 71 46 72 42 73 43 74 45 75 47 76
REMARK SMILES IDX 44 77 66 78 67 79 72 80 68 81 69 82 71 83 73 84 70 85 54 86
REMARK SMILES IDX 55 87 60 88 56 89 57 90 59 91 61 92 58 93
REMARK H PARENT 6 17 78 55 52 66
REMARK Flexibility Score: inf
ROOT
ATOM      1  C   UNL A   1      32.761  33.656  27.897  1.00  0.00     0.188 C 
ENDROOT
BRANCH   1   2
ATOM      2  O   UNL A   1      32.873  32.407  27.244  1.00  0.00    -0.376 OA
BRANCH   2   3
ATOM      3  C   UNL A   1      33.994  31.617  27.586  1.00  0.00     0.202 C 
BRANCH   3   4
ATOM      4  C   UNL A   1      33.851  30.101  27.444  1.00  0.00     0.261 C 
BRANCH   4   5
ATOM      5  O   UNL A   1      33.413  29.564  26.184  1.00  0.00    -0.460 OA
BRANCH   5   6
ATOM      6  C   UNL A   1      33.497  28.242  25.980  1.00  0.00     0.340 C 
ATOM      7  O   UNL A   1      34.278  27.462  26.513  1.00  0.00    -0.246 OA
BRANCH   6   8
ATOM      8  C   UNL A   1      32.440  27.775  25.068  1.00  0.00     0.087 A 
ATOM      9  C   UNL A   1      31.614  26.666  25.311  1.00  0.00     0.056 A 
ATOM     10  C   UNL A   1      30.599  26.362  24.388  1.00  0.00     0.031 A 
ATOM     11  C   UNL A   1      30.280  27.261  23.368  1.00  0.00     0.049 A 
ATOM     12  C   UNL A   1      32.186  28.611  23.972  1.00  0.00     0.065 A 
ATOM     13  C   UNL A   1      31.044  28.415  23.212  1.00  0.00     0.131 A 
BRANCH   9  14
ATOM     14  N   UNL A   1      31.685  25.814  26.424  1.00  0.00    -0.325 N 
ATOM     15  C   UNL A   1      31.848  24.460  26.477  1.00  0.00     0.231 C 
ATOM     16  O   UNL A   1      30.986  23.859  27.131  1.00  0.00    -0.274 OA
ATOM     17  H   UNL A   1      31.606  26.261  27.297  1.00  0.00     0.169 HD
BRANCH  15  18
ATOM     18  C   UNL A   1      33.219  23.786  26.073  1.00  0.00     0.108 C 
BRANCH  18  19
ATOM     19  C   UNL A   1      34.346  24.496  25.282  1.00  0.00     0.015 C 
ATOM     20  C   UNL A   1      35.811  24.262  25.598  1.00  0.00     0.005 C 
ENDBRANCH  18  19
BRANCH  18  21
ATOM     21  C   UNL A   1      32.918  22.425  25.377  1.00  0.00    -0.036 A 
ATOM     22  C   UNL A   1      32.490  22.424  24.039  1.00  0.00     0.004 A 
ATOM     23  C   UNL A   1      33.091  21.176  26.006  1.00  0.00     0.004 A 
ATOM     24  C   UNL A   1      32.257  21.227  23.358  1.00  0.00     0.000 A 
ATOM     25  C   UNL A   1      32.835  19.980  25.331  1.00  0.00     0.000 A 
ATOM     26  C   UNL A   1      32.421  20.007  24.007  1.00  0.00     0.000 A 
ENDBRANCH  18  21
ENDBRANCH  15  18
ENDBRANCH   9  14
BRANCH  13  27
ATOM     27  O   UNL A   1      30.596  29.364  22.271  1.00  0.00    -0.427 OA
BRANCH  27  28
ATOM     28  C   UNL A   1      29.319  29.940  22.287  1.00  0.00     0.308 C 
ATOM     29  C   UNL A   1      28.939  30.727  23.509  1.00  0.00     0.139 C 
ATOM     30  O   UNL A   1      28.587  29.879  21.303  1.00  0.00    -0.252 OA
ENDBRANCH  27  28
ENDBRANCH  13  27
ENDBRANCH   6   8
ENDBRANCH   5   6
ENDBRANCH   4   5
ENDBRANCH   3   4
ENDBRANCH   2   3
ENDBRANCH   1   2
BRANCH   1  31
ATOM     31  C   UNL A   1      33.997  34.026  28.749  1.00  0.00     0.188 C 
BRANCH  31  32
ATOM     32  O   UNL A   1      34.125  33.518  30.065  1.00  0.00    -0.376 OA
BRANCH  32  33
ATOM     33  C   UNL A   1      34.231  34.449  31.131  1.00  0.00     0.202 C 
BRANCH  33  34
ATOM     34  C   UNL A   1      34.326  33.919  32.577  1.00  0.00     0.261 C 
BRANCH  34  35
ATOM     35  O   UNL A   1      34.917  32.609  32.754  1.00  0.00    -0.460 OA
BRANCH  35  36
ATOM     36  C   UNL A   1      36.189  32.568  33.233  1.00  0.00     0.338 C 
ATOM     37  O   UNL A   1      36.575  33.000  34.306  1.00  0.00    -0.246 OA
BRANCH  36  38
ATOM     38  C   UNL A   1      37.053  31.705  32.374  1.00  0.00     0.060 A 
ATOM     39  C   UNL A   1      37.787  30.671  32.985  1.00  0.00     0.016 A 
ATOM     40  C   UNL A   1      37.194  31.928  31.005  1.00  0.00     0.016 A 
ATOM     41  C   UNL A   1      38.677  29.885  32.247  1.00  0.00     0.010 A 
ATOM     42  C   UNL A   1      38.126  31.171  30.273  1.00  0.00     0.010 A 
ATOM     43  C   UNL A   1      38.900  30.172  30.896  1.00  0.00    -0.014 A 
BRANCH  43  44
ATOM     44  C   UNL A   1      40.111  29.625  30.224  1.00  0.00     0.031 A 
ATOM     45  C   UNL A   1      41.305  30.536  30.074  1.00  0.00     0.074 A 
ATOM     46  C   UNL A   1      40.184  28.358  29.776  1.00  0.00     0.049 A 
ATOM     47  N   UNL A   1      42.434  30.335  29.445  1.00  0.00    -0.248 NA
ATOM     48  C   UNL A   1      41.202  31.856  30.719  1.00  0.00     0.031 C 
ATOM     49  C   UNL A   1      39.133  27.352  29.902  1.00  0.00     0.029 A 
ATOM     50  N   UNL A   1      41.195  27.705  29.109  1.00  0.00    -0.354 N 
ATOM     51  C   UNL A   1      43.163  31.510  29.595  1.00  0.00     0.074 A 
ATOM     52  C   UNL A   1      42.346  32.420  30.367  1.00  0.00     0.031 C 
ATOM     53  C   UNL A   1      39.548  26.211  29.319  1.00  0.00     0.029 A 
ATOM     54  C   UNL A   1      40.875  26.421  28.737  1.00  0.00     0.049 A 
ATOM     55  H   UNL A   1      42.067  28.119  28.916  1.00  0.00     0.167 HD
ATOM     56  C   UNL A   1      44.397  31.809  29.127  1.00  0.00     0.037 A 
ATOM     57  C   UNL A   1      41.555  25.535  27.981  1.00  0.00     0.037 A 
ATOM     58  C   UNL A   1      45.217  30.906  28.365  1.00  0.00     0.049 A 
ATOM     59  C   UNL A   1      42.905  25.916  27.415  1.00  0.00     0.074 A 
ATOM     60  C   UNL A   1      46.490  31.116  27.862  1.00  0.00     0.029 A 
ATOM     61  N   UNL A   1      44.845  29.625  27.992  1.00  0.00    -0.354 N 
ATOM     62  N   UNL A   1      43.584  27.026  27.567  1.00  0.00    -0.248 NA
ATOM     63  C   UNL A   1      43.575  24.920  26.563  1.00  0.00     0.031 C 
ATOM     64  C   UNL A   1      46.863  29.984  27.133  1.00  0.00     0.029 A 
ATOM     65  C   UNL A   1      45.851  29.044  27.237  1.00  0.00     0.049 A 
ATOM     66  H   UNL A   1      43.993  29.192  28.226  1.00  0.00     0.167 HD
ATOM     67  C   UNL A   1      44.770  26.851  26.857  1.00  0.00     0.074 A 
ATOM     68  C   UNL A   1      44.725  25.521  26.290  1.00  0.00     0.031 C 
ATOM     69  C   UNL A   1      45.801  27.714  26.687  1.00  0.00     0.037 A 
BRANCH  56  70
ATOM     70  C   UNL A   1      44.926  33.189  29.385  1.00  0.00     0.057 A 
ATOM     71  C   UNL A   1      45.716  33.489  30.502  1.00  0.00     0.134 A 
ATOM     72  C   UNL A   1      44.682  34.222  28.469  1.00  0.00     0.134 A 
ATOM     73  F   UNL A   1      45.972  32.550  31.426  1.00  0.00    -0.206 F 
ATOM     74  C   UNL A   1      46.234  34.770  30.704  1.00  0.00     0.040 A 
ATOM     75  C   UNL A   1      45.218  35.498  28.647  1.00  0.00     0.040 A 
ATOM     76  F   UNL A   1      43.935  34.001  27.377  1.00  0.00    -0.206 F 
ATOM     77  C   UNL A   1      45.995  35.775  29.770  1.00  0.00     0.006 A 
ENDBRANCH  56  70
BRANCH  57  78
ATOM     78  C   UNL A   1      40.965  24.206  27.656  1.00  0.00     0.057 A 
ATOM     79  C   UNL A   1      41.430  23.030  28.260  1.00  0.00     0.134 A 
ATOM     80  C   UNL A   1      39.969  24.072  26.681  1.00  0.00     0.134 A 
ATOM     81  F   UNL A   1      42.410  23.084  29.175  1.00  0.00    -0.206 F 
ATOM     82  C   UNL A   1      40.947  21.773  27.891  1.00  0.00     0.040 A 
ATOM     83  C   UNL A   1      39.452  22.824  26.325  1.00  0.00     0.040 A 
ATOM     84  F   UNL A   1      39.482  25.154  26.056  1.00  0.00    -0.206 F 
ATOM     85  C   UNL A   1      39.950  21.669  26.923  1.00  0.00     0.006 A 
ENDBRANCH  57  78
BRANCH  69  86
ATOM     86  C   UNL A   1      46.986  27.238  25.894  1.00  0.00     0.057 A 
ATOM     87  C   UNL A   1      47.111  27.487  24.521  1.00  0.00     0.134 A 
ATOM     88  C   UNL A   1      48.037  26.559  26.523  1.00  0.00     0.134 A 
ATOM     89  F   UNL A   1      46.137  28.124  23.854  1.00  0.00    -0.206 F 
ATOM     90  C   UNL A   1      48.225  27.054  23.799  1.00  0.00     0.040 A 
ATOM     91  C   UNL A   1      49.170  26.148  25.819  1.00  0.00     0.040 A 
ATOM     92  F   UNL A   1      47.991  26.300  27.839  1.00  0.00    -0.206 F 
ATOM     93  C   UNL A   1      49.262  26.388  24.450  1.00  0.00     0.006 A 
ENDBRANCH  69  86
ENDBRANCH  43  44
ENDBRANCH  36  38
ENDBRANCH  35  36
ENDBRANCH  34  35
ENDBRANCH  33  34
ENDBRANCH  32  33
ENDBRANCH  31  32
ENDBRANCH   1  31
TORSDOF 23
ENDMDL
MODEL 2
REMARK VINA RESULT:     -10.7      1.587      6.237
REMARK SMILES CC[C@@H](C(=O)Nc1ccc(OC(C)=O)cc1C(=O)OCCOCCOCCOC(=O)c1ccc(-c2c3nc(c(-c4c(F)cccc4F)c4ccc([nH]4)c(-c4c(F)cccc4F)c4nc(c(-c5c(F)cccc5F)c5ccc2[nH]5)C=C4)C=C3)cc1)c1ccccc1
REMARK SMILES IDX 23 1 22 2 21 3 20 4 19 5 17 6 18 7 16 8 7 9 8 10 9 11 15 12
REMARK SMILES IDX 10 13 6 14 4 15 5 16 3 18 2 19 1 20 85 21 86 22 90 23 87 24
REMARK SMILES IDX 89 25 88 26 11 27 12 28 13 29 14 30 24 31 25 32 26 33 27 34
REMARK SMILES IDX 28 35 29 36 30 37 31 38 32 39 84 40 33 41 83 42 34 43 35 44
REMARK SMILES IDX 36 45 77 46 37 47 82 48 76 49 78 50 38 51 81 52 75 53 74 54
REMARK SMILES IDX 39 56 65 57 48 58 64 59 49 60 52 61 63 62 79 63 50 64 51 65
REMARK SMILES IDX 62 67 80 68 53 69 40 70 41 71 46 72 42 73 43 74 45 75 47 76
REMARK SMILES IDX 44 77 66 78 67 79 72 80 68 81 69 82 71 83 73 84 70 85 54 86
REMARK SMILES IDX 55 87 60 88 56 89 57 90 59 91 61 92 58 93
REMARK H PARENT 6 17 78 55 52 66
REMARK Flexibility Score: inf
ROOT
ATOM      1  C   UNL A   1      32.453  32.870  27.332  1.00  0.00     0.188 C 
ENDROOT
BRANCH   1   2
ATOM      2  O   UNL A   1      32.899  31.529  27.267  1.00  0.00    -0.376 OA
BRANCH   2   3
ATOM      3  C   UNL A   1      32.064  30.621  26.579  1.00  0.00     0.202 C 
BRANCH   3   4
ATOM      4  C   UNL A   1      31.918  29.218  27.172  1.00  0.00     0.261 C 
BRANCH   4   5
ATOM      5  O   UNL A   1      32.792  28.177  26.702  1.00  0.00    -0.460 OA
BRANCH   5   6
ATOM      6  C   UNL A   1      32.976  28.034  25.382  1.00  0.00     0.340 C 
ATOM      7  O   UNL A   1      34.004  28.260  24.752  1.00  0.00    -0.246 OA
BRANCH   6   8
ATOM      8  C   UNL A   1      31.785  27.459  24.736  1.00  0.00     0.087 A 
ATOM      9  C   UNL A   1      31.042  26.384  25.252  1.00  0.00     0.056 A 
ATOM     10  C   UNL A   1      29.886  25.971  24.569  1.00  0.00     0.031 A 
ATOM     11  C   UNL A   1      29.369  26.741  23.525  1.00  0.00     0.049 A 
ATOM     12  C   UNL A   1      31.320  28.158  23.614  1.00  0.00     0.065 A 
ATOM     13  C   UNL A   1      30.065  27.870  23.100  1.00  0.00     0.131 A 
BRANCH   9  14
ATOM     14  N   UNL A   1      31.330  25.672  26.426  1.00  0.00    -0.325 N 
ATOM     15  C   UNL A   1      31.657  24.357  26.589  1.00  0.00     0.231 C 
ATOM     16  O   UNL A   1      30.946  23.743  27.396  1.00  0.00    -0.274 OA
ATOM     17  H   UNL A   1      31.293  26.200  27.255  1.00  0.00     0.169 HD
BRANCH  15  18
ATOM     18  C   UNL A   1      33.047  23.792  26.093  1.00  0.00     0.108 C 
BRANCH  18  19
ATOM     19  C   UNL A   1      34.253  24.671  25.679  1.00  0.00     0.015 C 
ATOM     20  C   UNL A   1      35.662  24.112  25.617  1.00  0.00     0.005 C 
ENDBRANCH  18  19
BRANCH  18  21
ATOM     21  C   UNL A   1      32.786  22.757  24.958  1.00  0.00    -0.036 A 
ATOM     22  C   UNL A   1      32.643  21.400  25.293  1.00  0.00     0.004 A 
ATOM     23  C   UNL A   1      32.641  23.111  23.602  1.00  0.00     0.004 A 
ATOM     24  C   UNL A   1      32.357  20.443  24.317  1.00  0.00     0.000 A 
ATOM     25  C   UNL A   1      32.378  22.150  22.623  1.00  0.00     0.000 A 
ATOM     26  C   UNL A   1      32.233  20.817  22.982  1.00  0.00     0.000 A 
ENDBRANCH  18  21
ENDBRANCH  15  18
ENDBRANCH   9  14
BRANCH  13  27
ATOM     27  O   UNL A   1      29.434  28.700  22.151  1.00  0.00    -0.427 OA
BRANCH  27  28
ATOM     28  C   UNL A   1      28.884  29.953  22.450  1.00  0.00     0.308 C 
ATOM     29  C   UNL A   1      28.098  30.631  21.363  1.00  0.00     0.139 C 
ATOM     30  O   UNL A   1      28.965  30.425  23.580  1.00  0.00    -0.252 OA
ENDBRANCH  27  28
ENDBRANCH  13  27
ENDBRANCH   6   8
ENDBRANCH   5   6
ENDBRANCH   4   5
ENDBRANCH   3   4
ENDBRANCH   2   3
ENDBRANCH   1   2
BRANCH   1  31
ATOM     31  C   UNL A   1      33.420  33.811  28.085  1.00  0.00     0.188 C 
BRANCH  31  32
ATOM     32  O   UNL A   1      34.494  33.269  28.834  1.00  0.00    -0.376 OA
BRANCH  32  33
ATOM     33  C   UNL A   1      34.519  33.510  30.233  1.00  0.00     0.202 C 
BRANCH  33  34
ATOM     34  C   UNL A   1      35.138  32.444  31.161  1.00  0.00     0.261 C 
BRANCH  34  35
ATOM     35  O   UNL A   1      35.882  31.377  30.524  1.00  0.00    -0.460 OA
BRANCH  35  36
ATOM     36  C   UNL A   1      36.524  30.501  31.342  1.00  0.00     0.338 C 
ATOM     37  O   UNL A   1      36.153  30.130  32.442  1.00  0.00    -0.246 OA
BRANCH  36  38
ATOM     38  C   UNL A   1      37.661  29.844  30.631  1.00  0.00     0.060 A 
ATOM     39  C   UNL A   1      38.535  29.029  31.373  1.00  0.00     0.016 A 
ATOM     40  C   UNL A   1      37.908  30.059  29.276  1.00  0.00     0.016 A 
ATOM     41  C   UNL A   1      39.665  28.455  30.779  1.00  0.00     0.010 A 
ATOM     42  C   UNL A   1      39.070  29.523  28.691  1.00  0.00     0.010 A 
ATOM     43  C   UNL A   1      39.974  28.752  29.448  1.00  0.00    -0.014 A 
BRANCH  43  44
ATOM     44  C   UNL A   1      41.350  28.487  28.943  1.00  0.00     0.031 A 
ATOM     45  C   UNL A   1      41.659  27.099  28.438  1.00  0.00     0.074 A 
ATOM     46  C   UNL A   1      42.303  29.436  28.898  1.00  0.00     0.049 A 
ATOM     47  N   UNL A   1      42.797  26.589  28.041  1.00  0.00    -0.248 NA
ATOM     48  C   UNL A   1      40.527  26.159  28.380  1.00  0.00     0.031 C 
ATOM     49  C   UNL A   1      42.132  30.830  29.298  1.00  0.00     0.029 A 
ATOM     50  N   UNL A   1      43.618  29.360  28.502  1.00  0.00    -0.354 N 
ATOM     51  C   UNL A   1      42.523  25.266  27.715  1.00  0.00     0.074 A 
ATOM     52  C   UNL A   1      41.115  25.049  27.965  1.00  0.00     0.031 C 
ATOM     53  C   UNL A   1      43.302  31.477  29.139  1.00  0.00     0.029 A 
ATOM     54  C   UNL A   1      44.317  30.531  28.673  1.00  0.00     0.049 A 
ATOM     55  H   UNL A   1      44.022  28.543  28.130  1.00  0.00     0.167 HD
ATOM     56  C   UNL A   1      43.367  24.313  27.255  1.00  0.00     0.037 A 
ATOM     57  C   UNL A   1      45.630  30.798  28.509  1.00  0.00     0.037 A 
ATOM     58  C   UNL A   1      44.766  24.524  26.995  1.00  0.00     0.049 A 
ATOM     59  C   UNL A   1      46.565  29.700  28.056  1.00  0.00     0.074 A 
ATOM     60  C   UNL A   1      45.697  23.621  26.511  1.00  0.00     0.029 A 
ATOM     61  N   UNL A   1      45.437  25.718  27.203  1.00  0.00    -0.354 N 
ATOM     62  N   UNL A   1      46.294  28.455  27.748  1.00  0.00    -0.248 NA
ATOM     63  C   UNL A   1      47.991  30.045  27.940  1.00  0.00     0.031 C 
ATOM     64  C   UNL A   1      46.943  24.252  26.483  1.00  0.00     0.029 A 
ATOM     65  C   UNL A   1      46.777  25.566  26.888  1.00  0.00     0.049 A 
ATOM     66  H   UNL A   1      45.024  26.550  27.528  1.00  0.00     0.167 HD
ATOM     67  C   UNL A   1      47.506  27.880  27.373  1.00  0.00     0.074 A 
ATOM     68  C   UNL A   1      48.510  28.917  27.476  1.00  0.00     0.031 C 
ATOM     69  C   UNL A   1      47.766  26.608  26.983  1.00  0.00     0.037 A 
BRANCH  56  70
ATOM     70  C   UNL A   1      42.814  22.935  27.041  1.00  0.00     0.057 A 
ATOM     71  C   UNL A   1      42.551  22.426  25.762  1.00  0.00     0.134 A 
ATOM     72  C   UNL A   1      42.591  22.086  28.133  1.00  0.00     0.134 A 
ATOM     73  F   UNL A   1      42.727  23.193  24.675  1.00  0.00    -0.206 F 
ATOM     74  C   UNL A   1      42.076  21.125  25.579  1.00  0.00     0.040 A 
ATOM     75  C   UNL A   1      42.143  20.775  27.960  1.00  0.00     0.040 A 
ATOM     76  F   UNL A   1      42.824  22.510  29.383  1.00  0.00    -0.206 F 
ATOM     77  C   UNL A   1      41.881  20.293  26.680  1.00  0.00     0.006 A 
ENDBRANCH  56  70
BRANCH  57  78
ATOM     78  C   UNL A   1      46.173  32.149  28.824  1.00  0.00     0.057 A 
ATOM     79  C   UNL A   1      46.298  33.137  27.837  1.00  0.00     0.134 A 
ATOM     80  C   UNL A   1      46.646  32.463  30.105  1.00  0.00     0.134 A 
ATOM     81  F   UNL A   1      45.899  32.888  26.581  1.00  0.00    -0.206 F 
ATOM     82  C   UNL A   1      46.893  34.371  28.104  1.00  0.00     0.040 A 
ATOM     83  C   UNL A   1      47.213  33.706  30.394  1.00  0.00     0.040 A 
ATOM     84  F   UNL A   1      46.566  31.564  31.095  1.00  0.00    -0.206 F 
ATOM     85  C   UNL A   1      47.348  34.660  29.389  1.00  0.00     0.006 A 
ENDBRANCH  57  78
BRANCH  69  86
ATOM     86  C   UNL A   1      49.179  26.272  26.595  1.00  0.00     0.057 A 
ATOM     87  C   UNL A   1      49.681  26.534  25.314  1.00  0.00     0.134 A 
ATOM     88  C   UNL A   1      50.061  25.718  27.532  1.00  0.00     0.134 A 
ATOM     89  F   UNL A   1      48.888  27.055  24.366  1.00  0.00    -0.206 F 
ATOM     90  C   UNL A   1      51.001  26.232  24.971  1.00  0.00     0.040 A 
ATOM     91  C   UNL A   1      51.391  25.439  27.211  1.00  0.00     0.040 A 
ATOM     92  F   UNL A   1      49.651  25.455  28.782  1.00  0.00    -0.206 F 
ATOM     93  C   UNL A   1      51.862  25.689  25.923  1.00  0.00     0.006 A 
ENDBRANCH  69  86
ENDBRANCH  43  44
ENDBRANCH  36  38
ENDBRANCH  35  36
ENDBRANCH  34  35
ENDBRANCH  33  34
ENDBRANCH  32  33
ENDBRANCH  31  32
ENDBRANCH   1  31
TORSDOF 23
ENDMDL
MODEL 3
REMARK VINA RESULT:     -10.0      1.244      2.153
REMARK SMILES CC[C@@H](C(=O)Nc1ccc(OC(C)=O)cc1C(=O)OCCOCCOCCOC(=O)c1ccc(-c2c3nc(c(-c4c(F)cccc4F)c4ccc([nH]4)c(-c4c(F)cccc4F)c4nc(c(-c5c(F)cccc5F)c5ccc2[nH]5)C=C4)C=C3)cc1)c1ccccc1
REMARK SMILES IDX 23 1 22 2 21 3 20 4 19 5 17 6 18 7 16 8 7 9 8 10 9 11 15 12
REMARK SMILES IDX 10 13 6 14 4 15 5 16 3 18 2 19 1 20 85 21 86 22 90 23 87 24
REMARK SMILES IDX 89 25 88 26 11 27 12 28 13 29 14 30 24 31 25 32 26 33 27 34
REMARK SMILES IDX 28 35 29 36 30 37 31 38 32 39 84 40 33 41 83 42 34 43 35 44
REMARK SMILES IDX 36 45 77 46 37 47 82 48 76 49 78 50 38 51 81 52 75 53 74 54
REMARK SMILES IDX 39 56 65 57 48 58 64 59 49 60 52 61 63 62 79 63 50 64 51 65
REMARK SMILES IDX 62 67 80 68 53 69 40 70 41 71 46 72 42 73 43 74 45 75 47 76
REMARK SMILES IDX 44 77 66 78 67 79 72 80 68 81 69 82 71 83 73 84 70 85 54 86
REMARK SMILES IDX 55 87 60 88 56 89 57 90 59 91 61 92 58 93
REMARK H PARENT 6 17 78 55 52 66
REMARK Flexibility Score: inf
ROOT
ATOM      1  C   UNL A   1      34.801  32.610  28.813  1.00  0.00     0.188 C 
ENDROOT
BRANCH   1   2
ATOM      2  O   UNL A   1      33.698  31.821  28.412  1.00  0.00    -0.376 OA
BRANCH   2   3
ATOM      3  C   UNL A   1      33.854  31.083  27.217  1.00  0.00     0.202 C 
BRANCH   3   4
ATOM      4  C   UNL A   1      33.621  29.573  27.293  1.00  0.00     0.261 C 
BRANCH   4   5
ATOM      5  O   UNL A   1      32.786  28.954  26.300  1.00  0.00    -0.460 OA
BRANCH   5   6
ATOM      6  C   UNL A   1      31.844  28.087  26.697  1.00  0.00     0.340 C 
ATOM      7  O   UNL A   1      31.390  27.958  27.829  1.00  0.00    -0.246 OA
BRANCH   6   8
ATOM      8  C   UNL A   1      31.310  27.321  25.559  1.00  0.00     0.087 A 
ATOM      9  C   UNL A   1      30.928  25.971  25.618  1.00  0.00     0.056 A 
ATOM     10  C   UNL A   1      30.371  25.373  24.475  1.00  0.00     0.031 A 
ATOM     11  C   UNL A   1      30.011  26.154  23.375  1.00  0.00     0.049 A 
ATOM     12  C   UNL A   1      31.049  28.073  24.405  1.00  0.00     0.065 A 
ATOM     13  C   UNL A   1      30.298  27.517  23.381  1.00  0.00     0.131 A 
BRANCH   9  14
ATOM     14  N   UNL A   1      31.026  25.136  26.742  1.00  0.00    -0.325 N 
ATOM     15  C   UNL A   1      31.340  23.810  26.818  1.00  0.00     0.231 C 
ATOM     16  O   UNL A   1      30.514  23.115  27.423  1.00  0.00    -0.274 OA
ATOM     17  H   UNL A   1      30.842  25.573  27.605  1.00  0.00     0.169 HD
BRANCH  15  18
ATOM     18  C   UNL A   1      32.802  23.298  26.505  1.00  0.00     0.108 C 
BRANCH  18  19
ATOM     19  C   UNL A   1      33.991  24.215  26.127  1.00  0.00     0.015 C 
ATOM     20  C   UNL A   1      35.212  23.680  25.403  1.00  0.00     0.005 C 
ENDBRANCH  18  19
BRANCH  18  21
ATOM     21  C   UNL A   1      32.713  22.155  25.449  1.00  0.00    -0.036 A 
ATOM     22  C   UNL A   1      32.984  20.835  25.848  1.00  0.00     0.004 A 
ATOM     23  C   UNL A   1      32.331  22.364  24.109  1.00  0.00     0.004 A 
ATOM     24  C   UNL A   1      32.866  19.773  24.950  1.00  0.00     0.000 A 
ATOM     25  C   UNL A   1      32.236  21.303  23.205  1.00  0.00     0.000 A 
ATOM     26  C   UNL A   1      32.501  20.008  23.628  1.00  0.00     0.000 A 
ENDBRANCH  18  21
ENDBRANCH  15  18
ENDBRANCH   9  14
BRANCH  13  27
ATOM     27  O   UNL A   1      29.783  28.291  22.322  1.00  0.00    -0.427 OA
BRANCH  27  28
ATOM     28  C   UNL A   1      28.708  29.180  22.453  1.00  0.00     0.308 C 
ATOM     29  C   UNL A   1      28.810  30.489  21.722  1.00  0.00     0.139 C 
ATOM     30  O   UNL A   1      27.692  28.856  23.061  1.00  0.00    -0.252 OA
ENDBRANCH  27  28
ENDBRANCH  13  27
ENDBRANCH   6   8
ENDBRANCH   5   6
ENDBRANCH   4   5
ENDBRANCH   3   4
ENDBRANCH   2   3
ENDBRANCH   1   2
BRANCH   1  31
ATOM     31  C   UNL A   1      35.623  31.988  29.965  1.00  0.00     0.188 C 
BRANCH  31  32
ATOM     32  O   UNL A   1      35.169  32.106  31.302  1.00  0.00    -0.376 OA
BRANCH  32  33
ATOM     33  C   UNL A   1      34.731  33.380  31.747  1.00  0.00     0.202 C 
BRANCH  33  34
ATOM     34  C   UNL A   1      35.762  34.348  32.363  1.00  0.00     0.261 C 
BRANCH  34  35
ATOM     35  O   UNL A   1      36.552  33.845  33.467  1.00  0.00    -0.460 OA
BRANCH  35  36
ATOM     36  C   UNL A   1      37.883  34.121  33.448  1.00  0.00     0.338 C 
ATOM     37  O   UNL A   1      38.469  34.921  34.157  1.00  0.00    -0.246 OA
BRANCH  36  38
ATOM     38  C   UNL A   1      38.617  33.143  32.592  1.00  0.00     0.060 A 
ATOM     39  C   UNL A   1      39.366  32.131  33.221  1.00  0.00     0.016 A 
ATOM     40  C   UNL A   1      38.625  33.236  31.201  1.00  0.00     0.016 A 
ATOM     41  C   UNL A   1      40.142  31.238  32.473  1.00  0.00     0.010 A 
ATOM     42  C   UNL A   1      39.443  32.371  30.453  1.00  0.00     0.010 A 
ATOM     43  C   UNL A   1      40.235  31.393  31.086  1.00  0.00    -0.014 A 
BRANCH  43  44
ATOM     44  C   UNL A   1      41.346  30.727  30.351  1.00  0.00     0.031 A 
ATOM     45  C   UNL A   1      42.613  31.515  30.127  1.00  0.00     0.074 A 
ATOM     46  C   UNL A   1      41.268  29.458  29.910  1.00  0.00     0.049 A 
ATOM     47  N   UNL A   1      43.680  31.203  29.436  1.00  0.00    -0.248 NA
ATOM     48  C   UNL A   1      42.678  32.840  30.767  1.00  0.00     0.031 C 
ATOM     49  C   UNL A   1      40.133  28.561  30.103  1.00  0.00     0.029 A 
ATOM     50  N   UNL A   1      42.171  28.708  29.192  1.00  0.00    -0.354 N 
ATOM     51  C   UNL A   1      44.528  32.301  29.536  1.00  0.00     0.074 A 
ATOM     52  C   UNL A   1      43.850  33.289  30.346  1.00  0.00     0.031 C 
ATOM     53  C   UNL A   1      40.400  27.384  29.507  1.00  0.00     0.029 A 
ATOM     54  C   UNL A   1      41.705  27.461  28.849  1.00  0.00     0.049 A 
ATOM     55  H   UNL A   1      43.067  29.033  28.947  1.00  0.00     0.167 HD
ATOM     56  C   UNL A   1      45.756  32.475  28.997  1.00  0.00     0.037 A 
ATOM     57  C   UNL A   1      42.251  26.509  28.063  1.00  0.00     0.037 A 
ATOM     58  C   UNL A   1      46.440  31.494  28.197  1.00  0.00     0.049 A 
ATOM     59  C   UNL A   1      43.596  26.754  27.418  1.00  0.00     0.074 A 
ATOM     60  C   UNL A   1      47.696  31.576  27.621  1.00  0.00     0.029 A 
ATOM     61  N   UNL A   1      45.922  30.255  27.855  1.00  0.00    -0.354 N 
ATOM     62  N   UNL A   1      44.389  27.793  27.522  1.00  0.00    -0.248 NA
ATOM     63  C   UNL A   1      44.116  25.695  26.538  1.00  0.00     0.031 C 
ATOM     64  C   UNL A   1      47.914  30.411  26.881  1.00  0.00     0.029 A 
ATOM     65  C   UNL A   1      46.821  29.576  27.050  1.00  0.00     0.049 A 
ATOM     66  H   UNL A   1      45.047  29.909  28.141  1.00  0.00     0.167 HD
ATOM     67  C   UNL A   1      45.510  27.500  26.749  1.00  0.00     0.074 A 
ATOM     68  C   UNL A   1      45.302  26.179  26.195  1.00  0.00     0.031 C 
ATOM     69  C   UNL A   1      46.609  28.256  26.513  1.00  0.00     0.037 A 
BRANCH  56  70
ATOM     70  C   UNL A   1      46.433  33.797  29.214  1.00  0.00     0.057 A 
ATOM     71  C   UNL A   1      46.241  34.884  28.351  1.00  0.00     0.134 A 
ATOM     72  C   UNL A   1      47.247  33.998  30.336  1.00  0.00     0.134 A 
ATOM     73  F   UNL A   1      45.487  34.753  27.249  1.00  0.00    -0.206 F 
ATOM     74  C   UNL A   1      46.845  36.120  28.591  1.00  0.00     0.040 A 
ATOM     75  C   UNL A   1      47.833  35.236  30.602  1.00  0.00     0.040 A 
ATOM     76  F   UNL A   1      47.470  33.000  31.203  1.00  0.00    -0.206 F 
ATOM     77  C   UNL A   1      47.635  36.301  29.725  1.00  0.00     0.006 A 
ENDBRANCH  56  70
BRANCH  57  78
ATOM     78  C   UNL A   1      41.515  25.245  27.782  1.00  0.00     0.057 A 
ATOM     79  C   UNL A   1      40.460  25.200  26.860  1.00  0.00     0.134 A 
ATOM     80  C   UNL A   1      41.804  24.065  28.479  1.00  0.00     0.134 A 
ATOM     81  F   UNL A   1      40.107  26.305  26.186  1.00  0.00    -0.206 F 
ATOM     82  C   UNL A   1      39.706  24.042  26.662  1.00  0.00     0.040 A 
ATOM     83  C   UNL A   1      41.080  22.890  28.266  1.00  0.00     0.040 A 
ATOM     84  F   UNL A   1      42.796  24.037  29.381  1.00  0.00    -0.206 F 
ATOM     85  C   UNL A   1      40.020  22.880  27.364  1.00  0.00     0.006 A 
ENDBRANCH  57  78
BRANCH  69  86
ATOM     86  C   UNL A   1      47.695  27.664  25.658  1.00  0.00     0.057 A 
ATOM     87  C   UNL A   1      48.755  26.929  26.205  1.00  0.00     0.134 A 
ATOM     88  C   UNL A   1      47.653  27.794  24.264  1.00  0.00     0.134 A 
ATOM     89  F   UNL A   1      48.860  26.772  27.533  1.00  0.00    -0.206 F 
ATOM     90  C   UNL A   1      49.747  26.370  25.398  1.00  0.00     0.040 A 
ATOM     91  C   UNL A   1      48.623  27.215  23.444  1.00  0.00     0.040 A 
ATOM     92  F   UNL A   1      46.658  28.473  23.672  1.00  0.00    -0.206 F 
ATOM     93  C   UNL A   1      49.679  26.506  24.013  1.00  0.00     0.006 A 
ENDBRANCH  69  86
ENDBRANCH  43  44
ENDBRANCH  36  38
ENDBRANCH  35  36
ENDBRANCH  34  35
ENDBRANCH  33  34
ENDBRANCH  32  33
ENDBRANCH  31  32
ENDBRANCH   1  31
TORSDOF 23
ENDMDL
