MODEL 1
REMARK VINA RESULT:     -11.3      0.000      0.000
REMARK SMILES C[C@@H]1C[C@H](C)C[C@H]([N@@H+]2[C@H](C(=O)OCCOCCOCCOC(=O)c3ccc(-c4c5nc(c(-c6c(F)cccc6F)c6ccc([nH]6)c(-c6c(F)cccc6F)c6nc(c(-c7c(F)cccc7F)c7ccc4[nH]7)C=C6)C=C5)cc3)CC[C@@H]3CCCC[C@@H]32)C1
REMARK SMILES IDX 17 1 16 2 15 3 14 4 13 5 12 6 10 7 11 8 9 9 8 10 85 11 78 13
REMARK SMILES IDX 80 14 84 15 79 16 81 17 83 18 82 19 7 20 5 21 4 22 6 23 3 24
REMARK SMILES IDX 2 25 86 26 1 27 18 28 19 29 20 30 21 31 22 32 23 33 24 34
REMARK SMILES IDX 25 35 77 36 26 37 76 38 27 39 28 40 29 41 70 42 30 43 75 44
REMARK SMILES IDX 69 45 71 46 31 47 74 48 68 49 67 50 32 52 58 53 41 54 57 55
REMARK SMILES IDX 42 56 45 57 56 58 72 59 43 60 44 61 55 63 73 64 46 65 33 66
REMARK SMILES IDX 34 67 39 68 35 69 36 70 38 71 40 72 37 73 59 74 60 75 65 76
REMARK SMILES IDX 61 77 62 78 64 79 66 80 63 81 47 82 48 83 53 84 49 85 50 86
REMARK SMILES IDX 52 87 54 88 51 89
REMARK H PARENT 8 12 71 51 45 62
REMARK Flexibility Score: inf
ROOT
ATOM      1  C   UNL A   1      40.908  20.016  26.578  1.00  0.00     0.188 C 
ENDROOT
BRANCH   1   2
ATOM      2  C   UNL A   1      40.120  21.311  26.822  1.00  0.00     0.188 C 
BRANCH   2   3
ATOM      3  O   UNL A   1      39.365  21.888  25.759  1.00  0.00    -0.376 OA
BRANCH   3   4
ATOM      4  C   UNL A   1      38.057  21.386  25.526  1.00  0.00     0.202 C 
BRANCH   4   5
ATOM      5  C   UNL A   1      37.249  22.142  24.475  1.00  0.00     0.261 C 
BRANCH   5   6
ATOM      6  O   UNL A   1      35.846  22.287  24.801  1.00  0.00    -0.459 OA
BRANCH   6   7
ATOM      7  C   UNL A   1      35.538  23.513  25.253  1.00  0.00     0.365 C 
ATOM      8  O   UNL A   1      36.361  24.196  25.876  1.00  0.00    -0.245 OA
BRANCH   7   9
ATOM      9  C   UNL A   1      34.196  24.144  24.902  1.00  0.00     0.295 C 
ATOM     10  N   UNL A   1      33.439  25.296  25.560  1.00  0.00    -0.318 N 
ATOM     11  C   UNL A   1      31.979  24.925  25.333  1.00  0.00     0.188 C 
ATOM     12  H   UNL A   1      33.599  25.397  26.562  1.00  0.00     0.349 HD
ATOM     13  C   UNL A   1      34.025  24.164  23.391  1.00  0.00     0.078 C 
ATOM     14  C   UNL A   1      31.537  24.332  23.949  1.00  0.00     0.048 C 
ATOM     15  C   UNL A   1      30.866  25.722  26.028  1.00  0.00     0.065 C 
ATOM     16  C   UNL A   1      32.630  23.663  23.096  1.00  0.00     0.016 C 
ATOM     17  C   UNL A   1      30.729  25.289  23.093  1.00  0.00     0.010 C 
ATOM     18  C   UNL A   1      29.524  25.905  25.302  1.00  0.00     0.006 C 
ATOM     19  C   UNL A   1      29.467  25.766  23.784  1.00  0.00     0.001 C 
BRANCH  10  20
ATOM     20  C   UNL A   1      33.953  26.691  25.256  1.00  0.00     0.185 C 
ATOM     21  C   UNL A   1      31.352  28.584  23.847  1.00  0.00     0.008 C 
ATOM     22  C   UNL A   1      32.846  28.796  23.999  1.00  0.00    -0.008 C 
ATOM     23  C   UNL A   1      33.673  27.491  23.959  1.00  0.00     0.068 C 
ATOM     24  C   UNL A   1      33.158  29.695  25.191  1.00  0.00     0.007 C 
ATOM     25  C   UNL A   1      33.224  28.978  26.536  1.00  0.00    -0.008 C 
ATOM     26  C   UNL A   1      34.012  27.653  26.480  1.00  0.00     0.068 C 
ATOM     27  C   UNL A   1      31.874  28.901  27.259  1.00  0.00     0.008 C 
ENDBRANCH  10  20
ENDBRANCH   7   9
ENDBRANCH   6   7
ENDBRANCH   5   6
ENDBRANCH   4   5
ENDBRANCH   3   4
ENDBRANCH   2   3
ENDBRANCH   1   2
BRANCH   1  28
ATOM     28  O   UNL A   1      41.818  20.103  25.491  1.00  0.00    -0.376 OA
BRANCH  28  29
ATOM     29  C   UNL A   1      43.165  20.281  25.903  1.00  0.00     0.202 C 
BRANCH  29  30
ATOM     30  C   UNL A   1      43.755  21.477  25.152  1.00  0.00     0.261 C 
BRANCH  30  31
ATOM     31  O   UNL A   1      42.874  22.623  25.115  1.00  0.00    -0.460 OA
BRANCH  31  32
ATOM     32  C   UNL A   1      43.475  23.826  25.074  1.00  0.00     0.338 C 
ATOM     33  O   UNL A   1      44.378  24.174  24.311  1.00  0.00    -0.246 OA
BRANCH  32  34
ATOM     34  C   UNL A   1      42.789  24.754  25.987  1.00  0.00     0.060 A 
ATOM     35  C   UNL A   1      42.994  26.124  25.822  1.00  0.00     0.016 A 
ATOM     36  C   UNL A   1      42.044  24.295  27.067  1.00  0.00     0.016 A 
ATOM     37  C   UNL A   1      42.521  27.044  26.750  1.00  0.00     0.010 A 
ATOM     38  C   UNL A   1      41.548  25.219  27.998  1.00  0.00     0.010 A 
ATOM     39  C   UNL A   1      41.814  26.597  27.865  1.00  0.00    -0.014 A 
BRANCH  39  40
ATOM     40  C   UNL A   1      41.487  27.550  28.954  1.00  0.00     0.031 A 
ATOM     41  C   UNL A   1      42.313  27.528  30.209  1.00  0.00     0.074 A 
ATOM     42  C   UNL A   1      40.514  28.470  28.813  1.00  0.00     0.049 A 
ATOM     43  N   UNL A   1      42.092  28.110  31.359  1.00  0.00    -0.248 NA
ATOM     44  C   UNL A   1      43.560  26.747  30.157  1.00  0.00     0.031 C 
ATOM     45  C   UNL A   1      39.722  28.692  27.605  1.00  0.00     0.029 A 
ATOM     46  N   UNL A   1      40.026  29.389  29.709  1.00  0.00    -0.354 N 
ATOM     47  C   UNL A   1      43.140  27.721  32.184  1.00  0.00     0.074 A 
ATOM     48  C   UNL A   1      44.004  26.865  31.400  1.00  0.00     0.031 C 
ATOM     49  C   UNL A   1      38.841  29.680  27.837  1.00  0.00     0.029 A 
ATOM     50  C   UNL A   1      38.956  30.104  29.229  1.00  0.00     0.049 A 
ATOM     51  H   UNL A   1      40.407  29.524  30.607  1.00  0.00     0.167 HD
ATOM     52  C   UNL A   1      43.353  28.044  33.480  1.00  0.00     0.037 A 
ATOM     53  C   UNL A   1      38.126  30.957  29.859  1.00  0.00     0.037 A 
ATOM     54  C   UNL A   1      42.512  28.929  34.242  1.00  0.00     0.049 A 
ATOM     55  C   UNL A   1      38.325  31.231  31.325  1.00  0.00     0.074 A 
ATOM     56  C   UNL A   1      42.631  29.305  35.568  1.00  0.00     0.029 A 
ATOM     57  N   UNL A   1      41.403  29.588  33.735  1.00  0.00    -0.354 N 
ATOM     58  N   UNL A   1      39.262  30.789  32.130  1.00  0.00    -0.248 NA
ATOM     59  C   UNL A   1      37.338  32.105  31.976  1.00  0.00     0.031 C 
ATOM     60  C   UNL A   1      41.571  30.167  35.874  1.00  0.00     0.029 A 
ATOM     61  C   UNL A   1      40.818  30.359  34.726  1.00  0.00     0.049 A 
ATOM     62  H   UNL A   1      41.078  29.518  32.808  1.00  0.00     0.167 HD
ATOM     63  C   UNL A   1      38.985  31.341  33.374  1.00  0.00     0.074 A 
ATOM     64  C   UNL A   1      37.804  32.163  33.215  1.00  0.00     0.031 C 
ATOM     65  C   UNL A   1      39.647  31.177  34.546  1.00  0.00     0.037 A 
BRANCH  52  66
ATOM     66  C   UNL A   1      44.511  27.391  34.173  1.00  0.00     0.057 A 
ATOM     67  C   UNL A   1      44.401  26.145  34.801  1.00  0.00     0.134 A 
ATOM     68  C   UNL A   1      45.764  28.016  34.189  1.00  0.00     0.134 A 
ATOM     69  F   UNL A   1      43.223  25.503  34.838  1.00  0.00    -0.206 F 
ATOM     70  C   UNL A   1      45.494  25.551  35.435  1.00  0.00     0.040 A 
ATOM     71  C   UNL A   1      46.870  27.423  34.800  1.00  0.00     0.040 A 
ATOM     72  F   UNL A   1      45.935  29.213  33.606  1.00  0.00    -0.206 F 
ATOM     73  C   UNL A   1      46.735  26.187  35.429  1.00  0.00     0.006 A 
ENDBRANCH  52  66
BRANCH  53  74
ATOM     74  C   UNL A   1      36.982  31.559  29.128  1.00  0.00     0.057 A 
ATOM     75  C   UNL A   1      37.028  32.879  28.666  1.00  0.00     0.134 A 
ATOM     76  C   UNL A   1      35.806  30.835  28.894  1.00  0.00     0.134 A 
ATOM     77  F   UNL A   1      38.115  33.633  28.886  1.00  0.00    -0.206 F 
ATOM     78  C   UNL A   1      35.943  33.460  28.008  1.00  0.00     0.040 A 
ATOM     79  C   UNL A   1      34.724  31.395  28.213  1.00  0.00     0.040 A 
ATOM     80  F   UNL A   1      35.696  29.567  29.317  1.00  0.00    -0.206 F 
ATOM     81  C   UNL A   1      34.789  32.715  27.774  1.00  0.00     0.006 A 
ENDBRANCH  53  74
BRANCH  65  82
ATOM     82  C   UNL A   1      39.130  31.929  35.735  1.00  0.00     0.057 A 
ATOM     83  C   UNL A   1      39.518  33.248  35.999  1.00  0.00     0.134 A 
ATOM     84  C   UNL A   1      38.204  31.338  36.604  1.00  0.00     0.134 A 
ATOM     85  F   UNL A   1      40.413  33.865  35.212  1.00  0.00    -0.206 F 
ATOM     86  C   UNL A   1      39.018  33.948  37.099  1.00  0.00     0.040 A 
ATOM     87  C   UNL A   1      37.679  32.035  37.693  1.00  0.00     0.040 A 
ATOM     88  F   UNL A   1      37.785  30.080  36.401  1.00  0.00    -0.206 F 
ATOM     89  C   UNL A   1      38.089  33.342  37.945  1.00  0.00     0.006 A 
ENDBRANCH  65  82
ENDBRANCH  39  40
ENDBRANCH  32  34
ENDBRANCH  31  32
ENDBRANCH  30  31
ENDBRANCH  29  30
ENDBRANCH  28  29
ENDBRANCH   1  28
TORSDOF 18
ENDMDL
MODEL 2
REMARK VINA RESULT:     -11.0      4.545      9.623
REMARK SMILES C[C@@H]1C[C@H](C)C[C@H]([N@@H+]2[C@H](C(=O)OCCOCCOCCOC(=O)c3ccc(-c4c5nc(c(-c6c(F)cccc6F)c6ccc([nH]6)c(-c6c(F)cccc6F)c6nc(c(-c7c(F)cccc7F)c7ccc4[nH]7)C=C6)C=C5)cc3)CC[C@@H]3CCCC[C@@H]32)C1
REMARK SMILES IDX 17 1 16 2 15 3 14 4 13 5 12 6 10 7 11 8 9 9 8 10 85 11 78 13
REMARK SMILES IDX 80 14 84 15 79 16 81 17 83 18 82 19 7 20 5 21 4 22 6 23 3 24
REMARK SMILES IDX 2 25 86 26 1 27 18 28 19 29 20 30 21 31 22 32 23 33 24 34
REMARK SMILES IDX 25 35 77 36 26 37 76 38 27 39 28 40 29 41 70 42 30 43 75 44
REMARK SMILES IDX 69 45 71 46 31 47 74 48 68 49 67 50 32 52 58 53 41 54 57 55
REMARK SMILES IDX 42 56 45 57 56 58 72 59 43 60 44 61 55 63 73 64 46 65 33 66
REMARK SMILES IDX 34 67 39 68 35 69 36 70 38 71 40 72 37 73 59 74 60 75 65 76
REMARK SMILES IDX 61 77 62 78 64 79 66 80 63 81 47 82 48 83 53 84 49 85 50 86
REMARK SMILES IDX 52 87 54 88 51 89
REMARK H PARENT 8 12 71 51 45 62
REMARK Flexibility Score: inf
ROOT
ATOM      1  C   UNL A   1      33.390  33.929  28.146  1.00  0.00     0.188 C 
ENDROOT
BRANCH   1   2
ATOM      2  C   UNL A   1      34.197  32.692  27.725  1.00  0.00     0.188 C 
BRANCH   2   3
ATOM      3  O   UNL A   1      33.717  31.391  28.056  1.00  0.00    -0.376 OA
BRANCH   3   4
ATOM      4  C   UNL A   1      32.746  30.806  27.201  1.00  0.00     0.202 C 
BRANCH   4   5
ATOM      5  C   UNL A   1      33.213  29.571  26.436  1.00  0.00     0.261 C 
BRANCH   5   6
ATOM      6  O   UNL A   1      33.390  28.396  27.265  1.00  0.00    -0.459 OA
BRANCH   6   7
ATOM      7  C   UNL A   1      32.357  27.542  27.189  1.00  0.00     0.365 C 
ATOM      8  O   UNL A   1      31.239  27.843  27.625  1.00  0.00    -0.245 OA
BRANCH   7   9
ATOM      9  C   UNL A   1      32.512  26.218  26.451  1.00  0.00     0.295 C 
ATOM     10  N   UNL A   1      31.458  25.228  25.960  1.00  0.00    -0.318 N 
ATOM     11  C   UNL A   1      32.166  23.884  26.073  1.00  0.00     0.188 C 
ATOM     12  H   UNL A   1      30.605  25.196  26.520  1.00  0.00     0.349 HD
ATOM     13  C   UNL A   1      33.674  26.314  25.474  1.00  0.00     0.078 C 
ATOM     14  C   UNL A   1      33.671  23.764  25.646  1.00  0.00     0.048 C 
ATOM     15  C   UNL A   1      31.380  22.581  25.873  1.00  0.00     0.065 C 
ATOM     16  C   UNL A   1      34.501  25.061  25.646  1.00  0.00     0.016 C 
ATOM     17  C   UNL A   1      33.891  23.013  24.347  1.00  0.00     0.010 C 
ATOM     18  C   UNL A   1      32.095  21.375  25.243  1.00  0.00     0.006 C 
ATOM     19  C   UNL A   1      33.338  21.603  24.389  1.00  0.00     0.001 C 
BRANCH  10  20
ATOM     20  C   UNL A   1      30.710  25.619  24.699  1.00  0.00     0.185 C 
ATOM     21  C   UNL A   1      32.035  28.631  23.474  1.00  0.00     0.008 C 
ATOM     22  C   UNL A   1      30.802  27.811  23.144  1.00  0.00    -0.008 C 
ATOM     23  C   UNL A   1      30.216  27.046  24.351  1.00  0.00     0.068 C 
ATOM     24  C   UNL A   1      31.028  26.947  21.907  1.00  0.00     0.007 C 
ATOM     25  C   UNL A   1      31.721  25.615  22.174  1.00  0.00    -0.008 C 
ATOM     26  C   UNL A   1      31.162  24.875  23.407  1.00  0.00     0.068 C 
ATOM     27  C   UNL A   1      33.250  25.690  22.100  1.00  0.00     0.008 C 
ENDBRANCH  10  20
ENDBRANCH   7   9
ENDBRANCH   6   7
ENDBRANCH   5   6
ENDBRANCH   4   5
ENDBRANCH   3   4
ENDBRANCH   2   3
ENDBRANCH   1   2
BRANCH   1  28
ATOM     28  O   UNL A   1      34.122  34.834  28.960  1.00  0.00    -0.376 OA
BRANCH  28  29
ATOM     29  C   UNL A   1      33.490  35.103  30.203  1.00  0.00     0.202 C 
BRANCH  29  30
ATOM     30  C   UNL A   1      34.453  34.732  31.334  1.00  0.00     0.261 C 
BRANCH  30  31
ATOM     31  O   UNL A   1      35.494  33.816  30.924  1.00  0.00    -0.460 OA
BRANCH  31  32
ATOM     32  C   UNL A   1      35.583  32.672  31.626  1.00  0.00     0.338 C 
ATOM     33  O   UNL A   1      34.841  32.310  32.541  1.00  0.00    -0.246 OA
BRANCH  32  34
ATOM     34  C   UNL A   1      36.620  31.809  31.040  1.00  0.00     0.060 A 
ATOM     35  C   UNL A   1      37.425  31.058  31.896  1.00  0.00     0.016 A 
ATOM     36  C   UNL A   1      36.887  31.816  29.675  1.00  0.00     0.016 A 
ATOM     37  C   UNL A   1      38.531  30.361  31.426  1.00  0.00     0.010 A 
ATOM     38  C   UNL A   1      37.991  31.100  29.191  1.00  0.00     0.010 A 
ATOM     39  C   UNL A   1      38.842  30.397  30.068  1.00  0.00    -0.014 A 
BRANCH  39  40
ATOM     40  C   UNL A   1      40.127  29.826  29.597  1.00  0.00     0.031 A 
ATOM     41  C   UNL A   1      41.334  30.718  29.526  1.00  0.00     0.074 A 
ATOM     42  C   UNL A   1      40.247  28.520  29.296  1.00  0.00     0.049 A 
ATOM     43  N   UNL A   1      42.493  30.505  28.959  1.00  0.00    -0.248 NA
ATOM     44  C   UNL A   1      41.218  32.028  30.190  1.00  0.00     0.031 C 
ATOM     45  C   UNL A   1      39.197  27.513  29.442  1.00  0.00     0.029 A 
ATOM     46  N   UNL A   1      41.317  27.818  28.796  1.00  0.00    -0.354 N 
ATOM     47  C   UNL A   1      43.224  31.672  29.148  1.00  0.00     0.074 A 
ATOM     48  C   UNL A   1      42.384  32.585  29.893  1.00  0.00     0.031 C 
ATOM     49  C   UNL A   1      39.672  26.324  29.034  1.00  0.00     0.029 A 
ATOM     50  C   UNL A   1      41.030  26.503  28.527  1.00  0.00     0.049 A 
ATOM     51  H   UNL A   1      42.203  28.220  28.645  1.00  0.00     0.167 HD
ATOM     52  C   UNL A   1      44.478  31.954  28.728  1.00  0.00     0.037 A 
ATOM     53  C   UNL A   1      41.757  25.565  27.890  1.00  0.00     0.037 A 
ATOM     54  C   UNL A   1      45.324  31.027  28.024  1.00  0.00     0.049 A 
ATOM     55  C   UNL A   1      43.114  25.927  27.350  1.00  0.00     0.074 A 
ATOM     56  C   UNL A   1      46.603  31.222  27.537  1.00  0.00     0.029 A 
ATOM     57  N   UNL A   1      44.973  29.721  27.719  1.00  0.00    -0.354 N 
ATOM     58  N   UNL A   1      43.768  27.060  27.445  1.00  0.00    -0.248 NA
ATOM     59  C   UNL A   1      43.825  24.887  26.591  1.00  0.00     0.031 C 
ATOM     60  C   UNL A   1      47.016  30.043  26.906  1.00  0.00     0.029 A 
ATOM     61  C   UNL A   1      46.008  29.101  27.039  1.00  0.00     0.049 A 
ATOM     62  H   UNL A   1      44.116  29.295  27.952  1.00  0.00     0.167 HD
ATOM     63  C   UNL A   1      44.968  26.864  26.775  1.00  0.00     0.074 A 
ATOM     64  C   UNL A   1      44.961  25.500  26.291  1.00  0.00     0.031 C 
ATOM     65  C   UNL A   1      45.985  27.739  26.572  1.00  0.00     0.037 A 
BRANCH  52  66
ATOM     66  C   UNL A   1      44.991  33.342  28.970  1.00  0.00     0.057 A 
ATOM     67  C   UNL A   1      44.734  34.399  28.088  1.00  0.00     0.134 A 
ATOM     68  C   UNL A   1      45.737  33.625  30.121  1.00  0.00     0.134 A 
ATOM     69  F   UNL A   1      44.043  34.189  26.958  1.00  0.00    -0.206 F 
ATOM     70  C   UNL A   1      45.216  35.686  28.336  1.00  0.00     0.040 A 
ATOM     71  C   UNL A   1      46.205  34.912  30.391  1.00  0.00     0.040 A 
ATOM     72  F   UNL A   1      46.019  32.655  31.005  1.00  0.00    -0.206 F 
ATOM     73  C   UNL A   1      45.947  35.947  29.494  1.00  0.00     0.006 A 
ENDBRANCH  52  66
BRANCH  53  74
ATOM     74  C   UNL A   1      41.191  24.212  27.661  1.00  0.00     0.057 A 
ATOM     75  C   UNL A   1      41.660  23.098  28.365  1.00  0.00     0.134 A 
ATOM     76  C   UNL A   1      40.181  23.997  26.714  1.00  0.00     0.134 A 
ATOM     77  F   UNL A   1      42.646  23.234  29.263  1.00  0.00    -0.206 F 
ATOM     78  C   UNL A   1      41.154  21.819  28.129  1.00  0.00     0.040 A 
ATOM     79  C   UNL A   1      39.647  22.728  26.487  1.00  0.00     0.040 A 
ATOM     80  F   UNL A   1      39.693  25.023  26.000  1.00  0.00    -0.206 F 
ATOM     81  C   UNL A   1      40.139  21.633  27.192  1.00  0.00     0.006 A 
ENDBRANCH  53  74
BRANCH  65  82
ATOM     82  C   UNL A   1      47.184  27.234  25.827  1.00  0.00     0.057 A 
ATOM     83  C   UNL A   1      47.348  27.458  24.456  1.00  0.00     0.134 A 
ATOM     84  C   UNL A   1      48.204  26.549  26.500  1.00  0.00     0.134 A 
ATOM     85  F   UNL A   1      46.400  28.096  23.752  1.00  0.00    -0.206 F 
ATOM     86  C   UNL A   1      48.477  27.000  23.773  1.00  0.00     0.040 A 
ATOM     87  C   UNL A   1      49.348  26.107  25.834  1.00  0.00     0.040 A 
ATOM     88  F   UNL A   1      48.111  26.310  27.817  1.00  0.00    -0.206 F 
ATOM     89  C   UNL A   1      49.484  26.329  24.465  1.00  0.00     0.006 A 
ENDBRANCH  65  82
ENDBRANCH  39  40
ENDBRANCH  32  34
ENDBRANCH  31  32
ENDBRANCH  30  31
ENDBRANCH  29  30
ENDBRANCH  28  29
ENDBRANCH   1  28
TORSDOF 18
ENDMDL
MODEL 3
REMARK VINA RESULT:     -11.0      3.745      8.746
REMARK SMILES C[C@@H]1C[C@H](C)C[C@H]([N@@H+]2[C@H](C(=O)OCCOCCOCCOC(=O)c3ccc(-c4c5nc(c(-c6c(F)cccc6F)c6ccc([nH]6)c(-c6c(F)cccc6F)c6nc(c(-c7c(F)cccc7F)c7ccc4[nH]7)C=C6)C=C5)cc3)CC[C@@H]3CCCC[C@@H]32)C1
REMARK SMILES IDX 17 1 16 2 15 3 14 4 13 5 12 6 10 7 11 8 9 9 8 10 85 11 78 13
REMARK SMILES IDX 80 14 84 15 79 16 81 17 83 18 82 19 7 20 5 21 4 22 6 23 3 24
REMARK SMILES IDX 2 25 86 26 1 27 18 28 19 29 20 30 21 31 22 32 23 33 24 34
REMARK SMILES IDX 25 35 77 36 26 37 76 38 27 39 28 40 29 41 70 42 30 43 75 44
REMARK SMILES IDX 69 45 71 46 31 47 74 48 68 49 67 50 32 52 58 53 41 54 57 55
REMARK SMILES IDX 42 56 45 57 56 58 72 59 43 60 44 61 55 63 73 64 46 65 33 66
REMARK SMILES IDX 34 67 39 68 35 69 36 70 38 71 40 72 37 73 59 74 60 75 65 76
REMARK SMILES IDX 61 77 62 78 64 79 66 80 63 81 47 82 48 83 53 84 49 85 50 86
REMARK SMILES IDX 52 87 54 88 51 89
REMARK H PARENT 8 12 71 51 45 62
REMARK Flexibility Score: inf
ROOT
ATOM      1  C   UNL A   1      35.103  33.385  28.011  1.00  0.00     0.188 C 
ENDROOT
BRANCH   1   2
ATOM      2  C   UNL A   1      35.344  31.947  28.493  1.00  0.00     0.188 C 
BRANCH   2   3
ATOM      3  O   UNL A   1      34.586  30.879  27.929  1.00  0.00    -0.376 OA
BRANCH   3   4
ATOM      4  C   UNL A   1      33.286  31.176  27.440  1.00  0.00     0.202 C 
BRANCH   4   5
ATOM      5  C   UNL A   1      32.565  30.012  26.766  1.00  0.00     0.261 C 
BRANCH   5   6
ATOM      6  O   UNL A   1      33.145  28.715  27.047  1.00  0.00    -0.459 OA
BRANCH   6   7
ATOM      7  C   UNL A   1      32.224  27.751  27.200  1.00  0.00     0.365 C 
ATOM      8  O   UNL A   1      31.184  27.950  27.840  1.00  0.00    -0.245 OA
BRANCH   7   9
ATOM      9  C   UNL A   1      32.385  26.417  26.482  1.00  0.00     0.295 C 
ATOM     10  N   UNL A   1      31.336  25.430  25.975  1.00  0.00    -0.318 N 
ATOM     11  C   UNL A   1      32.029  24.082  26.123  1.00  0.00     0.188 C 
ATOM     12  H   UNL A   1      30.469  25.413  26.512  1.00  0.00     0.349 HD
ATOM     13  C   UNL A   1      33.574  26.491  25.535  1.00  0.00     0.078 C 
ATOM     14  C   UNL A   1      33.543  23.943  25.737  1.00  0.00     0.048 C 
ATOM     15  C   UNL A   1      31.236  22.783  25.917  1.00  0.00     0.065 C 
ATOM     16  C   UNL A   1      34.385  25.233  25.744  1.00  0.00     0.016 C 
ATOM     17  C   UNL A   1      33.790  23.174  24.454  1.00  0.00     0.010 C 
ATOM     18  C   UNL A   1      31.956  21.563  25.321  1.00  0.00     0.006 C 
ATOM     19  C   UNL A   1      33.224  21.769  24.498  1.00  0.00     0.001 C 
BRANCH  10  20
ATOM     20  C   UNL A   1      30.625  25.813  24.689  1.00  0.00     0.185 C 
ATOM     21  C   UNL A   1      32.000  28.805  23.473  1.00  0.00     0.008 C 
ATOM     22  C   UNL A   1      30.773  27.989  23.116  1.00  0.00    -0.008 C 
ATOM     23  C   UNL A   1      30.149  27.239  24.314  1.00  0.00     0.068 C 
ATOM     24  C   UNL A   1      31.029  27.112  21.895  1.00  0.00     0.007 C 
ATOM     25  C   UNL A   1      31.707  25.778  22.194  1.00  0.00    -0.008 C 
ATOM     26  C   UNL A   1      31.109  25.054  23.418  1.00  0.00     0.068 C 
ATOM     27  C   UNL A   1      33.238  25.845  22.162  1.00  0.00     0.008 C 
ENDBRANCH  10  20
ENDBRANCH   7   9
ENDBRANCH   6   7
ENDBRANCH   5   6
ENDBRANCH   4   5
ENDBRANCH   3   4
ENDBRANCH   2   3
ENDBRANCH   1   2
BRANCH   1  28
ATOM     28  O   UNL A   1      34.235  34.128  28.855  1.00  0.00    -0.376 OA
BRANCH  28  29
ATOM     29  C   UNL A   1      34.058  35.472  28.429  1.00  0.00     0.202 C 
BRANCH  29  30
ATOM     30  C   UNL A   1      33.062  36.156  29.368  1.00  0.00     0.261 C 
BRANCH  30  31
ATOM     31  O   UNL A   1      32.541  35.279  30.393  1.00  0.00    -0.460 OA
BRANCH  31  32
ATOM     32  C   UNL A   1      32.620  35.736  31.655  1.00  0.00     0.338 C 
ATOM     33  O   UNL A   1      31.847  36.524  32.204  1.00  0.00    -0.246 OA
BRANCH  32  34
ATOM     34  C   UNL A   1      33.698  35.035  32.370  1.00  0.00     0.060 A 
ATOM     35  C   UNL A   1      34.975  35.595  32.368  1.00  0.00     0.016 A 
ATOM     36  C   UNL A   1      33.497  33.783  32.943  1.00  0.00     0.016 A 
ATOM     37  C   UNL A   1      36.071  34.904  32.871  1.00  0.00     0.010 A 
ATOM     38  C   UNL A   1      34.595  33.088  33.468  1.00  0.00     0.010 A 
ATOM     39  C   UNL A   1      35.895  33.628  33.404  1.00  0.00    -0.014 A 
BRANCH  39  40
ATOM     40  C   UNL A   1      37.084  32.812  33.752  1.00  0.00     0.031 A 
ATOM     41  C   UNL A   1      37.754  33.035  35.078  1.00  0.00     0.074 A 
ATOM     42  C   UNL A   1      37.532  31.839  32.936  1.00  0.00     0.049 A 
ATOM     43  N   UNL A   1      38.909  32.600  35.510  1.00  0.00    -0.248 NA
ATOM     44  C   UNL A   1      37.017  33.858  36.052  1.00  0.00     0.031 C 
ATOM     45  C   UNL A   1      36.904  31.425  31.683  1.00  0.00     0.029 A 
ATOM     46  N   UNL A   1      38.631  31.023  33.047  1.00  0.00    -0.354 N 
ATOM     47  C   UNL A   1      39.064  33.141  36.780  1.00  0.00     0.074 A 
ATOM     48  C   UNL A   1      37.879  33.925  37.056  1.00  0.00     0.031 C 
ATOM     49  C   UNL A   1      37.632  30.437  31.135  1.00  0.00     0.029 A 
ATOM     50  C   UNL A   1      38.815  30.205  31.959  1.00  0.00     0.049 A 
ATOM     51  H   UNL A   1      39.228  31.025  33.829  1.00  0.00     0.167 HD
ATOM     52  C   UNL A   1      40.106  33.001  37.631  1.00  0.00     0.037 A 
ATOM     53  C   UNL A   1      39.849  29.405  31.637  1.00  0.00     0.037 A 
ATOM     54  C   UNL A   1      41.262  32.185  37.368  1.00  0.00     0.049 A 
ATOM     55  C   UNL A   1      41.039  29.334  32.555  1.00  0.00     0.074 A 
ATOM     56  C   UNL A   1      42.381  31.992  38.157  1.00  0.00     0.029 A 
ATOM     57  N   UNL A   1      41.437  31.417  36.228  1.00  0.00    -0.354 N 
ATOM     58  N   UNL A   1      41.227  29.920  33.713  1.00  0.00    -0.248 NA
ATOM     59  C   UNL A   1      42.172  28.510  32.109  1.00  0.00     0.031 C 
ATOM     60  C   UNL A   1      43.251  31.131  37.478  1.00  0.00     0.029 A 
ATOM     61  C   UNL A   1      42.653  30.757  36.285  1.00  0.00     0.049 A 
ATOM     62  H   UNL A   1      40.792  31.349  35.486  1.00  0.00     0.167 HD
ATOM     63  C   UNL A   1      42.489  29.524  34.140  1.00  0.00     0.074 A 
ATOM     64  C   UNL A   1      43.015  28.635  33.125  1.00  0.00     0.031 C 
ATOM     65  C   UNL A   1      43.155  29.869  35.268  1.00  0.00     0.037 A 
BRANCH  52  66
ATOM     66  C   UNL A   1      40.067  33.790  38.905  1.00  0.00     0.057 A 
ATOM     67  C   UNL A   1      40.696  35.034  39.033  1.00  0.00     0.134 A 
ATOM     68  C   UNL A   1      39.367  33.301  40.015  1.00  0.00     0.134 A 
ATOM     69  F   UNL A   1      41.400  35.549  38.013  1.00  0.00    -0.206 F 
ATOM     70  C   UNL A   1      40.643  35.757  40.227  1.00  0.00     0.040 A 
ATOM     71  C   UNL A   1      39.287  34.024  41.206  1.00  0.00     0.040 A 
ATOM     72  F   UNL A   1      38.743  32.114  39.957  1.00  0.00    -0.206 F 
ATOM     73  C   UNL A   1      39.930  35.255  41.315  1.00  0.00     0.006 A 
ENDBRANCH  52  66
BRANCH  53  74
ATOM     74  C   UNL A   1      39.843  28.661  30.352  1.00  0.00     0.057 A 
ATOM     75  C   UNL A   1      40.418  29.200  29.196  1.00  0.00     0.134 A 
ATOM     76  C   UNL A   1      39.240  27.401  30.245  1.00  0.00     0.134 A 
ATOM     77  F   UNL A   1      40.984  30.415  29.228  1.00  0.00    -0.206 F 
ATOM     78  C   UNL A   1      40.385  28.518  27.979  1.00  0.00     0.040 A 
ATOM     79  C   UNL A   1      39.223  26.697  29.040  1.00  0.00     0.040 A 
ATOM     80  F   UNL A   1      38.664  26.832  31.314  1.00  0.00    -0.206 F 
ATOM     81  C   UNL A   1      39.792  27.260  27.900  1.00  0.00     0.006 A 
ENDBRANCH  53  74
BRANCH  65  82
ATOM     82  C   UNL A   1      44.507  29.257  35.480  1.00  0.00     0.057 A 
ATOM     83  C   UNL A   1      45.679  29.894  35.057  1.00  0.00     0.134 A 
ATOM     84  C   UNL A   1      44.638  28.034  36.150  1.00  0.00     0.134 A 
ATOM     85  F   UNL A   1      45.620  31.062  34.398  1.00  0.00    -0.206 F 
ATOM     86  C   UNL A   1      46.936  29.325  35.274  1.00  0.00     0.040 A 
ATOM     87  C   UNL A   1      45.890  27.467  36.394  1.00  0.00     0.040 A 
ATOM     88  F   UNL A   1      43.553  27.377  36.588  1.00  0.00    -0.206 F 
ATOM     89  C   UNL A   1      47.043  28.111  35.951  1.00  0.00     0.006 A 
ENDBRANCH  65  82
ENDBRANCH  39  40
ENDBRANCH  32  34
ENDBRANCH  31  32
ENDBRANCH  30  31
ENDBRANCH  29  30
ENDBRANCH  28  29
ENDBRANCH   1  28
TORSDOF 18
ENDMDL
