MODEL 1
REMARK VINA RESULT:     -10.2      0.000      0.000
REMARK SMILES Cc1nc(C[N@@H+]2CCC[C@H]2C(=O)OCCOCCOCCOC(=O)c2ccc(-c3c4nc(c(-c5c(F)cccc5F)c5ccc([nH]5)c(-c5c(F)cccc5F)c5nc(c(-c6c(F)cccc6F)c6ccc3[nH]6)C=C5)C=C4)cc2)cs1
REMARK SMILES IDX 17 1 16 2 15 3 14 4 13 5 11 6 12 7 10 8 6 9 7 10 8 12 9 13
REMARK SMILES IDX 5 14 4 15 1 16 2 17 3 18 80 19 79 20 18 21 19 22 20 23 21 24
REMARK SMILES IDX 22 25 23 26 24 27 25 28 26 29 78 30 27 31 77 32 28 33 29 34
REMARK SMILES IDX 30 35 71 36 31 37 76 38 70 39 72 40 32 41 75 42 69 43 68 44
REMARK SMILES IDX 33 46 59 47 42 48 58 49 43 50 46 51 57 52 73 53 44 54 45 55
REMARK SMILES IDX 56 57 74 58 47 59 34 60 35 61 40 62 36 63 37 64 39 65 41 66
REMARK SMILES IDX 38 67 60 68 61 69 66 70 62 71 63 72 65 73 67 74 64 75 48 76
REMARK SMILES IDX 49 77 54 78 50 79 51 80 53 81 55 82 52 83
REMARK H PARENT 6 11 72 45 46 56
REMARK Flexibility Score: inf
ROOT
ATOM      1  C   UNL A   1      39.877  21.779  26.205  1.00  0.00     0.188 C 
ENDROOT
BRANCH   1   2
ATOM      2  O   UNL A   1      38.687  21.143  25.795  1.00  0.00    -0.376 OA
BRANCH   2   3
ATOM      3  C   UNL A   1      37.682  21.859  25.097  1.00  0.00     0.202 C 
BRANCH   3   4
ATOM      4  C   UNL A   1      36.990  23.123  25.640  1.00  0.00     0.261 C 
BRANCH   4   5
ATOM      5  O   UNL A   1      35.574  23.180  25.451  1.00  0.00    -0.459 OA
BRANCH   5   6
ATOM      6  C   UNL A   1      34.871  22.035  25.704  1.00  0.00     0.365 C 
ATOM      7  O   UNL A   1      34.814  21.484  26.797  1.00  0.00    -0.245 OA
BRANCH   6   8
ATOM      8  C   UNL A   1      34.082  21.599  24.445  1.00  0.00     0.295 C 
ATOM      9  N   UNL A   1      32.872  20.864  24.844  1.00  0.00    -0.318 N 
ATOM     10  C   UNL A   1      31.824  21.866  24.997  1.00  0.00     0.263 C 
ATOM     11  H   UNL A   1      33.014  20.386  25.735  1.00  0.00     0.349 HD
ATOM     12  C   UNL A   1      32.152  22.995  24.030  1.00  0.00     0.068 C 
ATOM     13  C   UNL A   1      33.607  22.799  23.638  1.00  0.00     0.083 C 
BRANCH   9  14
ATOM     14  C   UNL A   1      32.550  19.696  24.012  1.00  0.00     0.321 C 
BRANCH  14  15
ATOM     15  C   UNL A   1      33.084  18.367  24.480  1.00  0.00     0.106 A 
ATOM     16  C   UNL A   1      32.235  15.074  25.849  1.00  0.00     0.079 C 
ATOM     17  C   UNL A   1      32.859  16.312  25.301  1.00  0.00     0.090 A 
ATOM     18  N   UNL A   1      32.223  17.447  25.079  1.00  0.00    -0.241 NA
ATOM     19  S   UNL A   1      34.530  16.311  24.903  1.00  0.00    -0.127 S 
ATOM     20  C   UNL A   1      34.371  17.897  24.292  1.00  0.00     0.096 A 
ENDBRANCH  14  15
ENDBRANCH   9  14
ENDBRANCH   6   8
ENDBRANCH   5   6
ENDBRANCH   4   5
ENDBRANCH   3   4
ENDBRANCH   2   3
ENDBRANCH   1   2
BRANCH   1  21
ATOM     21  C   UNL A   1      40.660  21.248  27.427  1.00  0.00     0.188 C 
BRANCH  21  22
ATOM     22  O   UNL A   1      41.823  20.474  27.245  1.00  0.00    -0.376 OA
BRANCH  22  23
ATOM     23  C   UNL A   1      42.514  20.521  26.011  1.00  0.00     0.202 C 
BRANCH  23  24
ATOM     24  C   UNL A   1      43.453  21.672  25.607  1.00  0.00     0.261 C 
BRANCH  24  25
ATOM     25  O   UNL A   1      42.846  22.940  25.319  1.00  0.00    -0.460 OA
BRANCH  25  26
ATOM     26  C   UNL A   1      43.681  24.008  25.305  1.00  0.00     0.338 C 
ATOM     27  O   UNL A   1      44.537  24.274  24.471  1.00  0.00    -0.246 OA
BRANCH  26  28
ATOM     28  C   UNL A   1      43.315  24.927  26.401  1.00  0.00     0.060 A 
ATOM     29  C   UNL A   1      42.217  24.627  27.221  1.00  0.00     0.016 A 
ATOM     30  C   UNL A   1      44.049  26.095  26.601  1.00  0.00     0.016 A 
ATOM     31  C   UNL A   1      41.864  25.489  28.264  1.00  0.00     0.010 A 
ATOM     32  C   UNL A   1      43.676  26.969  27.626  1.00  0.00     0.010 A 
ATOM     33  C   UNL A   1      42.580  26.677  28.461  1.00  0.00    -0.014 A 
BRANCH  33  34
ATOM     34  C   UNL A   1      42.159  27.674  29.477  1.00  0.00     0.031 A 
ATOM     35  C   UNL A   1      42.861  27.709  30.805  1.00  0.00     0.074 A 
ATOM     36  C   UNL A   1      41.121  28.497  29.244  1.00  0.00     0.049 A 
ATOM     37  N   UNL A   1      42.556  28.378  31.887  1.00  0.00    -0.248 NA
ATOM     38  C   UNL A   1      44.065  26.874  30.929  1.00  0.00     0.031 C 
ATOM     39  C   UNL A   1      40.384  28.594  27.985  1.00  0.00     0.029 A 
ATOM     40  N   UNL A   1      40.488  29.388  30.076  1.00  0.00    -0.354 N 
ATOM     41  C   UNL A   1      43.517  28.030  32.828  1.00  0.00     0.074 A 
ATOM     42  C   UNL A   1      44.407  27.083  32.192  1.00  0.00     0.031 C 
ATOM     43  C   UNL A   1      39.380  29.477  28.137  1.00  0.00     0.029 A 
ATOM     44  C   UNL A   1      39.376  29.969  29.513  1.00  0.00     0.049 A 
ATOM     45  H   UNL A   1      40.800  29.592  30.987  1.00  0.00     0.167 HD
ATOM     46  C   UNL A   1      43.639  28.460  34.107  1.00  0.00     0.037 A 
ATOM     47  C   UNL A   1      38.439  30.770  30.059  1.00  0.00     0.037 A 
ATOM     48  C   UNL A   1      42.749  29.401  34.737  1.00  0.00     0.049 A 
ATOM     49  C   UNL A   1      38.542  31.151  31.514  1.00  0.00     0.074 A 
ATOM     50  C   UNL A   1      42.822  29.931  36.013  1.00  0.00     0.029 A 
ATOM     51  N   UNL A   1      41.615  29.936  34.147  1.00  0.00    -0.354 N 
ATOM     52  N   UNL A   1      39.477  30.855  32.385  1.00  0.00    -0.248 NA
ATOM     53  C   UNL A   1      37.449  31.967  32.067  1.00  0.00     0.031 C 
ATOM     54  C   UNL A   1      41.696  30.733  36.219  1.00  0.00     0.029 A 
ATOM     55  C   UNL A   1      40.953  30.752  35.050  1.00  0.00     0.049 A 
ATOM     56  H   UNL A   1      41.323  29.762  33.222  1.00  0.00     0.167 HD
ATOM     57  C   UNL A   1      39.098  31.466  33.576  1.00  0.00     0.074 A 
ATOM     58  C   UNL A   1      37.859  32.165  33.313  1.00  0.00     0.031 C 
ATOM     59  C   UNL A   1      39.720  31.446  34.780  1.00  0.00     0.037 A 
BRANCH  46  60
ATOM     60  C   UNL A   1      44.757  27.890  34.930  1.00  0.00     0.057 A 
ATOM     61  C   UNL A   1      44.675  26.624  35.522  1.00  0.00     0.134 A 
ATOM     62  C   UNL A   1      45.958  28.597  35.080  1.00  0.00     0.134 A 
ATOM     63  F   UNL A   1      43.549  25.899  35.426  1.00  0.00    -0.206 F 
ATOM     64  C   UNL A   1      45.739  26.088  36.249  1.00  0.00     0.040 A 
ATOM     65  C   UNL A   1      47.039  28.061  35.781  1.00  0.00     0.040 A 
ATOM     66  F   UNL A   1      46.106  29.812  34.532  1.00  0.00    -0.206 F 
ATOM     67  C   UNL A   1      46.929  26.804  36.372  1.00  0.00     0.006 A 
ENDBRANCH  46  60
BRANCH  47  68
ATOM     68  C   UNL A   1      37.290  31.245  29.245  1.00  0.00     0.057 A 
ATOM     69  C   UNL A   1      37.229  32.566  28.784  1.00  0.00     0.134 A 
ATOM     70  C   UNL A   1      36.207  30.409  28.946  1.00  0.00     0.134 A 
ATOM     71  F   UNL A   1      38.219  33.424  29.064  1.00  0.00    -0.206 F 
ATOM     72  C   UNL A   1      36.125  33.043  28.073  1.00  0.00     0.040 A 
ATOM     73  C   UNL A   1      35.111  30.865  28.210  1.00  0.00     0.040 A 
ATOM     74  F   UNL A   1      36.198  29.135  29.364  1.00  0.00    -0.206 F 
ATOM     75  C   UNL A   1      35.065  32.189  27.779  1.00  0.00     0.006 A 
ENDBRANCH  47  68
BRANCH  59  76
ATOM     76  C   UNL A   1      39.088  32.217  35.904  1.00  0.00     0.057 A 
ATOM     77  C   UNL A   1      38.208  31.611  36.811  1.00  0.00     0.134 A 
ATOM     78  C   UNL A   1      39.409  33.564  36.119  1.00  0.00     0.134 A 
ATOM     79  F   UNL A   1      37.849  30.328  36.656  1.00  0.00    -0.206 F 
ATOM     80  C   UNL A   1      37.659  32.321  37.880  1.00  0.00     0.040 A 
ATOM     81  C   UNL A   1      38.888  34.276  37.200  1.00  0.00     0.040 A 
ATOM     82  F   UNL A   1      40.252  34.203  35.294  1.00  0.00    -0.206 F 
ATOM     83  C   UNL A   1      38.006  33.656  38.082  1.00  0.00     0.006 A 
ENDBRANCH  59  76
ENDBRANCH  33  34
ENDBRANCH  26  28
ENDBRANCH  25  26
ENDBRANCH  24  25
ENDBRANCH  23  24
ENDBRANCH  22  23
ENDBRANCH  21  22
ENDBRANCH   1  21
TORSDOF 19
ENDMDL
MODEL 2
REMARK VINA RESULT:     -10.1      2.259      3.713
REMARK SMILES Cc1nc(C[N@@H+]2CCC[C@H]2C(=O)OCCOCCOCCOC(=O)c2ccc(-c3c4nc(c(-c5c(F)cccc5F)c5ccc([nH]5)c(-c5c(F)cccc5F)c5nc(c(-c6c(F)cccc6F)c6ccc3[nH]6)C=C5)C=C4)cc2)cs1
REMARK SMILES IDX 17 1 16 2 15 3 14 4 13 5 11 6 12 7 10 8 6 9 7 10 8 12 9 13
REMARK SMILES IDX 5 14 4 15 1 16 2 17 3 18 80 19 79 20 18 21 19 22 20 23 21 24
REMARK SMILES IDX 22 25 23 26 24 27 25 28 26 29 78 30 27 31 77 32 28 33 29 34
REMARK SMILES IDX 30 35 71 36 31 37 76 38 70 39 72 40 32 41 75 42 69 43 68 44
REMARK SMILES IDX 33 46 59 47 42 48 58 49 43 50 46 51 57 52 73 53 44 54 45 55
REMARK SMILES IDX 56 57 74 58 47 59 34 60 35 61 40 62 36 63 37 64 39 65 41 66
REMARK SMILES IDX 38 67 60 68 61 69 66 70 62 71 63 72 65 73 67 74 64 75 48 76
REMARK SMILES IDX 49 77 54 78 50 79 51 80 53 81 55 82 52 83
REMARK H PARENT 6 11 72 45 46 56
REMARK Flexibility Score: inf
ROOT
ATOM      1  C   UNL A   1      37.764  21.436  24.981  1.00  0.00     0.188 C 
ENDROOT
BRANCH   1   2
ATOM      2  O   UNL A   1      36.540  20.836  25.344  1.00  0.00    -0.376 OA
BRANCH   2   3
ATOM      3  C   UNL A   1      35.362  21.612  25.484  1.00  0.00     0.202 C 
BRANCH   3   4
ATOM      4  C   UNL A   1      34.378  21.482  26.661  1.00  0.00     0.261 C 
BRANCH   4   5
ATOM      5  O   UNL A   1      32.993  21.482  26.309  1.00  0.00    -0.459 OA
BRANCH   5   6
ATOM      6  C   UNL A   1      32.235  22.515  26.785  1.00  0.00     0.365 C 
ATOM      7  O   UNL A   1      32.282  22.938  27.934  1.00  0.00    -0.245 OA
BRANCH   6   8
ATOM      8  C   UNL A   1      31.389  23.132  25.643  1.00  0.00     0.295 C 
ATOM      9  N   UNL A   1      31.620  24.583  25.581  1.00  0.00    -0.318 N 
ATOM     10  C   UNL A   1      32.748  24.773  24.676  1.00  0.00     0.263 C 
ATOM     11  H   UNL A   1      31.861  24.954  26.501  1.00  0.00     0.349 HD
ATOM     12  C   UNL A   1      32.707  23.625  23.677  1.00  0.00     0.068 C 
ATOM     13  C   UNL A   1      31.792  22.575  24.285  1.00  0.00     0.083 C 
BRANCH   9  14
ATOM     14  C   UNL A   1      30.422  25.394  25.319  1.00  0.00     0.321 C 
BRANCH  14  15
ATOM     15  C   UNL A   1      30.653  26.810  24.860  1.00  0.00     0.106 A 
ATOM     16  C   UNL A   1      32.158  30.050  25.680  1.00  0.00     0.079 C 
ATOM     17  C   UNL A   1      31.464  28.868  25.096  1.00  0.00     0.090 A 
ATOM     18  N   UNL A   1      31.241  27.731  25.728  1.00  0.00    -0.241 NA
ATOM     19  S   UNL A   1      30.900  28.935  23.474  1.00  0.00    -0.127 S 
ATOM     20  C   UNL A   1      30.423  27.300  23.587  1.00  0.00     0.096 A 
ENDBRANCH  14  15
ENDBRANCH   9  14
ENDBRANCH   6   8
ENDBRANCH   5   6
ENDBRANCH   4   5
ENDBRANCH   3   4
ENDBRANCH   2   3
ENDBRANCH   1   2
BRANCH   1  21
ATOM     21  C   UNL A   1      38.939  21.471  25.985  1.00  0.00     0.188 C 
BRANCH  21  22
ATOM     22  O   UNL A   1      39.863  20.410  26.034  1.00  0.00    -0.376 OA
BRANCH  22  23
ATOM     23  C   UNL A   1      41.123  20.599  26.648  1.00  0.00     0.202 C 
BRANCH  23  24
ATOM     24  C   UNL A   1      42.326  21.244  25.936  1.00  0.00     0.261 C 
BRANCH  24  25
ATOM     25  O   UNL A   1      42.098  22.493  25.268  1.00  0.00    -0.460 OA
BRANCH  25  26
ATOM     26  C   UNL A   1      43.098  23.404  25.355  1.00  0.00     0.338 C 
ATOM     27  O   UNL A   1      44.126  23.448  24.692  1.00  0.00    -0.246 OA
BRANCH  26  28
ATOM     28  C   UNL A   1      42.707  24.468  26.300  1.00  0.00     0.060 A 
ATOM     29  C   UNL A   1      43.306  25.734  26.207  1.00  0.00     0.016 A 
ATOM     30  C   UNL A   1      41.762  24.205  27.290  1.00  0.00     0.016 A 
ATOM     31  C   UNL A   1      42.941  26.750  27.096  1.00  0.00     0.010 A 
ATOM     32  C   UNL A   1      41.419  25.214  28.194  1.00  0.00     0.010 A 
ATOM     33  C   UNL A   1      42.008  26.490  28.108  1.00  0.00    -0.014 A 
BRANCH  33  34
ATOM     34  C   UNL A   1      41.689  27.506  29.143  1.00  0.00     0.031 A 
ATOM     35  C   UNL A   1      42.448  27.495  30.440  1.00  0.00     0.074 A 
ATOM     36  C   UNL A   1      40.692  28.389  28.956  1.00  0.00     0.049 A 
ATOM     37  N   UNL A   1      42.229  28.176  31.535  1.00  0.00    -0.248 NA
ATOM     38  C   UNL A   1      43.606  26.590  30.511  1.00  0.00     0.031 C 
ATOM     39  C   UNL A   1      39.909  28.533  27.730  1.00  0.00     0.029 A 
ATOM     40  N   UNL A   1      40.148  29.312  29.815  1.00  0.00    -0.354 N 
ATOM     41  C   UNL A   1      43.207  27.769  32.433  1.00  0.00     0.074 A 
ATOM     42  C   UNL A   1      44.013  26.774  31.759  1.00  0.00     0.031 C 
ATOM     43  C   UNL A   1      38.966  29.473  27.926  1.00  0.00     0.029 A 
ATOM     44  C   UNL A   1      39.049  29.959  29.301  1.00  0.00     0.049 A 
ATOM     45  H   UNL A   1      40.510  29.494  30.713  1.00  0.00     0.167 HD
ATOM     46  C   UNL A   1      43.409  28.187  33.707  1.00  0.00     0.037 A 
ATOM     47  C   UNL A   1      38.185  30.811  29.888  1.00  0.00     0.037 A 
ATOM     48  C   UNL A   1      42.603  29.175  34.375  1.00  0.00     0.049 A 
ATOM     49  C   UNL A   1      38.371  31.180  31.338  1.00  0.00     0.074 A 
ATOM     50  C   UNL A   1      42.761  29.695  35.649  1.00  0.00     0.029 A 
ATOM     51  N   UNL A   1      41.478  29.777  33.835  1.00  0.00    -0.354 N 
ATOM     52  N   UNL A   1      39.324  30.826  32.168  1.00  0.00    -0.248 NA
ATOM     53  C   UNL A   1      37.352  32.055  31.939  1.00  0.00     0.031 C 
ATOM     54  C   UNL A   1      41.693  30.560  35.903  1.00  0.00     0.029 A 
ATOM     55  C   UNL A   1      40.904  30.627  34.768  1.00  0.00     0.049 A 
ATOM     56  H   UNL A   1      41.137  29.625  32.924  1.00  0.00     0.167 HD
ATOM     57  C   UNL A   1      39.032  31.454  33.374  1.00  0.00     0.074 A 
ATOM     58  C   UNL A   1      37.826  32.225  33.166  1.00  0.00     0.031 C 
ATOM     59  C   UNL A   1      39.703  31.392  34.551  1.00  0.00     0.037 A 
BRANCH  46  60
ATOM     60  C   UNL A   1      44.525  27.549  34.481  1.00  0.00     0.057 A 
ATOM     61  C   UNL A   1      45.813  28.098  34.519  1.00  0.00     0.134 A 
ATOM     62  C   UNL A   1      44.289  26.402  35.250  1.00  0.00     0.134 A 
ATOM     63  F   UNL A   1      46.108  29.191  33.798  1.00  0.00    -0.206 F 
ATOM     64  C   UNL A   1      46.831  27.519  35.278  1.00  0.00     0.040 A 
ATOM     65  C   UNL A   1      45.291  25.828  36.034  1.00  0.00     0.040 A 
ATOM     66  F   UNL A   1      43.077  25.829  35.264  1.00  0.00    -0.206 F 
ATOM     67  C   UNL A   1      46.568  26.385  36.046  1.00  0.00     0.006 A 
ENDBRANCH  46  60
BRANCH  47  68
ATOM     68  C   UNL A   1      37.032  31.356  29.124  1.00  0.00     0.057 A 
ATOM     69  C   UNL A   1      37.041  32.669  28.642  1.00  0.00     0.134 A 
ATOM     70  C   UNL A   1      35.877  30.595  28.898  1.00  0.00     0.134 A 
ATOM     71  F   UNL A   1      38.103  33.458  28.855  1.00  0.00    -0.206 F 
ATOM     72  C   UNL A   1      35.939  33.215  27.979  1.00  0.00     0.040 A 
ATOM     73  C   UNL A   1      34.779  31.118  28.210  1.00  0.00     0.040 A 
ATOM     74  F   UNL A   1      35.799  29.332  29.340  1.00  0.00    -0.206 F 
ATOM     75  C   UNL A   1      34.806  32.435  27.756  1.00  0.00     0.006 A 
ENDBRANCH  47  68
BRANCH  59  76
ATOM     76  C   UNL A   1      39.165  32.194  35.702  1.00  0.00     0.057 A 
ATOM     77  C   UNL A   1      38.304  31.633  36.654  1.00  0.00     0.134 A 
ATOM     78  C   UNL A   1      39.561  33.525  35.896  1.00  0.00     0.134 A 
ATOM     79  F   UNL A   1      37.877  30.368  36.522  1.00  0.00    -0.206 F 
ATOM     80  C   UNL A   1      37.843  32.370  37.746  1.00  0.00     0.040 A 
ATOM     81  C   UNL A   1      39.129  34.263  36.998  1.00  0.00     0.040 A 
ATOM     82  F   UNL A   1      40.391  34.122  35.028  1.00  0.00    -0.206 F 
ATOM     83  C   UNL A   1      38.264  33.687  37.925  1.00  0.00     0.006 A 
ENDBRANCH  59  76
ENDBRANCH  33  34
ENDBRANCH  26  28
ENDBRANCH  25  26
ENDBRANCH  24  25
ENDBRANCH  23  24
ENDBRANCH  22  23
ENDBRANCH  21  22
ENDBRANCH   1  21
TORSDOF 19
ENDMDL
MODEL 3
REMARK VINA RESULT:     -10.0      4.924      9.718
REMARK SMILES Cc1nc(C[N@@H+]2CCC[C@H]2C(=O)OCCOCCOCCOC(=O)c2ccc(-c3c4nc(c(-c5c(F)cccc5F)c5ccc([nH]5)c(-c5c(F)cccc5F)c5nc(c(-c6c(F)cccc6F)c6ccc3[nH]6)C=C5)C=C4)cc2)cs1
REMARK SMILES IDX 17 1 16 2 15 3 14 4 13 5 11 6 12 7 10 8 6 9 7 10 8 12 9 13
REMARK SMILES IDX 5 14 4 15 1 16 2 17 3 18 80 19 79 20 18 21 19 22 20 23 21 24
REMARK SMILES IDX 22 25 23 26 24 27 25 28 26 29 78 30 27 31 77 32 28 33 29 34
REMARK SMILES IDX 30 35 71 36 31 37 76 38 70 39 72 40 32 41 75 42 69 43 68 44
REMARK SMILES IDX 33 46 59 47 42 48 58 49 43 50 46 51 57 52 73 53 44 54 45 55
REMARK SMILES IDX 56 57 74 58 47 59 34 60 35 61 40 62 36 63 37 64 39 65 41 66
REMARK SMILES IDX 38 67 60 68 61 69 66 70 62 71 63 72 65 73 67 74 64 75 48 76
REMARK SMILES IDX 49 77 54 78 50 79 51 80 53 81 55 82 52 83
REMARK H PARENT 6 11 72 45 46 56
REMARK Flexibility Score: inf
ROOT
ATOM      1  C   UNL A   1      34.453  31.665  28.579  1.00  0.00     0.188 C 
ENDROOT
BRANCH   1   2
ATOM      2  O   UNL A   1      34.034  31.409  27.256  1.00  0.00    -0.376 OA
BRANCH   2   3
ATOM      3  C   UNL A   1      32.864  30.651  26.998  1.00  0.00     0.202 C 
BRANCH   3   4
ATOM      4  C   UNL A   1      32.830  29.113  26.936  1.00  0.00     0.261 C 
BRANCH   4   5
ATOM      5  O   UNL A   1      32.213  28.556  25.772  1.00  0.00    -0.459 OA
BRANCH   5   6
ATOM      6  C   UNL A   1      32.574  27.283  25.432  1.00  0.00     0.365 C 
ATOM      7  O   UNL A   1      33.250  26.542  26.136  1.00  0.00    -0.245 OA
BRANCH   6   8
ATOM      8  C   UNL A   1      31.923  26.881  24.085  1.00  0.00     0.295 C 
ATOM      9  N   UNL A   1      31.860  28.049  23.194  1.00  0.00    -0.318 N 
ATOM     10  C   UNL A   1      33.111  28.051  22.443  1.00  0.00     0.263 C 
ATOM     11  H   UNL A   1      31.789  28.914  23.731  1.00  0.00     0.349 HD
ATOM     12  C   UNL A   1      33.550  26.599  22.318  1.00  0.00     0.068 C 
ATOM     13  C   UNL A   1      32.749  25.830  23.356  1.00  0.00     0.083 C 
BRANCH   9  14
ATOM     14  C   UNL A   1      30.622  28.169  22.410  1.00  0.00     0.321 C 
BRANCH  14  15
ATOM     15  C   UNL A   1      29.904  29.491  22.482  1.00  0.00     0.106 A 
ATOM     16  C   UNL A   1      28.015  32.018  20.616  1.00  0.00     0.079 C 
ATOM     17  C   UNL A   1      28.739  31.171  21.606  1.00  0.00     0.090 A 
ATOM     18  N   UNL A   1      29.438  30.091  21.312  1.00  0.00    -0.241 NA
ATOM     19  S   UNL A   1      28.681  31.583  23.273  1.00  0.00    -0.127 S 
ATOM     20  C   UNL A   1      29.558  30.166  23.639  1.00  0.00     0.096 A 
ENDBRANCH  14  15
ENDBRANCH   9  14
ENDBRANCH   6   8
ENDBRANCH   5   6
ENDBRANCH   4   5
ENDBRANCH   3   4
ENDBRANCH   2   3
ENDBRANCH   1   2
BRANCH   1  21
ATOM     21  C   UNL A   1      34.417  33.105  29.139  1.00  0.00     0.188 C 
BRANCH  21  22
ATOM     22  O   UNL A   1      33.244  33.878  29.035  1.00  0.00    -0.376 OA
BRANCH  22  23
ATOM     23  C   UNL A   1      33.336  35.277  28.850  1.00  0.00     0.202 C 
BRANCH  23  24
ATOM     24  C   UNL A   1      32.887  36.305  29.904  1.00  0.00     0.261 C 
BRANCH  24  25
ATOM     25  O   UNL A   1      32.159  35.805  31.035  1.00  0.00    -0.460 OA
BRANCH  25  26
ATOM     26  C   UNL A   1      32.684  36.091  32.252  1.00  0.00     0.338 C 
ATOM     27  O   UNL A   1      32.249  36.875  33.085  1.00  0.00    -0.246 OA
BRANCH  26  28
ATOM     28  C   UNL A   1      33.823  35.190  32.515  1.00  0.00     0.060 A 
ATOM     29  C   UNL A   1      33.585  33.894  32.998  1.00  0.00     0.016 A 
ATOM     30  C   UNL A   1      35.126  35.637  32.302  1.00  0.00     0.016 A 
ATOM     31  C   UNL A   1      34.658  33.032  33.248  1.00  0.00     0.010 A 
ATOM     32  C   UNL A   1      36.196  34.783  32.579  1.00  0.00     0.010 A 
ATOM     33  C   UNL A   1      35.972  33.478  33.058  1.00  0.00    -0.014 A 
BRANCH  33  34
ATOM     34  C   UNL A   1      37.135  32.634  33.429  1.00  0.00     0.031 A 
ATOM     35  C   UNL A   1      37.876  32.926  34.704  1.00  0.00     0.074 A 
ATOM     36  C   UNL A   1      37.567  31.658  32.611  1.00  0.00     0.049 A 
ATOM     37  N   UNL A   1      39.005  32.428  35.140  1.00  0.00    -0.248 NA
ATOM     38  C   UNL A   1      37.264  33.916  35.603  1.00  0.00     0.031 C 
ATOM     39  C   UNL A   1      36.914  31.245  31.370  1.00  0.00     0.029 A 
ATOM     40  N   UNL A   1      38.680  30.857  32.690  1.00  0.00    -0.354 N 
ATOM     41  C   UNL A   1      39.249  33.058  36.354  1.00  0.00     0.074 A 
ATOM     42  C   UNL A   1      38.158  33.981  36.579  1.00  0.00     0.031 C 
ATOM     43  C   UNL A   1      37.654  30.283  30.789  1.00  0.00     0.029 A 
ATOM     44  C   UNL A   1      38.853  30.048  31.591  1.00  0.00     0.049 A 
ATOM     45  H   UNL A   1      39.294  30.860  33.460  1.00  0.00     0.167 HD
ATOM     46  C   UNL A   1      40.294  32.883  37.200  1.00  0.00     0.037 A 
ATOM     47  C   UNL A   1      39.882  29.246  31.253  1.00  0.00     0.037 A 
ATOM     48  C   UNL A   1      41.379  31.965  36.971  1.00  0.00     0.049 A 
ATOM     49  C   UNL A   1      41.080  29.148  32.162  1.00  0.00     0.074 A 
ATOM     50  C   UNL A   1      42.456  31.685  37.794  1.00  0.00     0.029 A 
ATOM     51  N   UNL A   1      41.538  31.194  35.830  1.00  0.00    -0.354 N 
ATOM     52  N   UNL A   1      41.284  29.711  33.329  1.00  0.00    -0.248 NA
ATOM     53  C   UNL A   1      42.200  28.312  31.699  1.00  0.00     0.031 C 
ATOM     54  C   UNL A   1      43.301  30.797  37.123  1.00  0.00     0.029 A 
ATOM     55  C   UNL A   1      42.720  30.475  35.907  1.00  0.00     0.049 A 
ATOM     56  H   UNL A   1      40.904  31.161  35.078  1.00  0.00     0.167 HD
ATOM     57  C   UNL A   1      42.539  29.279  33.748  1.00  0.00     0.074 A 
ATOM     58  C   UNL A   1      43.042  28.393  32.720  1.00  0.00     0.031 C 
ATOM     59  C   UNL A   1      43.214  29.594  34.881  1.00  0.00     0.037 A 
BRANCH  46  60
ATOM     60  C   UNL A   1      40.337  33.727  38.439  1.00  0.00     0.057 A 
ATOM     61  C   UNL A   1      39.651  33.372  39.607  1.00  0.00     0.134 A 
ATOM     62  C   UNL A   1      41.128  34.884  38.481  1.00  0.00     0.134 A 
ATOM     63  F   UNL A   1      38.869  32.281  39.631  1.00  0.00    -0.206 F 
ATOM     64  C   UNL A   1      39.736  34.144  40.767  1.00  0.00     0.040 A 
ATOM     65  C   UNL A   1      41.242  35.650  39.641  1.00  0.00     0.040 A 
ATOM     66  F   UNL A   1      41.816  35.277  37.399  1.00  0.00    -0.206 F 
ATOM     67  C   UNL A   1      40.541  35.282  40.788  1.00  0.00     0.006 A 
ENDBRANCH  46  60
BRANCH  47  68
ATOM     68  C   UNL A   1      39.855  28.491  29.972  1.00  0.00     0.057 A 
ATOM     69  C   UNL A   1      39.247  27.233  29.888  1.00  0.00     0.134 A 
ATOM     70  C   UNL A   1      40.474  28.984  28.816  1.00  0.00     0.134 A 
ATOM     71  F   UNL A   1      38.666  26.692  30.968  1.00  0.00    -0.206 F 
ATOM     72  C   UNL A   1      39.271  26.484  28.709  1.00  0.00     0.040 A 
ATOM     73  C   UNL A   1      40.479  28.260  27.623  1.00  0.00     0.040 A 
ATOM     74  F   UNL A   1      41.082  30.179  28.830  1.00  0.00    -0.206 F 
ATOM     75  C   UNL A   1      39.883  27.002  27.570  1.00  0.00     0.006 A 
ENDBRANCH  47  68
BRANCH  59  76
ATOM     76  C   UNL A   1      44.561  28.962  35.086  1.00  0.00     0.057 A 
ATOM     77  C   UNL A   1      44.703  27.703  35.684  1.00  0.00     0.134 A 
ATOM     78  C   UNL A   1      45.726  29.592  34.626  1.00  0.00     0.134 A 
ATOM     79  F   UNL A   1      43.630  27.051  36.157  1.00  0.00    -0.206 F 
ATOM     80  C   UNL A   1      45.954  27.101  35.832  1.00  0.00     0.040 A 
ATOM     81  C   UNL A   1      46.979  28.989  34.743  1.00  0.00     0.040 A 
ATOM     82  F   UNL A   1      45.662  30.795  34.036  1.00  0.00    -0.206 F 
ATOM     83  C   UNL A   1      47.096  27.741  35.351  1.00  0.00     0.006 A 
ENDBRANCH  59  76
ENDBRANCH  33  34
ENDBRANCH  26  28
ENDBRANCH  25  26
ENDBRANCH  24  25
ENDBRANCH  23  24
ENDBRANCH  22  23
ENDBRANCH  21  22
ENDBRANCH   1  21
TORSDOF 19
ENDMDL
