MODEL 1
REMARK VINA RESULT:     -11.0      0.000      0.000
REMARK SMILES O=C(OCCOCCOCCOC(=O)[C@H](NC(=O)[C@H]1CC[C@@H](CNC(=O)[C@@H]2Cc3ccccc3C[NH2+]2)CC1)c1ccccc1)c1ccc(-c2c3nc(c(-c4c(F)cccc4F)c4ccc([nH]4)c(-c4c(F)cccc4F)c4nc(c(-c5c(F)cccc5F)c5ccc2[nH]5)C=C4)C=C3)cc1
REMARK SMILES IDX 9 1 8 2 7 3 6 4 5 5 4 6 3 7 2 8 1 9 45 10 46 11 98 12 47 13
REMARK SMILES IDX 97 14 48 15 49 16 50 17 91 18 51 19 96 20 90 21 92 22 52 23
REMARK SMILES IDX 95 24 89 25 88 26 53 28 79 29 62 30 78 31 63 32 66 33 77 34
REMARK SMILES IDX 93 35 64 36 65 37 76 39 94 40 67 41 54 42 55 43 60 44 56 45
REMARK SMILES IDX 57 46 59 47 61 48 58 49 80 50 81 51 86 52 82 53 83 54 85 55
REMARK SMILES IDX 87 56 84 57 68 58 69 59 74 60 70 61 71 62 73 63 75 64 72 65
REMARK SMILES IDX 10 66 11 67 12 68 13 69 14 70 15 71 39 72 40 73 44 74 41 75
REMARK SMILES IDX 43 76 42 77 16 78 17 79 18 81 19 82 38 83 20 84 37 85 21 86
REMARK SMILES IDX 22 87 23 88 24 89 25 90 26 92 27 93 28 94 36 95 29 96 35 97
REMARK SMILES IDX 30 100 34 101 31 102 33 103 32 104
REMARK H PARENT 92 27 66 38 16 80 24 91 36 98 36 99
REMARK Flexibility Score: inf
ROOT
ATOM      1  O   UNL A   1      33.684  24.185  21.987  1.00  0.00    -0.376 OA
ENDROOT
BRANCH   1   2
ATOM      2  C   UNL A   1      34.311  23.405  22.996  1.00  0.00     0.188 C 
BRANCH   2   3
ATOM      3  C   UNL A   1      33.401  22.665  23.976  1.00  0.00     0.188 C 
BRANCH   3   4
ATOM      4  O   UNL A   1      33.950  22.440  25.279  1.00  0.00    -0.376 OA
BRANCH   4   5
ATOM      5  C   UNL A   1      34.391  21.088  25.478  1.00  0.00     0.202 C 
BRANCH   5   6
ATOM      6  C   UNL A   1      35.871  20.807  25.152  1.00  0.00     0.261 C 
BRANCH   6   7
ATOM      7  O   UNL A   1      36.797  21.672  25.829  1.00  0.00    -0.460 OA
BRANCH   7   8
ATOM      8  C   UNL A   1      38.148  21.623  25.869  1.00  0.00     0.338 C 
ATOM      9  O   UNL A   1      38.702  20.597  25.477  1.00  0.00    -0.246 OA
BRANCH   8  10
ATOM     10  C   UNL A   1      39.027  22.717  26.395  1.00  0.00     0.060 A 
ATOM     11  C   UNL A   1      40.174  22.542  27.172  1.00  0.00     0.016 A 
ATOM     12  C   UNL A   1      38.718  24.026  25.974  1.00  0.00     0.016 A 
ATOM     13  C   UNL A   1      40.979  23.619  27.533  1.00  0.00     0.010 A 
ATOM     14  C   UNL A   1      39.524  25.115  26.322  1.00  0.00     0.010 A 
ATOM     15  C   UNL A   1      40.652  24.908  27.117  1.00  0.00    -0.014 A 
BRANCH  15  16
ATOM     16  C   UNL A   1      41.427  26.027  27.681  1.00  0.00     0.031 A 
ATOM     17  C   UNL A   1      42.747  26.332  27.055  1.00  0.00     0.074 A 
ATOM     18  C   UNL A   1      40.893  26.807  28.636  1.00  0.00     0.049 A 
ATOM     19  N   UNL A   1      43.603  27.265  27.357  1.00  0.00    -0.248 NA
ATOM     20  C   UNL A   1      43.173  25.449  25.953  1.00  0.00     0.031 C 
ATOM     21  C   UNL A   1      39.602  26.568  29.271  1.00  0.00     0.029 A 
ATOM     22  N   UNL A   1      41.329  27.973  29.205  1.00  0.00    -0.354 N 
ATOM     23  C   UNL A   1      44.702  27.035  26.541  1.00  0.00     0.074 A 
ATOM     24  C   UNL A   1      44.386  25.910  25.692  1.00  0.00     0.031 C 
ATOM     25  C   UNL A   1      39.295  27.611  30.055  1.00  0.00     0.029 A 
ATOM     26  C   UNL A   1      40.409  28.549  30.054  1.00  0.00     0.049 A 
ATOM     27  H   UNL A   1      42.215  28.362  29.026  1.00  0.00     0.167 HD
ATOM     28  C   UNL A   1      45.885  27.685  26.557  1.00  0.00     0.037 A 
ATOM     29  C   UNL A   1      40.487  29.696  30.760  1.00  0.00     0.037 A 
ATOM     30  C   UNL A   1      46.148  28.805  27.418  1.00  0.00     0.049 A 
ATOM     31  C   UNL A   1      41.801  30.435  30.710  1.00  0.00     0.074 A 
ATOM     32  C   UNL A   1      47.315  29.528  27.563  1.00  0.00     0.029 A 
ATOM     33  N   UNL A   1      45.215  29.360  28.286  1.00  0.00    -0.354 N 
ATOM     34  N   UNL A   1      42.858  30.192  29.967  1.00  0.00    -0.248 NA
ATOM     35  C   UNL A   1      41.968  31.560  31.638  1.00  0.00     0.031 C 
ATOM     36  C   UNL A   1      47.105  30.486  28.559  1.00  0.00     0.029 A 
ATOM     37  C   UNL A   1      45.789  30.398  28.994  1.00  0.00     0.049 A 
ATOM     38  H   UNL A   1      44.282  29.058  28.383  1.00  0.00     0.167 HD
ATOM     39  C   UNL A   1      43.825  31.101  30.366  1.00  0.00     0.074 A 
ATOM     40  C   UNL A   1      43.205  31.951  31.365  1.00  0.00     0.031 C 
ATOM     41  C   UNL A   1      45.121  31.207  29.982  1.00  0.00     0.037 A 
BRANCH  28  42
ATOM     42  C   UNL A   1      46.990  27.115  25.723  1.00  0.00     0.057 A 
ATOM     43  C   UNL A   1      47.841  26.101  26.179  1.00  0.00     0.134 A 
ATOM     44  C   UNL A   1      47.219  27.623  24.438  1.00  0.00     0.134 A 
ATOM     45  F   UNL A   1      47.701  25.598  27.414  1.00  0.00    -0.206 F 
ATOM     46  C   UNL A   1      48.892  25.626  25.390  1.00  0.00     0.040 A 
ATOM     47  C   UNL A   1      48.250  27.139  23.632  1.00  0.00     0.040 A 
ATOM     48  F   UNL A   1      46.451  28.608  23.948  1.00  0.00    -0.206 F 
ATOM     49  C   UNL A   1      49.094  26.140  24.111  1.00  0.00     0.006 A 
ENDBRANCH  28  42
BRANCH  29  50
ATOM     50  C   UNL A   1      39.360  30.173  31.615  1.00  0.00     0.057 A 
ATOM     51  C   UNL A   1      38.553  31.251  31.224  1.00  0.00     0.134 A 
ATOM     52  C   UNL A   1      39.077  29.600  32.863  1.00  0.00     0.134 A 
ATOM     53  F   UNL A   1      38.769  31.868  30.052  1.00  0.00    -0.206 F 
ATOM     54  C   UNL A   1      37.531  31.747  32.042  1.00  0.00     0.040 A 
ATOM     55  C   UNL A   1      38.029  30.054  33.669  1.00  0.00     0.040 A 
ATOM     56  F   UNL A   1      39.811  28.576  33.322  1.00  0.00    -0.206 F 
ATOM     57  C   UNL A   1      37.260  31.141  33.265  1.00  0.00     0.006 A 
ENDBRANCH  29  50
BRANCH  41  58
ATOM     58  C   UNL A   1      45.944  32.255  30.666  1.00  0.00     0.057 A 
ATOM     59  C   UNL A   1      46.622  31.981  31.861  1.00  0.00     0.134 A 
ATOM     60  C   UNL A   1      46.126  33.514  30.084  1.00  0.00     0.134 A 
ATOM     61  F   UNL A   1      46.477  30.794  32.470  1.00  0.00    -0.206 F 
ATOM     62  C   UNL A   1      47.446  32.931  32.460  1.00  0.00     0.040 A 
ATOM     63  C   UNL A   1      46.970  34.463  30.660  1.00  0.00     0.040 A 
ATOM     64  F   UNL A   1      45.512  33.828  28.934  1.00  0.00    -0.206 F 
ATOM     65  C   UNL A   1      47.630  34.173  31.853  1.00  0.00     0.006 A 
ENDBRANCH  41  58
ENDBRANCH  15  16
ENDBRANCH   8  10
ENDBRANCH   7   8
ENDBRANCH   6   7
ENDBRANCH   5   6
ENDBRANCH   4   5
ENDBRANCH   3   4
ENDBRANCH   2   3
ENDBRANCH   1   2
BRANCH   1  66
ATOM     66  C   UNL A   1      32.765  25.188  22.401  1.00  0.00     0.202 C 
BRANCH  66  67
ATOM     67  C   UNL A   1      32.824  26.546  21.701  1.00  0.00     0.261 C 
BRANCH  67  68
ATOM     68  O   UNL A   1      31.655  27.363  21.862  1.00  0.00    -0.461 OA
BRANCH  68  69
ATOM     69  C   UNL A   1      31.822  28.559  22.502  1.00  0.00     0.333 C 
ATOM     70  O   UNL A   1      32.774  29.317  22.327  1.00  0.00    -0.249 OA
BRANCH  69  71
ATOM     71  C   UNL A   1      30.694  28.838  23.524  1.00  0.00     0.223 C 
BRANCH  71  72
ATOM     72  C   UNL A   1      29.757  29.926  22.998  1.00  0.00    -0.014 A 
ATOM     73  C   UNL A   1      29.225  29.796  21.701  1.00  0.00     0.006 A 
ATOM     74  C   UNL A   1      29.331  31.022  23.763  1.00  0.00     0.006 A 
ATOM     75  C   UNL A   1      28.332  30.740  21.181  1.00  0.00     0.000 A 
ATOM     76  C   UNL A   1      28.450  31.976  23.239  1.00  0.00     0.000 A 
ATOM     77  C   UNL A   1      27.953  31.836  21.948  1.00  0.00     0.000 A 
ENDBRANCH  71  72
BRANCH  71  78
ATOM     78  N   UNL A   1      30.031  27.595  23.922  1.00  0.00    -0.339 N 
ATOM     79  C   UNL A   1      30.352  26.675  24.870  1.00  0.00     0.224 C 
ATOM     80  H   UNL A   1      29.213  27.389  23.416  1.00  0.00     0.164 HD
ATOM     81  O   UNL A   1      29.680  25.638  24.871  1.00  0.00    -0.275 OA
BRANCH  79  82
ATOM     82  C   UNL A   1      31.439  26.860  25.942  1.00  0.00     0.078 C 
ATOM     83  C   UNL A   1      32.875  27.039  25.448  1.00  0.00     0.014 C 
ATOM     84  C   UNL A   1      31.037  27.916  26.977  1.00  0.00     0.014 C 
ATOM     85  C   UNL A   1      33.890  27.198  26.573  1.00  0.00     0.006 C 
ATOM     86  C   UNL A   1      32.098  28.073  28.074  1.00  0.00     0.006 C 
ATOM     87  C   UNL A   1      33.504  28.343  27.521  1.00  0.00     0.008 C 
BRANCH  87  88
ATOM     88  C   UNL A   1      33.610  29.700  26.803  1.00  0.00     0.119 C 
BRANCH  88  89
ATOM     89  N   UNL A   1      34.949  30.248  26.816  1.00  0.00    -0.351 N 
ATOM     90  C   UNL A   1      35.456  31.265  27.576  1.00  0.00     0.278 C 
ATOM     91  H   UNL A   1      35.584  29.831  26.188  1.00  0.00     0.163 HD
ATOM     92  O   UNL A   1      36.678  31.433  27.548  1.00  0.00    -0.268 OA
BRANCH  90  93
ATOM     93  C   UNL A   1      34.529  32.188  28.400  1.00  0.00     0.277 C 
ATOM     94  C   UNL A   1      34.695  33.670  28.012  1.00  0.00     0.111 C 
ATOM     95  N   UNL A   1      34.584  31.810  29.829  1.00  0.00    -0.332 N 
ATOM     96  C   UNL A   1      34.102  34.597  29.037  1.00  0.00    -0.033 A 
ATOM     97  C   UNL A   1      34.724  32.898  30.786  1.00  0.00     0.298 C 
ATOM     98  H   UNL A   1      35.381  31.185  29.954  1.00  0.00     0.347 HD
ATOM     99  H   UNL A   1      33.677  31.388  30.032  1.00  0.00     0.347 HD
ATOM    100  C   UNL A   1      33.647  35.872  28.681  1.00  0.00     0.004 A 
ATOM    101  C   UNL A   1      34.066  34.190  30.380  1.00  0.00     0.010 A 
ATOM    102  C   UNL A   1      33.118  36.723  29.651  1.00  0.00     0.000 A 
ATOM    103  C   UNL A   1      33.527  35.051  31.345  1.00  0.00     0.010 A 
ATOM    104  C   UNL A   1      33.045  36.307  30.979  1.00  0.00     0.001 A 
ENDBRANCH  90  93
ENDBRANCH  88  89
ENDBRANCH  87  88
ENDBRANCH  79  82
ENDBRANCH  71  78
ENDBRANCH  69  71
ENDBRANCH  68  69
ENDBRANCH  67  68
ENDBRANCH  66  67
ENDBRANCH   1  66
TORSDOF 23
ENDMDL
MODEL 2
REMARK VINA RESULT:     -10.8      2.293      9.023
REMARK SMILES O=C(OCCOCCOCCOC(=O)[C@H](NC(=O)[C@H]1CC[C@@H](CNC(=O)[C@@H]2Cc3ccccc3C[NH2+]2)CC1)c1ccccc1)c1ccc(-c2c3nc(c(-c4c(F)cccc4F)c4ccc([nH]4)c(-c4c(F)cccc4F)c4nc(c(-c5c(F)cccc5F)c5ccc2[nH]5)C=C4)C=C3)cc1
REMARK SMILES IDX 9 1 8 2 7 3 6 4 5 5 4 6 3 7 2 8 1 9 45 10 46 11 98 12 47 13
REMARK SMILES IDX 97 14 48 15 49 16 50 17 91 18 51 19 96 20 90 21 92 22 52 23
REMARK SMILES IDX 95 24 89 25 88 26 53 28 79 29 62 30 78 31 63 32 66 33 77 34
REMARK SMILES IDX 93 35 64 36 65 37 76 39 94 40 67 41 54 42 55 43 60 44 56 45
REMARK SMILES IDX 57 46 59 47 61 48 58 49 80 50 81 51 86 52 82 53 83 54 85 55
REMARK SMILES IDX 87 56 84 57 68 58 69 59 74 60 70 61 71 62 73 63 75 64 72 65
REMARK SMILES IDX 10 66 11 67 12 68 13 69 14 70 15 71 39 72 40 73 44 74 41 75
REMARK SMILES IDX 43 76 42 77 16 78 17 79 18 81 19 82 38 83 20 84 37 85 21 86
REMARK SMILES IDX 22 87 23 88 24 89 25 90 26 92 27 93 28 94 36 95 29 96 35 97
REMARK SMILES IDX 30 100 34 101 31 102 33 103 32 104
REMARK H PARENT 92 27 66 38 16 80 24 91 36 98 36 99
REMARK Flexibility Score: inf
ROOT
ATOM      1  O   UNL A   1      34.106  31.490  28.021  1.00  0.00    -0.376 OA
ENDROOT
BRANCH   1   2
ATOM      2  C   UNL A   1      34.892  32.672  27.952  1.00  0.00     0.188 C 
BRANCH   2   3
ATOM      3  C   UNL A   1      34.809  33.638  29.134  1.00  0.00     0.188 C 
BRANCH   3   4
ATOM      4  O   UNL A   1      35.420  33.186  30.347  1.00  0.00    -0.376 OA
BRANCH   4   5
ATOM      5  C   UNL A   1      34.471  32.930  31.394  1.00  0.00     0.202 C 
BRANCH   5   6
ATOM      6  C   UNL A   1      34.955  33.221  32.828  1.00  0.00     0.261 C 
BRANCH   6   7
ATOM      7  O   UNL A   1      35.648  32.125  33.449  1.00  0.00    -0.460 OA
BRANCH   7   8
ATOM      8  C   UNL A   1      36.939  32.037  33.843  1.00  0.00     0.338 C 
ATOM      9  O   UNL A   1      37.241  32.501  34.942  1.00  0.00    -0.246 OA
BRANCH   8  10
ATOM     10  C   UNL A   1      38.045  31.447  33.023  1.00  0.00     0.060 A 
ATOM     11  C   UNL A   1      38.999  30.532  33.473  1.00  0.00     0.016 A 
ATOM     12  C   UNL A   1      38.050  31.773  31.651  1.00  0.00     0.016 A 
ATOM     13  C   UNL A   1      39.932  29.969  32.605  1.00  0.00     0.010 A 
ATOM     14  C   UNL A   1      38.975  31.207  30.769  1.00  0.00     0.010 A 
ATOM     15  C   UNL A   1      39.929  30.311  31.255  1.00  0.00    -0.014 A 
BRANCH  15  16
ATOM     16  C   UNL A   1      41.049  29.834  30.425  1.00  0.00     0.031 A 
ATOM     17  C   UNL A   1      42.312  30.630  30.456  1.00  0.00     0.074 A 
ATOM     18  C   UNL A   1      40.961  28.661  29.776  1.00  0.00     0.049 A 
ATOM     19  N   UNL A   1      43.434  30.414  29.832  1.00  0.00    -0.248 NA
ATOM     20  C   UNL A   1      42.301  31.851  31.283  1.00  0.00     0.031 C 
ATOM     21  C   UNL A   1      39.761  27.834  29.727  1.00  0.00     0.029 A 
ATOM     22  N   UNL A   1      41.890  27.934  29.083  1.00  0.00    -0.354 N 
ATOM     23  C   UNL A   1      44.235  31.509  30.124  1.00  0.00     0.074 A 
ATOM     24  C   UNL A   1      43.495  32.362  31.024  1.00  0.00     0.031 C 
ATOM     25  C   UNL A   1      40.054  26.663  29.141  1.00  0.00     0.029 A 
ATOM     26  C   UNL A   1      41.438  26.694  28.689  1.00  0.00     0.049 A 
ATOM     27  H   UNL A   1      42.795  28.267  28.883  1.00  0.00     0.167 HD
ATOM     28  C   UNL A   1      45.458  31.785  29.626  1.00  0.00     0.037 A 
ATOM     29  C   UNL A   1      42.079  25.716  28.016  1.00  0.00     0.037 A 
ATOM     30  C   UNL A   1      46.157  30.898  28.737  1.00  0.00     0.049 A 
ATOM     31  C   UNL A   1      43.470  26.030  27.525  1.00  0.00     0.074 A 
ATOM     32  C   UNL A   1      47.383  31.075  28.128  1.00  0.00     0.029 A 
ATOM     33  N   UNL A   1      45.676  29.659  28.330  1.00  0.00    -0.354 N 
ATOM     34  N   UNL A   1      44.213  27.087  27.767  1.00  0.00    -0.248 NA
ATOM     35  C   UNL A   1      44.089  25.060  26.614  1.00  0.00     0.031 C 
ATOM     36  C   UNL A   1      47.619  29.967  27.309  1.00  0.00     0.029 A 
ATOM     37  C   UNL A   1      46.566  29.072  27.452  1.00  0.00     0.049 A 
ATOM     38  H   UNL A   1      44.825  29.259  28.623  1.00  0.00     0.167 HD
ATOM     39  C   UNL A   1      45.363  26.930  27.010  1.00  0.00     0.074 A 
ATOM     40  C   UNL A   1      45.253  25.640  26.356  1.00  0.00     0.031 C 
ATOM     41  C   UNL A   1      46.400  27.785  26.828  1.00  0.00     0.037 A 
BRANCH  28  42
ATOM     42  C   UNL A   1      46.033  33.133  29.931  1.00  0.00     0.057 A 
ATOM     43  C   UNL A   1      45.770  34.266  29.150  1.00  0.00     0.134 A 
ATOM     44  C   UNL A   1      46.896  33.287  31.023  1.00  0.00     0.134 A 
ATOM     45  F   UNL A   1      44.982  34.180  28.068  1.00  0.00    -0.206 F 
ATOM     46  C   UNL A   1      46.361  35.499  29.438  1.00  0.00     0.040 A 
ATOM     47  C   UNL A   1      47.473  34.519  31.334  1.00  0.00     0.040 A 
ATOM     48  F   UNL A   1      47.204  32.237  31.801  1.00  0.00    -0.206 F 
ATOM     49  C   UNL A   1      47.209  35.629  30.535  1.00  0.00     0.006 A 
ENDBRANCH  28  42
BRANCH  29  50
ATOM     50  C   UNL A   1      41.420  24.414  27.701  1.00  0.00     0.057 A 
ATOM     51  C   UNL A   1      40.438  24.316  26.704  1.00  0.00     0.134 A 
ATOM     52  C   UNL A   1      41.715  23.239  28.406  1.00  0.00     0.134 A 
ATOM     53  F   UNL A   1      40.084  25.398  25.995  1.00  0.00    -0.206 F 
ATOM     54  C   UNL A   1      39.770  23.116  26.437  1.00  0.00     0.040 A 
ATOM     55  C   UNL A   1      41.090  22.023  28.118  1.00  0.00     0.040 A 
ATOM     56  F   UNL A   1      42.629  23.247  29.387  1.00  0.00    -0.206 F 
ATOM     57  C   UNL A   1      40.103  21.961  27.140  1.00  0.00     0.006 A 
ENDBRANCH  29  50
BRANCH  41  58
ATOM     58  C   UNL A   1      47.468  27.355  25.870  1.00  0.00     0.057 A 
ATOM     59  C   UNL A   1      48.597  26.653  26.308  1.00  0.00     0.134 A 
ATOM     60  C   UNL A   1      47.324  27.570  24.495  1.00  0.00     0.134 A 
ATOM     61  F   UNL A   1      48.794  26.425  27.616  1.00  0.00    -0.206 F 
ATOM     62  C   UNL A   1      49.556  26.188  25.409  1.00  0.00     0.040 A 
ATOM     63  C   UNL A   1      48.262  27.086  23.584  1.00  0.00     0.040 A 
ATOM     64  F   UNL A   1      46.256  28.226  24.016  1.00  0.00    -0.206 F 
ATOM     65  C   UNL A   1      49.383  26.396  24.042  1.00  0.00     0.006 A 
ENDBRANCH  41  58
ENDBRANCH  15  16
ENDBRANCH   8  10
ENDBRANCH   7   8
ENDBRANCH   6   7
ENDBRANCH   5   6
ENDBRANCH   4   5
ENDBRANCH   3   4
ENDBRANCH   2   3
ENDBRANCH   1   2
BRANCH   1  66
ATOM     66  C   UNL A   1      32.932  31.428  27.221  1.00  0.00     0.202 C 
BRANCH  66  67
ATOM     67  C   UNL A   1      32.303  30.056  26.980  1.00  0.00     0.261 C 
BRANCH  67  68
ATOM     68  O   UNL A   1      32.277  29.631  25.609  1.00  0.00    -0.461 OA
BRANCH  68  69
ATOM     69  C   UNL A   1      31.596  28.479  25.333  1.00  0.00     0.333 C 
ATOM     70  O   UNL A   1      31.322  27.615  26.163  1.00  0.00    -0.249 OA
BRANCH  69  71
ATOM     71  C   UNL A   1      31.243  28.354  23.832  1.00  0.00     0.223 C 
BRANCH  71  72
ATOM     72  C   UNL A   1      29.894  29.016  23.545  1.00  0.00    -0.014 A 
ATOM     73  C   UNL A   1      28.804  28.205  23.176  1.00  0.00     0.006 A 
ATOM     74  C   UNL A   1      29.654  30.389  23.699  1.00  0.00     0.006 A 
ATOM     75  C   UNL A   1      27.537  28.750  22.941  1.00  0.00     0.000 A 
ATOM     76  C   UNL A   1      28.390  30.938  23.447  1.00  0.00     0.000 A 
ATOM     77  C   UNL A   1      27.334  30.119  23.067  1.00  0.00     0.000 A 
ENDBRANCH  71  72
BRANCH  71  78
ATOM     78  N   UNL A   1      32.349  28.823  22.995  1.00  0.00    -0.339 N 
ATOM     79  C   UNL A   1      33.475  28.193  22.569  1.00  0.00     0.224 C 
ATOM     80  H   UNL A   1      32.262  29.753  22.688  1.00  0.00     0.164 HD
ATOM     81  O   UNL A   1      34.310  28.901  21.994  1.00  0.00    -0.275 OA
BRANCH  79  82
ATOM     82  C   UNL A   1      33.748  26.686  22.712  1.00  0.00     0.078 C 
ATOM     83  C   UNL A   1      34.046  26.168  24.119  1.00  0.00     0.014 C 
ATOM     84  C   UNL A   1      32.689  25.850  21.988  1.00  0.00     0.014 C 
ATOM     85  C   UNL A   1      34.321  24.670  24.170  1.00  0.00     0.006 C 
ATOM     86  C   UNL A   1      32.980  24.347  22.090  1.00  0.00     0.006 C 
ATOM     87  C   UNL A   1      33.178  23.866  23.535  1.00  0.00     0.008 C 
BRANCH  87  88
ATOM     88  C   UNL A   1      31.898  23.982  24.381  1.00  0.00     0.119 C 
BRANCH  88  89
ATOM     89  N   UNL A   1      32.083  23.563  25.753  1.00  0.00    -0.351 N 
ATOM     90  C   UNL A   1      32.662  22.422  26.235  1.00  0.00     0.278 C 
ATOM     91  H   UNL A   1      31.743  24.187  26.436  1.00  0.00     0.163 HD
ATOM     92  O   UNL A   1      32.876  22.369  27.449  1.00  0.00    -0.268 OA
BRANCH  90  93
ATOM     93  C   UNL A   1      32.994  21.236  25.300  1.00  0.00     0.277 C 
ATOM     94  C   UNL A   1      32.441  19.903  25.840  1.00  0.00     0.111 C 
ATOM     95  N   UNL A   1      34.410  21.309  24.878  1.00  0.00    -0.332 N 
ATOM     96  C   UNL A   1      33.065  18.713  25.163  1.00  0.00    -0.033 A 
ATOM     97  C   UNL A   1      35.172  20.070  24.941  1.00  0.00     0.298 C 
ATOM     98  H   UNL A   1      34.877  21.989  25.478  1.00  0.00     0.347 HD
ATOM     99  H   UNL A   1      34.384  21.560  23.890  1.00  0.00     0.347 HD
ATOM    100  C   UNL A   1      32.382  17.495  25.071  1.00  0.00     0.004 A 
ATOM    101  C   UNL A   1      34.377  18.820  24.675  1.00  0.00     0.010 A 
ATOM    102  C   UNL A   1      32.987  16.398  24.457  1.00  0.00     0.000 A 
ATOM    103  C   UNL A   1      34.971  17.713  24.054  1.00  0.00     0.010 A 
ATOM    104  C   UNL A   1      34.274  16.512  23.936  1.00  0.00     0.001 A 
ENDBRANCH  90  93
ENDBRANCH  88  89
ENDBRANCH  87  88
ENDBRANCH  79  82
ENDBRANCH  71  78
ENDBRANCH  69  71
ENDBRANCH  68  69
ENDBRANCH  67  68
ENDBRANCH  66  67
ENDBRANCH   1  66
TORSDOF 23
ENDMDL
MODEL 3
REMARK VINA RESULT:     -10.5      2.423      8.855
REMARK SMILES O=C(OCCOCCOCCOC(=O)[C@H](NC(=O)[C@H]1CC[C@@H](CNC(=O)[C@@H]2Cc3ccccc3C[NH2+]2)CC1)c1ccccc1)c1ccc(-c2c3nc(c(-c4c(F)cccc4F)c4ccc([nH]4)c(-c4c(F)cccc4F)c4nc(c(-c5c(F)cccc5F)c5ccc2[nH]5)C=C4)C=C3)cc1
REMARK SMILES IDX 9 1 8 2 7 3 6 4 5 5 4 6 3 7 2 8 1 9 45 10 46 11 98 12 47 13
REMARK SMILES IDX 97 14 48 15 49 16 50 17 91 18 51 19 96 20 90 21 92 22 52 23
REMARK SMILES IDX 95 24 89 25 88 26 53 28 79 29 62 30 78 31 63 32 66 33 77 34
REMARK SMILES IDX 93 35 64 36 65 37 76 39 94 40 67 41 54 42 55 43 60 44 56 45
REMARK SMILES IDX 57 46 59 47 61 48 58 49 80 50 81 51 86 52 82 53 83 54 85 55
REMARK SMILES IDX 87 56 84 57 68 58 69 59 74 60 70 61 71 62 73 63 75 64 72 65
REMARK SMILES IDX 10 66 11 67 12 68 13 69 14 70 15 71 39 72 40 73 44 74 41 75
REMARK SMILES IDX 43 76 42 77 16 78 17 79 18 81 19 82 38 83 20 84 37 85 21 86
REMARK SMILES IDX 22 87 23 88 24 89 25 90 26 92 27 93 28 94 36 95 29 96 35 97
REMARK SMILES IDX 30 100 34 101 31 102 33 103 32 104
REMARK H PARENT 92 27 66 38 16 80 24 91 36 98 36 99
REMARK Flexibility Score: inf
ROOT
ATOM      1  O   UNL A   1      34.110  30.482  27.941  1.00  0.00    -0.376 OA
ENDROOT
BRANCH   1   2
ATOM      2  C   UNL A   1      35.154  31.422  27.726  1.00  0.00     0.188 C 
BRANCH   2   3
ATOM      3  C   UNL A   1      35.427  32.432  28.840  1.00  0.00     0.188 C 
BRANCH   3   4
ATOM      4  O   UNL A   1      35.847  31.876  30.091  1.00  0.00    -0.376 OA
BRANCH   4   5
ATOM      5  C   UNL A   1      35.034  32.297  31.197  1.00  0.00     0.202 C 
BRANCH   5   6
ATOM      6  C   UNL A   1      35.771  33.029  32.335  1.00  0.00     0.261 C 
BRANCH   6   7
ATOM      7  O   UNL A   1      36.065  32.202  33.472  1.00  0.00    -0.460 OA
BRANCH   7   8
ATOM      8  C   UNL A   1      37.260  31.764  33.931  1.00  0.00     0.338 C 
ATOM      9  O   UNL A   1      37.463  31.800  35.144  1.00  0.00    -0.246 OA
BRANCH   8  10
ATOM     10  C   UNL A   1      38.379  31.270  33.066  1.00  0.00     0.060 A 
ATOM     11  C   UNL A   1      39.297  30.274  33.405  1.00  0.00     0.016 A 
ATOM     12  C   UNL A   1      38.435  31.791  31.757  1.00  0.00     0.016 A 
ATOM     13  C   UNL A   1      40.246  29.819  32.492  1.00  0.00     0.010 A 
ATOM     14  C   UNL A   1      39.377  31.335  30.829  1.00  0.00     0.010 A 
ATOM     15  C   UNL A   1      40.294  30.353  31.206  1.00  0.00    -0.014 A 
BRANCH  15  16
ATOM     16  C   UNL A   1      41.430  29.972  30.349  1.00  0.00     0.031 A 
ATOM     17  C   UNL A   1      41.314  28.696  29.584  1.00  0.00     0.074 A 
ATOM     18  C   UNL A   1      42.462  30.815  30.179  1.00  0.00     0.049 A 
ATOM     19  N   UNL A   1      42.163  28.153  28.758  1.00  0.00    -0.248 NA
ATOM     20  C   UNL A   1      40.085  27.910  29.796  1.00  0.00     0.031 C 
ATOM     21  C   UNL A   1      42.619  32.081  30.885  1.00  0.00     0.029 A 
ATOM     22  N   UNL A   1      43.541  30.772  29.337  1.00  0.00    -0.354 N 
ATOM     23  C   UNL A   1      41.610  26.928  28.415  1.00  0.00     0.074 A 
ATOM     24  C   UNL A   1      40.330  26.827  29.075  1.00  0.00     0.031 C 
ATOM     25  C   UNL A   1      43.662  32.750  30.370  1.00  0.00     0.029 A 
ATOM     26  C   UNL A   1      44.305  31.918  29.362  1.00  0.00     0.049 A 
ATOM     27  H   UNL A   1      43.752  29.996  28.770  1.00  0.00     0.167 HD
ATOM     28  C   UNL A   1      42.169  25.961  27.657  1.00  0.00     0.037 A 
ATOM     29  C   UNL A   1      45.412  32.231  28.658  1.00  0.00     0.037 A 
ATOM     30  C   UNL A   1      43.446  26.113  27.015  1.00  0.00     0.049 A 
ATOM     31  C   UNL A   1      45.980  31.152  27.771  1.00  0.00     0.074 A 
ATOM     32  C   UNL A   1      44.144  25.197  26.254  1.00  0.00     0.029 A 
ATOM     33  N   UNL A   1      44.215  27.269  27.069  1.00  0.00    -0.354 N 
ATOM     34  N   UNL A   1      45.477  29.973  27.478  1.00  0.00    -0.248 NA
ATOM     35  C   UNL A   1      47.295  31.406  27.171  1.00  0.00     0.031 C 
ATOM     36  C   UNL A   1      45.362  25.781  25.893  1.00  0.00     0.029 A 
ATOM     37  C   UNL A   1      45.398  27.081  26.380  1.00  0.00     0.049 A 
ATOM     38  H   UNL A   1      43.957  28.099  27.532  1.00  0.00     0.167 HD
ATOM     39  C   UNL A   1      46.428  29.333  26.699  1.00  0.00     0.074 A 
ATOM     40  C   UNL A   1      47.507  30.282  26.502  1.00  0.00     0.031 C 
ATOM     41  C   UNL A   1      46.439  28.064  26.222  1.00  0.00     0.037 A 
BRANCH  28  42
ATOM     42  C   UNL A   1      41.464  24.641  27.603  1.00  0.00     0.057 A 
ATOM     43  C   UNL A   1      41.852  23.540  28.376  1.00  0.00     0.134 A 
ATOM     44  C   UNL A   1      40.385  24.468  26.727  1.00  0.00     0.134 A 
ATOM     45  F   UNL A   1      42.902  23.626  29.206  1.00  0.00    -0.206 F 
ATOM     46  C   UNL A   1      41.200  22.309  28.265  1.00  0.00     0.040 A 
ATOM     47  C   UNL A   1      39.710  23.251  26.626  1.00  0.00     0.040 A 
ATOM     48  F   UNL A   1      39.974  25.479  25.945  1.00  0.00    -0.206 F 
ATOM     49  C   UNL A   1      40.122  22.165  27.394  1.00  0.00     0.006 A 
ENDBRANCH  28  42
BRANCH  29  50
ATOM     50  C   UNL A   1      46.093  33.552  28.807  1.00  0.00     0.057 A 
ATOM     51  C   UNL A   1      47.159  33.727  29.701  1.00  0.00     0.134 A 
ATOM     52  C   UNL A   1      45.681  34.687  28.095  1.00  0.00     0.134 A 
ATOM     53  F   UNL A   1      47.603  32.695  30.434  1.00  0.00    -0.206 F 
ATOM     54  C   UNL A   1      47.768  34.972  29.895  1.00  0.00     0.040 A 
ATOM     55  C   UNL A   1      46.310  35.926  28.243  1.00  0.00     0.040 A 
ATOM     56  F   UNL A   1      44.657  34.613  27.232  1.00  0.00    -0.206 F 
ATOM     57  C   UNL A   1      47.350  36.075  29.156  1.00  0.00     0.006 A 
ENDBRANCH  29  50
BRANCH  41  58
ATOM     58  C   UNL A   1      47.664  27.636  25.473  1.00  0.00     0.057 A 
ATOM     59  C   UNL A   1      48.781  27.122  26.141  1.00  0.00     0.134 A 
ATOM     60  C   UNL A   1      47.691  27.662  24.074  1.00  0.00     0.134 A 
ATOM     61  F   UNL A   1      48.816  27.082  27.482  1.00  0.00    -0.206 F 
ATOM     62  C   UNL A   1      49.893  26.656  25.441  1.00  0.00     0.040 A 
ATOM     63  C   UNL A   1      48.786  27.173  23.363  1.00  0.00     0.040 A 
ATOM     64  F   UNL A   1      46.645  28.132  23.380  1.00  0.00    -0.206 F 
ATOM     65  C   UNL A   1      49.892  26.671  24.047  1.00  0.00     0.006 A 
ENDBRANCH  41  58
ENDBRANCH  15  16
ENDBRANCH   8  10
ENDBRANCH   7   8
ENDBRANCH   6   7
ENDBRANCH   5   6
ENDBRANCH   4   5
ENDBRANCH   3   4
ENDBRANCH   2   3
ENDBRANCH   1   2
BRANCH   1  66
ATOM     66  C   UNL A   1      32.872  30.704  27.278  1.00  0.00     0.202 C 
BRANCH  66  67
ATOM     67  C   UNL A   1      32.018  29.485  26.928  1.00  0.00     0.261 C 
BRANCH  67  68
ATOM     68  O   UNL A   1      32.230  28.952  25.612  1.00  0.00    -0.461 OA
BRANCH  68  69
ATOM     69  C   UNL A   1      31.317  28.040  25.162  1.00  0.00     0.333 C 
ATOM     70  O   UNL A   1      30.803  27.166  25.858  1.00  0.00    -0.249 OA
BRANCH  69  71
ATOM     71  C   UNL A   1      31.031  28.196  23.650  1.00  0.00     0.223 C 
BRANCH  71  72
ATOM     72  C   UNL A   1      29.773  29.036  23.430  1.00  0.00    -0.014 A 
ATOM     73  C   UNL A   1      28.580  28.387  23.054  1.00  0.00     0.006 A 
ATOM     74  C   UNL A   1      29.711  30.419  23.652  1.00  0.00     0.006 A 
ATOM     75  C   UNL A   1      27.388  29.098  22.878  1.00  0.00     0.000 A 
ATOM     76  C   UNL A   1      28.523  31.134  23.460  1.00  0.00     0.000 A 
ATOM     77  C   UNL A   1      27.363  30.474  23.071  1.00  0.00     0.000 A 
ENDBRANCH  71  72
BRANCH  71  78
ATOM     78  N   UNL A   1      32.220  28.672  22.940  1.00  0.00    -0.339 N 
ATOM     79  C   UNL A   1      33.433  28.092  22.741  1.00  0.00     0.224 C 
ATOM     80  H   UNL A   1      32.125  29.565  22.539  1.00  0.00     0.164 HD
ATOM     81  O   UNL A   1      34.301  28.809  22.229  1.00  0.00    -0.275 OA
BRANCH  79  82
ATOM     82  C   UNL A   1      33.771  26.627  23.062  1.00  0.00     0.078 C 
ATOM     83  C   UNL A   1      33.881  26.249  24.539  1.00  0.00     0.014 C 
ATOM     84  C   UNL A   1      32.886  25.658  22.270  1.00  0.00     0.014 C 
ATOM     85  C   UNL A   1      34.234  24.784  24.767  1.00  0.00     0.006 C 
ATOM     86  C   UNL A   1      33.248  24.194  22.552  1.00  0.00     0.006 C 
ATOM     87  C   UNL A   1      33.251  23.850  24.048  1.00  0.00     0.008 C 
BRANCH  87  88
ATOM     88  C   UNL A   1      31.853  23.941  24.682  1.00  0.00     0.119 C 
BRANCH  88  89
ATOM     89  N   UNL A   1      31.833  23.557  26.077  1.00  0.00    -0.351 N 
ATOM     90  C   UNL A   1      32.424  22.482  26.682  1.00  0.00     0.278 C 
ATOM     91  H   UNL A   1      31.322  24.151  26.673  1.00  0.00     0.163 HD
ATOM     92  O   UNL A   1      32.426  22.462  27.915  1.00  0.00    -0.268 OA
BRANCH  90  93
ATOM     93  C   UNL A   1      33.024  21.324  25.851  1.00  0.00     0.277 C 
ATOM     94  C   UNL A   1      32.119  20.934  24.666  1.00  0.00     0.111 C 
ATOM     95  N   UNL A   1      33.523  20.264  26.753  1.00  0.00    -0.332 N 
ATOM     96  C   UNL A   1      32.485  19.594  24.089  1.00  0.00    -0.033 A 
ATOM     97  C   UNL A   1      33.171  18.895  26.406  1.00  0.00     0.298 C 
ATOM     98  H   UNL A   1      33.152  20.450  27.685  1.00  0.00     0.347 HD
ATOM     99  H   UNL A   1      34.539  20.307  26.684  1.00  0.00     0.347 HD
ATOM    100  C   UNL A   1      32.211  19.286  22.751  1.00  0.00     0.004 A 
ATOM    101  C   UNL A   1      33.051  18.624  24.930  1.00  0.00     0.010 A 
ATOM    102  C   UNL A   1      32.541  18.031  22.240  1.00  0.00     0.000 A 
ATOM    103  C   UNL A   1      33.384  17.368  24.404  1.00  0.00     0.010 A 
ATOM    104  C   UNL A   1      33.139  17.078  23.062  1.00  0.00     0.001 A 
ENDBRANCH  90  93
ENDBRANCH  88  89
ENDBRANCH  87  88
ENDBRANCH  79  82
ENDBRANCH  71  78
ENDBRANCH  69  71
ENDBRANCH  68  69
ENDBRANCH  67  68
ENDBRANCH  66  67
ENDBRANCH   1  66
TORSDOF 23
ENDMDL
