MODEL 1
REMARK VINA RESULT:     -11.9      0.000      0.000
REMARK SMILES C[C@H](O)C[NH2+][C@H](CC(=O)Nc1cccc2ccccc12)C(=O)OCCOCCOCCOC(=O)c1ccc(-c2c3nc(c(-c4c(F)cccc4F)c4ccc([nH]4)c(-c4c(F)cccc4F)c4nc(c(-c5c(F)cccc5F)c5ccc2[nH]5)C=C4)C=C3)cc1
REMARK SMILES IDX 27 1 26 2 25 3 24 4 23 5 21 6 22 7 6 8 5 9 4 12 2 13 1 14
REMARK SMILES IDX 3 15 7 17 8 18 9 19 10 20 11 22 12 23 20 24 13 25 15 26
REMARK SMILES IDX 19 27 14 28 16 29 18 30 17 31 28 32 29 33 30 34 31 35 32 36
REMARK SMILES IDX 33 37 34 38 35 39 36 40 88 41 37 42 87 43 38 44 39 45 40 46
REMARK SMILES IDX 81 47 41 48 86 49 80 50 82 51 42 52 85 53 79 54 78 55 43 57
REMARK SMILES IDX 69 58 52 59 68 60 53 61 56 62 67 63 83 64 54 65 55 66 66 68
REMARK SMILES IDX 84 69 57 70 44 71 45 72 50 73 46 74 47 75 49 76 51 77 48 78
REMARK SMILES IDX 70 79 71 80 76 81 72 82 73 83 75 84 77 85 74 86 58 87 59 88
REMARK SMILES IDX 64 89 60 90 61 91 63 92 65 93 62 94
REMARK H PARENT 5 10 5 11 3 16 10 21 82 56 56 67
REMARK Flexibility Score: inf
ROOT
ATOM      1  C   UNL A   1      40.374  20.273  26.392  1.00  0.00     0.188 C 
ENDROOT
BRANCH   1   2
ATOM      2  O   UNL A   1      39.646  21.409  26.862  1.00  0.00    -0.376 OA
BRANCH   2   3
ATOM      3  C   UNL A   1      38.790  22.312  25.915  1.00  0.00     0.202 C 
BRANCH   3   4
ATOM      4  C   UNL A   1      36.965  23.460  26.270  1.00  0.00     0.261 C 
BRANCH   4   5
ATOM      5  O   UNL A   1      35.364  22.904  25.969  1.00  0.00    -0.459 OA
BRANCH   5   6
ATOM      6  C   UNL A   1      34.232  23.582  25.524  1.00  0.00     0.365 C 
ATOM      7  O   UNL A   1      34.215  24.393  24.603  1.00  0.00    -0.245 OA
BRANCH   6   8
ATOM      8  C   UNL A   1      32.900  23.055  26.262  1.00  0.00     0.302 C 
BRANCH   8   9
ATOM      9  N   UNL A   1      33.026  21.639  26.729  1.00  0.00    -0.332 N 
ATOM     10  H   UNL A   1      33.988  21.442  27.005  1.00  0.00     0.347 HD
ATOM     11  H   UNL A   1      32.433  21.462  27.539  1.00  0.00     0.347 HD
BRANCH   9  12
ATOM     12  C   UNL A   1      32.643  20.803  25.601  1.00  0.00     0.292 C 
BRANCH  12  13
ATOM     13  C   UNL A   1      33.187  19.409  25.419  1.00  0.00     0.166 C 
ATOM     14  C   UNL A   1      32.456  18.872  24.181  1.00  0.00     0.044 C 
BRANCH  13  15
ATOM     15  O   UNL A   1      32.870  18.608  26.550  1.00  0.00    -0.388 OA
ATOM     16  H   UNL A   1      32.361  19.135  27.186  1.00  0.00     0.211 HD
ENDBRANCH  13  15
ENDBRANCH  12  13
ENDBRANCH   9  12
ENDBRANCH   8   9
BRANCH   8  17
ATOM     17  C   UNL A   1      31.518  23.315  25.623  1.00  0.00     0.177 C 
BRANCH  17  18
ATOM     18  C   UNL A   1      30.409  23.817  26.509  1.00  0.00     0.231 C 
ATOM     19  O   UNL A   1      29.954  23.081  27.391  1.00  0.00    -0.274 OA
ATOM     20  N   UNL A   1      29.890  25.062  26.382  1.00  0.00    -0.325 N 
ATOM     21  H   UNL A   1      29.282  25.324  27.110  1.00  0.00     0.169 HD
BRANCH  20  22
ATOM     22  C   UNL A   1      30.066  26.046  25.393  1.00  0.00     0.049 A 
ATOM     23  C   UNL A   1      28.881  26.377  24.060  1.00  0.00     0.027 A 
ATOM     24  C   UNL A   1      31.428  27.193  25.698  1.00  0.00     0.005 A 
ATOM     25  C   UNL A   1      28.917  27.959  23.179  1.00  0.00     0.003 A 
ATOM     26  C   UNL A   1      31.501  28.723  24.782  1.00  0.00    -0.016 A 
ATOM     27  C   UNL A   1      32.553  26.892  26.465  1.00  0.00     0.011 A 
ATOM     28  C   UNL A   1      30.241  29.108  23.549  1.00  0.00     0.009 A 
ATOM     29  C   UNL A   1      32.718  29.391  24.836  1.00  0.00     0.009 A 
ATOM     30  C   UNL A   1      33.728  27.637  26.292  1.00  0.00     0.001 A 
ATOM     31  C   UNL A   1      33.812  28.804  25.496  1.00  0.00     0.001 A 
ENDBRANCH  20  22
ENDBRANCH  17  18
ENDBRANCH   8  17
ENDBRANCH   6   8
ENDBRANCH   5   6
ENDBRANCH   4   5
ENDBRANCH   3   4
ENDBRANCH   2   3
ENDBRANCH   1   2
BRANCH   1  32
ATOM     32  C   UNL A   1      41.908  20.197  26.560  1.00  0.00     0.188 C 
BRANCH  32  33
ATOM     33  O   UNL A   1      42.730  20.811  25.603  1.00  0.00    -0.376 OA
BRANCH  33  34
ATOM     34  C   UNL A   1      42.600  22.200  25.364  1.00  0.00     0.202 C 
BRANCH  34  35
ATOM     35  C   UNL A   1      43.651  22.945  24.531  1.00  0.00     0.261 C 
BRANCH  35  36
ATOM     36  O   UNL A   1      44.497  23.921  25.181  1.00  0.00    -0.460 OA
BRANCH  36  37
ATOM     37  C   UNL A   1      44.885  23.801  26.474  1.00  0.00     0.338 C 
ATOM     38  O   UNL A   1      45.846  23.191  26.901  1.00  0.00    -0.246 OA
BRANCH  37  39
ATOM     39  C   UNL A   1      44.132  24.863  27.216  1.00  0.00     0.060 A 
ATOM     40  C   UNL A   1      44.346  26.226  26.912  1.00  0.00     0.016 A 
ATOM     41  C   UNL A   1      43.098  24.506  28.080  1.00  0.00     0.016 A 
ATOM     42  C   UNL A   1      43.532  27.221  27.462  1.00  0.00     0.010 A 
ATOM     43  C   UNL A   1      42.329  25.501  28.685  1.00  0.00     0.010 A 
ATOM     44  C   UNL A   1      42.570  26.861  28.410  1.00  0.00    -0.014 A 
BRANCH  44  45
ATOM     45  C   UNL A   1      42.082  27.865  29.384  1.00  0.00     0.031 A 
ATOM     46  C   UNL A   1      42.800  27.909  30.705  1.00  0.00     0.074 A 
ATOM     47  C   UNL A   1      41.031  28.666  29.149  1.00  0.00     0.049 A 
ATOM     48  N   UNL A   1      42.475  28.516  31.814  1.00  0.00    -0.248 NA
ATOM     49  C   UNL A   1      44.053  27.135  30.786  1.00  0.00     0.031 C 
ATOM     50  C   UNL A   1      40.301  28.772  27.889  1.00  0.00     0.029 A 
ATOM     51  N   UNL A   1      40.375  29.528  29.995  1.00  0.00    -0.354 N 
ATOM     52  C   UNL A   1      43.464  28.172  32.728  1.00  0.00     0.074 A 
ATOM     53  C   UNL A   1      44.384  27.285  32.057  1.00  0.00     0.031 C 
ATOM     54  C   UNL A   1      39.273  29.625  28.054  1.00  0.00     0.029 A 
ATOM     55  C   UNL A   1      39.246  30.083  29.444  1.00  0.00     0.049 A 
ATOM     56  H   UNL A   1      40.686  29.729  30.907  1.00  0.00     0.167 HD
ATOM     57  C   UNL A   1      43.591  28.560  34.017  1.00  0.00     0.037 A 
ATOM     58  C   UNL A   1      38.283  30.834  30.016  1.00  0.00     0.037 A 
ATOM     59  C   UNL A   1      42.662  29.433  34.677  1.00  0.00     0.049 A 
ATOM     60  C   UNL A   1      38.388  31.176  31.484  1.00  0.00     0.074 A 
ATOM     61  C   UNL A   1      42.698  29.899  35.978  1.00  0.00     0.029 A 
ATOM     62  N   UNL A   1      41.522  29.959  34.089  1.00  0.00    -0.354 N 
ATOM     63  N   UNL A   1      39.325  30.856  32.346  1.00  0.00    -0.248 NA
ATOM     64  C   UNL A   1      37.299  31.979  32.062  1.00  0.00     0.031 C 
ATOM     65  C   UNL A   1      41.540  30.648  36.199  1.00  0.00     0.029 A 
ATOM     66  C   UNL A   1      40.827  30.720  35.012  1.00  0.00     0.049 A 
ATOM     67  H   UNL A   1      41.248  29.812  33.155  1.00  0.00     0.167 HD
ATOM     68  C   UNL A   1      38.963  31.454  33.548  1.00  0.00     0.074 A 
ATOM     69  C   UNL A   1      37.721  32.157  33.306  1.00  0.00     0.031 C 
ATOM     70  C   UNL A   1      39.602  31.429  34.745  1.00  0.00     0.037 A 
BRANCH  57  71
ATOM     71  C   UNL A   1      44.744  28.002  34.799  1.00  0.00     0.057 A 
ATOM     72  C   UNL A   1      46.025  28.568  34.749  1.00  0.00     0.134 A 
ATOM     73  C   UNL A   1      44.564  26.886  35.627  1.00  0.00     0.134 A 
ATOM     74  F   UNL A   1      46.273  29.625  33.959  1.00  0.00    -0.206 F 
ATOM     75  C   UNL A   1      47.090  28.029  35.473  1.00  0.00     0.040 A 
ATOM     76  C   UNL A   1      45.612  26.361  36.383  1.00  0.00     0.040 A 
ATOM     77  F   UNL A   1      43.364  26.294  35.721  1.00  0.00    -0.206 F 
ATOM     78  C   UNL A   1      46.882  26.927  36.300  1.00  0.00     0.006 A 
ENDBRANCH  57  71
BRANCH  58  79
ATOM     79  C   UNL A   1      37.115  31.294  29.218  1.00  0.00     0.057 A 
ATOM     80  C   UNL A   1      37.065  32.588  28.685  1.00  0.00     0.134 A 
ATOM     81  C   UNL A   1      36.006  30.467  28.995  1.00  0.00     0.134 A 
ATOM     82  F   UNL A   1      38.082  33.440  28.885  1.00  0.00    -0.206 F 
ATOM     83  C   UNL A   1      35.951  33.050  27.981  1.00  0.00     0.040 A 
ATOM     84  C   UNL A   1      34.899  30.905  28.265  1.00  0.00     0.040 A 
ATOM     85  F   UNL A   1      35.984  29.217  29.479  1.00  0.00    -0.206 F 
ATOM     86  C   UNL A   1      34.865  32.204  27.764  1.00  0.00     0.006 A 
ENDBRANCH  58  79
BRANCH  70  87
ATOM     87  C   UNL A   1      39.017  32.234  35.872  1.00  0.00     0.057 A 
ATOM     88  C   UNL A   1      38.163  31.673  36.828  1.00  0.00     0.134 A 
ATOM     89  C   UNL A   1      39.388  33.576  36.044  1.00  0.00     0.134 A 
ATOM     90  F   UNL A   1      37.763  30.396  36.719  1.00  0.00    -0.206 F 
ATOM     91  C   UNL A   1      37.684  32.421  37.905  1.00  0.00     0.040 A 
ATOM     92  C   UNL A   1      38.944  34.323  37.135  1.00  0.00     0.040 A 
ATOM     93  F   UNL A   1      40.216  34.171  35.174  1.00  0.00    -0.206 F 
ATOM     94  C   UNL A   1      38.084  33.747  38.067  1.00  0.00     0.006 A 
ENDBRANCH  70  87
ENDBRANCH  44  45
ENDBRANCH  37  39
ENDBRANCH  36  37
ENDBRANCH  35  36
ENDBRANCH  34  35
ENDBRANCH  33  34
ENDBRANCH  32  33
ENDBRANCH   1  32
TORSDOF 24
ENDMDL
MODEL 2
REMARK VINA RESULT:     -11.8      4.800      9.873
REMARK SMILES C[C@H](O)C[NH2+][C@H](CC(=O)Nc1cccc2ccccc12)C(=O)OCCOCCOCCOC(=O)c1ccc(-c2c3nc(c(-c4c(F)cccc4F)c4ccc([nH]4)c(-c4c(F)cccc4F)c4nc(c(-c5c(F)cccc5F)c5ccc2[nH]5)C=C4)C=C3)cc1
REMARK SMILES IDX 27 1 26 2 25 3 24 4 23 5 21 6 22 7 6 8 5 9 4 12 2 13 1 14
REMARK SMILES IDX 3 15 7 17 8 18 9 19 10 20 11 22 12 23 20 24 13 25 15 26
REMARK SMILES IDX 19 27 14 28 16 29 18 30 17 31 28 32 29 33 30 34 31 35 32 36
REMARK SMILES IDX 33 37 34 38 35 39 36 40 88 41 37 42 87 43 38 44 39 45 40 46
REMARK SMILES IDX 81 47 41 48 86 49 80 50 82 51 42 52 85 53 79 54 78 55 43 57
REMARK SMILES IDX 69 58 52 59 68 60 53 61 56 62 67 63 83 64 54 65 55 66 66 68
REMARK SMILES IDX 84 69 57 70 44 71 45 72 50 73 46 74 47 75 49 76 51 77 48 78
REMARK SMILES IDX 70 79 71 80 76 81 72 82 73 83 75 84 77 85 74 86 58 87 59 88
REMARK SMILES IDX 64 89 60 90 61 91 63 92 65 93 62 94
REMARK H PARENT 5 10 5 11 3 16 10 21 82 56 56 67
REMARK Flexibility Score: inf
ROOT
ATOM      1  C   UNL A   1      33.993  32.067  27.900  1.00  0.00     0.188 C 
ENDROOT
BRANCH   1   2
ATOM      2  O   UNL A   1      33.823  30.895  27.100  1.00  0.00    -0.376 OA
BRANCH   2   3
ATOM      3  C   UNL A   1      32.428  30.227  26.869  1.00  0.00     0.202 C 
BRANCH   3   4
ATOM      4  C   UNL A   1      31.738  28.176  27.172  1.00  0.00     0.261 C 
BRANCH   4   5
ATOM      5  O   UNL A   1      32.092  26.844  26.141  1.00  0.00    -0.459 OA
BRANCH   5   6
ATOM      6  C   UNL A   1      31.359  26.276  25.101  1.00  0.00     0.365 C 
ATOM      7  O   UNL A   1      30.213  25.848  25.201  1.00  0.00    -0.245 OA
BRANCH   6   8
ATOM      8  C   UNL A   1      32.141  26.391  23.697  1.00  0.00     0.302 C 
BRANCH   8   9
ATOM      9  N   UNL A   1      32.394  27.810  23.296  1.00  0.00    -0.332 N 
ATOM     10  H   UNL A   1      32.350  28.420  24.113  1.00  0.00     0.347 HD
ATOM     11  H   UNL A   1      33.320  27.919  22.883  1.00  0.00     0.347 HD
BRANCH   9  12
ATOM     12  C   UNL A   1      31.346  28.159  22.349  1.00  0.00     0.292 C 
BRANCH  12  13
ATOM     13  C   UNL A   1      30.444  29.348  22.559  1.00  0.00     0.166 C 
ATOM     14  C   UNL A   1      29.072  28.736  22.874  1.00  0.00     0.044 C 
BRANCH  13  15
ATOM     15  O   UNL A   1      30.363  30.118  21.367  1.00  0.00    -0.388 OA
ATOM     16  H   UNL A   1      29.536  30.624  21.364  1.00  0.00     0.211 HD
ENDBRANCH  13  15
ENDBRANCH  12  13
ENDBRANCH   9  12
ENDBRANCH   8   9
BRANCH   8  17
ATOM     17  C   UNL A   1      31.678  25.542  22.492  1.00  0.00     0.177 C 
BRANCH  17  18
ATOM     18  C   UNL A   1      32.722  25.058  21.522  1.00  0.00     0.231 C 
ATOM     19  O   UNL A   1      32.960  25.717  20.504  1.00  0.00    -0.274 OA
ATOM     20  N   UNL A   1      33.426  23.918  21.726  1.00  0.00    -0.325 N 
ATOM     21  H   UNL A   1      34.179  23.790  21.105  1.00  0.00     0.169 HD
BRANCH  20  22
ATOM     22  C   UNL A   1      33.272  22.887  22.669  1.00  0.00     0.049 A 
ATOM     23  C   UNL A   1      32.116  21.502  22.486  1.00  0.00     0.027 A 
ATOM     24  C   UNL A   1      34.528  22.852  23.968  1.00  0.00     0.005 A 
ATOM     25  C   UNL A   1      32.351  19.983  23.446  1.00  0.00     0.003 A 
ATOM     26  C   UNL A   1      34.716  21.380  24.958  1.00  0.00    -0.016 A 
ATOM     27  C   UNL A   1      35.247  23.967  24.396  1.00  0.00     0.011 A 
ATOM     28  C   UNL A   1      33.648  19.952  24.681  1.00  0.00     0.009 A 
ATOM     29  C   UNL A   1      35.464  21.536  26.119  1.00  0.00     0.009 A 
ATOM     30  C   UNL A   1      35.852  23.956  25.660  1.00  0.00     0.001 A 
ATOM     31  C   UNL A   1      35.928  22.811  26.489  1.00  0.00     0.001 A 
ENDBRANCH  20  22
ENDBRANCH  17  18
ENDBRANCH   8  17
ENDBRANCH   6   8
ENDBRANCH   5   6
ENDBRANCH   4   5
ENDBRANCH   3   4
ENDBRANCH   2   3
ENDBRANCH   1   2
BRANCH   1  32
ATOM     32  C   UNL A   1      33.037  33.271  27.743  1.00  0.00     0.188 C 
BRANCH  32  33
ATOM     33  O   UNL A   1      32.677  34.009  28.880  1.00  0.00    -0.376 OA
BRANCH  33  34
ATOM     34  C   UNL A   1      33.594  34.941  29.422  1.00  0.00     0.202 C 
BRANCH  34  35
ATOM     35  C   UNL A   1      34.501  34.544  30.595  1.00  0.00     0.261 C 
BRANCH  35  36
ATOM     36  O   UNL A   1      34.842  33.150  30.775  1.00  0.00    -0.460 OA
BRANCH  36  37
ATOM     37  C   UNL A   1      35.487  32.695  31.876  1.00  0.00     0.338 C 
ATOM     38  O   UNL A   1      35.090  32.717  33.024  1.00  0.00    -0.246 OA
BRANCH  37  39
ATOM     39  C   UNL A   1      36.598  31.832  31.358  1.00  0.00     0.060 A 
ATOM     40  C   UNL A   1      37.294  30.971  32.237  1.00  0.00     0.016 A 
ATOM     41  C   UNL A   1      36.829  31.746  29.986  1.00  0.00     0.016 A 
ATOM     42  C   UNL A   1      38.207  30.032  31.749  1.00  0.00     0.010 A 
ATOM     43  C   UNL A   1      37.792  30.859  29.503  1.00  0.00     0.010 A 
ATOM     44  C   UNL A   1      38.512  30.029  30.385  1.00  0.00    -0.014 A 
BRANCH  44  45
ATOM     45  C   UNL A   1      39.801  29.471  29.918  1.00  0.00     0.031 A 
ATOM     46  C   UNL A   1      40.943  30.444  29.805  1.00  0.00     0.074 A 
ATOM     47  C   UNL A   1      39.959  28.186  29.560  1.00  0.00     0.049 A 
ATOM     48  N   UNL A   1      42.108  30.304  29.234  1.00  0.00    -0.248 NA
ATOM     49  C   UNL A   1      40.721  31.773  30.405  1.00  0.00     0.031 C 
ATOM     50  C   UNL A   1      38.958  27.133  29.691  1.00  0.00     0.029 A 
ATOM     51  N   UNL A   1      41.034  27.562  28.974  1.00  0.00    -0.354 N 
ATOM     52  C   UNL A   1      42.742  31.533  29.380  1.00  0.00     0.074 A 
ATOM     53  C   UNL A   1      41.827  32.413  30.067  1.00  0.00     0.031 C 
ATOM     54  C   UNL A   1      39.453  25.996  29.168  1.00  0.00     0.029 A 
ATOM     55  C   UNL A   1      40.784  26.259  28.620  1.00  0.00     0.049 A 
ATOM     56  H   UNL A   1      41.900  28.006  28.824  1.00  0.00     0.167 HD
ATOM     57  C   UNL A   1      43.979  31.895  28.973  1.00  0.00     0.037 A 
ATOM     58  C   UNL A   1      41.531  25.399  27.896  1.00  0.00     0.037 A 
ATOM     59  C   UNL A   1      44.876  31.015  28.279  1.00  0.00     0.049 A 
ATOM     60  C   UNL A   1      42.869  25.854  27.362  1.00  0.00     0.074 A 
ATOM     61  C   UNL A   1      46.156  31.274  27.827  1.00  0.00     0.029 A 
ATOM     62  N   UNL A   1      44.577  29.708  27.923  1.00  0.00    -0.354 N 
ATOM     63  N   UNL A   1      43.470  27.012  27.505  1.00  0.00    -0.248 NA
ATOM     64  C   UNL A   1      43.631  24.884  26.560  1.00  0.00     0.031 C 
ATOM     65  C   UNL A   1      46.604  30.148  27.134  1.00  0.00     0.029 A 
ATOM     66  C   UNL A   1      45.638  29.157  27.228  1.00  0.00     0.049 A 
ATOM     67  H   UNL A   1      43.736  29.242  28.134  1.00  0.00     0.167 HD
ATOM     68  C   UNL A   1      44.693  26.894  26.854  1.00  0.00     0.074 A 
ATOM     69  C   UNL A   1      44.751  25.552  26.316  1.00  0.00     0.031 C 
ATOM     70  C   UNL A   1      45.684  27.811  26.718  1.00  0.00     0.037 A 
BRANCH  57  71
ATOM     71  C   UNL A   1      44.404  33.313  29.226  1.00  0.00     0.057 A 
ATOM     72  C   UNL A   1      44.171  34.340  28.301  1.00  0.00     0.134 A 
ATOM     73  C   UNL A   1      45.046  33.657  30.423  1.00  0.00     0.134 A 
ATOM     74  F   UNL A   1      43.581  34.077  27.125  1.00  0.00    -0.206 F 
ATOM     75  C   UNL A   1      44.584  35.650  28.546  1.00  0.00     0.040 A 
ATOM     76  C   UNL A   1      45.430  34.969  30.695  1.00  0.00     0.040 A 
ATOM     77  F   UNL A   1      45.301  32.723  31.351  1.00  0.00    -0.206 F 
ATOM     78  C   UNL A   1      45.208  35.969  29.751  1.00  0.00     0.006 A 
ENDBRANCH  57  71
BRANCH  58  79
ATOM     79  C   UNL A   1      41.027  24.031  27.601  1.00  0.00     0.057 A 
ATOM     80  C   UNL A   1      41.570  22.906  28.235  1.00  0.00     0.134 A 
ATOM     81  C   UNL A   1      40.018  23.807  26.655  1.00  0.00     0.134 A 
ATOM     82  F   UNL A   1      42.557  23.048  29.131  1.00  0.00    -0.206 F 
ATOM     83  C   UNL A   1      41.144  21.612  27.927  1.00  0.00     0.040 A 
ATOM     84  C   UNL A   1      39.560  22.522  26.360  1.00  0.00     0.040 A 
ATOM     85  F   UNL A   1      39.456  24.838  26.006  1.00  0.00    -0.206 F 
ATOM     86  C   UNL A   1      40.132  21.418  26.990  1.00  0.00     0.006 A 
ENDBRANCH  58  79
BRANCH  70  87
ATOM     87  C   UNL A   1      46.945  27.386  26.019  1.00  0.00     0.057 A 
ATOM     88  C   UNL A   1      47.150  27.596  24.650  1.00  0.00     0.134 A 
ATOM     89  C   UNL A   1      48.004  26.833  26.754  1.00  0.00     0.134 A 
ATOM     90  F   UNL A   1      46.176  28.115  23.887  1.00  0.00    -0.206 F 
ATOM     91  C   UNL A   1      48.355  27.254  24.034  1.00  0.00     0.040 A 
ATOM     92  C   UNL A   1      49.225  26.520  26.155  1.00  0.00     0.040 A 
ATOM     93  F   UNL A   1      47.881  26.619  28.072  1.00  0.00    -0.206 F 
ATOM     94  C   UNL A   1      49.401  26.726  24.789  1.00  0.00     0.006 A 
ENDBRANCH  70  87
ENDBRANCH  44  45
ENDBRANCH  37  39
ENDBRANCH  36  37
ENDBRANCH  35  36
ENDBRANCH  34  35
ENDBRANCH  33  34
ENDBRANCH  32  33
ENDBRANCH   1  32
TORSDOF 24
ENDMDL
MODEL 3
REMARK VINA RESULT:     -10.8      2.716      8.018
REMARK SMILES C[C@H](O)C[NH2+][C@H](CC(=O)Nc1cccc2ccccc12)C(=O)OCCOCCOCCOC(=O)c1ccc(-c2c3nc(c(-c4c(F)cccc4F)c4ccc([nH]4)c(-c4c(F)cccc4F)c4nc(c(-c5c(F)cccc5F)c5ccc2[nH]5)C=C4)C=C3)cc1
REMARK SMILES IDX 27 1 26 2 25 3 24 4 23 5 21 6 22 7 6 8 5 9 4 12 2 13 1 14
REMARK SMILES IDX 3 15 7 17 8 18 9 19 10 20 11 22 12 23 20 24 13 25 15 26
REMARK SMILES IDX 19 27 14 28 16 29 18 30 17 31 28 32 29 33 30 34 31 35 32 36
REMARK SMILES IDX 33 37 34 38 35 39 36 40 88 41 37 42 87 43 38 44 39 45 40 46
REMARK SMILES IDX 81 47 41 48 86 49 80 50 82 51 42 52 85 53 79 54 78 55 43 57
REMARK SMILES IDX 69 58 52 59 68 60 53 61 56 62 67 63 83 64 54 65 55 66 66 68
REMARK SMILES IDX 84 69 57 70 44 71 45 72 50 73 46 74 47 75 49 76 51 77 48 78
REMARK SMILES IDX 70 79 71 80 76 81 72 82 73 83 75 84 77 85 74 86 58 87 59 88
REMARK SMILES IDX 64 89 60 90 61 91 63 92 65 93 62 94
REMARK H PARENT 5 10 5 11 3 16 10 21 82 56 56 67
REMARK Flexibility Score: inf
ROOT
ATOM      1  C   UNL A   1      32.292  26.584  22.803  1.00  0.00     0.188 C 
ENDROOT
BRANCH   1   2
ATOM      2  O   UNL A   1      31.339  25.596  22.406  1.00  0.00    -0.376 OA
BRANCH   2   3
ATOM      3  C   UNL A   1      30.906  24.420  23.341  1.00  0.00     0.202 C 
BRANCH   3   4
ATOM      4  C   UNL A   1      30.493  24.356  25.486  1.00  0.00     0.261 C 
BRANCH   4   5
ATOM      5  O   UNL A   1      30.919  23.067  26.544  1.00  0.00    -0.459 OA
BRANCH   5   6
ATOM      6  C   UNL A   1      32.161  22.526  26.869  1.00  0.00     0.365 C 
ATOM      7  O   UNL A   1      32.711  22.635  27.961  1.00  0.00    -0.245 OA
BRANCH   6   8
ATOM      8  C   UNL A   1      32.726  21.593  25.683  1.00  0.00     0.302 C 
BRANCH   8   9
ATOM      9  N   UNL A   1      32.006  20.286  25.587  1.00  0.00    -0.332 N 
ATOM     10  H   UNL A   1      32.266  19.682  26.367  1.00  0.00     0.347 HD
ATOM     11  H   UNL A   1      30.996  20.417  25.626  1.00  0.00     0.347 HD
BRANCH   9  12
ATOM     12  C   UNL A   1      32.415  19.687  24.326  1.00  0.00     0.292 C 
BRANCH  12  13
ATOM     13  C   UNL A   1      32.580  18.198  24.166  1.00  0.00     0.166 C 
ATOM     14  C   UNL A   1      34.099  17.977  24.198  1.00  0.00     0.044 C 
BRANCH  13  15
ATOM     15  O   UNL A   1      32.061  17.779  22.911  1.00  0.00    -0.388 OA
ATOM     16  H   UNL A   1      32.486  16.947  22.647  1.00  0.00     0.211 HD
ENDBRANCH  13  15
ENDBRANCH  12  13
ENDBRANCH   9  12
ENDBRANCH   8   9
BRANCH   8  17
ATOM     17  C   UNL A   1      34.251  21.407  25.519  1.00  0.00     0.177 C 
BRANCH  17  18
ATOM     18  C   UNL A   1      34.927  22.080  24.354  1.00  0.00     0.231 C 
ATOM     19  O   UNL A   1      34.241  22.569  23.450  1.00  0.00    -0.274 OA
ATOM     20  N   UNL A   1      36.276  22.180  24.260  1.00  0.00    -0.325 N 
ATOM     21  H   UNL A   1      36.589  22.770  23.537  1.00  0.00     0.169 HD
BRANCH  20  22
ATOM     22  C   UNL A   1      37.306  21.591  25.014  1.00  0.00     0.049 A 
ATOM     23  C   UNL A   1      37.737  19.830  24.953  1.00  0.00     0.027 A 
ATOM     24  C   UNL A   1      38.402  22.762  25.848  1.00  0.00     0.005 A 
ATOM     25  C   UNL A   1      39.362  19.267  25.521  1.00  0.00     0.003 A 
ATOM     26  C   UNL A   1      39.975  22.193  26.467  1.00  0.00    -0.016 A 
ATOM     27  C   UNL A   1      38.032  24.052  26.224  1.00  0.00     0.011 A 
ATOM     28  C   UNL A   1      40.457  20.463  26.283  1.00  0.00     0.009 A 
ATOM     29  C   UNL A   1      40.609  23.051  27.357  1.00  0.00     0.009 A 
ATOM     30  C   UNL A   1      38.756  24.714  27.226  1.00  0.00     0.001 A 
ATOM     31  C   UNL A   1      39.961  24.224  27.783  1.00  0.00     0.001 A 
ENDBRANCH  20  22
ENDBRANCH  17  18
ENDBRANCH   8  17
ENDBRANCH   6   8
ENDBRANCH   5   6
ENDBRANCH   4   5
ENDBRANCH   3   4
ENDBRANCH   2   3
ENDBRANCH   1   2
BRANCH   1  32
ATOM     32  C   UNL A   1      31.950  28.088  22.712  1.00  0.00     0.188 C 
BRANCH  32  33
ATOM     33  O   UNL A   1      32.937  29.032  23.032  1.00  0.00    -0.376 OA
BRANCH  33  34
ATOM     34  C   UNL A   1      33.452  29.078  24.350  1.00  0.00     0.202 C 
BRANCH  34  35
ATOM     35  C   UNL A   1      32.511  29.296  25.543  1.00  0.00     0.261 C 
BRANCH  35  36
ATOM     36  O   UNL A   1      33.080  29.626  26.831  1.00  0.00    -0.460 OA
BRANCH  36  37
ATOM     37  C   UNL A   1      33.424  30.890  27.173  1.00  0.00     0.338 C 
ATOM     38  O   UNL A   1      32.689  31.853  27.275  1.00  0.00    -0.246 OA
BRANCH  37  39
ATOM     39  C   UNL A   1      34.800  30.784  27.760  1.00  0.00     0.060 A 
ATOM     40  C   UNL A   1      35.331  29.518  28.094  1.00  0.00     0.016 A 
ATOM     41  C   UNL A   1      35.620  31.910  27.813  1.00  0.00     0.016 A 
ATOM     42  C   UNL A   1      36.669  29.378  28.473  1.00  0.00     0.010 A 
ATOM     43  C   UNL A   1      36.936  31.783  28.258  1.00  0.00     0.010 A 
ATOM     44  C   UNL A   1      37.452  30.525  28.629  1.00  0.00    -0.014 A 
BRANCH  44  45
ATOM     45  C   UNL A   1      38.641  30.493  29.511  1.00  0.00     0.031 A 
ATOM     46  C   UNL A   1      39.823  29.715  29.000  1.00  0.00     0.074 A 
ATOM     47  C   UNL A   1      38.674  31.072  30.722  1.00  0.00     0.049 A 
ATOM     48  N   UNL A   1      40.905  29.333  29.624  1.00  0.00    -0.248 NA
ATOM     49  C   UNL A   1      39.757  29.290  27.590  1.00  0.00     0.031 C 
ATOM     50  C   UNL A   1      37.628  31.912  31.297  1.00  0.00     0.029 A 
ATOM     51  N   UNL A   1      39.633  31.005  31.704  1.00  0.00    -0.354 N 
ATOM     52  C   UNL A   1      41.629  28.599  28.690  1.00  0.00     0.074 A 
ATOM     53  C   UNL A   1      40.857  28.566  27.472  1.00  0.00     0.031 C 
ATOM     54  C   UNL A   1      37.986  32.256  32.547  1.00  0.00     0.029 A 
ATOM     55  C   UNL A   1      39.261  31.616  32.876  1.00  0.00     0.049 A 
ATOM     56  H   UNL A   1      40.503  30.561  31.578  1.00  0.00     0.167 HD
ATOM     57  C   UNL A   1      42.833  28.003  28.840  1.00  0.00     0.037 A 
ATOM     58  C   UNL A   1      39.864  31.615  34.083  1.00  0.00     0.037 A 
ATOM     59  C   UNL A   1      43.587  28.032  30.062  1.00  0.00     0.049 A 
ATOM     60  C   UNL A   1      41.160  30.859  34.259  1.00  0.00     0.074 A 
ATOM     61  C   UNL A   1      44.822  27.469  30.323  1.00  0.00     0.029 A 
ATOM     62  N   UNL A   1      43.166  28.647  31.231  1.00  0.00    -0.354 N 
ATOM     63  N   UNL A   1      41.846  30.172  33.377  1.00  0.00    -0.248 NA
ATOM     64  C   UNL A   1      41.762  30.873  35.601  1.00  0.00     0.031 C 
ATOM     65  C   UNL A   1      45.115  27.680  31.672  1.00  0.00     0.029 A 
ATOM     66  C   UNL A   1      44.104  28.449  32.229  1.00  0.00     0.049 A 
ATOM     67  H   UNL A   1      42.325  29.149  31.336  1.00  0.00     0.167 HD
ATOM     68  C   UNL A   1      42.978  29.713  34.043  1.00  0.00     0.074 A 
ATOM     69  C   UNL A   1      42.887  30.200  35.403  1.00  0.00     0.031 C 
ATOM     70  C   UNL A   1      44.004  28.960  33.571  1.00  0.00     0.037 A 
BRANCH  57  71
ATOM     71  C   UNL A   1      43.375  27.232  27.671  1.00  0.00     0.057 A 
ATOM     72  C   UNL A   1      43.953  27.865  26.562  1.00  0.00     0.134 A 
ATOM     73  C   UNL A   1      43.331  25.832  27.664  1.00  0.00     0.134 A 
ATOM     74  F   UNL A   1      44.008  29.204  26.494  1.00  0.00    -0.206 F 
ATOM     75  C   UNL A   1      44.441  27.135  25.477  1.00  0.00     0.040 A 
ATOM     76  C   UNL A   1      43.849  25.090  26.603  1.00  0.00     0.040 A 
ATOM     77  F   UNL A   1      42.791  25.162  28.693  1.00  0.00    -0.206 F 
ATOM     78  C   UNL A   1      44.397  25.742  25.501  1.00  0.00     0.006 A 
ENDBRANCH  57  71
BRANCH  58  79
ATOM     79  C   UNL A   1      39.243  32.325  35.233  1.00  0.00     0.057 A 
ATOM     80  C   UNL A   1      39.513  33.676  35.483  1.00  0.00     0.134 A 
ATOM     81  C   UNL A   1      38.393  31.666  36.131  1.00  0.00     0.134 A 
ATOM     82  F   UNL A   1      40.339  34.359  34.677  1.00  0.00    -0.206 F 
ATOM     83  C   UNL A   1      38.980  34.339  36.591  1.00  0.00     0.040 A 
ATOM     84  C   UNL A   1      37.827  32.325  37.224  1.00  0.00     0.040 A 
ATOM     85  F   UNL A   1      38.094  30.370  35.956  1.00  0.00    -0.206 F 
ATOM     86  C   UNL A   1      38.129  33.664  37.463  1.00  0.00     0.006 A 
ENDBRANCH  58  79
BRANCH  70  87
ATOM     87  C   UNL A   1      45.148  28.668  34.502  1.00  0.00     0.057 A 
ATOM     88  C   UNL A   1      46.249  29.524  34.627  1.00  0.00     0.134 A 
ATOM     89  C   UNL A   1      45.099  27.550  35.347  1.00  0.00     0.134 A 
ATOM     90  F   UNL A   1      46.362  30.607  33.843  1.00  0.00    -0.206 F 
ATOM     91  C   UNL A   1      47.269  29.268  35.545  1.00  0.00     0.040 A 
ATOM     92  C   UNL A   1      46.094  27.304  36.293  1.00  0.00     0.040 A 
ATOM     93  F   UNL A   1      44.065  26.698  35.291  1.00  0.00    -0.206 F 
ATOM     94  C   UNL A   1      47.187  28.162  36.390  1.00  0.00     0.006 A 
ENDBRANCH  70  87
ENDBRANCH  44  45
ENDBRANCH  37  39
ENDBRANCH  36  37
ENDBRANCH  35  36
ENDBRANCH  34  35
ENDBRANCH  33  34
ENDBRANCH  32  33
ENDBRANCH   1  32
TORSDOF 24
ENDMDL
