MODEL 1
REMARK VINA RESULT:     -11.9      0.000      0.000
REMARK SMILES Cc1cc(OC(F)F)ccc1NC(=O)[C@@H]1CCCC[C@@H]1C(=O)OCCOCCOCCOC(=O)c1ccc(-c2c3nc(c(-c4c(F)cccc4F)c4ccc([nH]4)c(-c4c(F)cccc4F)c4nc(c(-c5c(F)cccc5F)c5ccc2[nH]5)C=C4)C=C3)cc1
REMARK SMILES IDX 27 1 26 2 25 3 24 4 23 5 21 6 22 7 20 8 15 9 16 10 17 11
REMARK SMILES IDX 19 12 18 13 13 14 12 15 14 17 11 18 1 19 2 20 3 21 4 22
REMARK SMILES IDX 10 23 9 24 5 25 6 26 7 27 8 28 28 29 29 30 30 31 31 32 32 33
REMARK SMILES IDX 33 34 34 35 35 36 36 37 88 38 37 39 87 40 38 41 39 42 40 43
REMARK SMILES IDX 81 44 41 45 86 46 80 47 82 48 42 49 85 50 79 51 78 52 43 54
REMARK SMILES IDX 69 55 52 56 68 57 53 58 56 59 67 60 83 61 54 62 55 63 66 65
REMARK SMILES IDX 84 66 57 67 44 68 45 69 50 70 46 71 47 72 49 73 51 74 48 75
REMARK SMILES IDX 70 76 71 77 76 78 72 79 73 80 75 81 77 82 74 83 58 84 59 85
REMARK SMILES IDX 64 86 60 87 61 88 63 89 65 90 62 91
REMARK H PARENT 12 16 82 53 56 64
REMARK Flexibility Score: inf
ROOT
ATOM      1  C   UNL A   1      38.164  23.713  26.139  1.00  0.00     0.188 C 
ENDROOT
BRANCH   1   2
ATOM      2  O   UNL A   1      37.018  23.608  25.328  1.00  0.00    -0.376 OA
BRANCH   2   3
ATOM      3  C   UNL A   1      35.845  23.939  26.066  1.00  0.00     0.202 C 
BRANCH   3   4
ATOM      4  C   UNL A   1      34.941  25.097  25.515  1.00  0.00     0.261 C 
BRANCH   4   5
ATOM      5  O   UNL A   1      33.197  25.173  25.887  1.00  0.00    -0.463 OA
BRANCH   5   6
ATOM      6  C   UNL A   1      31.900  25.691  26.334  1.00  0.00     0.309 C 
ATOM      7  O   UNL A   1      31.212  24.824  26.877  1.00  0.00    -0.252 OA
BRANCH   6   8
ATOM      8  C   UNL A   1      31.294  27.319  26.437  1.00  0.00     0.111 C 
ATOM      9  C   UNL A   1      31.399  28.294  25.119  1.00  0.00     0.093 C 
ATOM     10  C   UNL A   1      32.887  28.267  24.714  1.00  0.00     0.014 C 
ATOM     11  C   UNL A   1      33.772  28.861  25.818  1.00  0.00     0.001 C 
ATOM     12  C   UNL A   1      32.005  28.145  27.544  1.00  0.00     0.016 C 
ATOM     13  C   UNL A   1      33.468  28.392  27.238  1.00  0.00     0.001 C 
BRANCH   9  14
ATOM     14  C   UNL A   1      30.374  28.261  23.780  1.00  0.00     0.228 C 
ATOM     15  N   UNL A   1      30.565  27.423  22.652  1.00  0.00    -0.326 N 
ATOM     16  H   UNL A   1      30.137  27.680  21.804  1.00  0.00     0.169 HD
ATOM     17  O   UNL A   1      29.423  29.052  23.736  1.00  0.00    -0.274 OA
BRANCH  15  18
ATOM     18  C   UNL A   1      31.328  26.259  22.681  1.00  0.00     0.044 A 
ATOM     19  C   UNL A   1      33.775  26.913  21.427  1.00  0.00     0.047 C 
ATOM     20  C   UNL A   1      33.043  25.853  22.291  1.00  0.00    -0.024 A 
ATOM     21  C   UNL A   1      33.258  23.817  22.781  1.00  0.00     0.052 A 
ATOM     22  C   UNL A   1      32.007  22.905  23.348  1.00  0.00     0.126 A 
ATOM     23  C   UNL A   1      30.348  25.032  23.209  1.00  0.00     0.030 A 
ATOM     24  C   UNL A   1      30.674  23.536  23.535  1.00  0.00     0.049 A 
BRANCH  22  25
ATOM     25  O   UNL A   1      32.283  21.566  23.323  1.00  0.00    -0.435 OA
BRANCH  25  26
ATOM     26  C   UNL A   1      32.864  21.013  24.490  1.00  0.00     0.542 C 
ATOM     27  F   UNL A   1      34.183  20.819  24.282  1.00  0.00    -0.167 F 
ATOM     28  F   UNL A   1      32.716  21.860  25.536  1.00  0.00    -0.167 F 
ENDBRANCH  25  26
ENDBRANCH  22  25
ENDBRANCH  15  18
ENDBRANCH   9  14
ENDBRANCH   6   8
ENDBRANCH   5   6
ENDBRANCH   4   5
ENDBRANCH   3   4
ENDBRANCH   2   3
ENDBRANCH   1   2
BRANCH   1  29
ATOM     29  C   UNL A   1      38.985  22.457  26.216  1.00  0.00     0.188 C 
BRANCH  29  30
ATOM     30  O   UNL A   1      40.321  22.845  26.477  1.00  0.00    -0.376 OA
BRANCH  30  31
ATOM     31  C   UNL A   1      40.539  23.663  27.614  1.00  0.00     0.202 C 
BRANCH  31  32
ATOM     32  C   UNL A   1      41.887  24.326  27.422  1.00  0.00     0.261 C 
BRANCH  32  33
ATOM     33  O   UNL A   1      41.769  25.758  27.657  1.00  0.00    -0.460 OA
BRANCH  33  34
ATOM     34  C   UNL A   1      41.062  26.469  26.742  1.00  0.00     0.338 C 
ATOM     35  O   UNL A   1      41.047  26.203  25.546  1.00  0.00    -0.246 OA
BRANCH  34  36
ATOM     36  C   UNL A   1      40.420  27.704  27.330  1.00  0.00     0.060 A 
ATOM     37  C   UNL A   1      41.324  28.629  27.710  1.00  0.00     0.016 A 
ATOM     38  C   UNL A   1      39.125  27.897  27.853  1.00  0.00     0.016 A 
ATOM     39  C   UNL A   1      40.954  29.533  28.718  1.00  0.00     0.010 A 
ATOM     40  C   UNL A   1      38.816  28.882  28.917  1.00  0.00     0.010 A 
ATOM     41  C   UNL A   1      39.767  29.763  29.470  1.00  0.00    -0.014 A 
BRANCH  41  42
ATOM     42  C   UNL A   1      39.612  30.740  30.936  1.00  0.00     0.031 A 
ATOM     43  C   UNL A   1      40.244  30.054  32.497  1.00  0.00     0.074 A 
ATOM     44  C   UNL A   1      38.867  31.996  31.174  1.00  0.00     0.049 A 
ATOM     45  N   UNL A   1      41.352  31.282  32.150  1.00  0.00    -0.248 NA
ATOM     46  C   UNL A   1      41.566  28.468  33.378  1.00  0.00     0.031 C 
ATOM     47  C   UNL A   1      39.387  33.296  31.711  1.00  0.00     0.029 A 
ATOM     48  N   UNL A   1      37.705  32.609  30.609  1.00  0.00    -0.354 N 
ATOM     49  C   UNL A   1      42.921  31.028  32.765  1.00  0.00     0.074 A 
ATOM     50  C   UNL A   1      43.088  29.210  33.362  1.00  0.00     0.031 C 
ATOM     51  C   UNL A   1      38.495  34.329  31.611  1.00  0.00     0.029 A 
ATOM     52  C   UNL A   1      37.277  33.863  30.971  1.00  0.00     0.049 A 
ATOM     53  H   UNL A   1      37.190  32.112  29.934  1.00  0.00     0.167 HD
ATOM     54  C   UNL A   1      43.259  32.108  33.605  1.00  0.00     0.037 A 
ATOM     55  C   UNL A   1      35.957  33.965  31.326  1.00  0.00     0.037 A 
ATOM     56  C   UNL A   1      42.083  33.086  34.001  1.00  0.00     0.049 A 
ATOM     57  C   UNL A   1      36.044  33.661  32.809  1.00  0.00     0.074 A 
ATOM     58  C   UNL A   1      41.818  34.433  33.777  1.00  0.00     0.029 A 
ATOM     59  N   UNL A   1      40.895  32.697  34.727  1.00  0.00    -0.354 N 
ATOM     60  N   UNL A   1      37.083  33.050  33.336  1.00  0.00    -0.248 NA
ATOM     61  C   UNL A   1      35.183  34.270  33.803  1.00  0.00     0.031 C 
ATOM     62  C   UNL A   1      40.465  34.751  34.222  1.00  0.00     0.029 A 
ATOM     63  C   UNL A   1      39.817  33.610  34.700  1.00  0.00     0.049 A 
ATOM     64  H   UNL A   1      40.840  31.843  35.214  1.00  0.00     0.167 HD
ATOM     65  C   UNL A   1      37.265  33.501  34.600  1.00  0.00     0.074 A 
ATOM     66  C   UNL A   1      35.982  34.171  34.882  1.00  0.00     0.031 C 
ATOM     67  C   UNL A   1      38.431  33.379  35.328  1.00  0.00     0.037 A 
BRANCH  54  68
ATOM     68  C   UNL A   1      44.659  32.131  34.164  1.00  0.00     0.057 A 
ATOM     69  C   UNL A   1      44.922  31.767  35.490  1.00  0.00     0.134 A 
ATOM     70  C   UNL A   1      45.793  32.574  33.439  1.00  0.00     0.134 A 
ATOM     71  F   UNL A   1      43.935  31.397  36.316  1.00  0.00    -0.206 F 
ATOM     72  C   UNL A   1      46.213  31.801  36.038  1.00  0.00     0.040 A 
ATOM     73  C   UNL A   1      47.096  32.541  33.950  1.00  0.00     0.040 A 
ATOM     74  F   UNL A   1      45.685  33.114  32.216  1.00  0.00    -0.206 F 
ATOM     75  C   UNL A   1      47.310  32.160  35.263  1.00  0.00     0.006 A 
ENDBRANCH  54  68
BRANCH  55  76
ATOM     76  C   UNL A   1      34.900  33.506  30.311  1.00  0.00     0.057 A 
ATOM     77  C   UNL A   1      34.067  34.453  29.676  1.00  0.00     0.134 A 
ATOM     78  C   UNL A   1      34.785  32.223  29.770  1.00  0.00     0.134 A 
ATOM     79  F   UNL A   1      33.972  35.699  30.167  1.00  0.00    -0.206 F 
ATOM     80  C   UNL A   1      33.373  34.201  28.469  1.00  0.00     0.040 A 
ATOM     81  C   UNL A   1      34.169  31.980  28.510  1.00  0.00     0.040 A 
ATOM     82  F   UNL A   1      35.341  31.182  30.402  1.00  0.00    -0.206 F 
ATOM     83  C   UNL A   1      33.554  33.004  27.803  1.00  0.00     0.006 A 
ENDBRANCH  55  76
BRANCH  67  84
ATOM     84  C   UNL A   1      38.242  33.242  36.819  1.00  0.00     0.057 A 
ATOM     85  C   UNL A   1      37.837  32.048  37.470  1.00  0.00     0.134 A 
ATOM     86  C   UNL A   1      38.589  34.286  37.681  1.00  0.00     0.134 A 
ATOM     87  F   UNL A   1      37.715  30.879  36.823  1.00  0.00    -0.206 F 
ATOM     88  C   UNL A   1      37.596  31.975  38.840  1.00  0.00     0.040 A 
ATOM     89  C   UNL A   1      38.437  34.195  39.065  1.00  0.00     0.040 A 
ATOM     90  F   UNL A   1      39.161  35.409  37.236  1.00  0.00    -0.206 F 
ATOM     91  C   UNL A   1      37.894  33.057  39.645  1.00  0.00     0.006 A 
ENDBRANCH  67  84
ENDBRANCH  41  42
ENDBRANCH  34  36
ENDBRANCH  33  34
ENDBRANCH  32  33
ENDBRANCH  31  32
ENDBRANCH  30  31
ENDBRANCH  29  30
ENDBRANCH   1  29
TORSDOF 21
ENDMDL
MODEL 2
REMARK VINA RESULT:     -11.7      2.713      7.025
REMARK SMILES Cc1cc(OC(F)F)ccc1NC(=O)[C@@H]1CCCC[C@@H]1C(=O)OCCOCCOCCOC(=O)c1ccc(-c2c3nc(c(-c4c(F)cccc4F)c4ccc([nH]4)c(-c4c(F)cccc4F)c4nc(c(-c5c(F)cccc5F)c5ccc2[nH]5)C=C4)C=C3)cc1
REMARK SMILES IDX 27 1 26 2 25 3 24 4 23 5 21 6 22 7 20 8 15 9 16 10 17 11
REMARK SMILES IDX 19 12 18 13 13 14 12 15 14 17 11 18 1 19 2 20 3 21 4 22
REMARK SMILES IDX 10 23 9 24 5 25 6 26 7 27 8 28 28 29 29 30 30 31 31 32 32 33
REMARK SMILES IDX 33 34 34 35 35 36 36 37 88 38 37 39 87 40 38 41 39 42 40 43
REMARK SMILES IDX 81 44 41 45 86 46 80 47 82 48 42 49 85 50 79 51 78 52 43 54
REMARK SMILES IDX 69 55 52 56 68 57 53 58 56 59 67 60 83 61 54 62 55 63 66 65
REMARK SMILES IDX 84 66 57 67 44 68 45 69 50 70 46 71 47 72 49 73 51 74 48 75
REMARK SMILES IDX 70 76 71 77 76 78 72 79 73 80 75 81 77 82 74 83 58 84 59 85
REMARK SMILES IDX 64 86 60 87 61 88 63 89 65 90 62 91
REMARK H PARENT 12 16 82 53 56 64
REMARK Flexibility Score: inf
ROOT
ATOM      1  C   UNL A   1      37.281  23.097  25.921  1.00  0.00     0.188 C 
ENDROOT
BRANCH   1   2
ATOM      2  O   UNL A   1      37.310  22.334  24.739  1.00  0.00    -0.376 OA
BRANCH   2   3
ATOM      3  C   UNL A   1      37.353  20.941  25.038  1.00  0.00     0.202 C 
BRANCH   3   4
ATOM      4  C   UNL A   1      36.040  20.110  24.822  1.00  0.00     0.261 C 
BRANCH   4   5
ATOM      5  O   UNL A   1      34.428  20.869  24.941  1.00  0.00    -0.463 OA
BRANCH   5   6
ATOM      6  C   UNL A   1      32.982  21.068  24.812  1.00  0.00     0.309 C 
ATOM      7  O   UNL A   1      32.338  20.103  25.227  1.00  0.00    -0.252 OA
BRANCH   6   8
ATOM      8  C   UNL A   1      32.054  22.484  24.408  1.00  0.00     0.111 C 
ATOM      9  C   UNL A   1      32.782  23.956  24.459  1.00  0.00     0.093 C 
ATOM     10  C   UNL A   1      33.388  24.059  25.874  1.00  0.00     0.014 C 
ATOM     11  C   UNL A   1      32.294  24.031  26.948  1.00  0.00     0.001 C 
ATOM     12  C   UNL A   1      30.822  22.668  25.338  1.00  0.00     0.016 C 
ATOM     13  C   UNL A   1      31.214  22.968  26.770  1.00  0.00     0.001 C 
BRANCH   9  14
ATOM     14  C   UNL A   1      33.806  24.594  23.280  1.00  0.00     0.228 C 
ATOM     15  N   UNL A   1      33.603  25.844  22.642  1.00  0.00    -0.326 N 
ATOM     16  H   UNL A   1      34.034  25.997  21.771  1.00  0.00     0.169 HD
ATOM     17  O   UNL A   1      34.768  23.918  22.894  1.00  0.00    -0.274 OA
BRANCH  15  18
ATOM     18  C   UNL A   1      32.823  26.864  23.182  1.00  0.00     0.044 A 
ATOM     19  C   UNL A   1      34.085  27.594  25.603  1.00  0.00     0.047 C 
ATOM     20  C   UNL A   1      33.007  28.008  24.566  1.00  0.00    -0.024 A 
ATOM     21  C   UNL A   1      31.316  29.258  24.483  1.00  0.00     0.052 A 
ATOM     22  C   UNL A   1      30.131  29.072  23.353  1.00  0.00     0.126 A 
ATOM     23  C   UNL A   1      31.441  26.971  22.274  1.00  0.00     0.030 A 
ATOM     24  C   UNL A   1      30.255  27.989  22.342  1.00  0.00     0.049 A 
BRANCH  22  25
ATOM     25  O   UNL A   1      29.004  29.786  23.654  1.00  0.00    -0.435 OA
BRANCH  25  26
ATOM     26  C   UNL A   1      28.019  29.880  22.641  1.00  0.00     0.542 C 
ATOM     27  F   UNL A   1      26.958  29.118  22.979  1.00  0.00    -0.167 F 
ATOM     28  F   UNL A   1      27.601  31.161  22.508  1.00  0.00    -0.167 F 
ENDBRANCH  25  26
ENDBRANCH  22  25
ENDBRANCH  15  18
ENDBRANCH   9  14
ENDBRANCH   6   8
ENDBRANCH   5   6
ENDBRANCH   4   5
ENDBRANCH   3   4
ENDBRANCH   2   3
ENDBRANCH   1   2
BRANCH   1  29
ATOM     29  C   UNL A   1      38.500  23.948  26.139  1.00  0.00     0.188 C 
BRANCH  29  30
ATOM     30  O   UNL A   1      39.404  23.194  26.923  1.00  0.00    -0.376 OA
BRANCH  30  31
ATOM     31  C   UNL A   1      40.765  23.590  26.889  1.00  0.00     0.202 C 
BRANCH  31  32
ATOM     32  C   UNL A   1      40.858  24.901  27.642  1.00  0.00     0.261 C 
BRANCH  32  33
ATOM     33  O   UNL A   1      41.936  25.710  27.090  1.00  0.00    -0.460 OA
BRANCH  33  34
ATOM     34  C   UNL A   1      41.583  26.662  26.189  1.00  0.00     0.338 C 
ATOM     35  O   UNL A   1      41.659  26.506  24.976  1.00  0.00    -0.246 OA
BRANCH  34  36
ATOM     36  C   UNL A   1      41.230  27.980  26.841  1.00  0.00     0.060 A 
ATOM     37  C   UNL A   1      42.210  28.442  27.642  1.00  0.00     0.016 A 
ATOM     38  C   UNL A   1      39.976  28.597  27.027  1.00  0.00     0.016 A 
ATOM     39  C   UNL A   1      41.848  29.307  28.688  1.00  0.00     0.010 A 
ATOM     40  C   UNL A   1      39.677  29.507  28.159  1.00  0.00     0.010 A 
ATOM     41  C   UNL A   1      40.627  29.893  29.126  1.00  0.00    -0.014 A 
BRANCH  41  42
ATOM     42  C   UNL A   1      40.329  30.694  30.675  1.00  0.00     0.031 A 
ATOM     43  C   UNL A   1      40.147  32.503  30.685  1.00  0.00     0.074 A 
ATOM     44  C   UNL A   1      40.381  30.160  32.052  1.00  0.00     0.049 A 
ATOM     45  N   UNL A   1      38.576  31.966  30.997  1.00  0.00    -0.248 NA
ATOM     46  C   UNL A   1      39.778  34.298  29.388  1.00  0.00     0.031 C 
ATOM     47  C   UNL A   1      39.313  30.198  33.104  1.00  0.00     0.029 A 
ATOM     48  N   UNL A   1      41.088  29.101  32.705  1.00  0.00    -0.354 N 
ATOM     49  C   UNL A   1      37.341  33.020  30.480  1.00  0.00     0.074 A 
ATOM     50  C   UNL A   1      38.087  34.365  29.329  1.00  0.00     0.031 C 
ATOM     51  C   UNL A   1      39.593  29.430  34.202  1.00  0.00     0.029 A 
ATOM     52  C   UNL A   1      40.867  28.758  34.016  1.00  0.00     0.049 A 
ATOM     53  H   UNL A   1      41.761  28.598  32.192  1.00  0.00     0.167 HD
ATOM     54  C   UNL A   1      36.546  33.367  31.590  1.00  0.00     0.037 A 
ATOM     55  C   UNL A   1      41.983  28.672  34.808  1.00  0.00     0.037 A 
ATOM     56  C   UNL A   1      37.113  32.975  33.012  1.00  0.00     0.049 A 
ATOM     57  C   UNL A   1      42.092  30.105  35.291  1.00  0.00     0.074 A 
ATOM     58  C   UNL A   1      36.690  32.130  34.032  1.00  0.00     0.029 A 
ATOM     59  N   UNL A   1      38.361  33.456  33.563  1.00  0.00    -0.354 N 
ATOM     60  N   UNL A   1      41.492  31.098  34.671  1.00  0.00    -0.248 NA
ATOM     61  C   UNL A   1      42.578  30.471  36.606  1.00  0.00     0.031 C 
ATOM     62  C   UNL A   1      37.733  32.018  35.047  1.00  0.00     0.029 A 
ATOM     63  C   UNL A   1      38.863  32.753  34.682  1.00  0.00     0.049 A 
ATOM     64  H   UNL A   1      38.834  34.230  33.181  1.00  0.00     0.167 HD
ATOM     65  C   UNL A   1      41.148  32.040  35.580  1.00  0.00     0.074 A 
ATOM     66  C   UNL A   1      41.955  31.655  36.753  1.00  0.00     0.031 C 
ATOM     67  C   UNL A   1      40.205  33.029  35.384  1.00  0.00     0.037 A 
BRANCH  54  68
ATOM     68  C   UNL A   1      35.323  34.208  31.324  1.00  0.00     0.057 A 
ATOM     69  C   UNL A   1      34.912  35.202  32.219  1.00  0.00     0.134 A 
ATOM     70  C   UNL A   1      34.467  34.029  30.209  1.00  0.00     0.134 A 
ATOM     71  F   UNL A   1      35.584  35.433  33.355  1.00  0.00    -0.206 F 
ATOM     72  C   UNL A   1      33.767  35.983  32.003  1.00  0.00     0.040 A 
ATOM     73  C   UNL A   1      33.365  34.851  29.943  1.00  0.00     0.040 A 
ATOM     74  F   UNL A   1      34.627  33.011  29.351  1.00  0.00    -0.206 F 
ATOM     75  C   UNL A   1      33.004  35.831  30.850  1.00  0.00     0.006 A 
ENDBRANCH  54  68
BRANCH  55  76
ATOM     76  C   UNL A   1      43.104  27.717  34.372  1.00  0.00     0.057 A 
ATOM     77  C   UNL A   1      42.989  26.329  34.616  1.00  0.00     0.134 A 
ATOM     78  C   UNL A   1      44.188  28.042  33.553  1.00  0.00     0.134 A 
ATOM     79  F   UNL A   1      42.075  25.875  35.487  1.00  0.00    -0.206 F 
ATOM     80  C   UNL A   1      43.732  25.348  33.919  1.00  0.00     0.040 A 
ATOM     81  C   UNL A   1      44.877  27.067  32.778  1.00  0.00     0.040 A 
ATOM     82  F   UNL A   1      44.554  29.321  33.412  1.00  0.00    -0.206 F 
ATOM     83  C   UNL A   1      44.569  25.718  32.883  1.00  0.00     0.006 A 
ENDBRANCH  55  76
BRANCH  67  84
ATOM     84  C   UNL A   1      40.475  34.324  36.110  1.00  0.00     0.057 A 
ATOM     85  C   UNL A   1      41.503  35.238  35.764  1.00  0.00     0.134 A 
ATOM     86  C   UNL A   1      39.618  34.768  37.121  1.00  0.00     0.134 A 
ATOM     87  F   UNL A   1      42.252  35.098  34.659  1.00  0.00    -0.206 F 
ATOM     88  C   UNL A   1      41.777  36.387  36.502  1.00  0.00     0.040 A 
ATOM     89  C   UNL A   1      39.829  35.962  37.810  1.00  0.00     0.040 A 
ATOM     90  F   UNL A   1      38.497  34.110  37.436  1.00  0.00    -0.206 F 
ATOM     91  C   UNL A   1      40.937  36.751  37.536  1.00  0.00     0.006 A 
ENDBRANCH  67  84
ENDBRANCH  41  42
ENDBRANCH  34  36
ENDBRANCH  33  34
ENDBRANCH  32  33
ENDBRANCH  31  32
ENDBRANCH  30  31
ENDBRANCH  29  30
ENDBRANCH   1  29
TORSDOF 21
ENDMDL
MODEL 3
REMARK VINA RESULT:     -11.6      1.642      2.757
REMARK SMILES Cc1cc(OC(F)F)ccc1NC(=O)[C@@H]1CCCC[C@@H]1C(=O)OCCOCCOCCOC(=O)c1ccc(-c2c3nc(c(-c4c(F)cccc4F)c4ccc([nH]4)c(-c4c(F)cccc4F)c4nc(c(-c5c(F)cccc5F)c5ccc2[nH]5)C=C4)C=C3)cc1
REMARK SMILES IDX 27 1 26 2 25 3 24 4 23 5 21 6 22 7 20 8 15 9 16 10 17 11
REMARK SMILES IDX 19 12 18 13 13 14 12 15 14 17 11 18 1 19 2 20 3 21 4 22
REMARK SMILES IDX 10 23 9 24 5 25 6 26 7 27 8 28 28 29 29 30 30 31 31 32 32 33
REMARK SMILES IDX 33 34 34 35 35 36 36 37 88 38 37 39 87 40 38 41 39 42 40 43
REMARK SMILES IDX 81 44 41 45 86 46 80 47 82 48 42 49 85 50 79 51 78 52 43 54
REMARK SMILES IDX 69 55 52 56 68 57 53 58 56 59 67 60 83 61 54 62 55 63 66 65
REMARK SMILES IDX 84 66 57 67 44 68 45 69 50 70 46 71 47 72 49 73 51 74 48 75
REMARK SMILES IDX 70 76 71 77 76 78 72 79 73 80 75 81 77 82 74 83 58 84 59 85
REMARK SMILES IDX 64 86 60 87 61 88 63 89 65 90 62 91
REMARK H PARENT 12 16 82 53 56 64
REMARK Flexibility Score: inf
ROOT
ATOM      1  C   UNL A   1      37.090  23.648  25.245  1.00  0.00     0.188 C 
ENDROOT
BRANCH   1   2
ATOM      2  O   UNL A   1      37.597  23.325  23.973  1.00  0.00    -0.376 OA
BRANCH   2   3
ATOM      3  C   UNL A   1      36.625  22.617  23.206  1.00  0.00     0.202 C 
BRANCH   3   4
ATOM      4  C   UNL A   1      35.301  23.373  22.835  1.00  0.00     0.261 C 
BRANCH   4   5
ATOM      5  O   UNL A   1      33.743  22.948  23.595  1.00  0.00    -0.463 OA
BRANCH   5   6
ATOM      6  C   UNL A   1      32.526  22.201  23.928  1.00  0.00     0.309 C 
ATOM      7  O   UNL A   1      31.979  21.728  22.930  1.00  0.00    -0.252 OA
BRANCH   6   8
ATOM      8  C   UNL A   1      31.884  21.689  25.462  1.00  0.00     0.111 C 
ATOM      9  C   UNL A   1      31.682  22.802  26.654  1.00  0.00     0.093 C 
ATOM     10  C   UNL A   1      33.059  23.479  26.812  1.00  0.00     0.014 C 
ATOM     11  C   UNL A   1      34.121  22.473  27.275  1.00  0.00     0.001 C 
ATOM     12  C   UNL A   1      32.767  20.604  26.140  1.00  0.00     0.016 C 
ATOM     13  C   UNL A   1      34.127  21.132  26.548  1.00  0.00     0.001 C 
BRANCH   9  14
ATOM     14  C   UNL A   1      30.412  23.906  26.772  1.00  0.00     0.228 C 
ATOM     15  N   UNL A   1      30.465  25.235  26.282  1.00  0.00    -0.326 N 
ATOM     16  H   UNL A   1      29.841  25.896  26.659  1.00  0.00     0.169 HD
ATOM     17  O   UNL A   1      29.382  23.570  27.371  1.00  0.00    -0.274 OA
BRANCH  15  18
ATOM     18  C   UNL A   1      31.356  25.655  25.297  1.00  0.00     0.044 A 
ATOM     19  C   UNL A   1      33.223  27.321  26.611  1.00  0.00     0.047 C 
ATOM     20  C   UNL A   1      32.924  26.549  25.298  1.00  0.00    -0.024 A 
ATOM     21  C   UNL A   1      33.546  26.584  23.288  1.00  0.00     0.052 A 
ATOM     22  C   UNL A   1      32.649  25.928  22.071  1.00  0.00     0.126 A 
ATOM     23  C   UNL A   1      30.746  25.173  23.833  1.00  0.00     0.030 A 
ATOM     24  C   UNL A   1      31.353  25.274  22.395  1.00  0.00     0.049 A 
BRANCH  22  25
ATOM     25  O   UNL A   1      33.085  26.312  20.833  1.00  0.00    -0.435 OA
BRANCH  25  26
ATOM     26  C   UNL A   1      32.855  25.409  19.767  1.00  0.00     0.542 C 
ATOM     27  F   UNL A   1      32.965  24.143  20.223  1.00  0.00    -0.167 F 
ATOM     28  F   UNL A   1      31.607  25.577  19.269  1.00  0.00    -0.167 F 
ENDBRANCH  25  26
ENDBRANCH  22  25
ENDBRANCH  15  18
ENDBRANCH   9  14
ENDBRANCH   6   8
ENDBRANCH   5   6
ENDBRANCH   4   5
ENDBRANCH   3   4
ENDBRANCH   2   3
ENDBRANCH   1   2
BRANCH   1  29
ATOM     29  C   UNL A   1      37.955  23.201  26.389  1.00  0.00     0.188 C 
BRANCH  29  30
ATOM     30  O   UNL A   1      38.611  24.349  26.892  1.00  0.00    -0.376 OA
BRANCH  30  31
ATOM     31  C   UNL A   1      39.890  24.153  27.472  1.00  0.00     0.202 C 
BRANCH  31  32
ATOM     32  C   UNL A   1      40.216  25.414  28.246  1.00  0.00     0.261 C 
BRANCH  32  33
ATOM     33  O   UNL A   1      41.333  26.104  27.614  1.00  0.00    -0.460 OA
BRANCH  33  34
ATOM     34  C   UNL A   1      41.021  27.041  26.683  1.00  0.00     0.338 C 
ATOM     35  O   UNL A   1      41.162  26.869  25.478  1.00  0.00    -0.246 OA
BRANCH  34  36
ATOM     36  C   UNL A   1      40.624  28.364  27.296  1.00  0.00     0.060 A 
ATOM     37  C   UNL A   1      41.619  28.925  28.012  1.00  0.00     0.016 A 
ATOM     38  C   UNL A   1      39.346  28.912  27.534  1.00  0.00     0.016 A 
ATOM     39  C   UNL A   1      41.267  29.815  29.039  1.00  0.00     0.010 A 
ATOM     40  C   UNL A   1      39.059  29.855  28.641  1.00  0.00     0.010 A 
ATOM     41  C   UNL A   1      40.039  30.346  29.527  1.00  0.00    -0.014 A 
BRANCH  41  42
ATOM     42  C   UNL A   1      39.786  31.201  31.054  1.00  0.00     0.031 A 
ATOM     43  C   UNL A   1      40.447  30.458  32.576  1.00  0.00     0.074 A 
ATOM     44  C   UNL A   1      38.941  32.375  31.363  1.00  0.00     0.049 A 
ATOM     45  N   UNL A   1      41.460  31.789  32.338  1.00  0.00    -0.248 NA
ATOM     46  C   UNL A   1      41.877  28.921  33.372  1.00  0.00     0.031 C 
ATOM     47  C   UNL A   1      39.348  33.670  32.000  1.00  0.00     0.029 A 
ATOM     48  N   UNL A   1      37.742  32.935  30.819  1.00  0.00    -0.354 N 
ATOM     49  C   UNL A   1      43.034  31.616  32.966  1.00  0.00     0.074 A 
ATOM     50  C   UNL A   1      43.336  29.778  33.439  1.00  0.00     0.031 C 
ATOM     51  C   UNL A   1      38.378  34.635  31.955  1.00  0.00     0.029 A 
ATOM     52  C   UNL A   1      37.211  34.123  31.259  1.00  0.00     0.049 A 
ATOM     53  H   UNL A   1      37.278  32.448  30.101  1.00  0.00     0.167 HD
ATOM     54  C   UNL A   1      43.273  32.656  33.886  1.00  0.00     0.037 A 
ATOM     55  C   UNL A   1      35.882  34.096  31.593  1.00  0.00     0.037 A 
ATOM     56  C   UNL A   1      42.018  33.510  34.325  1.00  0.00     0.049 A 
ATOM     57  C   UNL A   1      35.970  33.695  33.052  1.00  0.00     0.074 A 
ATOM     58  C   UNL A   1      41.650  34.843  34.190  1.00  0.00     0.029 A 
ATOM     59  N   UNL A   1      40.853  32.978  34.998  1.00  0.00    -0.354 N 
ATOM     60  N   UNL A   1      37.046  33.131  33.557  1.00  0.00    -0.248 NA
ATOM     61  C   UNL A   1      35.049  34.163  34.068  1.00  0.00     0.031 C 
ATOM     62  C   UNL A   1      40.270  35.024  34.628  1.00  0.00     0.029 A 
ATOM     63  C   UNL A   1      39.706  33.805  35.012  1.00  0.00     0.049 A 
ATOM     64  H   UNL A   1      40.859  32.090  35.423  1.00  0.00     0.167 HD
ATOM     65  C   UNL A   1      37.173  33.504  34.852  1.00  0.00     0.074 A 
ATOM     66  C   UNL A   1      35.837  34.051  35.154  1.00  0.00     0.031 C 
ATOM     67  C   UNL A   1      38.334  33.422  35.594  1.00  0.00     0.037 A 
BRANCH  54  68
ATOM     68  C   UNL A   1      44.659  32.749  34.474  1.00  0.00     0.057 A 
ATOM     69  C   UNL A   1      44.917  32.375  35.798  1.00  0.00     0.134 A 
ATOM     70  C   UNL A   1      45.779  33.270  33.780  1.00  0.00     0.134 A 
ATOM     71  F   UNL A   1      43.936  31.933  36.596  1.00  0.00    -0.206 F 
ATOM     72  C   UNL A   1      46.192  32.472  36.373  1.00  0.00     0.040 A 
ATOM     73  C   UNL A   1      47.071  33.302  34.317  1.00  0.00     0.040 A 
ATOM     74  F   UNL A   1      45.663  33.826  32.565  1.00  0.00    -0.206 F 
ATOM     75  C   UNL A   1      47.281  32.909  35.626  1.00  0.00     0.006 A 
ENDBRANCH  54  68
BRANCH  55  76
ATOM     76  C   UNL A   1      34.880  33.629  30.527  1.00  0.00     0.057 A 
ATOM     77  C   UNL A   1      34.025  34.562  29.898  1.00  0.00     0.134 A 
ATOM     78  C   UNL A   1      34.840  32.363  29.937  1.00  0.00     0.134 A 
ATOM     79  F   UNL A   1      33.859  35.783  30.430  1.00  0.00    -0.206 F 
ATOM     80  C   UNL A   1      33.383  34.325  28.660  1.00  0.00     0.040 A 
ATOM     81  C   UNL A   1      34.277  32.140  28.649  1.00  0.00     0.040 A 
ATOM     82  F   UNL A   1      35.421  31.325  30.550  1.00  0.00    -0.206 F 
ATOM     83  C   UNL A   1      33.639  33.161  27.959  1.00  0.00     0.006 A 
ENDBRANCH  55  76
BRANCH  67  84
ATOM     84  C   UNL A   1      38.135  33.165  37.068  1.00  0.00     0.057 A 
ATOM     85  C   UNL A   1      37.740  31.919  37.619  1.00  0.00     0.134 A 
ATOM     86  C   UNL A   1      38.461  34.142  38.013  1.00  0.00     0.134 A 
ATOM     87  F   UNL A   1      37.639  30.802  36.880  1.00  0.00    -0.206 F 
ATOM     88  C   UNL A   1      37.488  31.734  38.976  1.00  0.00     0.040 A 
ATOM     89  C   UNL A   1      38.298  33.940  39.384  1.00  0.00     0.040 A 
ATOM     90  F   UNL A   1      39.022  35.304  37.663  1.00  0.00    -0.206 F 
ATOM     91  C   UNL A   1      37.765  32.753  39.867  1.00  0.00     0.006 A 
ENDBRANCH  67  84
ENDBRANCH  41  42
ENDBRANCH  34  36
ENDBRANCH  33  34
ENDBRANCH  32  33
ENDBRANCH  31  32
ENDBRANCH  30  31
ENDBRANCH  29  30
ENDBRANCH   1  29
TORSDOF 21
ENDMDL
