MODEL 1
REMARK VINA RESULT:     -11.2      0.000      0.000
REMARK SMILES Cc1ncccc1NC(=O)Nc1ccc(C(=O)OCCOCCOCCOC(=O)c2ccc(-c3c4nc(c(-c5c(F)cccc5F)c5ccc([nH]5)c(-c5c(F)cccc5F)c5nc(c(-c6c(F)cccc6F)c6ccc3[nH]6)C=C5)C=C4)cc2)c(O)c1
REMARK SMILES IDX 22 1 21 2 20 3 19 4 18 5 16 6 17 7 15 8 12 9 13 10 86 11
REMARK SMILES IDX 14 12 84 13 11 14 8 15 9 16 10 18 7 20 1 21 2 22 3 23 4 24
REMARK SMILES IDX 6 25 5 26 85 27 23 29 24 30 25 31 26 32 27 33 28 34 29 35
REMARK SMILES IDX 30 36 31 37 83 38 32 39 82 40 33 41 34 42 35 43 76 44 36 45
REMARK SMILES IDX 81 46 75 47 77 48 37 49 80 50 74 51 73 52 38 54 64 55 47 56
REMARK SMILES IDX 63 57 48 58 51 59 62 60 78 61 49 62 50 63 61 65 79 66 52 67
REMARK SMILES IDX 39 68 40 69 45 70 41 71 42 72 44 73 46 74 43 75 65 76 66 77
REMARK SMILES IDX 71 78 67 79 68 80 70 81 72 82 69 83 53 84 54 85 59 86 55 87
REMARK SMILES IDX 56 88 58 89 60 90 57 91
REMARK H PARENT 8 17 11 19 85 28 77 53 51 64
REMARK Flexibility Score: inf
ROOT
ATOM      1  C   UNL A   1      38.812  22.159  26.038  1.00  0.00     0.188 C 
ENDROOT
BRANCH   1   2
ATOM      2  O   UNL A   1      37.657  22.402  25.261  1.00  0.00    -0.376 OA
BRANCH   2   3
ATOM      3  C   UNL A   1      36.398  21.970  25.731  1.00  0.00     0.202 C 
BRANCH   3   4
ATOM      4  C   UNL A   1      35.247  21.838  24.730  1.00  0.00     0.261 C 
BRANCH   4   5
ATOM      5  O   UNL A   1      34.458  23.030  24.535  1.00  0.00    -0.460 OA
BRANCH   5   6
ATOM      6  C   UNL A   1      33.219  23.008  25.098  1.00  0.00     0.341 C 
ATOM      7  O   UNL A   1      32.567  22.006  25.364  1.00  0.00    -0.246 OA
BRANCH   6   8
ATOM      8  C   UNL A   1      32.756  24.377  25.447  1.00  0.00     0.101 A 
ATOM      9  C   UNL A   1      32.035  27.002  26.237  1.00  0.00     0.046 A 
ATOM     10  C   UNL A   1      33.378  26.667  26.052  1.00  0.00     0.027 A 
ATOM     11  C   UNL A   1      31.060  26.011  26.043  1.00  0.00     0.073 A 
ATOM     12  C   UNL A   1      33.736  25.354  25.693  1.00  0.00     0.022 A 
ATOM     13  C   UNL A   1      31.413  24.729  25.593  1.00  0.00     0.132 A 
BRANCH   9  14
ATOM     14  N   UNL A   1      31.596  28.299  26.603  1.00  0.00    -0.308 N 
ATOM     15  N   UNL A   1      32.090  29.749  24.769  1.00  0.00    -0.306 N 
ATOM     16  C   UNL A   1      31.893  29.538  26.105  1.00  0.00     0.323 C 
ATOM     17  H   UNL A   1      32.564  30.578  24.528  1.00  0.00     0.171 HD
ATOM     18  O   UNL A   1      31.925  30.504  26.869  1.00  0.00    -0.248 OA
ATOM     19  H   UNL A   1      30.960  28.311  27.354  1.00  0.00     0.171 HD
BRANCH  15  20
ATOM     20  C   UNL A   1      31.699  28.930  23.697  1.00  0.00     0.064 A 
ATOM     21  C   UNL A   1      34.035  28.586  22.712  1.00  0.00     0.069 C 
ATOM     22  C   UNL A   1      32.630  28.162  23.003  1.00  0.00     0.061 A 
ATOM     23  N   UNL A   1      32.276  26.959  22.511  1.00  0.00    -0.259 NA
ATOM     24  C   UNL A   1      30.969  26.642  22.577  1.00  0.00     0.111 A 
ATOM     25  C   UNL A   1      30.344  28.704  23.446  1.00  0.00     0.030 A 
ATOM     26  C   UNL A   1      29.957  27.505  22.898  1.00  0.00     0.022 A 
ENDBRANCH  15  20
ENDBRANCH   9  14
BRANCH  13  27
ATOM     27  O   UNL A   1      30.373  23.891  25.297  1.00  0.00    -0.507 OA
ATOM     28  H   UNL A   1      30.362  23.019  25.643  1.00  0.00     0.293 HD
ENDBRANCH  13  27
ENDBRANCH   6   8
ENDBRANCH   5   6
ENDBRANCH   4   5
ENDBRANCH   3   4
ENDBRANCH   2   3
ENDBRANCH   1   2
BRANCH   1  29
ATOM     29  C   UNL A   1      39.482  20.768  26.088  1.00  0.00     0.188 C 
BRANCH  29  30
ATOM     30  O   UNL A   1      40.615  20.521  26.886  1.00  0.00    -0.376 OA
BRANCH  30  31
ATOM     31  C   UNL A   1      41.842  20.168  26.269  1.00  0.00     0.202 C 
BRANCH  31  32
ATOM     32  C   UNL A   1      42.847  21.228  25.789  1.00  0.00     0.261 C 
BRANCH  32  33
ATOM     33  O   UNL A   1      42.279  22.390  25.161  1.00  0.00    -0.460 OA
BRANCH  33  34
ATOM     34  C   UNL A   1      43.039  23.512  25.273  1.00  0.00     0.338 C 
ATOM     35  O   UNL A   1      44.129  23.707  24.760  1.00  0.00    -0.246 OA
BRANCH  34  36
ATOM     36  C   UNL A   1      42.376  24.550  26.088  1.00  0.00     0.060 A 
ATOM     37  C   UNL A   1      42.815  25.864  26.002  1.00  0.00     0.016 A 
ATOM     38  C   UNL A   1      41.483  24.203  27.096  1.00  0.00     0.016 A 
ATOM     39  C   UNL A   1      42.458  26.816  26.950  1.00  0.00     0.010 A 
ATOM     40  C   UNL A   1      41.049  25.179  28.007  1.00  0.00     0.010 A 
ATOM     41  C   UNL A   1      41.567  26.488  27.970  1.00  0.00    -0.014 A 
BRANCH  41  42
ATOM     42  C   UNL A   1      41.289  27.476  29.050  1.00  0.00     0.031 A 
ATOM     43  C   UNL A   1      42.152  27.481  30.283  1.00  0.00     0.074 A 
ATOM     44  C   UNL A   1      40.335  28.420  28.914  1.00  0.00     0.049 A 
ATOM     45  N   UNL A   1      41.968  28.086  31.428  1.00  0.00    -0.248 NA
ATOM     46  C   UNL A   1      43.394  26.693  30.213  1.00  0.00     0.031 C 
ATOM     47  C   UNL A   1      39.513  28.635  27.722  1.00  0.00     0.029 A 
ATOM     48  N   UNL A   1      39.901  29.387  29.791  1.00  0.00    -0.354 N 
ATOM     49  C   UNL A   1      43.030  27.697  32.235  1.00  0.00     0.074 A 
ATOM     50  C   UNL A   1      43.860  26.814  31.446  1.00  0.00     0.031 C 
ATOM     51  C   UNL A   1      38.695  29.678  27.932  1.00  0.00     0.029 A 
ATOM     52  C   UNL A   1      38.854  30.135  29.308  1.00  0.00     0.049 A 
ATOM     53  H   UNL A   1      40.301  29.529  30.679  1.00  0.00     0.167 HD
ATOM     54  C   UNL A   1      43.278  28.039  33.522  1.00  0.00     0.037 A 
ATOM     55  C   UNL A   1      38.067  31.040  29.921  1.00  0.00     0.037 A 
ATOM     56  C   UNL A   1      42.469  28.962  34.277  1.00  0.00     0.049 A 
ATOM     57  C   UNL A   1      38.297  31.336  31.378  1.00  0.00     0.074 A 
ATOM     58  C   UNL A   1      42.613  29.359  35.595  1.00  0.00     0.029 A 
ATOM     59  N   UNL A   1      41.372  29.644  33.772  1.00  0.00    -0.354 N 
ATOM     60  N   UNL A   1      39.233  30.881  32.176  1.00  0.00    -0.248 NA
ATOM     61  C   UNL A   1      37.346  32.248  32.028  1.00  0.00     0.031 C 
ATOM     62  C   UNL A   1      41.573  30.244  35.901  1.00  0.00     0.029 A 
ATOM     63  C   UNL A   1      40.817  30.445  34.758  1.00  0.00     0.049 A 
ATOM     64  H   UNL A   1      41.036  29.570  32.850  1.00  0.00     0.167 HD
ATOM     65  C   UNL A   1      38.997  31.465  33.414  1.00  0.00     0.074 A 
ATOM     66  C   UNL A   1      37.840  32.322  33.256  1.00  0.00     0.031 C 
ATOM     67  C   UNL A   1      39.672  31.302  34.578  1.00  0.00     0.037 A 
BRANCH  54  68
ATOM     68  C   UNL A   1      44.425  27.359  34.212  1.00  0.00     0.057 A 
ATOM     69  C   UNL A   1      44.306  26.103  34.820  1.00  0.00     0.134 A 
ATOM     70  C   UNL A   1      45.681  27.981  34.261  1.00  0.00     0.134 A 
ATOM     71  F   UNL A   1      43.130  25.459  34.826  1.00  0.00    -0.206 F 
ATOM     72  C   UNL A   1      45.385  25.505  35.477  1.00  0.00     0.040 A 
ATOM     73  C   UNL A   1      46.773  27.381  34.889  1.00  0.00     0.040 A 
ATOM     74  F   UNL A   1      45.868  29.183  33.696  1.00  0.00    -0.206 F 
ATOM     75  C   UNL A   1      46.624  26.142  35.507  1.00  0.00     0.006 A 
ENDBRANCH  54  68
BRANCH  55  76
ATOM     76  C   UNL A   1      36.934  31.669  29.188  1.00  0.00     0.057 A 
ATOM     77  C   UNL A   1      37.008  32.987  28.721  1.00  0.00     0.134 A 
ATOM     78  C   UNL A   1      35.739  30.976  28.956  1.00  0.00     0.134 A 
ATOM     79  F   UNL A   1      38.111  33.720  28.936  1.00  0.00    -0.206 F 
ATOM     80  C   UNL A   1      35.936  33.593  28.062  1.00  0.00     0.040 A 
ATOM     81  C   UNL A   1      34.672  31.555  28.269  1.00  0.00     0.040 A 
ATOM     82  F   UNL A   1      35.595  29.712  29.382  1.00  0.00    -0.206 F 
ATOM     83  C   UNL A   1      34.766  32.873  27.827  1.00  0.00     0.006 A 
ENDBRANCH  55  76
BRANCH  67  84
ATOM     84  C   UNL A   1      39.206  32.103  35.759  1.00  0.00     0.057 A 
ATOM     85  C   UNL A   1      39.651  33.409  35.993  1.00  0.00     0.134 A 
ATOM     86  C   UNL A   1      38.267  31.569  36.651  1.00  0.00     0.134 A 
ATOM     87  F   UNL A   1      40.560  33.974  35.185  1.00  0.00    -0.206 F 
ATOM     88  C   UNL A   1      39.198  34.148  37.089  1.00  0.00     0.040 A 
ATOM     89  C   UNL A   1      37.784  32.307  37.731  1.00  0.00     0.040 A 
ATOM     90  F   UNL A   1      37.792  30.326  36.478  1.00  0.00    -0.206 F 
ATOM     91  C   UNL A   1      38.255  33.598  37.957  1.00  0.00     0.006 A 
ENDBRANCH  67  84
ENDBRANCH  41  42
ENDBRANCH  34  36
ENDBRANCH  33  34
ENDBRANCH  32  33
ENDBRANCH  31  32
ENDBRANCH  30  31
ENDBRANCH  29  30
ENDBRANCH   1  29
TORSDOF 20
ENDMDL
MODEL 2
REMARK VINA RESULT:     -10.9      1.240      2.431
REMARK SMILES Cc1ncccc1NC(=O)Nc1ccc(C(=O)OCCOCCOCCOC(=O)c2ccc(-c3c4nc(c(-c5c(F)cccc5F)c5ccc([nH]5)c(-c5c(F)cccc5F)c5nc(c(-c6c(F)cccc6F)c6ccc3[nH]6)C=C5)C=C4)cc2)c(O)c1
REMARK SMILES IDX 22 1 21 2 20 3 19 4 18 5 16 6 17 7 15 8 12 9 13 10 86 11
REMARK SMILES IDX 14 12 84 13 11 14 8 15 9 16 10 18 7 20 1 21 2 22 3 23 4 24
REMARK SMILES IDX 6 25 5 26 85 27 23 29 24 30 25 31 26 32 27 33 28 34 29 35
REMARK SMILES IDX 30 36 31 37 83 38 32 39 82 40 33 41 34 42 35 43 76 44 36 45
REMARK SMILES IDX 81 46 75 47 77 48 37 49 80 50 74 51 73 52 38 54 64 55 47 56
REMARK SMILES IDX 63 57 48 58 51 59 62 60 78 61 49 62 50 63 61 65 79 66 52 67
REMARK SMILES IDX 39 68 40 69 45 70 41 71 42 72 44 73 46 74 43 75 65 76 66 77
REMARK SMILES IDX 71 78 67 79 68 80 70 81 72 82 69 83 53 84 54 85 59 86 55 87
REMARK SMILES IDX 56 88 58 89 60 90 57 91
REMARK H PARENT 8 17 11 19 85 28 77 53 51 64
REMARK Flexibility Score: inf
ROOT
ATOM      1  C   UNL A   1      40.019  21.128  26.320  1.00  0.00     0.188 C 
ENDROOT
BRANCH   1   2
ATOM      2  O   UNL A   1      38.946  21.846  25.748  1.00  0.00    -0.376 OA
BRANCH   2   3
ATOM      3  C   UNL A   1      37.800  21.152  25.305  1.00  0.00     0.202 C 
BRANCH   3   4
ATOM      4  C   UNL A   1      36.803  21.882  24.401  1.00  0.00     0.261 C 
BRANCH   4   5
ATOM      5  O   UNL A   1      35.577  22.296  25.039  1.00  0.00    -0.460 OA
BRANCH   5   6
ATOM      6  C   UNL A   1      34.457  21.637  24.634  1.00  0.00     0.341 C 
ATOM      7  O   UNL A   1      34.316  20.423  24.582  1.00  0.00    -0.246 OA
BRANCH   6   8
ATOM      8  C   UNL A   1      33.352  22.584  24.327  1.00  0.00     0.101 A 
ATOM      9  C   UNL A   1      31.115  24.240  23.794  1.00  0.00     0.046 A 
ATOM     10  C   UNL A   1      31.100  23.366  24.883  1.00  0.00     0.027 A 
ATOM     11  C   UNL A   1      32.248  24.265  22.965  1.00  0.00     0.073 A 
ATOM     12  C   UNL A   1      32.198  22.520  25.125  1.00  0.00     0.022 A 
ATOM     13  C   UNL A   1      33.378  23.490  23.266  1.00  0.00     0.132 A 
BRANCH   9  14
ATOM     14  N   UNL A   1      30.047  25.119  23.481  1.00  0.00    -0.308 N 
ATOM     15  N   UNL A   1      30.247  27.008  24.931  1.00  0.00    -0.306 N 
ATOM     16  C   UNL A   1      29.490  26.161  24.171  1.00  0.00     0.323 C 
ATOM     17  H   UNL A   1      29.758  27.539  25.601  1.00  0.00     0.171 HD
ATOM     18  O   UNL A   1      28.283  26.382  24.058  1.00  0.00    -0.248 OA
ATOM     19  H   UNL A   1      29.629  24.947  22.607  1.00  0.00     0.171 HD
BRANCH  15  20
ATOM     20  C   UNL A   1      31.635  27.214  24.874  1.00  0.00     0.064 A 
ATOM     21  C   UNL A   1      31.678  28.320  22.566  1.00  0.00     0.069 C 
ATOM     22  C   UNL A   1      32.191  28.100  23.954  1.00  0.00     0.061 A 
ATOM     23  N   UNL A   1      33.289  28.808  24.284  1.00  0.00    -0.259 NA
ATOM     24  C   UNL A   1      33.890  28.483  25.443  1.00  0.00     0.111 A 
ATOM     25  C   UNL A   1      32.462  26.701  25.874  1.00  0.00     0.030 A 
ATOM     26  C   UNL A   1      33.615  27.375  26.198  1.00  0.00     0.022 A 
ENDBRANCH  15  20
ENDBRANCH   9  14
BRANCH  13  27
ATOM     27  O   UNL A   1      34.476  23.702  22.477  1.00  0.00    -0.507 OA
ATOM     28  H   UNL A   1      34.376  24.093  21.630  1.00  0.00     0.293 HD
ENDBRANCH  13  27
ENDBRANCH   6   8
ENDBRANCH   5   6
ENDBRANCH   4   5
ENDBRANCH   3   4
ENDBRANCH   2   3
ENDBRANCH   1   2
BRANCH   1  29
ATOM     29  C   UNL A   1      40.339  19.675  25.907  1.00  0.00     0.188 C 
BRANCH  29  30
ATOM     30  O   UNL A   1      41.622  19.294  25.474  1.00  0.00    -0.376 OA
BRANCH  30  31
ATOM     31  C   UNL A   1      42.765  19.766  26.169  1.00  0.00     0.202 C 
BRANCH  31  32
ATOM     32  C   UNL A   1      43.586  20.965  25.667  1.00  0.00     0.261 C 
BRANCH  32  33
ATOM     33  O   UNL A   1      43.419  22.190  26.401  1.00  0.00    -0.460 OA
BRANCH  33  34
ATOM     34  C   UNL A   1      43.194  23.280  25.620  1.00  0.00     0.338 C 
ATOM     35  O   UNL A   1      43.455  23.393  24.433  1.00  0.00    -0.246 OA
BRANCH  34  36
ATOM     36  C   UNL A   1      42.531  24.368  26.368  1.00  0.00     0.060 A 
ATOM     37  C   UNL A   1      43.045  25.655  26.292  1.00  0.00     0.016 A 
ATOM     38  C   UNL A   1      41.552  24.088  27.315  1.00  0.00     0.016 A 
ATOM     39  C   UNL A   1      42.673  26.643  27.197  1.00  0.00     0.010 A 
ATOM     40  C   UNL A   1      41.108  25.104  28.177  1.00  0.00     0.010 A 
ATOM     41  C   UNL A   1      41.696  26.383  28.156  1.00  0.00    -0.014 A 
BRANCH  41  42
ATOM     42  C   UNL A   1      41.396  27.406  29.196  1.00  0.00     0.031 A 
ATOM     43  C   UNL A   1      42.264  27.484  30.424  1.00  0.00     0.074 A 
ATOM     44  C   UNL A   1      40.416  28.317  29.028  1.00  0.00     0.049 A 
ATOM     45  N   UNL A   1      42.068  28.128  31.544  1.00  0.00    -0.248 NA
ATOM     46  C   UNL A   1      43.527  26.728  30.379  1.00  0.00     0.031 C 
ATOM     47  C   UNL A   1      39.584  28.462  27.833  1.00  0.00     0.029 A 
ATOM     48  N   UNL A   1      39.959  29.306  29.868  1.00  0.00    -0.354 N 
ATOM     49  C   UNL A   1      43.143  27.802  32.361  1.00  0.00     0.074 A 
ATOM     50  C   UNL A   1      43.994  26.910  31.604  1.00  0.00     0.031 C 
ATOM     51  C   UNL A   1      38.738  29.490  28.005  1.00  0.00     0.029 A 
ATOM     52  C   UNL A   1      38.891  30.006  29.361  1.00  0.00     0.049 A 
ATOM     53  H   UNL A   1      40.360  29.495  30.747  1.00  0.00     0.167 HD
ATOM     54  C   UNL A   1      43.387  28.202  33.632  1.00  0.00     0.037 A 
ATOM     55  C   UNL A   1      38.082  30.914  29.941  1.00  0.00     0.037 A 
ATOM     56  C   UNL A   1      42.558  29.132  34.354  1.00  0.00     0.049 A 
ATOM     57  C   UNL A   1      38.310  31.274  31.384  1.00  0.00     0.074 A 
ATOM     58  C   UNL A   1      42.696  29.586  35.654  1.00  0.00     0.029 A 
ATOM     59  N   UNL A   1      41.440  29.763  33.828  1.00  0.00    -0.354 N 
ATOM     60  N   UNL A   1      39.262  30.877  32.194  1.00  0.00    -0.248 NA
ATOM     61  C   UNL A   1      37.338  32.186  32.002  1.00  0.00     0.031 C 
ATOM     62  C   UNL A   1      41.634  30.454  35.930  1.00  0.00     0.029 A 
ATOM     63  C   UNL A   1      40.868  30.588  34.783  1.00  0.00     0.049 A 
ATOM     64  H   UNL A   1      41.103  29.643  32.911  1.00  0.00     0.167 HD
ATOM     65  C   UNL A   1      39.015  31.503  33.409  1.00  0.00     0.074 A 
ATOM     66  C   UNL A   1      37.834  32.322  33.223  1.00  0.00     0.031 C 
ATOM     67  C   UNL A   1      39.699  31.405  34.576  1.00  0.00     0.037 A 
BRANCH  54  68
ATOM     68  C   UNL A   1      44.555  27.580  34.342  1.00  0.00     0.057 A 
ATOM     69  C   UNL A   1      45.826  28.168  34.370  1.00  0.00     0.134 A 
ATOM     70  C   UNL A   1      44.395  26.362  35.019  1.00  0.00     0.134 A 
ATOM     71  F   UNL A   1      46.054  29.325  33.730  1.00  0.00    -0.206 F 
ATOM     72  C   UNL A   1      46.901  27.554  35.018  1.00  0.00     0.040 A 
ATOM     73  C   UNL A   1      45.454  25.753  35.695  1.00  0.00     0.040 A 
ATOM     74  F   UNL A   1      43.205  25.744  35.038  1.00  0.00    -0.206 F 
ATOM     75  C   UNL A   1      46.714  26.346  35.688  1.00  0.00     0.006 A 
ENDBRANCH  54  68
BRANCH  55  76
ATOM     76  C   UNL A   1      36.930  31.482  29.189  1.00  0.00     0.057 A 
ATOM     77  C   UNL A   1      35.779  30.726  28.934  1.00  0.00     0.134 A 
ATOM     78  C   UNL A   1      36.959  32.790  28.686  1.00  0.00     0.134 A 
ATOM     79  F   UNL A   1      35.697  29.457  29.360  1.00  0.00    -0.206 F 
ATOM     80  C   UNL A   1      34.709  31.243  28.199  1.00  0.00     0.040 A 
ATOM     81  C   UNL A   1      35.885  33.333  27.980  1.00  0.00     0.040 A 
ATOM     82  F   UNL A   1      38.033  33.569  28.886  1.00  0.00    -0.206 F 
ATOM     83  C   UNL A   1      34.757  32.554  27.728  1.00  0.00     0.006 A 
ENDBRANCH  55  76
BRANCH  67  84
ATOM     84  C   UNL A   1      39.216  32.241  35.725  1.00  0.00     0.057 A 
ATOM     85  C   UNL A   1      38.338  31.739  36.693  1.00  0.00     0.134 A 
ATOM     86  C   UNL A   1      39.670  33.558  35.883  1.00  0.00     0.134 A 
ATOM     87  F   UNL A   1      37.856  30.491  36.592  1.00  0.00    -0.206 F 
ATOM     88  C   UNL A   1      37.908  32.525  37.764  1.00  0.00     0.040 A 
ATOM     89  C   UNL A   1      39.270  34.343  36.965  1.00  0.00     0.040 A 
ATOM     90  F   UNL A   1      40.519  34.097  34.996  1.00  0.00    -0.206 F 
ATOM     91  C   UNL A   1      38.381  33.829  37.905  1.00  0.00     0.006 A 
ENDBRANCH  67  84
ENDBRANCH  41  42
ENDBRANCH  34  36
ENDBRANCH  33  34
ENDBRANCH  32  33
ENDBRANCH  31  32
ENDBRANCH  30  31
ENDBRANCH  29  30
ENDBRANCH   1  29
TORSDOF 20
ENDMDL
MODEL 3
REMARK VINA RESULT:     -10.9      4.347      9.752
REMARK SMILES Cc1ncccc1NC(=O)Nc1ccc(C(=O)OCCOCCOCCOC(=O)c2ccc(-c3c4nc(c(-c5c(F)cccc5F)c5ccc([nH]5)c(-c5c(F)cccc5F)c5nc(c(-c6c(F)cccc6F)c6ccc3[nH]6)C=C5)C=C4)cc2)c(O)c1
REMARK SMILES IDX 22 1 21 2 20 3 19 4 18 5 16 6 17 7 15 8 12 9 13 10 86 11
REMARK SMILES IDX 14 12 84 13 11 14 8 15 9 16 10 18 7 20 1 21 2 22 3 23 4 24
REMARK SMILES IDX 6 25 5 26 85 27 23 29 24 30 25 31 26 32 27 33 28 34 29 35
REMARK SMILES IDX 30 36 31 37 83 38 32 39 82 40 33 41 34 42 35 43 76 44 36 45
REMARK SMILES IDX 81 46 75 47 77 48 37 49 80 50 74 51 73 52 38 54 64 55 47 56
REMARK SMILES IDX 63 57 48 58 51 59 62 60 78 61 49 62 50 63 61 65 79 66 52 67
REMARK SMILES IDX 39 68 40 69 45 70 41 71 42 72 44 73 46 74 43 75 65 76 66 77
REMARK SMILES IDX 71 78 67 79 68 80 70 81 72 82 69 83 53 84 54 85 59 86 55 87
REMARK SMILES IDX 56 88 58 89 60 90 57 91
REMARK H PARENT 8 17 11 19 85 28 77 53 51 64
REMARK Flexibility Score: inf
ROOT
ATOM      1  C   UNL A   1      34.526  34.962  28.138  1.00  0.00     0.188 C 
ENDROOT
BRANCH   1   2
ATOM      2  O   UNL A   1      34.858  33.687  27.629  1.00  0.00    -0.376 OA
BRANCH   2   3
ATOM      3  C   UNL A   1      34.215  32.541  28.144  1.00  0.00     0.202 C 
BRANCH   3   4
ATOM      4  C   UNL A   1      34.588  31.170  27.572  1.00  0.00     0.261 C 
BRANCH   4   5
ATOM      5  O   UNL A   1      33.614  30.127  27.782  1.00  0.00    -0.460 OA
BRANCH   5   6
ATOM      6  C   UNL A   1      32.820  29.848  26.712  1.00  0.00     0.341 C 
ATOM      7  O   UNL A   1      32.293  30.669  25.973  1.00  0.00    -0.246 OA
BRANCH   6   8
ATOM      8  C   UNL A   1      32.725  28.383  26.476  1.00  0.00     0.101 A 
ATOM      9  C   UNL A   1      32.595  25.626  25.832  1.00  0.00     0.046 A 
ATOM     10  C   UNL A   1      33.597  26.429  25.285  1.00  0.00     0.027 A 
ATOM     11  C   UNL A   1      31.650  26.214  26.686  1.00  0.00     0.073 A 
ATOM     12  C   UNL A   1      33.639  27.805  25.579  1.00  0.00     0.022 A 
ATOM     13  C   UNL A   1      31.751  27.565  27.053  1.00  0.00     0.132 A 
BRANCH   9  14
ATOM     14  N   UNL A   1      32.483  24.235  25.580  1.00  0.00    -0.308 N 
ATOM     15  N   UNL A   1      30.570  23.927  24.183  1.00  0.00    -0.306 N 
ATOM     16  C   UNL A   1      31.444  23.469  25.129  1.00  0.00     0.323 C 
ATOM     17  H   UNL A   1      29.712  23.447  24.120  1.00  0.00     0.171 HD
ATOM     18  O   UNL A   1      31.324  22.312  25.538  1.00  0.00    -0.248 OA
ATOM     19  H   UNL A   1      33.306  23.727  25.765  1.00  0.00     0.171 HD
BRANCH  15  20
ATOM     20  C   UNL A   1      30.744  24.997  23.290  1.00  0.00     0.064 A 
ATOM     21  C   UNL A   1      28.728  26.368  24.067  1.00  0.00     0.069 C 
ATOM     22  C   UNL A   1      30.103  26.215  23.496  1.00  0.00     0.061 A 
ATOM     23  N   UNL A   1      30.712  27.363  23.141  1.00  0.00    -0.259 NA
ATOM     24  C   UNL A   1      31.856  27.247  22.441  1.00  0.00     0.111 A 
ATOM     25  C   UNL A   1      31.728  24.931  22.301  1.00  0.00     0.030 A 
ATOM     26  C   UNL A   1      32.332  26.092  21.883  1.00  0.00     0.022 A 
ENDBRANCH  15  20
ENDBRANCH   9  14
BRANCH  13  27
ATOM     27  O   UNL A   1      30.865  27.996  28.003  1.00  0.00    -0.507 OA
ATOM     28  H   UNL A   1      31.180  28.310  28.828  1.00  0.00     0.293 HD
ENDBRANCH  13  27
ENDBRANCH   6   8
ENDBRANCH   5   6
ENDBRANCH   4   5
ENDBRANCH   3   4
ENDBRANCH   2   3
ENDBRANCH   1   2
BRANCH   1  29
ATOM     29  C   UNL A   1      33.289  35.184  29.036  1.00  0.00     0.188 C 
BRANCH  29  30
ATOM     30  O   UNL A   1      33.325  36.052  30.143  1.00  0.00    -0.376 OA
BRANCH  30  31
ATOM     31  C   UNL A   1      33.835  35.586  31.383  1.00  0.00     0.202 C 
BRANCH  31  32
ATOM     32  C   UNL A   1      34.162  34.103  31.622  1.00  0.00     0.261 C 
BRANCH  32  33
ATOM     33  O   UNL A   1      35.522  33.713  31.367  1.00  0.00    -0.460 OA
BRANCH  33  34
ATOM     34  C   UNL A   1      35.977  32.717  32.174  1.00  0.00     0.338 C 
ATOM     35  O   UNL A   1      35.655  32.516  33.334  1.00  0.00    -0.246 OA
BRANCH  34  36
ATOM     36  C   UNL A   1      36.921  31.824  31.471  1.00  0.00     0.060 A 
ATOM     37  C   UNL A   1      37.693  30.938  32.208  1.00  0.00     0.016 A 
ATOM     38  C   UNL A   1      37.211  32.012  30.124  1.00  0.00     0.016 A 
ATOM     39  C   UNL A   1      38.803  30.307  31.659  1.00  0.00     0.010 A 
ATOM     40  C   UNL A   1      38.278  31.311  29.539  1.00  0.00     0.010 A 
ATOM     41  C   UNL A   1      39.114  30.483  30.312  1.00  0.00    -0.014 A 
BRANCH  41  42
ATOM     42  C   UNL A   1      40.372  29.903  29.765  1.00  0.00     0.031 A 
ATOM     43  C   UNL A   1      41.609  30.759  29.699  1.00  0.00     0.074 A 
ATOM     44  C   UNL A   1      40.453  28.607  29.403  1.00  0.00     0.049 A 
ATOM     45  N   UNL A   1      42.736  30.548  29.071  1.00  0.00    -0.248 NA
ATOM     46  C   UNL A   1      41.565  32.027  30.445  1.00  0.00     0.031 C 
ATOM     47  C   UNL A   1      39.384  27.616  29.541  1.00  0.00     0.029 A 
ATOM     48  N   UNL A   1      41.491  27.894  28.850  1.00  0.00    -0.354 N 
ATOM     49  C   UNL A   1      43.507  31.684  29.287  1.00  0.00     0.074 A 
ATOM     50  C   UNL A   1      42.723  32.576  30.113  1.00  0.00     0.031 C 
ATOM     51  C   UNL A   1      39.828  26.425  29.109  1.00  0.00     0.029 A 
ATOM     52  C   UNL A   1      41.170  26.589  28.563  1.00  0.00     0.049 A 
ATOM     53  H   UNL A   1      42.380  28.282  28.677  1.00  0.00     0.167 HD
ATOM     54  C   UNL A   1      44.750  31.958  28.825  1.00  0.00     0.037 A 
ATOM     55  C   UNL A   1      41.849  25.648  27.878  1.00  0.00     0.037 A 
ATOM     56  C   UNL A   1      45.539  31.037  28.047  1.00  0.00     0.049 A 
ATOM     57  C   UNL A   1      43.188  26.003  27.290  1.00  0.00     0.074 A 
ATOM     58  C   UNL A   1      46.799  31.221  27.505  1.00  0.00     0.029 A 
ATOM     59  N   UNL A   1      45.145  29.749  27.715  1.00  0.00    -0.354 N 
ATOM     60  N   UNL A   1      43.869  27.118  27.397  1.00  0.00    -0.248 NA
ATOM     61  C   UNL A   1      43.841  24.978  26.462  1.00  0.00     0.031 C 
ATOM     62  C   UNL A   1      47.146  30.062  26.803  1.00  0.00     0.029 A 
ATOM     63  C   UNL A   1      46.130  29.133  26.958  1.00  0.00     0.049 A 
ATOM     64  H   UNL A   1      44.293  29.334  27.977  1.00  0.00     0.167 HD
ATOM     65  C   UNL A   1      45.036  26.924  26.669  1.00  0.00     0.074 A 
ATOM     66  C   UNL A   1      44.979  25.576  26.141  1.00  0.00     0.031 C 
ATOM     67  C   UNL A   1      46.060  27.786  26.452  1.00  0.00     0.037 A 
BRANCH  54  68
ATOM     68  C   UNL A   1      45.301  33.330  29.088  1.00  0.00     0.057 A 
ATOM     69  C   UNL A   1      45.071  34.415  28.233  1.00  0.00     0.134 A 
ATOM     70  C   UNL A   1      46.077  33.566  30.233  1.00  0.00     0.134 A 
ATOM     71  F   UNL A   1      44.353  34.257  27.111  1.00  0.00    -0.206 F 
ATOM     72  C   UNL A   1      45.618  35.676  28.489  1.00  0.00     0.040 A 
ATOM     73  C   UNL A   1      46.603  34.827  30.515  1.00  0.00     0.040 A 
ATOM     74  F   UNL A   1      46.333  32.574  31.098  1.00  0.00    -0.206 F 
ATOM     75  C   UNL A   1      46.381  35.885  29.637  1.00  0.00     0.006 A 
ENDBRANCH  54  68
BRANCH  55  76
ATOM     76  C   UNL A   1      41.243  24.310  27.637  1.00  0.00     0.057 A 
ATOM     77  C   UNL A   1      41.682  23.174  28.327  1.00  0.00     0.134 A 
ATOM     78  C   UNL A   1      40.225  24.130  26.692  1.00  0.00     0.134 A 
ATOM     79  F   UNL A   1      42.675  23.269  29.223  1.00  0.00    -0.206 F 
ATOM     80  C   UNL A   1      41.140  21.910  28.079  1.00  0.00     0.040 A 
ATOM     81  C   UNL A   1      39.648  22.881  26.458  1.00  0.00     0.040 A 
ATOM     82  F   UNL A   1      39.760  25.174  25.987  1.00  0.00    -0.206 F 
ATOM     83  C   UNL A   1      40.113  21.763  27.148  1.00  0.00     0.006 A 
ENDBRANCH  55  76
BRANCH  67  84
ATOM     84  C   UNL A   1      47.223  27.279  25.648  1.00  0.00     0.057 A 
ATOM     85  C   UNL A   1      47.336  27.515  24.273  1.00  0.00     0.134 A 
ATOM     86  C   UNL A   1      48.262  26.576  26.273  1.00  0.00     0.134 A 
ATOM     87  F   UNL A   1      46.369  28.170  23.613  1.00  0.00    -0.206 F 
ATOM     88  C   UNL A   1      48.430  27.048  23.541  1.00  0.00     0.040 A 
ATOM     89  C   UNL A   1      49.374  26.131  25.558  1.00  0.00     0.040 A 
ATOM     90  F   UNL A   1      48.219  26.324  27.590  1.00  0.00    -0.206 F 
ATOM     91  C   UNL A   1      49.457  26.360  24.187  1.00  0.00     0.006 A 
ENDBRANCH  67  84
ENDBRANCH  41  42
ENDBRANCH  34  36
ENDBRANCH  33  34
ENDBRANCH  32  33
ENDBRANCH  31  32
ENDBRANCH  30  31
ENDBRANCH  29  30
ENDBRANCH   1  29
TORSDOF 20
ENDMDL
