MODEL 1
REMARK VINA RESULT:     -10.4      0.000      0.000
REMARK SMILES CN(C)C(=O)CSc1ccc(C(=O)OCCOCCOCCOC(=O)c2ccc(-c3c4nc(c(-c5c(F)cccc5F)c5ccc([nH]5)c(-c5c(F)cccc5F)c5nc(c(-c6c(F)cccc6F)c6ccc3[nH]6)C=C5)C=C4)cc2)cc1
REMARK SMILES IDX 18 1 17 2 16 3 15 4 14 5 12 6 13 7 11 8 8 9 9 10 81 11 10 12
REMARK SMILES IDX 80 13 7 14 6 15 4 16 1 17 2 18 3 19 5 20 19 21 20 22 21 23
REMARK SMILES IDX 22 24 23 25 24 26 25 27 26 28 27 29 79 30 28 31 78 32 29 33
REMARK SMILES IDX 30 34 31 35 72 36 32 37 77 38 71 39 73 40 33 41 76 42 70 43
REMARK SMILES IDX 69 44 34 46 60 47 43 48 59 49 44 50 47 51 58 52 74 53 45 54
REMARK SMILES IDX 46 55 57 57 75 58 48 59 35 60 36 61 41 62 37 63 38 64 40 65
REMARK SMILES IDX 42 66 39 67 61 68 62 69 67 70 63 71 64 72 66 73 68 74 65 75
REMARK SMILES IDX 49 76 50 77 55 78 51 79 52 80 54 81 56 82 53 83
REMARK H PARENT 73 45 47 56
REMARK Flexibility Score: inf
ROOT
ATOM      1  C   UNL A   1      42.541  18.665  26.129  1.00  0.00     0.188 C 
ENDROOT
BRANCH   1   2
ATOM      2  O   UNL A   1      41.387  19.321  25.632  1.00  0.00    -0.376 OA
BRANCH   2   3
ATOM      3  C   UNL A   1      40.497  19.967  26.529  1.00  0.00     0.202 C 
BRANCH   3   4
ATOM      4  C   UNL A   1      40.143  21.446  26.347  1.00  0.00     0.261 C 
BRANCH   4   5
ATOM      5  O   UNL A   1      38.880  21.666  25.703  1.00  0.00    -0.460 OA
BRANCH   5   6
ATOM      6  C   UNL A   1      38.350  22.897  25.903  1.00  0.00     0.338 C 
ATOM      7  O   UNL A   1      38.944  23.906  26.245  1.00  0.00    -0.246 OA
BRANCH   6   8
ATOM      8  C   UNL A   1      36.940  22.927  25.464  1.00  0.00     0.060 A 
ATOM      9  C   UNL A   1      34.189  22.875  24.852  1.00  0.00     0.008 A 
ATOM     10  C   UNL A   1      34.638  23.368  26.077  1.00  0.00     0.016 A 
ATOM     11  C   UNL A   1      35.153  22.461  23.913  1.00  0.00     0.016 A 
ATOM     12  C   UNL A   1      35.999  23.389  26.385  1.00  0.00     0.017 A 
ATOM     13  C   UNL A   1      36.523  22.494  24.207  1.00  0.00     0.017 A 
BRANCH   9  14
ATOM     14  S   UNL A   1      32.482  22.522  24.458  1.00  0.00    -0.116 SA
BRANCH  14  15
ATOM     15  C   UNL A   1      32.158  20.789  24.935  1.00  0.00     0.175 C 
BRANCH  15  16
ATOM     16  C   UNL A   1      32.474  19.727  23.896  1.00  0.00     0.232 C 
ATOM     17  C   UNL A   1      32.855  17.430  23.210  1.00  0.00     0.146 C 
ATOM     18  N   UNL A   1      32.708  18.412  24.272  1.00  0.00    -0.348 N 
ATOM     19  C   UNL A   1      32.751  17.922  25.640  1.00  0.00     0.146 C 
ATOM     20  O   UNL A   1      32.532  20.061  22.706  1.00  0.00    -0.274 OA
ENDBRANCH  15  16
ENDBRANCH  14  15
ENDBRANCH   9  14
ENDBRANCH   6   8
ENDBRANCH   5   6
ENDBRANCH   4   5
ENDBRANCH   3   4
ENDBRANCH   2   3
ENDBRANCH   1   2
BRANCH   1  21
ATOM     21  C   UNL A   1      43.855  18.654  25.321  1.00  0.00     0.188 C 
BRANCH  21  22
ATOM     22  O   UNL A   1      44.099  19.664  24.372  1.00  0.00    -0.376 OA
BRANCH  22  23
ATOM     23  C   UNL A   1      44.714  20.890  24.728  1.00  0.00     0.202 C 
BRANCH  23  24
ATOM     24  C   UNL A   1      44.193  21.893  25.771  1.00  0.00     0.261 C 
BRANCH  24  25
ATOM     25  O   UNL A   1      43.328  22.932  25.318  1.00  0.00    -0.460 OA
BRANCH  25  26
ATOM     26  C   UNL A   1      43.907  24.154  25.217  1.00  0.00     0.338 C 
ATOM     27  O   UNL A   1      44.763  24.510  24.429  1.00  0.00    -0.246 OA
BRANCH  26  28
ATOM     28  C   UNL A   1      43.220  25.078  26.135  1.00  0.00     0.060 A 
ATOM     29  C   UNL A   1      43.646  26.411  26.183  1.00  0.00     0.016 A 
ATOM     30  C   UNL A   1      42.203  24.619  26.971  1.00  0.00     0.016 A 
ATOM     31  C   UNL A   1      43.063  27.292  27.093  1.00  0.00     0.010 A 
ATOM     32  C   UNL A   1      41.634  25.497  27.896  1.00  0.00     0.010 A 
ATOM     33  C   UNL A   1      42.081  26.828  27.979  1.00  0.00    -0.014 A 
BRANCH  33  34
ATOM     34  C   UNL A   1      41.635  27.687  29.100  1.00  0.00     0.031 A 
ATOM     35  C   UNL A   1      42.353  27.587  30.416  1.00  0.00     0.074 A 
ATOM     36  C   UNL A   1      40.612  28.545  28.950  1.00  0.00     0.049 A 
ATOM     37  N   UNL A   1      42.105  28.195  31.547  1.00  0.00    -0.248 NA
ATOM     38  C   UNL A   1      43.504  26.670  30.463  1.00  0.00     0.031 C 
ATOM     39  C   UNL A   1      39.860  28.760  27.715  1.00  0.00     0.029 A 
ATOM     40  N   UNL A   1      40.023  29.389  29.857  1.00  0.00    -0.354 N 
ATOM     41  C   UNL A   1      43.066  27.737  32.438  1.00  0.00     0.074 A 
ATOM     42  C   UNL A   1      43.881  26.776  31.728  1.00  0.00     0.031 C 
ATOM     43  C   UNL A   1      38.898  29.670  27.947  1.00  0.00     0.029 A 
ATOM     44  C   UNL A   1      38.949  30.077  29.349  1.00  0.00     0.049 A 
ATOM     45  H   UNL A   1      40.340  29.492  30.783  1.00  0.00     0.167 HD
ATOM     46  C   UNL A   1      43.256  28.092  33.731  1.00  0.00     0.037 A 
ATOM     47  C   UNL A   1      38.093  30.921  29.958  1.00  0.00     0.037 A 
ATOM     48  C   UNL A   1      42.441  29.043  34.440  1.00  0.00     0.049 A 
ATOM     49  C   UNL A   1      38.277  31.240  31.419  1.00  0.00     0.074 A 
ATOM     50  C   UNL A   1      42.566  29.482  35.746  1.00  0.00     0.029 A 
ATOM     51  N   UNL A   1      41.343  29.695  33.901  1.00  0.00    -0.354 N 
ATOM     52  N   UNL A   1      39.205  30.824  32.248  1.00  0.00    -0.248 NA
ATOM     53  C   UNL A   1      37.293  32.146  32.028  1.00  0.00     0.031 C 
ATOM     54  C   UNL A   1      41.512  30.362  36.013  1.00  0.00     0.029 A 
ATOM     55  C   UNL A   1      40.762  30.511  34.857  1.00  0.00     0.049 A 
ATOM     56  H   UNL A   1      41.023  29.592  32.975  1.00  0.00     0.167 HD
ATOM     57  C   UNL A   1      38.934  31.438  33.464  1.00  0.00     0.074 A 
ATOM     58  C   UNL A   1      37.760  32.264  33.263  1.00  0.00     0.031 C 
ATOM     59  C   UNL A   1      39.598  31.331  34.642  1.00  0.00     0.037 A 
BRANCH  46  60
ATOM     60  C   UNL A   1      44.377  27.422  34.469  1.00  0.00     0.057 A 
ATOM     61  C   UNL A   1      45.662  27.978  34.525  1.00  0.00     0.134 A 
ATOM     62  C   UNL A   1      44.164  26.216  35.147  1.00  0.00     0.134 A 
ATOM     63  F   UNL A   1      45.936  29.124  33.884  1.00  0.00    -0.206 F 
ATOM     64  C   UNL A   1      46.700  27.347  35.212  1.00  0.00     0.040 A 
ATOM     65  C   UNL A   1      45.188  25.588  35.858  1.00  0.00     0.040 A 
ATOM     66  F   UNL A   1      42.957  25.631  35.135  1.00  0.00    -0.206 F 
ATOM     67  C   UNL A   1      46.461  26.150  35.886  1.00  0.00     0.006 A 
ENDBRANCH  46  60
BRANCH  47  68
ATOM     68  C   UNL A   1      36.968  31.516  29.194  1.00  0.00     0.057 A 
ATOM     69  C   UNL A   1      37.011  32.845  28.757  1.00  0.00     0.134 A 
ATOM     70  C   UNL A   1      35.812  30.780  28.908  1.00  0.00     0.134 A 
ATOM     71  F   UNL A   1      38.080  33.609  29.024  1.00  0.00    -0.206 F 
ATOM     72  C   UNL A   1      35.939  33.426  28.077  1.00  0.00     0.040 A 
ATOM     73  C   UNL A   1      34.743  31.340  28.208  1.00  0.00     0.040 A 
ATOM     74  F   UNL A   1      35.707  29.503  29.304  1.00  0.00    -0.206 F 
ATOM     75  C   UNL A   1      34.802  32.670  27.796  1.00  0.00     0.006 A 
ENDBRANCH  47  68
BRANCH  59  76
ATOM     76  C   UNL A   1      39.093  32.148  35.796  1.00  0.00     0.057 A 
ATOM     77  C   UNL A   1      39.459  33.488  35.971  1.00  0.00     0.134 A 
ATOM     78  C   UNL A   1      38.195  31.597  36.719  1.00  0.00     0.134 A 
ATOM     79  F   UNL A   1      40.325  34.072  35.129  1.00  0.00    -0.206 F 
ATOM     80  C   UNL A   1      38.965  34.246  37.034  1.00  0.00     0.040 A 
ATOM     81  C   UNL A   1      37.674  32.353  37.771  1.00  0.00     0.040 A 
ATOM     82  F   UNL A   1      37.796  30.322  36.604  1.00  0.00    -0.206 F 
ATOM     83  C   UNL A   1      38.063  33.680  37.933  1.00  0.00     0.006 A 
ENDBRANCH  59  76
ENDBRANCH  33  34
ENDBRANCH  26  28
ENDBRANCH  25  26
ENDBRANCH  24  25
ENDBRANCH  23  24
ENDBRANCH  22  23
ENDBRANCH  21  22
ENDBRANCH   1  21
TORSDOF 20
ENDMDL
MODEL 2
REMARK VINA RESULT:     -10.3      1.547      2.410
REMARK SMILES CN(C)C(=O)CSc1ccc(C(=O)OCCOCCOCCOC(=O)c2ccc(-c3c4nc(c(-c5c(F)cccc5F)c5ccc([nH]5)c(-c5c(F)cccc5F)c5nc(c(-c6c(F)cccc6F)c6ccc3[nH]6)C=C5)C=C4)cc2)cc1
REMARK SMILES IDX 18 1 17 2 16 3 15 4 14 5 12 6 13 7 11 8 8 9 9 10 81 11 10 12
REMARK SMILES IDX 80 13 7 14 6 15 4 16 1 17 2 18 3 19 5 20 19 21 20 22 21 23
REMARK SMILES IDX 22 24 23 25 24 26 25 27 26 28 27 29 79 30 28 31 78 32 29 33
REMARK SMILES IDX 30 34 31 35 72 36 32 37 77 38 71 39 73 40 33 41 76 42 70 43
REMARK SMILES IDX 69 44 34 46 60 47 43 48 59 49 44 50 47 51 58 52 74 53 45 54
REMARK SMILES IDX 46 55 57 57 75 58 48 59 35 60 36 61 41 62 37 63 38 64 40 65
REMARK SMILES IDX 42 66 39 67 61 68 62 69 67 70 63 71 64 72 66 73 68 74 65 75
REMARK SMILES IDX 49 76 50 77 55 78 51 79 52 80 54 81 56 82 53 83
REMARK H PARENT 73 45 47 56
REMARK Flexibility Score: inf
ROOT
ATOM      1  C   UNL A   1      42.648  18.558  26.131  1.00  0.00     0.188 C 
ENDROOT
BRANCH   1   2
ATOM      2  O   UNL A   1      41.493  19.268  25.720  1.00  0.00    -0.376 OA
BRANCH   2   3
ATOM      3  C   UNL A   1      40.706  19.959  26.678  1.00  0.00     0.202 C 
BRANCH   3   4
ATOM      4  C   UNL A   1      40.327  21.427  26.463  1.00  0.00     0.261 C 
BRANCH   4   5
ATOM      5  O   UNL A   1      39.038  21.613  25.862  1.00  0.00    -0.460 OA
BRANCH   5   6
ATOM      6  C   UNL A   1      38.452  22.804  26.135  1.00  0.00     0.338 C 
ATOM      7  O   UNL A   1      38.932  23.731  26.765  1.00  0.00    -0.246 OA
BRANCH   6   8
ATOM      8  C   UNL A   1      37.179  22.931  25.397  1.00  0.00     0.060 A 
ATOM      9  C   UNL A   1      34.634  23.070  24.194  1.00  0.00     0.008 A 
ATOM     10  C   UNL A   1      34.832  23.526  25.496  1.00  0.00     0.016 A 
ATOM     11  C   UNL A   1      35.752  22.594  23.482  1.00  0.00     0.016 A 
ATOM     12  C   UNL A   1      36.090  23.453  26.097  1.00  0.00     0.017 A 
ATOM     13  C   UNL A   1      37.023  22.533  24.071  1.00  0.00     0.017 A 
BRANCH   9  14
ATOM     14  S   UNL A   1      33.036  22.836  23.427  1.00  0.00    -0.116 SA
BRANCH  14  15
ATOM     15  C   UNL A   1      32.572  24.418  22.639  1.00  0.00     0.175 C 
BRANCH  15  16
ATOM     16  C   UNL A   1      31.605  25.302  23.407  1.00  0.00     0.232 C 
ATOM     17  C   UNL A   1      31.053  27.295  24.678  1.00  0.00     0.146 C 
ATOM     18  N   UNL A   1      32.057  26.419  24.096  1.00  0.00    -0.348 N 
ATOM     19  C   UNL A   1      33.447  26.822  24.227  1.00  0.00     0.146 C 
ATOM     20  O   UNL A   1      30.406  25.000  23.415  1.00  0.00    -0.274 OA
ENDBRANCH  15  16
ENDBRANCH  14  15
ENDBRANCH   9  14
ENDBRANCH   6   8
ENDBRANCH   5   6
ENDBRANCH   4   5
ENDBRANCH   3   4
ENDBRANCH   2   3
ENDBRANCH   1   2
BRANCH   1  21
ATOM     21  C   UNL A   1      43.942  18.597  25.292  1.00  0.00     0.188 C 
BRANCH  21  22
ATOM     22  O   UNL A   1      44.141  19.638  24.365  1.00  0.00    -0.376 OA
BRANCH  22  23
ATOM     23  C   UNL A   1      44.701  20.881  24.747  1.00  0.00     0.202 C 
BRANCH  23  24
ATOM     24  C   UNL A   1      44.120  21.853  25.788  1.00  0.00     0.261 C 
BRANCH  24  25
ATOM     25  O   UNL A   1      43.359  22.960  25.310  1.00  0.00    -0.460 OA
BRANCH  25  26
ATOM     26  C   UNL A   1      44.015  24.147  25.312  1.00  0.00     0.338 C 
ATOM     27  O   UNL A   1      44.949  24.483  24.608  1.00  0.00    -0.246 OA
BRANCH  26  28
ATOM     28  C   UNL A   1      43.315  25.070  26.220  1.00  0.00     0.060 A 
ATOM     29  C   UNL A   1      43.736  26.406  26.269  1.00  0.00     0.016 A 
ATOM     30  C   UNL A   1      42.290  24.611  27.045  1.00  0.00     0.016 A 
ATOM     31  C   UNL A   1      43.141  27.286  27.171  1.00  0.00     0.010 A 
ATOM     32  C   UNL A   1      41.708  25.489  27.961  1.00  0.00     0.010 A 
ATOM     33  C   UNL A   1      42.150  26.822  28.046  1.00  0.00    -0.014 A 
BRANCH  33  34
ATOM     34  C   UNL A   1      41.689  27.682  29.160  1.00  0.00     0.031 A 
ATOM     35  C   UNL A   1      42.408  27.606  30.476  1.00  0.00     0.074 A 
ATOM     36  C   UNL A   1      40.649  28.520  29.004  1.00  0.00     0.049 A 
ATOM     37  N   UNL A   1      42.149  28.220  31.603  1.00  0.00    -0.248 NA
ATOM     38  C   UNL A   1      43.576  26.711  30.531  1.00  0.00     0.031 C 
ATOM     39  C   UNL A   1      39.894  28.710  27.767  1.00  0.00     0.029 A 
ATOM     40  N   UNL A   1      40.046  29.361  29.904  1.00  0.00    -0.354 N 
ATOM     41  C   UNL A   1      43.119  27.787  32.497  1.00  0.00     0.074 A 
ATOM     42  C   UNL A   1      43.951  26.835  31.795  1.00  0.00     0.031 C 
ATOM     43  C   UNL A   1      38.915  29.604  27.991  1.00  0.00     0.029 A 
ATOM     44  C   UNL A   1      38.959  30.025  29.390  1.00  0.00     0.049 A 
ATOM     45  H   UNL A   1      40.361  29.478  30.828  1.00  0.00     0.167 HD
ATOM     46  C   UNL A   1      43.304  28.157  33.787  1.00  0.00     0.037 A 
ATOM     47  C   UNL A   1      38.088  30.857  29.992  1.00  0.00     0.037 A 
ATOM     48  C   UNL A   1      42.472  29.099  34.488  1.00  0.00     0.049 A 
ATOM     49  C   UNL A   1      38.267  31.192  31.450  1.00  0.00     0.074 A 
ATOM     50  C   UNL A   1      42.589  29.551  35.790  1.00  0.00     0.029 A 
ATOM     51  N   UNL A   1      41.361  29.726  33.943  1.00  0.00    -0.354 N 
ATOM     52  N   UNL A   1      39.202  30.801  32.282  1.00  0.00    -0.248 NA
ATOM     53  C   UNL A   1      37.266  32.086  32.052  1.00  0.00     0.031 C 
ATOM     54  C   UNL A   1      41.519  30.414  36.049  1.00  0.00     0.029 A 
ATOM     55  C   UNL A   1      40.766  30.539  34.893  1.00  0.00     0.049 A 
ATOM     56  H   UNL A   1      41.043  29.609  33.019  1.00  0.00     0.167 HD
ATOM     57  C   UNL A   1      38.920  31.421  33.493  1.00  0.00     0.074 A 
ATOM     58  C   UNL A   1      37.732  32.223  33.286  1.00  0.00     0.031 C 
ATOM     59  C   UNL A   1      39.587  31.336  34.671  1.00  0.00     0.037 A 
BRANCH  46  60
ATOM     60  C   UNL A   1      44.437  27.514  34.529  1.00  0.00     0.057 A 
ATOM     61  C   UNL A   1      45.713  28.089  34.572  1.00  0.00     0.134 A 
ATOM     62  C   UNL A   1      44.243  26.315  35.227  1.00  0.00     0.134 A 
ATOM     63  F   UNL A   1      45.969  29.228  33.913  1.00  0.00    -0.206 F 
ATOM     64  C   UNL A   1      46.763  27.483  35.264  1.00  0.00     0.040 A 
ATOM     65  C   UNL A   1      45.279  25.713  35.943  1.00  0.00     0.040 A 
ATOM     66  F   UNL A   1      43.045  25.713  35.228  1.00  0.00    -0.206 F 
ATOM     67  C   UNL A   1      46.545  26.293  35.957  1.00  0.00     0.006 A 
ENDBRANCH  46  60
BRANCH  47  68
ATOM     68  C   UNL A   1      36.952  31.426  29.223  1.00  0.00     0.057 A 
ATOM     69  C   UNL A   1      35.825  30.654  28.919  1.00  0.00     0.134 A 
ATOM     70  C   UNL A   1      36.979  32.743  28.750  1.00  0.00     0.134 A 
ATOM     71  F   UNL A   1      35.751  29.377  29.321  1.00  0.00    -0.206 F 
ATOM     72  C   UNL A   1      34.771  31.167  28.159  1.00  0.00     0.040 A 
ATOM     73  C   UNL A   1      35.924  33.277  28.011  1.00  0.00     0.040 A 
ATOM     74  F   UNL A   1      38.034  33.532  29.004  1.00  0.00    -0.206 F 
ATOM     75  C   UNL A   1      34.817  32.484  27.707  1.00  0.00     0.006 A 
ENDBRANCH  47  68
BRANCH  59  76
ATOM     76  C   UNL A   1      39.067  32.153  35.819  1.00  0.00     0.057 A 
ATOM     77  C   UNL A   1      38.208  31.613  36.783  1.00  0.00     0.134 A 
ATOM     78  C   UNL A   1      39.470  33.485  35.984  1.00  0.00     0.134 A 
ATOM     79  F   UNL A   1      37.776  30.348  36.678  1.00  0.00    -0.206 F 
ATOM     80  C   UNL A   1      37.750  32.375  37.860  1.00  0.00     0.040 A 
ATOM     81  C   UNL A   1      39.039  34.248  37.070  1.00  0.00     0.040 A 
ATOM     82  F   UNL A   1      40.300  34.060  35.101  1.00  0.00    -0.206 F 
ATOM     83  C   UNL A   1      38.173  33.694  38.010  1.00  0.00     0.006 A 
ENDBRANCH  59  76
ENDBRANCH  33  34
ENDBRANCH  26  28
ENDBRANCH  25  26
ENDBRANCH  24  25
ENDBRANCH  23  24
ENDBRANCH  22  23
ENDBRANCH  21  22
ENDBRANCH   1  21
TORSDOF 20
ENDMDL
MODEL 3
REMARK VINA RESULT:      -9.9      1.432      6.423
REMARK SMILES CN(C)C(=O)CSc1ccc(C(=O)OCCOCCOCCOC(=O)c2ccc(-c3c4nc(c(-c5c(F)cccc5F)c5ccc([nH]5)c(-c5c(F)cccc5F)c5nc(c(-c6c(F)cccc6F)c6ccc3[nH]6)C=C5)C=C4)cc2)cc1
REMARK SMILES IDX 18 1 17 2 16 3 15 4 14 5 12 6 13 7 11 8 8 9 9 10 81 11 10 12
REMARK SMILES IDX 80 13 7 14 6 15 4 16 1 17 2 18 3 19 5 20 19 21 20 22 21 23
REMARK SMILES IDX 22 24 23 25 24 26 25 27 26 28 27 29 79 30 28 31 78 32 29 33
REMARK SMILES IDX 30 34 31 35 72 36 32 37 77 38 71 39 73 40 33 41 76 42 70 43
REMARK SMILES IDX 69 44 34 46 60 47 43 48 59 49 44 50 47 51 58 52 74 53 45 54
REMARK SMILES IDX 46 55 57 57 75 58 48 59 35 60 36 61 41 62 37 63 38 64 40 65
REMARK SMILES IDX 42 66 39 67 61 68 62 69 67 70 63 71 64 72 66 73 68 74 65 75
REMARK SMILES IDX 49 76 50 77 55 78 51 79 52 80 54 81 56 82 53 83
REMARK H PARENT 73 45 47 56
REMARK Flexibility Score: inf
ROOT
ATOM      1  C   UNL A   1      45.262  18.827  25.239  1.00  0.00     0.188 C 
ENDROOT
BRANCH   1   2
ATOM      2  O   UNL A   1      44.034  18.488  25.861  1.00  0.00    -0.376 OA
BRANCH   2   3
ATOM      3  C   UNL A   1      42.858  19.222  25.556  1.00  0.00     0.202 C 
BRANCH   3   4
ATOM      4  C   UNL A   1      42.539  20.526  26.293  1.00  0.00     0.261 C 
BRANCH   4   5
ATOM      5  O   UNL A   1      41.357  21.187  25.820  1.00  0.00    -0.460 OA
BRANCH   5   6
ATOM      6  C   UNL A   1      40.393  21.360  26.755  1.00  0.00     0.338 C 
ATOM      7  O   UNL A   1      40.522  21.292  27.967  1.00  0.00    -0.246 OA
BRANCH   6   8
ATOM      8  C   UNL A   1      39.146  21.841  26.126  1.00  0.00     0.060 A 
ATOM      9  C   UNL A   1      36.845  22.642  24.709  1.00  0.00     0.008 A 
ATOM     10  C   UNL A   1      37.274  21.316  24.681  1.00  0.00     0.016 A 
ATOM     11  C   UNL A   1      37.561  23.551  25.511  1.00  0.00     0.016 A 
ATOM     12  C   UNL A   1      38.417  20.917  25.377  1.00  0.00     0.017 A 
ATOM     13  C   UNL A   1      38.700  23.157  26.227  1.00  0.00     0.017 A 
BRANCH   9  14
ATOM     14  S   UNL A   1      35.589  23.332  23.640  1.00  0.00    -0.116 SA
BRANCH  14  15
ATOM     15  C   UNL A   1      34.061  22.366  23.900  1.00  0.00     0.175 C 
BRANCH  15  16
ATOM     16  C   UNL A   1      33.099  22.885  24.954  1.00  0.00     0.232 C 
ATOM     17  C   UNL A   1      32.205  22.952  27.209  1.00  0.00     0.146 C 
ATOM     18  N   UNL A   1      33.041  22.304  26.212  1.00  0.00    -0.348 N 
ATOM     19  C   UNL A   1      33.799  21.139  26.637  1.00  0.00     0.146 C 
ATOM     20  O   UNL A   1      32.356  23.832  24.663  1.00  0.00    -0.274 OA
ENDBRANCH  15  16
ENDBRANCH  14  15
ENDBRANCH   9  14
ENDBRANCH   6   8
ENDBRANCH   5   6
ENDBRANCH   4   5
ENDBRANCH   3   4
ENDBRANCH   2   3
ENDBRANCH   1   2
BRANCH   1  21
ATOM     21  C   UNL A   1      45.300  19.789  24.034  1.00  0.00     0.188 C 
BRANCH  21  22
ATOM     22  O   UNL A   1      45.247  21.179  24.250  1.00  0.00    -0.376 OA
BRANCH  22  23
ATOM     23  C   UNL A   1      45.996  21.804  25.278  1.00  0.00     0.202 C 
BRANCH  23  24
ATOM     24  C   UNL A   1      45.462  22.833  26.288  1.00  0.00     0.261 C 
BRANCH  24  25
ATOM     25  O   UNL A   1      45.102  24.122  25.795  1.00  0.00    -0.460 OA
BRANCH  25  26
ATOM     26  C   UNL A   1      43.793  24.264  25.469  1.00  0.00     0.338 C 
ATOM     27  O   UNL A   1      43.176  23.683  24.596  1.00  0.00    -0.246 OA
BRANCH  26  28
ATOM     28  C   UNL A   1      43.155  25.148  26.458  1.00  0.00     0.060 A 
ATOM     29  C   UNL A   1      43.699  26.422  26.664  1.00  0.00     0.016 A 
ATOM     30  C   UNL A   1      42.064  24.705  27.204  1.00  0.00     0.016 A 
ATOM     31  C   UNL A   1      43.161  27.254  27.644  1.00  0.00     0.010 A 
ATOM     32  C   UNL A   1      41.538  25.532  28.199  1.00  0.00     0.010 A 
ATOM     33  C   UNL A   1      42.102  26.798  28.441  1.00  0.00    -0.014 A 
BRANCH  33  34
ATOM     34  C   UNL A   1      41.689  27.574  29.632  1.00  0.00     0.031 A 
ATOM     35  C   UNL A   1      40.513  28.501  29.517  1.00  0.00     0.074 A 
ATOM     36  C   UNL A   1      42.346  27.454  30.799  1.00  0.00     0.049 A 
ATOM     37  N   UNL A   1      40.008  29.317  30.406  1.00  0.00    -0.248 NA
ATOM     38  C   UNL A   1      39.816  28.513  28.221  1.00  0.00     0.031 C 
ATOM     39  C   UNL A   1      43.478  26.563  31.046  1.00  0.00     0.029 A 
ATOM     40  N   UNL A   1      42.155  28.100  31.994  1.00  0.00    -0.354 N 
ATOM     41  C   UNL A   1      38.936  29.938  29.779  1.00  0.00     0.074 A 
ATOM     42  C   UNL A   1      38.883  29.430  28.425  1.00  0.00     0.031 C 
ATOM     43  C   UNL A   1      43.891  26.729  32.314  1.00  0.00     0.029 A 
ATOM     44  C   UNL A   1      43.073  27.756  32.956  1.00  0.00     0.049 A 
ATOM     45  H   UNL A   1      41.431  28.748  32.147  1.00  0.00     0.167 HD
ATOM     46  C   UNL A   1      38.069  30.845  30.288  1.00  0.00     0.037 A 
ATOM     47  C   UNL A   1      43.243  28.236  34.202  1.00  0.00     0.037 A 
ATOM     48  C   UNL A   1      38.125  31.355  31.632  1.00  0.00     0.049 A 
ATOM     49  C   UNL A   1      42.314  29.303  34.721  1.00  0.00     0.074 A 
ATOM     50  C   UNL A   1      37.281  32.262  32.247  1.00  0.00     0.029 A 
ATOM     51  N   UNL A   1      39.088  31.007  32.567  1.00  0.00    -0.354 N 
ATOM     52  N   UNL A   1      41.286  29.865  34.131  1.00  0.00    -0.248 NA
ATOM     53  C   UNL A   1      42.571  29.803  36.080  1.00  0.00     0.031 C 
ATOM     54  C   UNL A   1      37.763  32.501  33.538  1.00  0.00     0.029 A 
ATOM     55  C   UNL A   1      38.877  31.704  33.745  1.00  0.00     0.049 A 
ATOM     56  H   UNL A   1      39.815  30.360  32.415  1.00  0.00     0.167 HD
ATOM     57  C   UNL A   1      40.758  30.760  35.054  1.00  0.00     0.074 A 
ATOM     58  C   UNL A   1      41.573  30.660  36.247  1.00  0.00     0.031 C 
ATOM     59  C   UNL A   1      39.693  31.590  34.926  1.00  0.00     0.037 A 
BRANCH  46  60
ATOM     60  C   UNL A   1      37.000  31.363  29.372  1.00  0.00     0.057 A 
ATOM     61  C   UNL A   1      37.063  32.645  28.813  1.00  0.00     0.134 A 
ATOM     62  C   UNL A   1      35.905  30.561  29.029  1.00  0.00     0.134 A 
ATOM     63  F   UNL A   1      38.078  33.469  29.113  1.00  0.00    -0.206 F 
ATOM     64  C   UNL A   1      36.063  33.121  27.963  1.00  0.00     0.040 A 
ATOM     65  C   UNL A   1      34.911  31.015  28.161  1.00  0.00     0.040 A 
ATOM     66  F   UNL A   1      35.784  29.322  29.528  1.00  0.00    -0.206 F 
ATOM     67  C   UNL A   1      34.985  32.301  27.631  1.00  0.00     0.006 A 
ENDBRANCH  46  60
BRANCH  47  68
ATOM     68  C   UNL A   1      44.350  27.726  35.050  1.00  0.00     0.057 A 
ATOM     69  C   UNL A   1      44.144  26.685  35.961  1.00  0.00     0.134 A 
ATOM     70  C   UNL A   1      45.631  28.287  34.990  1.00  0.00     0.134 A 
ATOM     71  F   UNL A   1      42.932  26.125  36.085  1.00  0.00    -0.206 F 
ATOM     72  C   UNL A   1      45.168  26.229  36.794  1.00  0.00     0.040 A 
ATOM     73  C   UNL A   1      46.670  27.826  35.798  1.00  0.00     0.040 A 
ATOM     74  F   UNL A   1      45.891  29.292  34.141  1.00  0.00    -0.206 F 
ATOM     75  C   UNL A   1      46.437  26.797  36.709  1.00  0.00     0.006 A 
ENDBRANCH  47  68
BRANCH  59  76
ATOM     76  C   UNL A   1      39.325  32.431  36.115  1.00  0.00     0.057 A 
ATOM     77  C   UNL A   1      39.889  33.694  36.330  1.00  0.00     0.134 A 
ATOM     78  C   UNL A   1      38.362  31.987  37.031  1.00  0.00     0.134 A 
ATOM     79  F   UNL A   1      40.825  34.173  35.497  1.00  0.00    -0.206 F 
ATOM     80  C   UNL A   1      39.523  34.479  37.425  1.00  0.00     0.040 A 
ATOM     81  C   UNL A   1      37.970  32.774  38.115  1.00  0.00     0.040 A 
ATOM     82  F   UNL A   1      37.777  30.790  36.877  1.00  0.00    -0.206 F 
ATOM     83  C   UNL A   1      38.554  34.022  38.317  1.00  0.00     0.006 A 
ENDBRANCH  59  76
ENDBRANCH  33  34
ENDBRANCH  26  28
ENDBRANCH  25  26
ENDBRANCH  24  25
ENDBRANCH  23  24
ENDBRANCH  22  23
ENDBRANCH  21  22
ENDBRANCH   1  21
TORSDOF 20
ENDMDL
