MODEL 1
REMARK VINA RESULT:     -13.1      0.000      0.000
REMARK SMILES Cc1ccc(Nc2c(Cl)cc(Cl)cc2Cl)c(CC(=O)OCCOCCOCCOC(=O)c2ccc(-c3c4nc(c(-c5c(F)cccc5F)c5ccc([nH]5)c(-c5c(F)cccc5F)c5nc(c(-c6c(F)cccc6F)c6ccc3[nH]6)C=C5)C=C4)cc2)c1
REMARK SMILES IDX 24 1 23 2 22 3 21 4 20 5 18 6 19 7 17 8 16 9 1 10 2 11 3 12
REMARK SMILES IDX 86 13 4 14 5 15 6 16 7 18 8 19 14 20 9 21 10 22 13 23 15 24
REMARK SMILES IDX 11 25 12 26 25 27 26 28 27 29 28 30 29 31 30 32 31 33 32 34
REMARK SMILES IDX 33 35 85 36 34 37 84 38 35 39 36 40 37 41 78 42 38 43 83 44
REMARK SMILES IDX 77 45 79 46 39 47 82 48 76 49 75 50 40 52 66 53 49 54 65 55
REMARK SMILES IDX 50 56 53 57 64 58 80 59 51 60 52 61 63 63 81 64 54 65 41 66
REMARK SMILES IDX 42 67 47 68 43 69 44 70 46 71 48 72 45 73 67 74 68 75 73 76
REMARK SMILES IDX 69 77 70 78 72 79 74 80 71 81 55 82 56 83 61 84 57 85 58 86
REMARK SMILES IDX 60 87 62 88 59 89
REMARK H PARENT 6 17 79 51 53 62
REMARK Flexibility Score: inf
ROOT
ATOM      1  C   UNL A   1      38.108  21.275  25.375  1.00  0.00     0.188 C 
ENDROOT
BRANCH   1   2
ATOM      2  O   UNL A   1      36.842  21.864  25.494  1.00  0.00    -0.376 OA
BRANCH   2   3
ATOM      3  C   UNL A   1      36.106  22.224  24.344  1.00  0.00     0.202 C 
BRANCH   3   4
ATOM      4  C   UNL A   1      35.647  23.639  23.668  1.00  0.00     0.261 C 
BRANCH   4   5
ATOM      5  O   UNL A   1      34.320  24.328  22.604  1.00  0.00    -0.463 OA
BRANCH   5   6
ATOM      6  C   UNL A   1      33.587  25.727  22.082  1.00  0.00     0.310 C 
ATOM      7  O   UNL A   1      33.994  26.773  21.551  1.00  0.00    -0.252 OA
BRANCH   6   8
ATOM      8  C   UNL A   1      32.179  25.598  21.924  1.00  0.00     0.160 C 
BRANCH   8   9
ATOM      9  C   UNL A   1      31.690  25.938  23.275  1.00  0.00    -0.013 A 
ATOM     10  C   UNL A   1      29.374  29.001  22.857  1.00  0.00     0.044 C 
ATOM     11  C   UNL A   1      29.873  27.659  23.276  1.00  0.00    -0.051 A 
ATOM     12  C   UNL A   1      29.072  26.690  23.811  1.00  0.00     0.005 A 
ATOM     13  C   UNL A   1      31.172  27.287  23.026  1.00  0.00     0.009 A 
ATOM     14  C   UNL A   1      29.618  25.413  24.119  1.00  0.00     0.026 A 
ATOM     15  C   UNL A   1      31.156  24.922  24.107  1.00  0.00     0.042 A 
BRANCH  15  16
ATOM     16  N   UNL A   1      31.877  23.469  25.345  1.00  0.00    -0.353 N 
ATOM     17  H   UNL A   1      31.797  23.691  26.300  1.00  0.00     0.167 HD
BRANCH  16  18
ATOM     18  C   UNL A   1      32.648  21.825  25.033  1.00  0.00     0.076 A 
ATOM     19  C   UNL A   1      32.426  20.907  23.774  1.00  0.00     0.067 A 
ATOM     20  C   UNL A   1      33.141  21.063  26.131  1.00  0.00     0.067 A 
ATOM     21  Cl  UNL A   1      31.891  21.173  22.082  1.00  0.00    -0.082 Cl
ATOM     22  C   UNL A   1      32.568  19.500  23.804  1.00  0.00     0.043 A 
ATOM     23  C   UNL A   1      33.256  19.629  26.068  1.00  0.00     0.043 A 
ATOM     24  Cl  UNL A   1      33.753  21.610  27.611  1.00  0.00    -0.082 Cl
ATOM     25  C   UNL A   1      32.920  18.867  24.959  1.00  0.00     0.044 A 
ATOM     26  Cl  UNL A   1      32.855  17.150  25.028  1.00  0.00    -0.084 Cl
ENDBRANCH  16  18
ENDBRANCH  15  16
ENDBRANCH   8   9
ENDBRANCH   6   8
ENDBRANCH   5   6
ENDBRANCH   4   5
ENDBRANCH   3   4
ENDBRANCH   2   3
ENDBRANCH   1   2
BRANCH   1  27
ATOM     27  C   UNL A   1      39.278  21.928  26.078  1.00  0.00     0.188 C 
BRANCH  27  28
ATOM     28  O   UNL A   1      40.027  21.051  26.881  1.00  0.00    -0.376 OA
BRANCH  28  29
ATOM     29  C   UNL A   1      40.422  19.857  26.223  1.00  0.00     0.202 C 
BRANCH  29  30
ATOM     30  C   UNL A   1      41.965  19.517  26.130  1.00  0.00     0.261 C 
BRANCH  30  31
ATOM     31  O   UNL A   1      42.739  20.286  25.123  1.00  0.00    -0.460 OA
BRANCH  31  32
ATOM     32  C   UNL A   1      44.129  20.540  25.199  1.00  0.00     0.338 C 
ATOM     33  O   UNL A   1      44.800  19.767  25.856  1.00  0.00    -0.246 OA
BRANCH  32  34
ATOM     34  C   UNL A   1      44.631  21.970  24.352  1.00  0.00     0.060 A 
ATOM     35  C   UNL A   1      46.253  23.059  24.057  1.00  0.00     0.016 A 
ATOM     36  C   UNL A   1      43.446  22.776  25.445  1.00  0.00     0.016 A 
ATOM     37  C   UNL A   1      46.509  24.610  25.130  1.00  0.00     0.010 A 
ATOM     38  C   UNL A   1      43.860  24.152  26.414  1.00  0.00     0.010 A 
ATOM     39  C   UNL A   1      45.323  25.174  26.409  1.00  0.00    -0.014 A 
BRANCH  39  40
ATOM     40  C   UNL A   1      45.097  26.738  27.478  1.00  0.00     0.031 A 
ATOM     41  C   UNL A   1      43.420  27.527  28.033  1.00  0.00     0.074 A 
ATOM     42  C   UNL A   1      46.086  27.282  28.227  1.00  0.00     0.049 A 
ATOM     43  N   UNL A   1      42.884  28.678  27.654  1.00  0.00    -0.248 NA
ATOM     44  C   UNL A   1      42.028  26.729  28.567  1.00  0.00     0.031 C 
ATOM     45  C   UNL A   1      45.945  28.179  29.392  1.00  0.00     0.029 A 
ATOM     46  N   UNL A   1      47.456  27.051  28.209  1.00  0.00    -0.354 N 
ATOM     47  C   UNL A   1      41.501  28.684  28.043  1.00  0.00     0.074 A 
ATOM     48  C   UNL A   1      41.026  27.364  28.001  1.00  0.00     0.031 C 
ATOM     49  C   UNL A   1      47.154  28.685  29.717  1.00  0.00     0.029 A 
ATOM     50  C   UNL A   1      48.081  28.211  28.706  1.00  0.00     0.049 A 
ATOM     51  H   UNL A   1      47.906  26.230  27.905  1.00  0.00     0.167 HD
ATOM     52  C   UNL A   1      41.004  29.520  29.013  1.00  0.00     0.037 A 
ATOM     53  C   UNL A   1      48.760  28.958  27.797  1.00  0.00     0.037 A 
ATOM     54  C   UNL A   1      42.133  30.280  29.496  1.00  0.00     0.049 A 
ATOM     55  C   UNL A   1      47.911  30.175  27.499  1.00  0.00     0.074 A 
ATOM     56  C   UNL A   1      42.962  30.176  30.599  1.00  0.00     0.029 A 
ATOM     57  N   UNL A   1      42.856  30.946  28.528  1.00  0.00    -0.354 N 
ATOM     58  N   UNL A   1      46.612  30.231  27.677  1.00  0.00    -0.248 NA
ATOM     59  C   UNL A   1      48.488  31.481  27.208  1.00  0.00     0.031 C 
ATOM     60  C   UNL A   1      44.207  30.796  30.249  1.00  0.00     0.029 A 
ATOM     61  C   UNL A   1      44.137  31.225  28.931  1.00  0.00     0.049 A 
ATOM     62  H   UNL A   1      42.492  31.192  27.648  1.00  0.00     0.167 HD
ATOM     63  C   UNL A   1      46.204  31.531  27.667  1.00  0.00     0.074 A 
ATOM     64  C   UNL A   1      47.409  32.271  27.337  1.00  0.00     0.031 C 
ATOM     65  C   UNL A   1      44.955  31.977  27.994  1.00  0.00     0.037 A 
BRANCH  52  66
ATOM     66  C   UNL A   1      39.648  29.358  29.734  1.00  0.00     0.057 A 
ATOM     67  C   UNL A   1      39.567  28.597  30.914  1.00  0.00     0.134 A 
ATOM     68  C   UNL A   1      38.409  29.952  29.370  1.00  0.00     0.134 A 
ATOM     69  F   UNL A   1      40.649  28.001  31.431  1.00  0.00    -0.206 F 
ATOM     70  C   UNL A   1      38.378  28.421  31.648  1.00  0.00     0.040 A 
ATOM     71  C   UNL A   1      37.198  29.733  30.062  1.00  0.00     0.040 A 
ATOM     72  F   UNL A   1      38.303  30.824  28.358  1.00  0.00    -0.206 F 
ATOM     73  C   UNL A   1      37.184  28.976  31.219  1.00  0.00     0.006 A 
ENDBRANCH  52  66
BRANCH  53  74
ATOM     74  C   UNL A   1      49.517  28.020  26.898  1.00  0.00     0.057 A 
ATOM     75  C   UNL A   1      48.994  27.844  25.587  1.00  0.00     0.134 A 
ATOM     76  C   UNL A   1      50.883  27.755  27.056  1.00  0.00     0.134 A 
ATOM     77  F   UNL A   1      47.723  28.188  25.316  1.00  0.00    -0.206 F 
ATOM     78  C   UNL A   1      49.791  27.482  24.496  1.00  0.00     0.040 A 
ATOM     79  C   UNL A   1      51.690  27.382  25.968  1.00  0.00     0.040 A 
ATOM     80  F   UNL A   1      51.491  27.981  28.228  1.00  0.00    -0.206 F 
ATOM     81  C   UNL A   1      51.141  27.225  24.697  1.00  0.00     0.006 A 
ENDBRANCH  53  74
BRANCH  65  82
ATOM     82  C   UNL A   1      44.361  33.230  27.380  1.00  0.00     0.057 A 
ATOM     83  C   UNL A   1      44.075  33.349  26.014  1.00  0.00     0.134 A 
ATOM     84  C   UNL A   1      43.878  34.300  28.176  1.00  0.00     0.134 A 
ATOM     85  F   UNL A   1      44.281  32.347  25.149  1.00  0.00    -0.206 F 
ATOM     86  C   UNL A   1      43.510  34.500  25.467  1.00  0.00     0.040 A 
ATOM     87  C   UNL A   1      43.182  35.386  27.654  1.00  0.00     0.040 A 
ATOM     88  F   UNL A   1      44.026  34.346  29.508  1.00  0.00    -0.206 F 
ATOM     89  C   UNL A   1      43.049  35.518  26.287  1.00  0.00     0.006 A 
ENDBRANCH  65  82
ENDBRANCH  39  40
ENDBRANCH  32  34
ENDBRANCH  31  32
ENDBRANCH  30  31
ENDBRANCH  29  30
ENDBRANCH  28  29
ENDBRANCH  27  28
ENDBRANCH   1  27
TORSDOF 20
ENDMDL
MODEL 2
REMARK VINA RESULT:     -12.5      7.408     13.749
REMARK SMILES Cc1ccc(Nc2c(Cl)cc(Cl)cc2Cl)c(CC(=O)OCCOCCOCCOC(=O)c2ccc(-c3c4nc(c(-c5c(F)cccc5F)c5ccc([nH]5)c(-c5c(F)cccc5F)c5nc(c(-c6c(F)cccc6F)c6ccc3[nH]6)C=C5)C=C4)cc2)c1
REMARK SMILES IDX 24 1 23 2 22 3 21 4 20 5 18 6 19 7 17 8 16 9 1 10 2 11 3 12
REMARK SMILES IDX 86 13 4 14 5 15 6 16 7 18 8 19 14 20 9 21 10 22 13 23 15 24
REMARK SMILES IDX 11 25 12 26 25 27 26 28 27 29 28 30 29 31 30 32 31 33 32 34
REMARK SMILES IDX 33 35 85 36 34 37 84 38 35 39 36 40 37 41 78 42 38 43 83 44
REMARK SMILES IDX 77 45 79 46 39 47 82 48 76 49 75 50 40 52 66 53 49 54 65 55
REMARK SMILES IDX 50 56 53 57 64 58 80 59 51 60 52 61 63 63 81 64 54 65 41 66
REMARK SMILES IDX 42 67 47 68 43 69 44 70 46 71 48 72 45 73 67 74 68 75 73 76
REMARK SMILES IDX 69 77 70 78 72 79 74 80 71 81 55 82 56 83 61 84 57 85 58 86
REMARK SMILES IDX 60 87 62 88 59 89
REMARK H PARENT 6 17 79 51 53 62
REMARK Flexibility Score: inf
ROOT
ATOM      1  C   UNL A   1      34.268  36.190  33.082  1.00  0.00     0.188 C 
ENDROOT
BRANCH   1   2
ATOM      2  O   UNL A   1      34.002  34.850  33.396  1.00  0.00    -0.376 OA
BRANCH   2   3
ATOM      3  C   UNL A   1      35.037  33.996  33.837  1.00  0.00     0.202 C 
BRANCH   3   4
ATOM      4  C   UNL A   1      36.130  34.044  35.050  1.00  0.00     0.261 C 
BRANCH   4   5
ATOM      5  O   UNL A   1      36.681  33.051  36.491  1.00  0.00    -0.463 OA
BRANCH   5   6
ATOM      6  C   UNL A   1      37.876  32.052  37.075  1.00  0.00     0.310 C 
ATOM      7  O   UNL A   1      37.894  31.091  37.862  1.00  0.00    -0.252 OA
BRANCH   6   8
ATOM      8  C   UNL A   1      39.069  32.090  36.301  1.00  0.00     0.160 C 
BRANCH   8   9
ATOM      9  C   UNL A   1      39.940  32.945  37.130  1.00  0.00    -0.013 A 
ATOM     10  C   UNL A   1      40.954  35.942  34.913  1.00  0.00     0.044 C 
ATOM     11  C   UNL A   1      40.458  35.158  36.082  1.00  0.00    -0.051 A 
ATOM     12  C   UNL A   1      39.801  35.718  37.142  1.00  0.00     0.005 A 
ATOM     13  C   UNL A   1      40.538  33.787  36.088  1.00  0.00     0.009 A 
ATOM     14  C   UNL A   1      39.302  34.886  38.182  1.00  0.00     0.026 A 
ATOM     15  C   UNL A   1      39.533  33.309  38.438  1.00  0.00     0.042 A 
BRANCH  15  16
ATOM     16  N   UNL A   1      39.539  32.466  40.297  1.00  0.00    -0.353 N 
ATOM     17  H   UNL A   1      40.347  31.935  40.485  1.00  0.00     0.167 HD
BRANCH  16  18
ATOM     18  C   UNL A   1      38.338  32.499  41.692  1.00  0.00     0.076 A 
ATOM     19  C   UNL A   1      37.712  31.254  42.423  1.00  0.00     0.067 A 
ATOM     20  C   UNL A   1      37.537  33.659  41.898  1.00  0.00     0.067 A 
ATOM     21  Cl  UNL A   1      38.178  29.535  42.637  1.00  0.00    -0.082 Cl
ATOM     22  C   UNL A   1      36.452  31.283  43.066  1.00  0.00     0.043 A 
ATOM     23  C   UNL A   1      36.265  33.593  42.571  1.00  0.00     0.043 A 
ATOM     24  Cl  UNL A   1      37.891  35.272  41.528  1.00  0.00    -0.082 Cl
ATOM     25  C   UNL A   1      35.713  32.429  43.083  1.00  0.00     0.044 A 
ATOM     26  Cl  UNL A   1      34.094  32.374  43.661  1.00  0.00    -0.084 Cl
ENDBRANCH  16  18
ENDBRANCH  15  16
ENDBRANCH   8   9
ENDBRANCH   6   8
ENDBRANCH   5   6
ENDBRANCH   4   5
ENDBRANCH   3   4
ENDBRANCH   2   3
ENDBRANCH   1   2
BRANCH   1  27
ATOM     27  C   UNL A   1      33.353  36.899  32.108  1.00  0.00     0.188 C 
BRANCH  27  28
ATOM     28  O   UNL A   1      32.681  36.039  31.223  1.00  0.00    -0.376 OA
BRANCH  28  29
ATOM     29  C   UNL A   1      32.872  36.354  29.851  1.00  0.00     0.202 C 
BRANCH  29  30
ATOM     30  C   UNL A   1      33.227  35.184  28.847  1.00  0.00     0.261 C 
BRANCH  30  31
ATOM     31  O   UNL A   1      34.493  34.457  29.118  1.00  0.00    -0.460 OA
BRANCH  31  32
ATOM     32  C   UNL A   1      34.575  33.097  29.498  1.00  0.00     0.338 C 
ATOM     33  O   UNL A   1      34.270  32.821  30.643  1.00  0.00    -0.246 OA
BRANCH  32  34
ATOM     34  C   UNL A   1      35.151  32.047  28.242  1.00  0.00     0.060 A 
ATOM     35  C   UNL A   1      35.227  30.124  27.798  1.00  0.00     0.016 A 
ATOM     36  C   UNL A   1      36.758  32.711  28.718  1.00  0.00     0.016 A 
ATOM     37  C   UNL A   1      36.826  29.167  28.186  1.00  0.00     0.010 A 
ATOM     38  C   UNL A   1      38.107  31.695  29.108  1.00  0.00     0.010 A 
ATOM     39  C   UNL A   1      38.319  29.932  28.926  1.00  0.00    -0.014 A 
BRANCH  39  40
ATOM     40  C   UNL A   1      40.126  29.402  29.229  1.00  0.00     0.031 A 
ATOM     41  C   UNL A   1      40.974  27.776  28.615  1.00  0.00     0.074 A 
ATOM     42  C   UNL A   1      41.098  30.255  29.635  1.00  0.00     0.049 A 
ATOM     43  N   UNL A   1      41.390  26.741  29.331  1.00  0.00    -0.248 NA
ATOM     44  C   UNL A   1      40.808  27.028  27.107  1.00  0.00     0.031 C 
ATOM     45  C   UNL A   1      42.559  30.094  29.486  1.00  0.00     0.029 A 
ATOM     46  N   UNL A   1      41.004  31.539  30.158  1.00  0.00    -0.354 N 
ATOM     47  C   UNL A   1      41.624  25.638  28.440  1.00  0.00     0.074 A 
ATOM     48  C   UNL A   1      40.728  25.741  27.365  1.00  0.00     0.031 C 
ATOM     49  C   UNL A   1      43.190  31.037  30.218  1.00  0.00     0.029 A 
ATOM     50  C   UNL A   1      42.157  31.757  30.937  1.00  0.00     0.049 A 
ATOM     51  H   UNL A   1      40.269  32.178  30.011  1.00  0.00     0.167 HD
ATOM     52  C   UNL A   1      42.879  25.137  28.191  1.00  0.00     0.037 A 
ATOM     53  C   UNL A   1      41.966  31.799  32.282  1.00  0.00     0.037 A 
ATOM     54  C   UNL A   1      43.790  25.952  28.959  1.00  0.00     0.049 A 
ATOM     55  C   UNL A   1      42.471  30.486  32.843  1.00  0.00     0.074 A 
ATOM     56  C   UNL A   1      44.613  27.022  28.658  1.00  0.00     0.029 A 
ATOM     57  N   UNL A   1      43.506  26.048  30.306  1.00  0.00    -0.354 N 
ATOM     58  N   UNL A   1      42.580  29.379  32.147  1.00  0.00    -0.248 NA
ATOM     59  C   UNL A   1      43.107  30.386  34.149  1.00  0.00     0.031 C 
ATOM     60  C   UNL A   1      44.800  27.764  29.871  1.00  0.00     0.029 A 
ATOM     61  C   UNL A   1      44.056  27.166  30.879  1.00  0.00     0.049 A 
ATOM     62  H   UNL A   1      42.967  25.388  30.799  1.00  0.00     0.167 HD
ATOM     63  C   UNL A   1      43.381  28.499  32.811  1.00  0.00     0.074 A 
ATOM     64  C   UNL A   1      43.657  29.163  34.072  1.00  0.00     0.031 C 
ATOM     65  C   UNL A   1      43.854  27.319  32.310  1.00  0.00     0.037 A 
BRANCH  52  66
ATOM     66  C   UNL A   1      43.264  24.218  27.011  1.00  0.00     0.057 A 
ATOM     67  C   UNL A   1      43.734  24.777  25.809  1.00  0.00     0.134 A 
ATOM     68  C   UNL A   1      43.253  22.796  26.995  1.00  0.00     0.134 A 
ATOM     69  F   UNL A   1      43.855  26.102  25.662  1.00  0.00    -0.206 F 
ATOM     70  C   UNL A   1      44.132  24.012  24.696  1.00  0.00     0.040 A 
ATOM     71  C   UNL A   1      43.589  22.019  25.866  1.00  0.00     0.040 A 
ATOM     72  F   UNL A   1      42.970  22.070  28.086  1.00  0.00    -0.206 F 
ATOM     73  C   UNL A   1      44.049  22.629  24.712  1.00  0.00     0.006 A 
ENDBRANCH  52  66
BRANCH  53  74
ATOM     74  C   UNL A   1      40.714  32.588  32.550  1.00  0.00     0.057 A 
ATOM     75  C   UNL A   1      40.707  33.933  32.087  1.00  0.00     0.134 A 
ATOM     76  C   UNL A   1      39.460  31.987  32.717  1.00  0.00     0.134 A 
ATOM     77  F   UNL A   1      41.863  34.549  31.786  1.00  0.00    -0.206 F 
ATOM     78  C   UNL A   1      39.530  34.614  31.761  1.00  0.00     0.040 A 
ATOM     79  C   UNL A   1      38.272  32.667  32.400  1.00  0.00     0.040 A 
ATOM     80  F   UNL A   1      39.362  30.695  33.057  1.00  0.00    -0.206 F 
ATOM     81  C   UNL A   1      38.306  33.983  31.945  1.00  0.00     0.006 A 
ENDBRANCH  53  74
BRANCH  65  82
ATOM     82  C   UNL A   1      44.151  26.128  33.200  1.00  0.00     0.057 A 
ATOM     83  C   UNL A   1      43.254  25.654  34.166  1.00  0.00     0.134 A 
ATOM     84  C   UNL A   1      45.280  25.294  32.988  1.00  0.00     0.134 A 
ATOM     85  F   UNL A   1      42.048  26.205  34.355  1.00  0.00    -0.206 F 
ATOM     86  C   UNL A   1      43.532  24.545  34.963  1.00  0.00     0.040 A 
ATOM     87  C   UNL A   1      45.491  24.106  33.680  1.00  0.00     0.040 A 
ATOM     88  F   UNL A   1      46.229  25.565  32.080  1.00  0.00    -0.206 F 
ATOM     89  C   UNL A   1      44.647  23.758  34.714  1.00  0.00     0.006 A 
ENDBRANCH  65  82
ENDBRANCH  39  40
ENDBRANCH  32  34
ENDBRANCH  31  32
ENDBRANCH  30  31
ENDBRANCH  29  30
ENDBRANCH  28  29
ENDBRANCH  27  28
ENDBRANCH   1  27
TORSDOF 20
ENDMDL
MODEL 3
REMARK VINA RESULT:     -12.4      4.670      8.858
REMARK SMILES Cc1ccc(Nc2c(Cl)cc(Cl)cc2Cl)c(CC(=O)OCCOCCOCCOC(=O)c2ccc(-c3c4nc(c(-c5c(F)cccc5F)c5ccc([nH]5)c(-c5c(F)cccc5F)c5nc(c(-c6c(F)cccc6F)c6ccc3[nH]6)C=C5)C=C4)cc2)c1
REMARK SMILES IDX 24 1 23 2 22 3 21 4 20 5 18 6 19 7 17 8 16 9 1 10 2 11 3 12
REMARK SMILES IDX 86 13 4 14 5 15 6 16 7 18 8 19 14 20 9 21 10 22 13 23 15 24
REMARK SMILES IDX 11 25 12 26 25 27 26 28 27 29 28 30 29 31 30 32 31 33 32 34
REMARK SMILES IDX 33 35 85 36 34 37 84 38 35 39 36 40 37 41 78 42 38 43 83 44
REMARK SMILES IDX 77 45 79 46 39 47 82 48 76 49 75 50 40 52 66 53 49 54 65 55
REMARK SMILES IDX 50 56 53 57 64 58 80 59 51 60 52 61 63 63 81 64 54 65 41 66
REMARK SMILES IDX 42 67 47 68 43 69 44 70 46 71 48 72 45 73 67 74 68 75 73 76
REMARK SMILES IDX 69 77 70 78 72 79 74 80 71 81 55 82 56 83 61 84 57 85 58 86
REMARK SMILES IDX 60 87 62 88 59 89
REMARK H PARENT 6 17 79 51 53 62
REMARK Flexibility Score: inf
ROOT
ATOM      1  C   UNL A   1      38.476  22.457  26.166  1.00  0.00     0.188 C 
ENDROOT
BRANCH   1   2
ATOM      2  O   UNL A   1      38.206  21.649  25.053  1.00  0.00    -0.376 OA
BRANCH   2   3
ATOM      3  C   UNL A   1      36.964  21.734  24.387  1.00  0.00     0.202 C 
BRANCH   3   4
ATOM      4  C   UNL A   1      35.734  22.808  24.381  1.00  0.00     0.261 C 
BRANCH   4   5
ATOM      5  O   UNL A   1      34.985  24.089  23.300  1.00  0.00    -0.463 OA
BRANCH   5   6
ATOM      6  C   UNL A   1      33.567  24.845  22.873  1.00  0.00     0.310 C 
ATOM      7  O   UNL A   1      32.516  24.472  22.327  1.00  0.00    -0.252 OA
BRANCH   6   8
ATOM      8  C   UNL A   1      33.378  26.095  23.526  1.00  0.00     0.160 C 
BRANCH   8   9
ATOM      9  C   UNL A   1      32.975  25.670  24.881  1.00  0.00    -0.013 A 
ATOM     10  C   UNL A   1      33.001  28.851  27.073  1.00  0.00     0.044 C 
ATOM     11  C   UNL A   1      32.542  27.580  26.439  1.00  0.00    -0.051 A 
ATOM     12  C   UNL A   1      31.252  27.132  26.495  1.00  0.00     0.005 A 
ATOM     13  C   UNL A   1      33.395  26.846  25.652  1.00  0.00     0.009 A 
ATOM     14  C   UNL A   1      30.889  25.944  25.804  1.00  0.00     0.026 A 
ATOM     15  C   UNL A   1      31.823  24.863  25.053  1.00  0.00     0.042 A 
BRANCH  15  16
ATOM     16  N   UNL A   1      31.346  22.884  24.901  1.00  0.00    -0.353 N 
ATOM     17  H   UNL A   1      30.399  22.693  25.085  1.00  0.00     0.167 HD
BRANCH  16  18
ATOM     18  C   UNL A   1      32.334  21.385  24.488  1.00  0.00     0.076 A 
ATOM     19  C   UNL A   1      32.239  20.530  23.171  1.00  0.00     0.067 A 
ATOM     20  C   UNL A   1      32.928  20.627  25.539  1.00  0.00     0.067 A 
ATOM     21  Cl  UNL A   1      31.671  20.829  21.496  1.00  0.00    -0.082 Cl
ATOM     22  C   UNL A   1      32.571  19.156  23.111  1.00  0.00     0.043 A 
ATOM     23  C   UNL A   1      33.237  19.229  25.384  1.00  0.00     0.043 A 
ATOM     24  Cl  UNL A   1      33.461  21.155  27.056  1.00  0.00    -0.082 Cl
ATOM     25  C   UNL A   1      33.007  18.503  24.225  1.00  0.00     0.044 A 
ATOM     26  Cl  UNL A   1      33.178  16.792  24.182  1.00  0.00    -0.084 Cl
ENDBRANCH  16  18
ENDBRANCH  15  16
ENDBRANCH   8   9
ENDBRANCH   6   8
ENDBRANCH   5   6
ENDBRANCH   4   5
ENDBRANCH   3   4
ENDBRANCH   2   3
ENDBRANCH   1   2
BRANCH   1  27
ATOM     27  C   UNL A   1      39.916  22.798  26.479  1.00  0.00     0.188 C 
BRANCH  27  28
ATOM     28  O   UNL A   1      40.406  22.201  27.653  1.00  0.00    -0.376 OA
BRANCH  28  29
ATOM     29  C   UNL A   1      41.814  22.023  27.669  1.00  0.00     0.202 C 
BRANCH  29  30
ATOM     30  C   UNL A   1      42.741  23.288  27.458  1.00  0.00     0.261 C 
BRANCH  30  31
ATOM     31  O   UNL A   1      42.525  24.415  28.401  1.00  0.00    -0.460 OA
BRANCH  31  32
ATOM     32  C   UNL A   1      42.329  25.762  28.014  1.00  0.00     0.338 C 
ATOM     33  O   UNL A   1      43.282  26.348  27.536  1.00  0.00    -0.246 OA
BRANCH  32  34
ATOM     34  C   UNL A   1      40.733  26.363  28.340  1.00  0.00     0.060 A 
ATOM     35  C   UNL A   1      39.437  27.672  27.625  1.00  0.00     0.016 A 
ATOM     36  C   UNL A   1      41.484  26.906  29.886  1.00  0.00     0.016 A 
ATOM     37  C   UNL A   1      39.349  29.392  28.434  1.00  0.00     0.010 A 
ATOM     38  C   UNL A   1      41.366  28.539  30.454  1.00  0.00     0.010 A 
ATOM     39  C   UNL A   1      40.379  29.903  29.862  1.00  0.00    -0.014 A 
BRANCH  39  40
ATOM     40  C   UNL A   1      40.419  31.381  31.067  1.00  0.00     0.031 A 
ATOM     41  C   UNL A   1      41.762  31.742  32.411  1.00  0.00     0.074 A 
ATOM     42  C   UNL A   1      39.682  32.505  30.898  1.00  0.00     0.049 A 
ATOM     43  N   UNL A   1      41.643  31.695  33.731  1.00  0.00    -0.248 NA
ATOM     44  C   UNL A   1      43.438  31.565  32.272  1.00  0.00     0.031 C 
ATOM     45  C   UNL A   1      39.931  33.842  31.474  1.00  0.00     0.029 A 
ATOM     46  N   UNL A   1      38.604  32.754  30.057  1.00  0.00    -0.354 N 
ATOM     47  C   UNL A   1      42.961  31.690  34.304  1.00  0.00     0.074 A 
ATOM     48  C   UNL A   1      43.828  31.039  33.413  1.00  0.00     0.031 C 
ATOM     49  C   UNL A   1      38.855  34.630  31.262  1.00  0.00     0.029 A 
ATOM     50  C   UNL A   1      37.848  33.789  30.641  1.00  0.00     0.049 A 
ATOM     51  H   UNL A   1      38.405  32.292  29.210  1.00  0.00     0.167 HD
ATOM     52  C   UNL A   1      43.455  32.739  35.040  1.00  0.00     0.037 A 
ATOM     53  C   UNL A   1      36.644  33.429  31.156  1.00  0.00     0.037 A 
ATOM     54  C   UNL A   1      42.416  33.742  35.047  1.00  0.00     0.049 A 
ATOM     55  C   UNL A   1      36.797  33.399  32.662  1.00  0.00     0.074 A 
ATOM     56  C   UNL A   1      42.191  34.899  34.324  1.00  0.00     0.029 A 
ATOM     57  N   UNL A   1      41.182  33.311  35.486  1.00  0.00    -0.354 N 
ATOM     58  N   UNL A   1      37.942  33.246  33.285  1.00  0.00    -0.248 NA
ATOM     59  C   UNL A   1      35.718  33.773  33.566  1.00  0.00     0.031 C 
ATOM     60  C   UNL A   1      40.776  35.136  34.339  1.00  0.00     0.029 A 
ATOM     61  C   UNL A   1      40.158  34.102  35.029  1.00  0.00     0.049 A 
ATOM     62  H   UNL A   1      41.051  32.524  36.062  1.00  0.00     0.167 HD
ATOM     63  C   UNL A   1      37.806  33.617  34.589  1.00  0.00     0.074 A 
ATOM     64  C   UNL A   1      36.389  33.907  34.723  1.00  0.00     0.031 C 
ATOM     65  C   UNL A   1      38.824  33.755  35.489  1.00  0.00     0.037 A 
BRANCH  52  66
ATOM     66  C   UNL A   1      44.942  32.976  35.384  1.00  0.00     0.057 A 
ATOM     67  C   UNL A   1      45.553  32.231  36.410  1.00  0.00     0.134 A 
ATOM     68  C   UNL A   1      45.841  33.863  34.732  1.00  0.00     0.134 A 
ATOM     69  F   UNL A   1      44.867  31.314  37.103  1.00  0.00    -0.206 F 
ATOM     70  C   UNL A   1      46.907  32.365  36.769  1.00  0.00     0.040 A 
ATOM     71  C   UNL A   1      47.184  34.052  35.123  1.00  0.00     0.040 A 
ATOM     72  F   UNL A   1      45.493  34.561  33.642  1.00  0.00    -0.206 F 
ATOM     73  C   UNL A   1      47.728  33.285  36.138  1.00  0.00     0.006 A 
ENDBRANCH  52  66
BRANCH  53  74
ATOM     74  C   UNL A   1      35.995  32.472  30.196  1.00  0.00     0.057 A 
ATOM     75  C   UNL A   1      35.582  33.015  28.947  1.00  0.00     0.134 A 
ATOM     76  C   UNL A   1      36.240  31.093  30.216  1.00  0.00     0.134 A 
ATOM     77  F   UNL A   1      35.439  34.344  28.805  1.00  0.00    -0.206 F 
ATOM     78  C   UNL A   1      35.476  32.245  27.785  1.00  0.00     0.040 A 
ATOM     79  C   UNL A   1      36.128  30.310  29.055  1.00  0.00     0.040 A 
ATOM     80  F   UNL A   1      36.724  30.502  31.316  1.00  0.00    -0.206 F 
ATOM     81  C   UNL A   1      35.725  30.880  27.849  1.00  0.00     0.006 A 
ENDBRANCH  53  74
BRANCH  65  82
ATOM     82  C   UNL A   1      38.624  33.521  36.974  1.00  0.00     0.057 A 
ATOM     83  C   UNL A   1      38.852  34.510  37.940  1.00  0.00     0.134 A 
ATOM     84  C   UNL A   1      38.012  32.343  37.474  1.00  0.00     0.134 A 
ATOM     85  F   UNL A   1      39.239  35.751  37.616  1.00  0.00    -0.206 F 
ATOM     86  C   UNL A   1      38.645  34.287  39.300  1.00  0.00     0.040 A 
ATOM     87  C   UNL A   1      37.668  32.170  38.811  1.00  0.00     0.040 A 
ATOM     88  F   UNL A   1      37.686  31.301  36.695  1.00  0.00    -0.206 F 
ATOM     89  C   UNL A   1      38.039  33.120  39.740  1.00  0.00     0.006 A 
ENDBRANCH  65  82
ENDBRANCH  39  40
ENDBRANCH  32  34
ENDBRANCH  31  32
ENDBRANCH  30  31
ENDBRANCH  29  30
ENDBRANCH  28  29
ENDBRANCH  27  28
ENDBRANCH   1  27
TORSDOF 20
ENDMDL
