MODEL 1
REMARK VINA RESULT:     -10.9      0.000      0.000
REMARK SMILES O=C(OCCOCCOCCOC(=O)[C@H]1CC=CC[C@H]1C(=O)N[C@@H]1CCN(c2cccc(Cl)c2)C1)c1ccc(-c2c3nc(c(-c4c(F)cccc4F)c4ccc([nH]4)c(-c4c(F)cccc4F)c4nc(c(-c5c(F)cccc5F)c5ccc2[nH]5)C=C4)C=C3)cc1
REMARK SMILES IDX 8 1 7 2 6 3 5 4 4 5 3 6 2 7 1 8 36 9 37 10 89 11 38 12 88 13
REMARK SMILES IDX 39 14 40 15 41 16 82 17 42 18 87 19 81 20 83 21 43 22 86 23
REMARK SMILES IDX 80 24 79 25 44 27 70 28 53 29 69 30 54 31 57 32 68 33 84 34
REMARK SMILES IDX 55 35 56 36 67 38 85 39 58 40 45 41 46 42 51 43 47 44 48 45
REMARK SMILES IDX 50 46 52 47 49 48 71 49 72 50 77 51 73 52 74 53 76 54 78 55
REMARK SMILES IDX 75 56 59 57 60 58 65 59 61 60 62 61 64 62 66 63 63 64 9 65
REMARK SMILES IDX 10 66 11 67 12 68 13 69 14 70 15 71 16 72 20 73 17 74 19 75
REMARK SMILES IDX 18 76 21 77 22 78 23 79 24 81 25 82 35 83 26 84 27 85 28 86
REMARK SMILES IDX 29 87 34 88 30 89 32 90 31 91 33 92
REMARK H PARENT 83 26 57 37 23 80
REMARK Flexibility Score: inf
ROOT
ATOM      1  C   UNL A   1      35.709  22.520  24.078  1.00  0.00     0.188 C 
ENDROOT
BRANCH   1   2
ATOM      2  C   UNL A   1      37.179  22.166  24.311  1.00  0.00     0.188 C 
BRANCH   2   3
ATOM      3  O   UNL A   1      37.582  21.635  25.573  1.00  0.00    -0.376 OA
BRANCH   3   4
ATOM      4  C   UNL A   1      38.957  21.271  25.697  1.00  0.00     0.202 C 
BRANCH   4   5
ATOM      5  C   UNL A   1      39.870  22.106  26.612  1.00  0.00     0.261 C 
BRANCH   5   6
ATOM      6  O   UNL A   1      40.160  23.450  26.202  1.00  0.00    -0.460 OA
BRANCH   6   7
ATOM      7  C   UNL A   1      41.045  24.357  26.668  1.00  0.00     0.338 C 
ATOM      8  O   UNL A   1      42.243  24.116  26.510  1.00  0.00    -0.246 OA
BRANCH   7   9
ATOM      9  C   UNL A   1      40.689  25.605  27.419  1.00  0.00     0.060 A 
ATOM     10  C   UNL A   1      41.308  26.849  27.291  1.00  0.00     0.016 A 
ATOM     11  C   UNL A   1      39.650  25.485  28.369  1.00  0.00     0.016 A 
ATOM     12  C   UNL A   1      40.947  27.921  28.107  1.00  0.00     0.010 A 
ATOM     13  C   UNL A   1      39.307  26.541  29.217  1.00  0.00     0.010 A 
ATOM     14  C   UNL A   1      39.995  27.748  29.114  1.00  0.00    -0.014 A 
BRANCH  14  15
ATOM     15  C   UNL A   1      39.980  28.731  30.216  1.00  0.00     0.031 A 
ATOM     16  C   UNL A   1      38.871  29.731  30.214  1.00  0.00     0.074 A 
ATOM     17  C   UNL A   1      40.874  28.678  31.215  1.00  0.00     0.049 A 
ATOM     18  N   UNL A   1      38.607  30.672  31.075  1.00  0.00    -0.248 NA
ATOM     19  C   UNL A   1      37.952  29.687  29.062  1.00  0.00     0.031 C 
ATOM     20  C   UNL A   1      42.002  27.766  31.256  1.00  0.00     0.029 A 
ATOM     21  N   UNL A   1      40.947  29.353  32.404  1.00  0.00    -0.354 N 
ATOM     22  C   UNL A   1      37.551  31.385  30.527  1.00  0.00     0.074 A 
ATOM     23  C   UNL A   1      37.173  30.726  29.300  1.00  0.00     0.031 C 
ATOM     24  C   UNL A   1      42.567  27.820  32.472  1.00  0.00     0.029 A 
ATOM     25  C   UNL A   1      41.913  28.860  33.252  1.00  0.00     0.049 A 
ATOM     26  H   UNL A   1      40.367  30.116  32.630  1.00  0.00     0.167 HD
ATOM     27  C   UNL A   1      37.009  32.535  30.983  1.00  0.00     0.037 A 
ATOM     28  C   UNL A   1      42.234  29.228  34.508  1.00  0.00     0.037 A 
ATOM     29  C   UNL A   1      37.457  33.184  32.183  1.00  0.00     0.049 A 
ATOM     30  C   UNL A   1      41.549  30.453  35.050  1.00  0.00     0.074 A 
ATOM     31  C   UNL A   1      37.055  34.392  32.719  1.00  0.00     0.029 A 
ATOM     32  N   UNL A   1      38.433  32.668  33.031  1.00  0.00    -0.354 N 
ATOM     33  N   UNL A   1      40.586  31.161  34.504  1.00  0.00    -0.248 NA
ATOM     34  C   UNL A   1      42.041  30.986  36.325  1.00  0.00     0.031 C 
ATOM     35  C   UNL A   1      37.821  34.628  33.866  1.00  0.00     0.029 A 
ATOM     36  C   UNL A   1      38.655  33.539  34.081  1.00  0.00     0.049 A 
ATOM     37  H   UNL A   1      38.897  31.810  32.901  1.00  0.00     0.167 HD
ATOM     38  C   UNL A   1      40.391  32.250  35.339  1.00  0.00     0.074 A 
ATOM     39  C   UNL A   1      41.293  32.075  36.462  1.00  0.00     0.031 C 
ATOM     40  C   UNL A   1      39.571  33.318  35.176  1.00  0.00     0.037 A 
BRANCH  27  41
ATOM     41  C   UNL A   1      36.010  33.200  30.082  1.00  0.00     0.057 A 
ATOM     42  C   UNL A   1      34.627  33.116  30.294  1.00  0.00     0.134 A 
ATOM     43  C   UNL A   1      36.445  33.838  28.913  1.00  0.00     0.134 A 
ATOM     44  F   UNL A   1      34.142  32.478  31.370  1.00  0.00    -0.206 F 
ATOM     45  C   UNL A   1      33.715  33.600  29.353  1.00  0.00     0.040 A 
ATOM     46  C   UNL A   1      35.543  34.353  27.981  1.00  0.00     0.040 A 
ATOM     47  F   UNL A   1      37.754  33.940  28.638  1.00  0.00    -0.206 F 
ATOM     48  C   UNL A   1      34.172  34.221  28.192  1.00  0.00     0.006 A 
ENDBRANCH  27  41
BRANCH  28  49
ATOM     49  C   UNL A   1      43.266  28.486  35.286  1.00  0.00     0.057 A 
ATOM     50  C   UNL A   1      44.628  28.798  35.173  1.00  0.00     0.134 A 
ATOM     51  C   UNL A   1      42.925  27.475  36.196  1.00  0.00     0.134 A 
ATOM     52  F   UNL A   1      45.037  29.732  34.302  1.00  0.00    -0.206 F 
ATOM     53  C   UNL A   1      45.601  28.149  35.941  1.00  0.00     0.040 A 
ATOM     54  C   UNL A   1      43.881  26.846  36.998  1.00  0.00     0.040 A 
ATOM     55  F   UNL A   1      41.645  27.106  36.349  1.00  0.00    -0.206 F 
ATOM     56  C   UNL A   1      45.226  27.182  36.870  1.00  0.00     0.006 A 
ENDBRANCH  28  49
BRANCH  40  57
ATOM     57  C   UNL A   1      39.617  34.374  36.234  1.00  0.00     0.057 A 
ATOM     58  C   UNL A   1      38.922  34.231  37.442  1.00  0.00     0.134 A 
ATOM     59  C   UNL A   1      40.442  35.493  36.081  1.00  0.00     0.134 A 
ATOM     60  F   UNL A   1      38.110  33.182  37.641  1.00  0.00    -0.206 F 
ATOM     61  C   UNL A   1      39.047  35.172  38.463  1.00  0.00     0.040 A 
ATOM     62  C   UNL A   1      40.592  36.428  37.103  1.00  0.00     0.040 A 
ATOM     63  F   UNL A   1      41.139  35.674  34.949  1.00  0.00    -0.206 F 
ATOM     64  C   UNL A   1      39.892  36.268  38.298  1.00  0.00     0.006 A 
ENDBRANCH  40  57
ENDBRANCH  14  15
ENDBRANCH   7   9
ENDBRANCH   6   7
ENDBRANCH   5   6
ENDBRANCH   4   5
ENDBRANCH   3   4
ENDBRANCH   2   3
ENDBRANCH   1   2
BRANCH   1  65
ATOM     65  O   UNL A   1      35.437  23.510  23.105  1.00  0.00    -0.376 OA
BRANCH  65  66
ATOM     66  C   UNL A   1      34.187  24.177  23.216  1.00  0.00     0.202 C 
BRANCH  66  67
ATOM     67  C   UNL A   1      34.134  25.668  22.894  1.00  0.00     0.261 C 
BRANCH  67  68
ATOM     68  O   UNL A   1      33.252  26.449  23.744  1.00  0.00    -0.463 OA
BRANCH  68  69
ATOM     69  C   UNL A   1      33.749  27.633  24.202  1.00  0.00     0.310 C 
ATOM     70  O   UNL A   1      34.395  28.406  23.498  1.00  0.00    -0.252 OA
BRANCH  69  71
ATOM     71  C   UNL A   1      33.508  27.932  25.687  1.00  0.00     0.115 C 
ATOM     72  C   UNL A   1      34.585  28.756  26.427  1.00  0.00     0.043 C 
ATOM     73  C   UNL A   1      32.026  28.301  25.995  1.00  0.00     0.096 C 
ATOM     74  C   UNL A   1      34.136  30.045  27.039  1.00  0.00    -0.030 C 
ATOM     75  C   UNL A   1      31.727  29.435  26.997  1.00  0.00     0.041 C 
ATOM     76  C   UNL A   1      32.865  30.334  27.327  1.00  0.00    -0.030 C 
BRANCH  73  77
ATOM     77  C   UNL A   1      31.015  28.369  24.837  1.00  0.00     0.224 C 
ATOM     78  O   UNL A   1      30.846  29.450  24.260  1.00  0.00    -0.275 OA
ATOM     79  N   UNL A   1      30.366  27.303  24.290  1.00  0.00    -0.351 N 
ATOM     80  H   UNL A   1      30.128  27.437  23.345  1.00  0.00     0.163 HD
BRANCH  79  81
ATOM     81  C   UNL A   1      29.952  26.005  24.808  1.00  0.00     0.103 C 
ATOM     82  C   UNL A   1      30.023  25.825  26.294  1.00  0.00     0.048 C 
ATOM     83  C   UNL A   1      30.766  24.759  24.356  1.00  0.00     0.141 C 
ATOM     84  C   UNL A   1      29.752  24.364  26.503  1.00  0.00     0.119 C 
ATOM     85  N   UNL A   1      30.586  23.772  25.458  1.00  0.00    -0.369 N 
BRANCH  85  86
ATOM     86  C   UNL A   1      31.575  22.913  25.924  1.00  0.00     0.038 A 
ATOM     87  C   UNL A   1      32.451  23.330  26.950  1.00  0.00     0.026 A 
ATOM     88  C   UNL A   1      31.807  21.653  25.370  1.00  0.00     0.046 A 
ATOM     89  C   UNL A   1      33.581  22.595  27.309  1.00  0.00     0.004 A 
ATOM     90  C   UNL A   1      32.932  20.907  25.735  1.00  0.00     0.043 A 
ATOM     91  C   UNL A   1      33.833  21.384  26.683  1.00  0.00     0.020 A 
ATOM     92  Cl  UNL A   1      33.228  19.395  24.966  1.00  0.00    -0.084 Cl
ENDBRANCH  85  86
ENDBRANCH  79  81
ENDBRANCH  73  77
ENDBRANCH  69  71
ENDBRANCH  68  69
ENDBRANCH  67  68
ENDBRANCH  66  67
ENDBRANCH  65  66
ENDBRANCH   1  65
TORSDOF 20
ENDMDL
MODEL 2
REMARK VINA RESULT:     -10.9      4.850      9.441
REMARK SMILES O=C(OCCOCCOCCOC(=O)[C@H]1CC=CC[C@H]1C(=O)N[C@@H]1CCN(c2cccc(Cl)c2)C1)c1ccc(-c2c3nc(c(-c4c(F)cccc4F)c4ccc([nH]4)c(-c4c(F)cccc4F)c4nc(c(-c5c(F)cccc5F)c5ccc2[nH]5)C=C4)C=C3)cc1
REMARK SMILES IDX 8 1 7 2 6 3 5 4 4 5 3 6 2 7 1 8 36 9 37 10 89 11 38 12 88 13
REMARK SMILES IDX 39 14 40 15 41 16 82 17 42 18 87 19 81 20 83 21 43 22 86 23
REMARK SMILES IDX 80 24 79 25 44 27 70 28 53 29 69 30 54 31 57 32 68 33 84 34
REMARK SMILES IDX 55 35 56 36 67 38 85 39 58 40 45 41 46 42 51 43 47 44 48 45
REMARK SMILES IDX 50 46 52 47 49 48 71 49 72 50 77 51 73 52 74 53 76 54 78 55
REMARK SMILES IDX 75 56 59 57 60 58 65 59 61 60 62 61 64 62 66 63 63 64 9 65
REMARK SMILES IDX 10 66 11 67 12 68 13 69 14 70 15 71 16 72 20 73 17 74 19 75
REMARK SMILES IDX 18 76 21 77 22 78 23 79 24 81 25 82 35 83 26 84 27 85 28 86
REMARK SMILES IDX 29 87 34 88 30 89 32 90 31 91 33 92
REMARK H PARENT 83 26 57 37 23 80
REMARK Flexibility Score: inf
ROOT
ATOM      1  C   UNL A   1      32.824  32.707  27.626  1.00  0.00     0.188 C 
ENDROOT
BRANCH   1   2
ATOM      2  C   UNL A   1      33.368  34.037  28.152  1.00  0.00     0.188 C 
BRANCH   2   3
ATOM      3  O   UNL A   1      32.997  34.481  29.457  1.00  0.00    -0.376 OA
BRANCH   3   4
ATOM      4  C   UNL A   1      34.005  34.398  30.465  1.00  0.00     0.202 C 
BRANCH   4   5
ATOM      5  C   UNL A   1      35.274  33.574  30.184  1.00  0.00     0.261 C 
BRANCH   5   6
ATOM      6  O   UNL A   1      35.223  32.170  30.470  1.00  0.00    -0.460 OA
BRANCH   6   7
ATOM      7  C   UNL A   1      36.040  31.373  31.193  1.00  0.00     0.338 C 
ATOM      8  O   UNL A   1      35.915  31.392  32.418  1.00  0.00    -0.246 OA
BRANCH   7   9
ATOM      9  C   UNL A   1      37.130  30.513  30.627  1.00  0.00     0.060 A 
ATOM     10  C   UNL A   1      37.966  29.660  31.348  1.00  0.00     0.016 A 
ATOM     11  C   UNL A   1      37.344  30.615  29.234  1.00  0.00     0.016 A 
ATOM     12  C   UNL A   1      39.006  28.972  30.725  1.00  0.00     0.010 A 
ATOM     13  C   UNL A   1      38.406  29.961  28.606  1.00  0.00     0.010 A 
ATOM     14  C   UNL A   1      39.268  29.175  29.368  1.00  0.00    -0.014 A 
BRANCH  14  15
ATOM     15  C   UNL A   1      40.608  28.808  28.868  1.00  0.00     0.031 A 
ATOM     16  C   UNL A   1      41.692  29.823  29.036  1.00  0.00     0.074 A 
ATOM     17  C   UNL A   1      40.859  27.593  28.360  1.00  0.00     0.049 A 
ATOM     18  N   UNL A   1      42.952  29.743  28.718  1.00  0.00    -0.248 NA
ATOM     19  C   UNL A   1      41.290  31.121  29.608  1.00  0.00     0.031 C 
ATOM     20  C   UNL A   1      39.847  26.580  28.124  1.00  0.00     0.029 A 
ATOM     21  N   UNL A   1      42.032  26.982  28.006  1.00  0.00    -0.354 N 
ATOM     22  C   UNL A   1      43.474  31.003  28.969  1.00  0.00     0.074 A 
ATOM     23  C   UNL A   1      42.416  31.807  29.533  1.00  0.00     0.031 C 
ATOM     24  C   UNL A   1      40.448  25.420  27.817  1.00  0.00     0.029 A 
ATOM     25  C   UNL A   1      41.883  25.644  27.715  1.00  0.00     0.049 A 
ATOM     26  H   UNL A   1      42.896  27.451  27.964  1.00  0.00     0.167 HD
ATOM     27  C   UNL A   1      44.712  31.457  28.672  1.00  0.00     0.037 A 
ATOM     28  C   UNL A   1      42.808  24.720  27.388  1.00  0.00     0.037 A 
ATOM     29  C   UNL A   1      45.715  30.633  28.059  1.00  0.00     0.049 A 
ATOM     30  C   UNL A   1      44.209  25.216  27.159  1.00  0.00     0.074 A 
ATOM     31  C   UNL A   1      46.981  30.981  27.630  1.00  0.00     0.029 A 
ATOM     32  N   UNL A   1      45.548  29.281  27.775  1.00  0.00    -0.354 N 
ATOM     33  N   UNL A   1      44.689  26.426  27.343  1.00  0.00    -0.248 NA
ATOM     34  C   UNL A   1      45.173  24.264  26.598  1.00  0.00     0.031 C 
ATOM     35  C   UNL A   1      47.561  29.851  27.045  1.00  0.00     0.029 A 
ATOM     36  C   UNL A   1      46.684  28.781  27.166  1.00  0.00     0.049 A 
ATOM     37  H   UNL A   1      44.740  28.757  27.978  1.00  0.00     0.167 HD
ATOM     38  C   UNL A   1      45.993  26.395  26.875  1.00  0.00     0.074 A 
ATOM     39  C   UNL A   1      46.248  25.029  26.456  1.00  0.00     0.031 C 
ATOM     40  C   UNL A   1      46.886  27.409  26.763  1.00  0.00     0.037 A 
BRANCH  27  41
ATOM     41  C   UNL A   1      44.944  32.926  28.869  1.00  0.00     0.057 A 
ATOM     42  C   UNL A   1      44.619  33.881  27.897  1.00  0.00     0.134 A 
ATOM     43  C   UNL A   1      45.617  33.376  30.014  1.00  0.00     0.134 A 
ATOM     44  F   UNL A   1      44.015  33.511  26.756  1.00  0.00    -0.206 F 
ATOM     45  C   UNL A   1      44.995  35.219  28.034  1.00  0.00     0.040 A 
ATOM     46  C   UNL A   1      45.971  34.715  30.175  1.00  0.00     0.040 A 
ATOM     47  F   UNL A   1      45.974  32.514  30.977  1.00  0.00    -0.206 F 
ATOM     48  C   UNL A   1      45.674  35.639  29.176  1.00  0.00     0.006 A 
ENDBRANCH  27  41
BRANCH  28  49
ATOM     49  C   UNL A   1      42.432  23.289  27.202  1.00  0.00     0.057 A 
ATOM     50  C   UNL A   1      42.148  22.463  28.298  1.00  0.00     0.134 A 
ATOM     51  C   UNL A   1      42.301  22.715  25.930  1.00  0.00     0.134 A 
ATOM     52  F   UNL A   1      42.280  22.929  29.548  1.00  0.00    -0.206 F 
ATOM     53  C   UNL A   1      41.738  21.135  28.136  1.00  0.00     0.040 A 
ATOM     54  C   UNL A   1      41.853  21.403  25.751  1.00  0.00     0.040 A 
ATOM     55  F   UNL A   1      42.571  23.435  24.832  1.00  0.00    -0.206 F 
ATOM     56  C   UNL A   1      41.572  20.608  26.857  1.00  0.00     0.006 A 
ENDBRANCH  28  49
BRANCH  40  57
ATOM     57  C   UNL A   1      48.216  27.077  26.164  1.00  0.00     0.057 A 
ATOM     58  C   UNL A   1      49.272  26.593  26.947  1.00  0.00     0.134 A 
ATOM     59  C   UNL A   1      48.406  27.148  24.779  1.00  0.00     0.134 A 
ATOM     60  F   UNL A   1      49.149  26.510  28.280  1.00  0.00    -0.206 F 
ATOM     61  C   UNL A   1      50.475  26.193  26.370  1.00  0.00     0.040 A 
ATOM     62  C   UNL A   1      49.596  26.730  24.189  1.00  0.00     0.040 A 
ATOM     63  F   UNL A   1      47.424  27.594  23.981  1.00  0.00    -0.206 F 
ATOM     64  C   UNL A   1      50.636  26.251  24.986  1.00  0.00     0.006 A 
ENDBRANCH  40  57
ENDBRANCH  14  15
ENDBRANCH   7   9
ENDBRANCH   6   7
ENDBRANCH   5   6
ENDBRANCH   4   5
ENDBRANCH   3   4
ENDBRANCH   2   3
ENDBRANCH   1   2
BRANCH   1  65
ATOM     65  O   UNL A   1      33.651  31.572  27.785  1.00  0.00    -0.376 OA
BRANCH  65  66
ATOM     66  C   UNL A   1      33.478  30.528  26.836  1.00  0.00     0.202 C 
BRANCH  66  67
ATOM     67  C   UNL A   1      33.764  29.095  27.279  1.00  0.00     0.261 C 
BRANCH  67  68
ATOM     68  O   UNL A   1      33.117  28.066  26.485  1.00  0.00    -0.463 OA
BRANCH  68  69
ATOM     69  C   UNL A   1      31.757  28.000  26.577  1.00  0.00     0.310 C 
ATOM     70  O   UNL A   1      31.165  27.818  27.638  1.00  0.00    -0.252 OA
BRANCH  69  71
ATOM     71  C   UNL A   1      30.990  28.108  25.252  1.00  0.00     0.115 C 
ATOM     72  C   UNL A   1      31.654  28.913  24.115  1.00  0.00     0.043 C 
ATOM     73  C   UNL A   1      30.303  26.771  24.842  1.00  0.00     0.096 C 
ATOM     74  C   UNL A   1      31.919  28.175  22.840  1.00  0.00    -0.030 C 
ATOM     75  C   UNL A   1      30.324  26.341  23.360  1.00  0.00     0.041 C 
ATOM     76  C   UNL A   1      31.300  27.046  22.487  1.00  0.00    -0.030 C 
BRANCH  73  77
ATOM     77  C   UNL A   1      30.490  25.530  25.732  1.00  0.00     0.224 C 
ATOM     78  O   UNL A   1      29.577  25.211  26.503  1.00  0.00    -0.275 OA
ATOM     79  N   UNL A   1      31.531  24.654  25.660  1.00  0.00    -0.351 N 
ATOM     80  H   UNL A   1      31.295  23.745  25.953  1.00  0.00     0.163 HD
BRANCH  79  81
ATOM     81  C   UNL A   1      32.922  24.780  25.241  1.00  0.00     0.103 C 
ATOM     82  C   UNL A   1      33.285  24.152  23.931  1.00  0.00     0.048 C 
ATOM     83  C   UNL A   1      34.005  24.130  26.150  1.00  0.00     0.141 C 
ATOM     84  C   UNL A   1      34.781  24.251  23.874  1.00  0.00     0.119 C 
ATOM     85  N   UNL A   1      35.141  23.838  25.229  1.00  0.00    -0.369 N 
BRANCH  85  86
ATOM     86  C   UNL A   1      35.943  22.704  25.295  1.00  0.00     0.038 A 
ATOM     87  C   UNL A   1      37.333  22.829  25.505  1.00  0.00     0.026 A 
ATOM     88  C   UNL A   1      35.450  21.414  25.087  1.00  0.00     0.046 A 
ATOM     89  C   UNL A   1      38.207  21.749  25.374  1.00  0.00     0.004 A 
ATOM     90  C   UNL A   1      36.321  20.327  24.967  1.00  0.00     0.043 A 
ATOM     91  C   UNL A   1      37.697  20.493  25.085  1.00  0.00     0.020 A 
ATOM     92  Cl  UNL A   1      35.679  18.766  24.626  1.00  0.00    -0.084 Cl
ENDBRANCH  85  86
ENDBRANCH  79  81
ENDBRANCH  73  77
ENDBRANCH  69  71
ENDBRANCH  68  69
ENDBRANCH  67  68
ENDBRANCH  66  67
ENDBRANCH  65  66
ENDBRANCH   1  65
TORSDOF 20
ENDMDL
MODEL 3
REMARK VINA RESULT:     -10.9      5.185      9.907
REMARK SMILES O=C(OCCOCCOCCOC(=O)[C@H]1CC=CC[C@H]1C(=O)N[C@@H]1CCN(c2cccc(Cl)c2)C1)c1ccc(-c2c3nc(c(-c4c(F)cccc4F)c4ccc([nH]4)c(-c4c(F)cccc4F)c4nc(c(-c5c(F)cccc5F)c5ccc2[nH]5)C=C4)C=C3)cc1
REMARK SMILES IDX 8 1 7 2 6 3 5 4 4 5 3 6 2 7 1 8 36 9 37 10 89 11 38 12 88 13
REMARK SMILES IDX 39 14 40 15 41 16 82 17 42 18 87 19 81 20 83 21 43 22 86 23
REMARK SMILES IDX 80 24 79 25 44 27 70 28 53 29 69 30 54 31 57 32 68 33 84 34
REMARK SMILES IDX 55 35 56 36 67 38 85 39 58 40 45 41 46 42 51 43 47 44 48 45
REMARK SMILES IDX 50 46 52 47 49 48 71 49 72 50 77 51 73 52 74 53 76 54 78 55
REMARK SMILES IDX 75 56 59 57 60 58 65 59 61 60 62 61 64 62 66 63 63 64 9 65
REMARK SMILES IDX 10 66 11 67 12 68 13 69 14 70 15 71 16 72 20 73 17 74 19 75
REMARK SMILES IDX 18 76 21 77 22 78 23 79 24 81 25 82 35 83 26 84 27 85 28 86
REMARK SMILES IDX 29 87 34 88 30 89 32 90 31 91 33 92
REMARK H PARENT 83 26 57 37 23 80
REMARK Flexibility Score: inf
ROOT
ATOM      1  C   UNL A   1      34.993  31.665  27.762  1.00  0.00     0.188 C 
ENDROOT
BRANCH   1   2
ATOM      2  C   UNL A   1      34.508  33.045  28.209  1.00  0.00     0.188 C 
BRANCH   2   3
ATOM      3  O   UNL A   1      34.002  33.217  29.533  1.00  0.00    -0.376 OA
BRANCH   3   4
ATOM      4  C   UNL A   1      34.905  33.779  30.487  1.00  0.00     0.202 C 
BRANCH   4   5
ATOM      5  C   UNL A   1      36.382  33.350  30.458  1.00  0.00     0.261 C 
BRANCH   5   6
ATOM      6  O   UNL A   1      36.757  32.228  31.269  1.00  0.00    -0.460 OA
BRANCH   6   7
ATOM      7  C   UNL A   1      36.725  30.899  31.029  1.00  0.00     0.338 C 
ATOM      8  O   UNL A   1      35.692  30.294  31.319  1.00  0.00    -0.246 OA
BRANCH   7   9
ATOM      9  C   UNL A   1      37.868  30.090  30.496  1.00  0.00     0.060 A 
ATOM     10  C   UNL A   1      38.655  29.195  31.222  1.00  0.00     0.016 A 
ATOM     11  C   UNL A   1      38.192  30.290  29.135  1.00  0.00     0.016 A 
ATOM     12  C   UNL A   1      39.751  28.561  30.639  1.00  0.00     0.010 A 
ATOM     13  C   UNL A   1      39.310  29.690  28.551  1.00  0.00     0.010 A 
ATOM     14  C   UNL A   1      40.119  28.860  29.325  1.00  0.00    -0.014 A 
BRANCH  14  15
ATOM     15  C   UNL A   1      41.500  28.540  28.912  1.00  0.00     0.031 A 
ATOM     16  C   UNL A   1      41.728  27.196  28.302  1.00  0.00     0.074 A 
ATOM     17  C   UNL A   1      42.487  29.443  29.006  1.00  0.00     0.049 A 
ATOM     18  N   UNL A   1      42.827  26.682  27.828  1.00  0.00    -0.248 NA
ATOM     19  C   UNL A   1      40.564  26.292  28.254  1.00  0.00     0.031 C 
ATOM     20  C   UNL A   1      42.347  30.746  29.630  1.00  0.00     0.029 A 
ATOM     21  N   UNL A   1      43.772  29.435  28.535  1.00  0.00    -0.354 N 
ATOM     22  C   UNL A   1      42.509  25.370  27.507  1.00  0.00     0.074 A 
ATOM     23  C   UNL A   1      41.102  25.187  27.769  1.00  0.00     0.031 C 
ATOM     24  C   UNL A   1      43.440  31.479  29.370  1.00  0.00     0.029 A 
ATOM     25  C   UNL A   1      44.408  30.651  28.665  1.00  0.00     0.049 A 
ATOM     26  H   UNL A   1      44.200  28.641  28.143  1.00  0.00     0.167 HD
ATOM     27  C   UNL A   1      43.351  24.392  27.105  1.00  0.00     0.037 A 
ATOM     28  C   UNL A   1      45.638  31.032  28.270  1.00  0.00     0.037 A 
ATOM     29  C   UNL A   1      44.757  24.609  26.911  1.00  0.00     0.049 A 
ATOM     30  C   UNL A   1      46.538  29.956  27.726  1.00  0.00     0.074 A 
ATOM     31  C   UNL A   1      45.739  23.695  26.585  1.00  0.00     0.029 A 
ATOM     32  N   UNL A   1      45.381  25.846  27.043  1.00  0.00    -0.354 N 
ATOM     33  N   UNL A   1      46.250  28.699  27.476  1.00  0.00    -0.248 NA
ATOM     34  C   UNL A   1      47.942  30.311  27.493  1.00  0.00     0.031 C 
ATOM     35  C   UNL A   1      46.964  24.370  26.565  1.00  0.00     0.029 A 
ATOM     36  C   UNL A   1      46.739  25.717  26.816  1.00  0.00     0.049 A 
ATOM     37  H   UNL A   1      44.924  26.688  27.266  1.00  0.00     0.167 HD
ATOM     38  C   UNL A   1      47.444  28.100  27.105  1.00  0.00     0.074 A 
ATOM     39  C   UNL A   1      48.448  29.148  27.103  1.00  0.00     0.031 C 
ATOM     40  C   UNL A   1      47.699  26.796  26.830  1.00  0.00     0.037 A 
BRANCH  27  41
ATOM     41  C   UNL A   1      42.772  23.011  27.023  1.00  0.00     0.057 A 
ATOM     42  C   UNL A   1      42.494  22.238  28.158  1.00  0.00     0.134 A 
ATOM     43  C   UNL A   1      42.600  22.403  25.771  1.00  0.00     0.134 A 
ATOM     44  F   UNL A   1      42.681  22.744  29.387  1.00  0.00    -0.206 F 
ATOM     45  C   UNL A   1      42.113  20.898  28.052  1.00  0.00     0.040 A 
ATOM     46  C   UNL A   1      42.190  21.075  25.653  1.00  0.00     0.040 A 
ATOM     47  F   UNL A   1      42.863  23.079  24.643  1.00  0.00    -0.206 F 
ATOM     48  C   UNL A   1      41.960  20.313  26.797  1.00  0.00     0.006 A 
ENDBRANCH  27  41
BRANCH  28  49
ATOM     49  C   UNL A   1      46.094  32.442  28.430  1.00  0.00     0.057 A 
ATOM     50  C   UNL A   1      45.905  33.388  27.414  1.00  0.00     0.134 A 
ATOM     51  C   UNL A   1      46.690  32.900  29.614  1.00  0.00     0.134 A 
ATOM     52  F   UNL A   1      45.370  33.022  26.240  1.00  0.00    -0.206 F 
ATOM     53  C   UNL A   1      46.275  34.728  27.574  1.00  0.00     0.040 A 
ATOM     54  C   UNL A   1      47.027  34.242  29.804  1.00  0.00     0.040 A 
ATOM     55  F   UNL A   1      46.919  32.052  30.627  1.00  0.00    -0.206 F 
ATOM     56  C   UNL A   1      46.821  35.162  28.780  1.00  0.00     0.006 A 
ENDBRANCH  28  49
BRANCH  40  57
ATOM     57  C   UNL A   1      49.115  26.437  26.507  1.00  0.00     0.057 A 
ATOM     58  C   UNL A   1      49.959  25.854  27.461  1.00  0.00     0.134 A 
ATOM     59  C   UNL A   1      49.602  26.586  25.204  1.00  0.00     0.134 A 
ATOM     60  F   UNL A   1      49.548  25.693  28.727  1.00  0.00    -0.206 F 
ATOM     61  C   UNL A   1      51.245  25.433  27.126  1.00  0.00     0.040 A 
ATOM     62  C   UNL A   1      50.877  26.149  24.853  1.00  0.00     0.040 A 
ATOM     63  F   UNL A   1      48.832  27.129  24.249  1.00  0.00    -0.206 F 
ATOM     64  C   UNL A   1      51.702  25.570  25.816  1.00  0.00     0.006 A 
ENDBRANCH  40  57
ENDBRANCH  14  15
ENDBRANCH   7   9
ENDBRANCH   6   7
ENDBRANCH   5   6
ENDBRANCH   4   5
ENDBRANCH   3   4
ENDBRANCH   2   3
ENDBRANCH   1   2
BRANCH   1  65
ATOM     65  O   UNL A   1      34.003  30.736  27.369  1.00  0.00    -0.376 OA
BRANCH  65  66
ATOM     66  C   UNL A   1      34.390  29.369  27.354  1.00  0.00     0.202 C 
BRANCH  66  67
ATOM     67  C   UNL A   1      33.991  28.519  26.151  1.00  0.00     0.261 C 
BRANCH  67  68
ATOM     68  O   UNL A   1      33.109  27.405  26.451  1.00  0.00    -0.463 OA
BRANCH  68  69
ATOM     69  C   UNL A   1      31.790  27.709  26.621  1.00  0.00     0.310 C 
ATOM     70  O   UNL A   1      31.269  27.834  27.727  1.00  0.00    -0.252 OA
BRANCH  69  71
ATOM     71  C   UNL A   1      30.959  27.832  25.337  1.00  0.00     0.115 C 
ATOM     72  C   UNL A   1      31.527  28.722  24.211  1.00  0.00     0.043 C 
ATOM     73  C   UNL A   1      30.329  26.477  24.895  1.00  0.00     0.096 C 
ATOM     74  C   UNL A   1      31.775  28.056  22.894  1.00  0.00    -0.030 C 
ATOM     75  C   UNL A   1      30.306  26.115  23.396  1.00  0.00     0.041 C 
ATOM     76  C   UNL A   1      31.203  26.911  22.515  1.00  0.00    -0.030 C 
BRANCH  73  77
ATOM     77  C   UNL A   1      30.622  25.211  25.718  1.00  0.00     0.224 C 
ATOM     78  O   UNL A   1      29.924  24.974  26.711  1.00  0.00    -0.275 OA
ATOM     79  N   UNL A   1      31.512  24.236  25.379  1.00  0.00    -0.351 N 
ATOM     80  H   UNL A   1      31.272  23.351  25.737  1.00  0.00     0.163 HD
BRANCH  79  81
ATOM     81  C   UNL A   1      32.743  24.226  24.599  1.00  0.00     0.103 C 
ATOM     82  C   UNL A   1      33.111  22.929  23.947  1.00  0.00     0.048 C 
ATOM     83  C   UNL A   1      34.071  24.524  25.353  1.00  0.00     0.141 C 
ATOM     84  C   UNL A   1      34.494  23.162  23.414  1.00  0.00     0.119 C 
ATOM     85  N   UNL A   1      35.121  23.837  24.548  1.00  0.00    -0.369 N 
BRANCH  85  86
ATOM     86  C   UNL A   1      36.221  23.175  25.080  1.00  0.00     0.038 A 
ATOM     87  C   UNL A   1      37.177  23.883  25.841  1.00  0.00     0.026 A 
ATOM     88  C   UNL A   1      36.482  21.825  24.840  1.00  0.00     0.046 A 
ATOM     89  C   UNL A   1      38.394  23.318  26.222  1.00  0.00     0.004 A 
ATOM     90  C   UNL A   1      37.696  21.250  25.229  1.00  0.00     0.043 A 
ATOM     91  C   UNL A   1      38.663  21.997  25.896  1.00  0.00     0.020 A 
ATOM     92  Cl  UNL A   1      38.015  19.604  24.838  1.00  0.00    -0.084 Cl
ENDBRANCH  85  86
ENDBRANCH  79  81
ENDBRANCH  73  77
ENDBRANCH  69  71
ENDBRANCH  68  69
ENDBRANCH  67  68
ENDBRANCH  66  67
ENDBRANCH  65  66
ENDBRANCH   1  65
TORSDOF 20
ENDMDL
