MODEL 1
REMARK VINA RESULT:      -9.4      0.000      0.000
REMARK SMILES CCOC(=O)[C@H]1CCCN(C(=O)N[C@](C)(CC)C(=O)OCCOCCOCCOC(=O)c2ccc(-c3c4nc(c(-c5c(F)cccc5F)c5ccc([nH]5)c(-c5c(F)cccc5F)c5nc(c(-c6c(F)cccc6F)c6ccc3[nH]6)C=C5)C=C4)cc2)C1
REMARK SMILES IDX 23 1 22 2 21 3 20 4 18 5 19 6 14 7 15 8 13 9 11 10 12 11
REMARK SMILES IDX 10 13 6 14 7 15 86 16 8 17 9 18 4 19 5 20 3 21 2 22 1 23
REMARK SMILES IDX 16 24 17 25 24 26 25 27 26 28 27 29 28 30 29 31 30 32 31 33
REMARK SMILES IDX 32 34 33 35 85 36 34 37 84 38 35 39 36 40 37 41 78 42 38 43
REMARK SMILES IDX 83 44 77 45 79 46 39 47 82 48 76 49 75 50 40 52 66 53 49 54
REMARK SMILES IDX 65 55 50 56 53 57 64 58 80 59 51 60 52 61 63 63 81 64 54 65
REMARK SMILES IDX 41 66 42 67 47 68 43 69 44 70 46 71 48 72 45 73 67 74 68 75
REMARK SMILES IDX 73 76 69 77 70 78 72 79 74 80 71 81 55 82 56 83 61 84 57 85
REMARK SMILES IDX 58 86 60 87 62 88 59 89
REMARK H PARENT 13 12 79 51 53 62
REMARK Flexibility Score: inf
ROOT
ATOM      1  O   UNL A   1      34.671  33.083  28.968  1.00  0.00    -0.376 OA
ENDROOT
BRANCH   1   2
ATOM      2  C   UNL A   1      34.462  31.703  28.659  1.00  0.00     0.202 C 
BRANCH   2   3
ATOM      3  C   UNL A   1      33.901  31.421  27.265  1.00  0.00     0.261 C 
BRANCH   3   4
ATOM      4  O   UNL A   1      32.619  30.737  27.340  1.00  0.00    -0.462 OA
BRANCH   4   5
ATOM      5  C   UNL A   1      31.937  30.624  26.175  1.00  0.00     0.331 C 
ATOM      6  O   UNL A   1      30.986  31.371  25.926  1.00  0.00    -0.249 OA
BRANCH   5   7
ATOM      7  C   UNL A   1      32.239  29.367  25.273  1.00  0.00     0.136 C 
ATOM      8  C   UNL A   1      31.314  29.612  24.036  1.00  0.00     0.047 C 
BRANCH   7   9
ATOM      9  N   UNL A   1      31.699  28.370  26.200  1.00  0.00    -0.322 N 
ATOM     10  C   UNL A   1      31.392  27.065  26.050  1.00  0.00     0.318 C 
ATOM     11  O   UNL A   1      31.075  26.519  27.114  1.00  0.00    -0.249 OA
ATOM     12  H   UNL A   1      31.527  28.719  27.104  1.00  0.00     0.166 HD
BRANCH  10  13
ATOM     13  N   UNL A   1      31.418  26.369  24.855  1.00  0.00    -0.324 N 
ATOM     14  C   UNL A   1      33.124  25.017  23.653  1.00  0.00     0.119 C 
ATOM     15  C   UNL A   1      32.293  24.995  22.374  1.00  0.00     0.019 C 
ATOM     16  C   UNL A   1      32.228  25.162  24.885  1.00  0.00     0.136 C 
ATOM     17  C   UNL A   1      31.390  26.215  22.321  1.00  0.00     0.023 C 
ATOM     18  C   UNL A   1      30.601  26.415  23.619  1.00  0.00     0.121 C 
BRANCH  14  19
ATOM     19  C   UNL A   1      33.957  23.762  23.771  1.00  0.00     0.310 C 
ATOM     20  O   UNL A   1      33.651  22.799  24.461  1.00  0.00    -0.252 OA
BRANCH  19  21
ATOM     21  O   UNL A   1      35.089  23.870  23.030  1.00  0.00    -0.466 OA
BRANCH  21  22
ATOM     22  C   UNL A   1      36.192  23.031  23.366  1.00  0.00     0.229 C 
ATOM     23  C   UNL A   1      36.859  23.555  24.618  1.00  0.00     0.049 C 
ENDBRANCH  21  22
ENDBRANCH  19  21
ENDBRANCH  14  19
ENDBRANCH  10  13
ENDBRANCH   7   9
BRANCH   7  24
ATOM     24  C   UNL A   1      33.481  28.686  24.638  1.00  0.00     0.037 C 
ATOM     25  C   UNL A   1      33.718  28.768  23.151  1.00  0.00     0.007 C 
ENDBRANCH   7  24
ENDBRANCH   5   7
ENDBRANCH   4   5
ENDBRANCH   3   4
ENDBRANCH   2   3
ENDBRANCH   1   2
BRANCH   1  26
ATOM     26  C   UNL A   1      33.525  33.913  28.910  1.00  0.00     0.188 C 
BRANCH  26  27
ATOM     27  C   UNL A   1      33.573  35.182  29.751  1.00  0.00     0.188 C 
BRANCH  27  28
ATOM     28  O   UNL A   1      32.972  35.161  31.045  1.00  0.00    -0.376 OA
BRANCH  28  29
ATOM     29  C   UNL A   1      33.724  34.388  31.994  1.00  0.00     0.202 C 
BRANCH  29  30
ATOM     30  C   UNL A   1      35.086  34.987  32.407  1.00  0.00     0.261 C 
BRANCH  30  31
ATOM     31  O   UNL A   1      36.202  34.271  31.845  1.00  0.00    -0.460 OA
BRANCH  31  32
ATOM     32  C   UNL A   1      36.655  33.237  32.608  1.00  0.00     0.338 C 
ATOM     33  O   UNL A   1      36.207  32.873  33.674  1.00  0.00    -0.246 OA
BRANCH  32  34
ATOM     34  C   UNL A   1      37.645  32.437  31.833  1.00  0.00     0.060 A 
ATOM     35  C   UNL A   1      38.580  31.704  32.576  1.00  0.00     0.016 A 
ATOM     36  C   UNL A   1      37.635  32.330  30.441  1.00  0.00     0.016 A 
ATOM     37  C   UNL A   1      39.503  30.867  31.951  1.00  0.00     0.010 A 
ATOM     38  C   UNL A   1      38.589  31.522  29.805  1.00  0.00     0.010 A 
ATOM     39  C   UNL A   1      39.543  30.809  30.557  1.00  0.00    -0.014 A 
BRANCH  39  40
ATOM     40  C   UNL A   1      40.729  30.214  29.894  1.00  0.00     0.031 A 
ATOM     41  C   UNL A   1      41.915  31.107  29.653  1.00  0.00     0.074 A 
ATOM     42  C   UNL A   1      40.782  28.914  29.552  1.00  0.00     0.049 A 
ATOM     43  N   UNL A   1      43.030  30.863  29.016  1.00  0.00    -0.248 NA
ATOM     44  C   UNL A   1      41.823  32.468  30.207  1.00  0.00     0.031 C 
ATOM     45  C   UNL A   1      39.734  27.927  29.799  1.00  0.00     0.029 A 
ATOM     46  N   UNL A   1      41.768  28.207  28.909  1.00  0.00    -0.354 N 
ATOM     47  C   UNL A   1      43.757  32.045  29.070  1.00  0.00     0.074 A 
ATOM     48  C   UNL A   1      42.951  33.011  29.782  1.00  0.00     0.031 C 
ATOM     49  C   UNL A   1      40.122  26.744  29.290  1.00  0.00     0.029 A 
ATOM     50  C   UNL A   1      41.427  26.902  28.646  1.00  0.00     0.049 A 
ATOM     51  H   UNL A   1      42.636  28.596  28.659  1.00  0.00     0.167 HD
ATOM     52  C   UNL A   1      44.988  32.303  28.570  1.00  0.00     0.037 A 
ATOM     53  C   UNL A   1      42.077  25.959  27.935  1.00  0.00     0.037 A 
ATOM     54  C   UNL A   1      45.789  31.335  27.869  1.00  0.00     0.049 A 
ATOM     55  C   UNL A   1      43.413  26.290  27.318  1.00  0.00     0.074 A 
ATOM     56  C   UNL A   1      47.057  31.490  27.338  1.00  0.00     0.029 A 
ATOM     57  N   UNL A   1      45.394  30.035  27.596  1.00  0.00    -0.354 N 
ATOM     58  N   UNL A   1      44.098  27.408  27.374  1.00  0.00    -0.248 NA
ATOM     59  C   UNL A   1      44.067  25.229  26.538  1.00  0.00     0.031 C 
ATOM     60  C   UNL A   1      47.403  30.302  26.687  1.00  0.00     0.029 A 
ATOM     61  C   UNL A   1      46.380  29.384  26.873  1.00  0.00     0.049 A 
ATOM     62  H   UNL A   1      44.539  29.634  27.874  1.00  0.00     0.167 HD
ATOM     63  C   UNL A   1      45.271  27.175  26.663  1.00  0.00     0.074 A 
ATOM     64  C   UNL A   1      45.211  25.806  26.198  1.00  0.00     0.031 C 
ATOM     65  C   UNL A   1      46.306  28.018  26.421  1.00  0.00     0.037 A 
BRANCH  52  66
ATOM     66  C   UNL A   1      45.514  33.702  28.721  1.00  0.00     0.057 A 
ATOM     67  C   UNL A   1      45.220  34.717  27.801  1.00  0.00     0.134 A 
ATOM     68  C   UNL A   1      46.326  34.036  29.813  1.00  0.00     0.134 A 
ATOM     69  F   UNL A   1      44.465  34.459  26.722  1.00  0.00    -0.206 F 
ATOM     70  C   UNL A   1      45.739  36.005  27.945  1.00  0.00     0.040 A 
ATOM     71  C   UNL A   1      46.825  35.327  29.984  1.00  0.00     0.040 A 
ATOM     72  F   UNL A   1      46.648  33.112  30.731  1.00  0.00    -0.206 F 
ATOM     73  C   UNL A   1      46.538  36.314  29.044  1.00  0.00     0.006 A 
ENDBRANCH  52  66
BRANCH  53  74
ATOM     74  C   UNL A   1      41.461  24.621  27.730  1.00  0.00     0.057 A 
ATOM     75  C   UNL A   1      41.848  23.513  28.492  1.00  0.00     0.134 A 
ATOM     76  C   UNL A   1      40.484  24.413  26.747  1.00  0.00     0.134 A 
ATOM     77  F   UNL A   1      42.798  23.638  29.430  1.00  0.00    -0.206 F 
ATOM     78  C   UNL A   1      41.299  22.246  28.276  1.00  0.00     0.040 A 
ATOM     79  C   UNL A   1      39.907  23.160  26.539  1.00  0.00     0.040 A 
ATOM     80  F   UNL A   1      40.072  25.431  25.978  1.00  0.00    -0.206 F 
ATOM     81  C   UNL A   1      40.320  22.069  27.301  1.00  0.00     0.006 A 
ENDBRANCH  53  74
BRANCH  65  82
ATOM     82  C   UNL A   1      47.479  27.475  25.655  1.00  0.00     0.057 A 
ATOM     83  C   UNL A   1      48.555  26.841  26.289  1.00  0.00     0.134 A 
ATOM     84  C   UNL A   1      47.503  27.541  24.255  1.00  0.00     0.134 A 
ATOM     85  F   UNL A   1      48.598  26.752  27.626  1.00  0.00    -0.206 F 
ATOM     86  C   UNL A   1      49.624  26.315  25.561  1.00  0.00     0.040 A 
ATOM     87  C   UNL A   1      48.551  26.992  23.515  1.00  0.00     0.040 A 
ATOM     88  F   UNL A   1      46.499  28.122  23.582  1.00  0.00    -0.206 F 
ATOM     89  C   UNL A   1      49.620  26.382  24.169  1.00  0.00     0.006 A 
ENDBRANCH  65  82
ENDBRANCH  39  40
ENDBRANCH  32  34
ENDBRANCH  31  32
ENDBRANCH  30  31
ENDBRANCH  29  30
ENDBRANCH  28  29
ENDBRANCH  27  28
ENDBRANCH  26  27
ENDBRANCH   1  26
TORSDOF 23
ENDMDL
MODEL 2
REMARK VINA RESULT:      -9.3      4.576      6.998
REMARK SMILES CCOC(=O)[C@H]1CCCN(C(=O)N[C@](C)(CC)C(=O)OCCOCCOCCOC(=O)c2ccc(-c3c4nc(c(-c5c(F)cccc5F)c5ccc([nH]5)c(-c5c(F)cccc5F)c5nc(c(-c6c(F)cccc6F)c6ccc3[nH]6)C=C5)C=C4)cc2)C1
REMARK SMILES IDX 23 1 22 2 21 3 20 4 18 5 19 6 14 7 15 8 13 9 11 10 12 11
REMARK SMILES IDX 10 13 6 14 7 15 86 16 8 17 9 18 4 19 5 20 3 21 2 22 1 23
REMARK SMILES IDX 16 24 17 25 24 26 25 27 26 28 27 29 28 30 29 31 30 32 31 33
REMARK SMILES IDX 32 34 33 35 85 36 34 37 84 38 35 39 36 40 37 41 78 42 38 43
REMARK SMILES IDX 83 44 77 45 79 46 39 47 82 48 76 49 75 50 40 52 66 53 49 54
REMARK SMILES IDX 65 55 50 56 53 57 64 58 80 59 51 60 52 61 63 63 81 64 54 65
REMARK SMILES IDX 41 66 42 67 47 68 43 69 44 70 46 71 48 72 45 73 67 74 68 75
REMARK SMILES IDX 73 76 69 77 70 78 72 79 74 80 71 81 55 82 56 83 61 84 57 85
REMARK SMILES IDX 58 86 60 87 62 88 59 89
REMARK H PARENT 13 12 79 51 53 62
REMARK Flexibility Score: inf
ROOT
ATOM      1  O   UNL A   1      34.592  31.519  27.598  1.00  0.00    -0.376 OA
ENDROOT
BRANCH   1   2
ATOM      2  C   UNL A   1      33.642  30.480  27.354  1.00  0.00     0.202 C 
BRANCH   2   3
ATOM      3  C   UNL A   1      32.332  30.928  26.706  1.00  0.00     0.261 C 
BRANCH   3   4
ATOM      4  O   UNL A   1      31.494  29.788  26.364  1.00  0.00    -0.462 OA
BRANCH   4   5
ATOM      5  C   UNL A   1      31.282  29.581  25.043  1.00  0.00     0.331 C 
ATOM      6  O   UNL A   1      30.461  30.261  24.420  1.00  0.00    -0.249 OA
BRANCH   5   7
ATOM      7  C   UNL A   1      31.931  28.299  24.393  1.00  0.00     0.136 C 
ATOM      8  C   UNL A   1      31.151  28.175  23.044  1.00  0.00     0.047 C 
BRANCH   7   9
ATOM      9  N   UNL A   1      31.466  27.351  25.409  1.00  0.00    -0.322 N 
ATOM     10  C   UNL A   1      31.537  26.007  25.495  1.00  0.00     0.318 C 
ATOM     11  O   UNL A   1      31.139  25.571  26.583  1.00  0.00    -0.249 OA
ATOM     12  H   UNL A   1      31.017  27.777  26.174  1.00  0.00     0.166 HD
BRANCH  10  13
ATOM     13  N   UNL A   1      31.999  25.164  24.500  1.00  0.00    -0.324 N 
ATOM     14  C   UNL A   1      34.176  24.066  24.009  1.00  0.00     0.119 C 
ATOM     15  C   UNL A   1      33.727  23.668  22.606  1.00  0.00     0.019 C 
ATOM     16  C   UNL A   1      32.977  24.188  24.952  1.00  0.00     0.136 C 
ATOM     17  C   UNL A   1      32.666  24.634  22.108  1.00  0.00     0.023 C 
ATOM     18  C   UNL A   1      31.541  24.842  23.127  1.00  0.00     0.121 C 
BRANCH  14  19
ATOM     19  C   UNL A   1      35.159  23.060  24.560  1.00  0.00     0.310 C 
ATOM     20  O   UNL A   1      34.894  21.883  24.766  1.00  0.00    -0.252 OA
BRANCH  19  21
ATOM     21  O   UNL A   1      36.354  23.652  24.813  1.00  0.00    -0.466 OA
BRANCH  21  22
ATOM     22  C   UNL A   1      37.062  23.257  25.986  1.00  0.00     0.229 C 
ATOM     23  C   UNL A   1      38.215  24.207  26.221  1.00  0.00     0.049 C 
ENDBRANCH  21  22
ENDBRANCH  19  21
ENDBRANCH  14  19
ENDBRANCH  10  13
ENDBRANCH   7   9
BRANCH   7  24
ATOM     24  C   UNL A   1      33.352  27.804  24.011  1.00  0.00     0.037 C 
ATOM     25  C   UNL A   1      34.148  28.520  22.951  1.00  0.00     0.007 C 
ENDBRANCH   7  24
ENDBRANCH   5   7
ENDBRANCH   4   5
ENDBRANCH   3   4
ENDBRANCH   2   3
ENDBRANCH   1   2
BRANCH   1  26
ATOM     26  C   UNL A   1      34.061  32.755  28.042  1.00  0.00     0.188 C 
BRANCH  26  27
ATOM     27  C   UNL A   1      35.061  33.892  28.210  1.00  0.00     0.188 C 
BRANCH  27  28
ATOM     28  O   UNL A   1      34.639  35.070  28.896  1.00  0.00    -0.376 OA
BRANCH  28  29
ATOM     29  C   UNL A   1      33.215  35.130  29.072  1.00  0.00     0.202 C 
BRANCH  29  30
ATOM     30  C   UNL A   1      32.692  36.366  29.837  1.00  0.00     0.261 C 
BRANCH  30  31
ATOM     31  O   UNL A   1      33.345  36.551  31.107  1.00  0.00    -0.460 OA
BRANCH  31  32
ATOM     32  C   UNL A   1      32.907  35.723  32.097  1.00  0.00     0.338 C 
ATOM     33  O   UNL A   1      31.754  35.504  32.400  1.00  0.00    -0.246 OA
BRANCH  32  34
ATOM     34  C   UNL A   1      34.046  34.916  32.617  1.00  0.00     0.060 A 
ATOM     35  C   UNL A   1      35.323  35.484  32.504  1.00  0.00     0.016 A 
ATOM     36  C   UNL A   1      33.895  33.687  33.261  1.00  0.00     0.016 A 
ATOM     37  C   UNL A   1      36.447  34.845  33.023  1.00  0.00     0.010 A 
ATOM     38  C   UNL A   1      35.028  33.019  33.748  1.00  0.00     0.010 A 
ATOM     39  C   UNL A   1      36.311  33.584  33.606  1.00  0.00    -0.014 A 
BRANCH  39  40
ATOM     40  C   UNL A   1      37.524  32.759  33.832  1.00  0.00     0.031 A 
ATOM     41  C   UNL A   1      38.307  33.001  35.093  1.00  0.00     0.074 A 
ATOM     42  C   UNL A   1      37.903  31.794  32.975  1.00  0.00     0.049 A 
ATOM     43  N   UNL A   1      39.443  32.487  35.482  1.00  0.00    -0.248 NA
ATOM     44  C   UNL A   1      37.723  33.963  36.042  1.00  0.00     0.031 C 
ATOM     45  C   UNL A   1      37.192  31.408  31.759  1.00  0.00     0.029 A 
ATOM     46  N   UNL A   1      39.000  30.967  33.002  1.00  0.00    -0.354 N 
ATOM     47  C   UNL A   1      39.723  33.082  36.706  1.00  0.00     0.074 A 
ATOM     48  C   UNL A   1      38.650  34.010  36.984  1.00  0.00     0.031 C 
ATOM     49  C   UNL A   1      37.884  30.435  31.140  1.00  0.00     0.029 A 
ATOM     50  C   UNL A   1      39.107  30.159  31.895  1.00  0.00     0.049 A 
ATOM     51  H   UNL A   1      39.648  30.954  33.742  1.00  0.00     0.167 HD
ATOM     52  C   UNL A   1      40.780  32.874  37.526  1.00  0.00     0.037 A 
ATOM     53  C   UNL A   1      40.097  29.324  31.521  1.00  0.00     0.037 A 
ATOM     54  C   UNL A   1      41.840  31.944  37.246  1.00  0.00     0.049 A 
ATOM     55  C   UNL A   1      41.304  29.164  32.409  1.00  0.00     0.074 A 
ATOM     56  C   UNL A   1      42.948  31.645  38.019  1.00  0.00     0.029 A 
ATOM     57  N   UNL A   1      41.927  31.168  36.101  1.00  0.00    -0.354 N 
ATOM     58  N   UNL A   1      41.562  29.727  33.566  1.00  0.00    -0.248 NA
ATOM     59  C   UNL A   1      42.360  28.255  31.940  1.00  0.00     0.031 C 
ATOM     60  C   UNL A   1      43.739  30.735  37.310  1.00  0.00     0.029 A 
ATOM     61  C   UNL A   1      43.089  30.414  36.128  1.00  0.00     0.049 A 
ATOM     62  H   UNL A   1      41.263  31.155  35.375  1.00  0.00     0.167 HD
ATOM     63  C   UNL A   1      42.791  29.219  33.975  1.00  0.00     0.074 A 
ATOM     64  C   UNL A   1      43.220  28.293  32.948  1.00  0.00     0.031 C 
ATOM     65  C   UNL A   1      43.499  29.492  35.099  1.00  0.00     0.037 A 
BRANCH  52  66
ATOM     66  C   UNL A   1      40.860  33.708  38.771  1.00  0.00     0.057 A 
ATOM     67  C   UNL A   1      40.186  33.364  39.950  1.00  0.00     0.134 A 
ATOM     68  C   UNL A   1      41.634  34.877  38.788  1.00  0.00     0.134 A 
ATOM     69  F   UNL A   1      39.411  32.270  39.994  1.00  0.00    -0.206 F 
ATOM     70  C   UNL A   1      40.254  34.166  41.091  1.00  0.00     0.040 A 
ATOM     71  C   UNL A   1      41.735  35.669  39.932  1.00  0.00     0.040 A 
ATOM     72  F   UNL A   1      42.306  35.266  37.694  1.00  0.00    -0.206 F 
ATOM     73  C   UNL A   1      41.036  35.320  41.085  1.00  0.00     0.006 A 
ENDBRANCH  52  66
BRANCH  53  74
ATOM     74  C   UNL A   1      40.011  28.600  30.224  1.00  0.00     0.057 A 
ATOM     75  C   UNL A   1      40.590  29.114  29.059  1.00  0.00     0.134 A 
ATOM     76  C   UNL A   1      39.322  27.384  30.114  1.00  0.00     0.134 A 
ATOM     77  F   UNL A   1      41.239  30.288  29.090  1.00  0.00    -0.206 F 
ATOM     78  C   UNL A   1      40.477  28.457  27.831  1.00  0.00     0.040 A 
ATOM     79  C   UNL A   1      39.225  26.702  28.901  1.00  0.00     0.040 A 
ATOM     80  F   UNL A   1      38.738  26.838  31.191  1.00  0.00    -0.206 F 
ATOM     81  C   UNL A   1      39.799  27.243  27.753  1.00  0.00     0.006 A 
ENDBRANCH  53  74
BRANCH  65  82
ATOM     82  C   UNL A   1      44.790  28.752  35.304  1.00  0.00     0.057 A 
ATOM     83  C   UNL A   1      46.021  29.267  34.879  1.00  0.00     0.134 A 
ATOM     84  C   UNL A   1      44.806  27.527  35.985  1.00  0.00     0.134 A 
ATOM     85  F   UNL A   1      46.076  30.431  34.213  1.00  0.00    -0.206 F 
ATOM     86  C   UNL A   1      47.217  28.581  35.101  1.00  0.00     0.040 A 
ATOM     87  C   UNL A   1      45.997  26.847  36.241  1.00  0.00     0.040 A 
ATOM     88  F   UNL A   1      43.665  26.981  36.432  1.00  0.00    -0.206 F 
ATOM     89  C   UNL A   1      47.207  27.371  35.792  1.00  0.00     0.006 A 
ENDBRANCH  65  82
ENDBRANCH  39  40
ENDBRANCH  32  34
ENDBRANCH  31  32
ENDBRANCH  30  31
ENDBRANCH  29  30
ENDBRANCH  28  29
ENDBRANCH  27  28
ENDBRANCH  26  27
ENDBRANCH   1  26
TORSDOF 23
ENDMDL
MODEL 3
REMARK VINA RESULT:      -8.9      4.882      7.479
REMARK SMILES CCOC(=O)[C@H]1CCCN(C(=O)N[C@](C)(CC)C(=O)OCCOCCOCCOC(=O)c2ccc(-c3c4nc(c(-c5c(F)cccc5F)c5ccc([nH]5)c(-c5c(F)cccc5F)c5nc(c(-c6c(F)cccc6F)c6ccc3[nH]6)C=C5)C=C4)cc2)C1
REMARK SMILES IDX 23 1 22 2 21 3 20 4 18 5 19 6 14 7 15 8 13 9 11 10 12 11
REMARK SMILES IDX 10 13 6 14 7 15 86 16 8 17 9 18 4 19 5 20 3 21 2 22 1 23
REMARK SMILES IDX 16 24 17 25 24 26 25 27 26 28 27 29 28 30 29 31 30 32 31 33
REMARK SMILES IDX 32 34 33 35 85 36 34 37 84 38 35 39 36 40 37 41 78 42 38 43
REMARK SMILES IDX 83 44 77 45 79 46 39 47 82 48 76 49 75 50 40 52 66 53 49 54
REMARK SMILES IDX 65 55 50 56 53 57 64 58 80 59 51 60 52 61 63 63 81 64 54 65
REMARK SMILES IDX 41 66 42 67 47 68 43 69 44 70 46 71 48 72 45 73 67 74 68 75
REMARK SMILES IDX 73 76 69 77 70 78 72 79 74 80 71 81 55 82 56 83 61 84 57 85
REMARK SMILES IDX 58 86 60 87 62 88 59 89
REMARK H PARENT 13 12 79 51 53 62
REMARK Flexibility Score: inf
ROOT
ATOM      1  O   UNL A   1      33.350  31.332  27.629  1.00  0.00    -0.376 OA
ENDROOT
BRANCH   1   2
ATOM      2  C   UNL A   1      33.565  29.972  27.246  1.00  0.00     0.202 C 
BRANCH   2   3
ATOM      3  C   UNL A   1      32.802  29.513  26.003  1.00  0.00     0.261 C 
BRANCH   3   4
ATOM      4  O   UNL A   1      32.395  28.121  26.117  1.00  0.00    -0.462 OA
BRANCH   4   5
ATOM      5  C   UNL A   1      32.752  27.311  25.092  1.00  0.00     0.331 C 
ATOM      6  O   UNL A   1      33.862  27.415  24.562  1.00  0.00    -0.249 OA
BRANCH   5   7
ATOM      7  C   UNL A   1      31.628  26.410  24.450  1.00  0.00     0.136 C 
ATOM      8  C   UNL A   1      30.504  27.449  24.134  1.00  0.00     0.047 C 
BRANCH   7   9
ATOM      9  N   UNL A   1      31.351  25.618  25.652  1.00  0.00    -0.322 N 
ATOM     10  C   UNL A   1      31.994  24.579  26.222  1.00  0.00     0.318 C 
ATOM     11  O   UNL A   1      31.515  24.258  27.317  1.00  0.00    -0.249 OA
ATOM     12  H   UNL A   1      30.540  25.900  26.134  1.00  0.00     0.166 HD
BRANCH  10  13
ATOM     13  N   UNL A   1      33.078  23.914  25.679  1.00  0.00    -0.324 N 
ATOM     14  C   UNL A   1      33.544  21.556  25.042  1.00  0.00     0.119 C 
ATOM     15  C   UNL A   1      35.035  21.832  24.877  1.00  0.00     0.019 C 
ATOM     16  C   UNL A   1      32.723  22.822  24.788  1.00  0.00     0.136 C 
ATOM     17  C   UNL A   1      35.446  23.001  25.755  1.00  0.00     0.023 C 
ATOM     18  C   UNL A   1      34.527  24.214  25.580  1.00  0.00     0.121 C 
BRANCH  14  19
ATOM     19  C   UNL A   1      33.097  20.459  24.103  1.00  0.00     0.310 C 
ATOM     20  O   UNL A   1      32.316  20.626  23.177  1.00  0.00    -0.252 OA
BRANCH  19  21
ATOM     21  O   UNL A   1      33.663  19.275  24.451  1.00  0.00    -0.466 OA
BRANCH  21  22
ATOM     22  C   UNL A   1      32.845  18.107  24.417  1.00  0.00     0.229 C 
ATOM     23  C   UNL A   1      32.679  17.569  25.820  1.00  0.00     0.049 C 
ENDBRANCH  21  22
ENDBRANCH  19  21
ENDBRANCH  14  19
ENDBRANCH  10  13
ENDBRANCH   7   9
BRANCH   7  24
ATOM     24  C   UNL A   1      31.501  25.403  23.276  1.00  0.00     0.037 C 
ATOM     25  C   UNL A   1      30.254  24.570  23.119  1.00  0.00     0.007 C 
ENDBRANCH   7  24
ENDBRANCH   5   7
ENDBRANCH   4   5
ENDBRANCH   3   4
ENDBRANCH   2   3
ENDBRANCH   1   2
BRANCH   1  26
ATOM     26  C   UNL A   1      34.492  32.038  28.085  1.00  0.00     0.188 C 
BRANCH  26  27
ATOM     27  C   UNL A   1      34.270  33.496  28.464  1.00  0.00     0.188 C 
BRANCH  27  28
ATOM     28  O   UNL A   1      32.950  34.029  28.364  1.00  0.00    -0.376 OA
BRANCH  28  29
ATOM     29  C   UNL A   1      32.868  35.395  28.802  1.00  0.00     0.202 C 
BRANCH  29  30
ATOM     30  C   UNL A   1      33.653  35.727  30.090  1.00  0.00     0.261 C 
BRANCH  30  31
ATOM     31  O   UNL A   1      32.924  36.593  30.979  1.00  0.00    -0.460 OA
BRANCH  31  32
ATOM     32  C   UNL A   1      32.560  36.019  32.160  1.00  0.00     0.338 C 
ATOM     33  O   UNL A   1      31.451  36.014  32.652  1.00  0.00    -0.246 OA
BRANCH  32  34
ATOM     34  C   UNL A   1      33.673  35.170  32.669  1.00  0.00     0.060 A 
ATOM     35  C   UNL A   1      34.920  35.792  32.820  1.00  0.00     0.016 A 
ATOM     36  C   UNL A   1      33.515  33.840  33.062  1.00  0.00     0.016 A 
ATOM     37  C   UNL A   1      36.009  35.107  33.357  1.00  0.00     0.010 A 
ATOM     38  C   UNL A   1      34.618  33.134  33.564  1.00  0.00     0.010 A 
ATOM     39  C   UNL A   1      35.876  33.757  33.687  1.00  0.00    -0.014 A 
BRANCH  39  40
ATOM     40  C   UNL A   1      37.097  32.947  33.915  1.00  0.00     0.031 A 
ATOM     41  C   UNL A   1      37.867  33.189  35.184  1.00  0.00     0.074 A 
ATOM     42  C   UNL A   1      37.496  31.994  33.054  1.00  0.00     0.049 A 
ATOM     43  N   UNL A   1      39.007  32.687  35.578  1.00  0.00    -0.248 NA
ATOM     44  C   UNL A   1      37.264  34.135  36.137  1.00  0.00     0.031 C 
ATOM     45  C   UNL A   1      36.799  31.609  31.829  1.00  0.00     0.029 A 
ATOM     46  N   UNL A   1      38.603  31.182  33.082  1.00  0.00    -0.354 N 
ATOM     47  C   UNL A   1      39.270  33.275  36.809  1.00  0.00     0.074 A 
ATOM     48  C   UNL A   1      38.182  34.187  37.087  1.00  0.00     0.031 C 
ATOM     49  C   UNL A   1      37.508  30.650  31.208  1.00  0.00     0.029 A 
ATOM     50  C   UNL A   1      38.729  30.384  31.970  1.00  0.00     0.049 A 
ATOM     51  H   UNL A   1      39.246  31.171  33.827  1.00  0.00     0.167 HD
ATOM     52  C   UNL A   1      40.323  33.074  37.635  1.00  0.00     0.037 A 
ATOM     53  C   UNL A   1      39.733  29.565  31.596  1.00  0.00     0.037 A 
ATOM     54  C   UNL A   1      41.398  32.160  37.356  1.00  0.00     0.049 A 
ATOM     55  C   UNL A   1      40.936  29.414  32.493  1.00  0.00     0.074 A 
ATOM     56  C   UNL A   1      42.503  31.870  38.135  1.00  0.00     0.029 A 
ATOM     57  N   UNL A   1      41.504  31.395  36.205  1.00  0.00    -0.354 N 
ATOM     58  N   UNL A   1      41.177  29.971  33.656  1.00  0.00    -0.248 NA
ATOM     59  C   UNL A   1      42.007  28.522  32.025  1.00  0.00     0.031 C 
ATOM     60  C   UNL A   1      43.312  30.977  37.426  1.00  0.00     0.029 A 
ATOM     61  C   UNL A   1      42.676  30.657  36.236  1.00  0.00     0.049 A 
ATOM     62  H   UNL A   1      40.845  31.380  35.474  1.00  0.00     0.167 HD
ATOM     63  C   UNL A   1      42.410  29.476  34.070  1.00  0.00     0.074 A 
ATOM     64  C   UNL A   1      42.859  28.564  33.040  1.00  0.00     0.031 C 
ATOM     65  C   UNL A   1      43.105  29.749  35.203  1.00  0.00     0.037 A 
BRANCH  52  66
ATOM     66  C   UNL A   1      40.383  33.899  38.888  1.00  0.00     0.057 A 
ATOM     67  C   UNL A   1      41.074  35.117  38.952  1.00  0.00     0.134 A 
ATOM     68  C   UNL A   1      39.731  33.465  40.050  1.00  0.00     0.134 A 
ATOM     69  F   UNL A   1      41.737  35.579  37.882  1.00  0.00    -0.206 F 
ATOM     70  C   UNL A   1      41.139  35.857  40.134  1.00  0.00     0.040 A 
ATOM     71  C   UNL A   1      39.763  34.212  41.228  1.00  0.00     0.040 A 
ATOM     72  F   UNL A   1      39.052  32.309  40.059  1.00  0.00    -0.206 F 
ATOM     73  C   UNL A   1      40.476  35.408  41.275  1.00  0.00     0.006 A 
ENDBRANCH  52  66
BRANCH  53  74
ATOM     74  C   UNL A   1      39.666  28.851  30.293  1.00  0.00     0.057 A 
ATOM     75  C   UNL A   1      40.150  29.431  29.115  1.00  0.00     0.134 A 
ATOM     76  C   UNL A   1      39.093  27.576  30.191  1.00  0.00     0.134 A 
ATOM     77  F   UNL A   1      40.685  30.661  29.139  1.00  0.00    -0.206 F 
ATOM     78  C   UNL A   1      40.053  28.780  27.883  1.00  0.00     0.040 A 
ATOM     79  C   UNL A   1      39.015  26.901  28.973  1.00  0.00     0.040 A 
ATOM     80  F   UNL A   1      38.605  26.965  31.281  1.00  0.00    -0.206 F 
ATOM     81  C   UNL A   1      39.490  27.507  27.812  1.00  0.00     0.006 A 
ENDBRANCH  53  74
BRANCH  65  82
ATOM     82  C   UNL A   1      44.405  29.024  35.411  1.00  0.00     0.057 A 
ATOM     83  C   UNL A   1      45.630  29.554  34.990  1.00  0.00     0.134 A 
ATOM     84  C   UNL A   1      44.432  27.799  36.093  1.00  0.00     0.134 A 
ATOM     85  F   UNL A   1      45.674  30.718  34.324  1.00  0.00    -0.206 F 
ATOM     86  C   UNL A   1      46.833  28.882  35.216  1.00  0.00     0.040 A 
ATOM     87  C   UNL A   1      45.631  27.133  36.352  1.00  0.00     0.040 A 
ATOM     88  F   UNL A   1      43.297  27.239  36.535  1.00  0.00    -0.206 F 
ATOM     89  C   UNL A   1      46.836  27.672  35.907  1.00  0.00     0.006 A 
ENDBRANCH  65  82
ENDBRANCH  39  40
ENDBRANCH  32  34
ENDBRANCH  31  32
ENDBRANCH  30  31
ENDBRANCH  29  30
ENDBRANCH  28  29
ENDBRANCH  27  28
ENDBRANCH  26  27
ENDBRANCH   1  26
TORSDOF 23
ENDMDL
