MODEL 1
REMARK VINA RESULT:     -11.3      0.000      0.000
REMARK SMILES Cc1ccc(C)c(OCc2ccc(C(=O)OCCOCCOCCOC(=O)c3ccc(-c4c5nc(c(-c6c(F)cccc6F)c6ccc([nH]6)c(-c6c(F)cccc6F)c6nc(c(-c7c(F)cccc7F)c7ccc4[nH]7)C=C6)C=C5)cc3)cc2)c1C
REMARK SMILES IDX 20 1 19 2 18 3 17 4 16 5 14 6 15 7 13 8 10 9 11 10 83 11
REMARK SMILES IDX 12 12 82 13 9 14 8 15 7 16 1 17 2 18 3 19 84 20 4 21 85 22
REMARK SMILES IDX 5 23 6 24 21 25 22 26 23 27 24 28 25 29 26 30 27 31 28 32
REMARK SMILES IDX 29 33 81 34 30 35 80 36 31 37 32 38 33 39 74 40 34 41 79 42
REMARK SMILES IDX 73 43 75 44 35 45 78 46 72 47 71 48 36 50 62 51 45 52 61 53
REMARK SMILES IDX 46 54 49 55 60 56 76 57 47 58 48 59 59 61 77 62 50 63 37 64
REMARK SMILES IDX 38 65 43 66 39 67 40 68 42 69 44 70 41 71 63 72 64 73 69 74
REMARK SMILES IDX 65 75 66 76 68 77 70 78 67 79 51 80 52 81 57 82 53 83 54 84
REMARK SMILES IDX 56 85 58 86 55 87
REMARK H PARENT 75 49 49 60
REMARK Flexibility Score: inf
ROOT
ATOM      1  C   UNL A   1      41.485  19.948  27.244  1.00  0.00     0.188 C 
ENDROOT
BRANCH   1   2
ATOM      2  O   UNL A   1      40.445  20.893  27.335  1.00  0.00    -0.376 OA
BRANCH   2   3
ATOM      3  C   UNL A   1      39.929  21.513  26.165  1.00  0.00     0.202 C 
BRANCH   3   4
ATOM      4  C   UNL A   1      38.489  21.359  25.640  1.00  0.00     0.261 C 
BRANCH   4   5
ATOM      5  O   UNL A   1      37.588  22.434  25.922  1.00  0.00    -0.460 OA
BRANCH   5   6
ATOM      6  C   UNL A   1      36.871  22.868  24.855  1.00  0.00     0.338 C 
ATOM      7  O   UNL A   1      37.095  22.659  23.674  1.00  0.00    -0.246 OA
BRANCH   6   8
ATOM      8  C   UNL A   1      35.596  23.436  25.322  1.00  0.00     0.060 A 
ATOM      9  C   UNL A   1      33.084  24.298  26.244  1.00  0.00    -0.011 A 
ATOM     10  C   UNL A   1      33.821  23.344  26.951  1.00  0.00     0.008 A 
ATOM     11  C   UNL A   1      33.700  24.907  25.129  1.00  0.00     0.008 A 
ATOM     12  C   UNL A   1      35.027  22.861  26.457  1.00  0.00     0.016 A 
ATOM     13  C   UNL A   1      34.968  24.502  24.686  1.00  0.00     0.016 A 
BRANCH   9  14
ATOM     14  C   UNL A   1      31.591  24.514  26.484  1.00  0.00     0.265 C 
BRANCH  14  15
ATOM     15  O   UNL A   1      31.074  25.828  26.662  1.00  0.00    -0.488 OA
BRANCH  15  16
ATOM     16  C   UNL A   1      31.029  26.805  25.708  1.00  0.00     0.125 A 
ATOM     17  C   UNL A   1      31.896  30.558  25.909  1.00  0.00     0.045 C 
ATOM     18  C   UNL A   1      31.378  29.226  25.439  1.00  0.00    -0.044 A 
ATOM     19  C   UNL A   1      30.722  29.156  24.209  1.00  0.00     0.004 A 
ATOM     20  C   UNL A   1      31.553  28.041  26.185  1.00  0.00    -0.006 A 
ATOM     21  C   UNL A   1      30.333  27.925  23.686  1.00  0.00     0.007 A 
ATOM     22  C   UNL A   1      32.314  28.042  27.492  1.00  0.00     0.049 C 
ATOM     23  C   UNL A   1      30.525  26.725  24.397  1.00  0.00    -0.009 A 
ATOM     24  C   UNL A   1      30.214  25.451  23.659  1.00  0.00     0.048 C 
ENDBRANCH  15  16
ENDBRANCH  14  15
ENDBRANCH   9  14
ENDBRANCH   6   8
ENDBRANCH   5   6
ENDBRANCH   4   5
ENDBRANCH   3   4
ENDBRANCH   2   3
ENDBRANCH   1   2
BRANCH   1  25
ATOM     25  C   UNL A   1      42.184  19.745  25.880  1.00  0.00     0.188 C 
BRANCH  25  26
ATOM     26  O   UNL A   1      43.568  19.468  25.808  1.00  0.00    -0.376 OA
BRANCH  26  27
ATOM     27  C   UNL A   1      44.412  20.325  25.060  1.00  0.00     0.202 C 
BRANCH  27  28
ATOM     28  C   UNL A   1      44.992  21.623  25.642  1.00  0.00     0.261 C 
BRANCH  28  29
ATOM     29  O   UNL A   1      44.057  22.503  26.279  1.00  0.00    -0.460 OA
BRANCH  29  30
ATOM     30  C   UNL A   1      43.381  23.331  25.451  1.00  0.00     0.338 C 
ATOM     31  O   UNL A   1      43.153  23.172  24.254  1.00  0.00    -0.246 OA
BRANCH  30  32
ATOM     32  C   UNL A   1      42.814  24.441  26.227  1.00  0.00     0.060 A 
ATOM     33  C   UNL A   1      43.328  25.737  26.057  1.00  0.00     0.016 A 
ATOM     34  C   UNL A   1      41.824  24.185  27.173  1.00  0.00     0.016 A 
ATOM     35  C   UNL A   1      42.862  26.783  26.855  1.00  0.00     0.010 A 
ATOM     36  C   UNL A   1      41.377  25.225  27.986  1.00  0.00     0.010 A 
ATOM     37  C   UNL A   1      41.914  26.521  27.851  1.00  0.00    -0.014 A 
BRANCH  37  38
ATOM     38  C   UNL A   1      41.604  27.522  28.897  1.00  0.00     0.031 A 
ATOM     39  C   UNL A   1      42.376  27.459  30.183  1.00  0.00     0.074 A 
ATOM     40  C   UNL A   1      40.613  28.415  28.741  1.00  0.00     0.049 A 
ATOM     41  N   UNL A   1      42.153  28.067  31.318  1.00  0.00    -0.248 NA
ATOM     42  C   UNL A   1      43.552  26.573  30.192  1.00  0.00     0.031 C 
ATOM     43  C   UNL A   1      39.827  28.606  27.525  1.00  0.00     0.029 A 
ATOM     44  N   UNL A   1      40.075  29.305  29.637  1.00  0.00    -0.354 N 
ATOM     45  C   UNL A   1      43.143  27.618  32.183  1.00  0.00     0.074 A 
ATOM     46  C   UNL A   1      43.958  26.677  31.448  1.00  0.00     0.031 C 
ATOM     47  C   UNL A   1      38.882  29.534  27.762  1.00  0.00     0.029 A 
ATOM     48  C   UNL A   1      38.968  29.961  29.158  1.00  0.00     0.049 A 
ATOM     49  H   UNL A   1      40.447  29.459  30.535  1.00  0.00     0.167 HD
ATOM     50  C   UNL A   1      43.348  27.959  33.477  1.00  0.00     0.037 A 
ATOM     51  C   UNL A   1      38.100  30.775  29.790  1.00  0.00     0.037 A 
ATOM     52  C   UNL A   1      42.528  28.889  34.204  1.00  0.00     0.049 A 
ATOM     53  C   UNL A   1      38.301  31.080  31.254  1.00  0.00     0.074 A 
ATOM     54  C   UNL A   1      42.657  29.310  35.516  1.00  0.00     0.029 A 
ATOM     55  N   UNL A   1      41.418  29.536  33.681  1.00  0.00    -0.354 N 
ATOM     56  N   UNL A   1      39.242  30.661  32.066  1.00  0.00    -0.248 NA
ATOM     57  C   UNL A   1      37.315  31.967  31.890  1.00  0.00     0.031 C 
ATOM     58  C   UNL A   1      41.594  30.173  35.803  1.00  0.00     0.029 A 
ATOM     59  C   UNL A   1      40.842  30.340  34.651  1.00  0.00     0.049 A 
ATOM     60  H   UNL A   1      41.089  29.439  32.759  1.00  0.00     0.167 HD
ATOM     61  C   UNL A   1      38.989  31.269  33.291  1.00  0.00     0.074 A 
ATOM     62  C   UNL A   1      37.803  32.081  33.117  1.00  0.00     0.031 C 
ATOM     63  C   UNL A   1      39.681  31.170  34.452  1.00  0.00     0.037 A 
BRANCH  50  64
ATOM     64  C   UNL A   1      44.483  27.291  34.196  1.00  0.00     0.057 A 
ATOM     65  C   UNL A   1      45.771  27.842  34.224  1.00  0.00     0.134 A 
ATOM     66  C   UNL A   1      44.279  26.091  34.890  1.00  0.00     0.134 A 
ATOM     67  F   UNL A   1      46.038  28.981  33.566  1.00  0.00    -0.206 F 
ATOM     68  C   UNL A   1      46.820  27.211  34.895  1.00  0.00     0.040 A 
ATOM     69  C   UNL A   1      45.313  25.467  35.589  1.00  0.00     0.040 A 
ATOM     70  F   UNL A   1      43.069  25.512  34.907  1.00  0.00    -0.206 F 
ATOM     71  C   UNL A   1      46.590  26.023  35.586  1.00  0.00     0.006 A 
ENDBRANCH  50  64
BRANCH  51  72
ATOM     72  C   UNL A   1      36.944  31.349  29.055  1.00  0.00     0.057 A 
ATOM     73  C   UNL A   1      36.950  32.684  28.632  1.00  0.00     0.134 A 
ATOM     74  C   UNL A   1      35.799  30.592  28.782  1.00  0.00     0.134 A 
ATOM     75  F   UNL A   1      38.008  33.468  28.885  1.00  0.00    -0.206 F 
ATOM     76  C   UNL A   1      35.851  33.251  27.983  1.00  0.00     0.040 A 
ATOM     77  C   UNL A   1      34.704  31.138  28.110  1.00  0.00     0.040 A 
ATOM     78  F   UNL A   1      35.729  29.308  29.161  1.00  0.00    -0.206 F 
ATOM     79  C   UNL A   1      34.725  32.475  27.716  1.00  0.00     0.006 A 
ENDBRANCH  51  72
BRANCH  63  80
ATOM     80  C   UNL A   1      39.233  32.015  35.609  1.00  0.00     0.057 A 
ATOM     81  C   UNL A   1      38.389  31.527  36.613  1.00  0.00     0.134 A 
ATOM     82  C   UNL A   1      39.726  33.320  35.757  1.00  0.00     0.134 A 
ATOM     83  F   UNL A   1      37.875  30.291  36.527  1.00  0.00    -0.206 F 
ATOM     84  C   UNL A   1      38.040  32.309  37.715  1.00  0.00     0.040 A 
ATOM     85  C   UNL A   1      39.408  34.101  36.868  1.00  0.00     0.040 A 
ATOM     86  F   UNL A   1      40.549  33.845  34.837  1.00  0.00    -0.206 F 
ATOM     87  C   UNL A   1      38.558  33.597  37.851  1.00  0.00     0.006 A 
ENDBRANCH  63  80
ENDBRANCH  37  38
ENDBRANCH  30  32
ENDBRANCH  29  30
ENDBRANCH  28  29
ENDBRANCH  27  28
ENDBRANCH  26  27
ENDBRANCH  25  26
ENDBRANCH   1  25
TORSDOF 20
ENDMDL
MODEL 2
REMARK VINA RESULT:     -11.1      1.833      6.953
REMARK SMILES Cc1ccc(C)c(OCc2ccc(C(=O)OCCOCCOCCOC(=O)c3ccc(-c4c5nc(c(-c6c(F)cccc6F)c6ccc([nH]6)c(-c6c(F)cccc6F)c6nc(c(-c7c(F)cccc7F)c7ccc4[nH]7)C=C6)C=C5)cc3)cc2)c1C
REMARK SMILES IDX 20 1 19 2 18 3 17 4 16 5 14 6 15 7 13 8 10 9 11 10 83 11
REMARK SMILES IDX 12 12 82 13 9 14 8 15 7 16 1 17 2 18 3 19 84 20 4 21 85 22
REMARK SMILES IDX 5 23 6 24 21 25 22 26 23 27 24 28 25 29 26 30 27 31 28 32
REMARK SMILES IDX 29 33 81 34 30 35 80 36 31 37 32 38 33 39 74 40 34 41 79 42
REMARK SMILES IDX 73 43 75 44 35 45 78 46 72 47 71 48 36 50 62 51 45 52 61 53
REMARK SMILES IDX 46 54 49 55 60 56 76 57 47 58 48 59 59 61 77 62 50 63 37 64
REMARK SMILES IDX 38 65 43 66 39 67 40 68 42 69 44 70 41 71 63 72 64 73 69 74
REMARK SMILES IDX 65 75 66 76 68 77 70 78 67 79 51 80 52 81 57 82 53 83 54 84
REMARK SMILES IDX 56 85 58 86 55 87
REMARK H PARENT 75 49 49 60
REMARK Flexibility Score: inf
ROOT
ATOM      1  C   UNL A   1      46.083  18.920  24.994  1.00  0.00     0.188 C 
ENDROOT
BRANCH   1   2
ATOM      2  O   UNL A   1      44.780  18.410  25.151  1.00  0.00    -0.376 OA
BRANCH   2   3
ATOM      3  C   UNL A   1      43.650  19.253  24.974  1.00  0.00     0.202 C 
BRANCH   3   4
ATOM      4  C   UNL A   1      42.629  19.612  26.071  1.00  0.00     0.261 C 
BRANCH   4   5
ATOM      5  O   UNL A   1      41.735  20.691  25.784  1.00  0.00    -0.460 OA
BRANCH   5   6
ATOM      6  C   UNL A   1      41.295  21.369  26.874  1.00  0.00     0.338 C 
ATOM      7  O   UNL A   1      41.914  21.615  27.895  1.00  0.00    -0.246 OA
BRANCH   6   8
ATOM      8  C   UNL A   1      40.011  22.015  26.560  1.00  0.00     0.060 A 
ATOM      9  C   UNL A   1      37.574  23.157  25.743  1.00  0.00    -0.011 A 
ATOM     10  C   UNL A   1      37.838  21.799  25.537  1.00  0.00     0.008 A 
ATOM     11  C   UNL A   1      38.513  23.899  26.491  1.00  0.00     0.008 A 
ATOM     12  C   UNL A   1      39.071  21.251  25.870  1.00  0.00     0.016 A 
ATOM     13  C   UNL A   1      39.716  23.324  26.929  1.00  0.00     0.016 A 
BRANCH   9  14
ATOM     14  C   UNL A   1      36.461  23.891  24.999  1.00  0.00     0.265 C 
BRANCH  14  15
ATOM     15  O   UNL A   1      35.099  23.679  25.352  1.00  0.00    -0.488 OA
BRANCH  15  16
ATOM     16  C   UNL A   1      34.129  23.183  24.528  1.00  0.00     0.125 A 
ATOM     17  C   UNL A   1      32.457  19.709  24.421  1.00  0.00     0.045 C 
ATOM     18  C   UNL A   1      32.903  21.100  24.064  1.00  0.00    -0.044 A 
ATOM     19  C   UNL A   1      32.476  21.653  22.856  1.00  0.00     0.004 A 
ATOM     20  C   UNL A   1      33.717  21.876  24.917  1.00  0.00    -0.006 A 
ATOM     21  C   UNL A   1      32.771  22.978  22.543  1.00  0.00     0.007 A 
ATOM     22  C   UNL A   1      34.154  21.357  26.269  1.00  0.00     0.049 C 
ATOM     23  C   UNL A   1      33.554  23.782  23.393  1.00  0.00    -0.009 A 
ATOM     24  C   UNL A   1      33.662  25.237  23.026  1.00  0.00     0.048 C 
ENDBRANCH  15  16
ENDBRANCH  14  15
ENDBRANCH   9  14
ENDBRANCH   6   8
ENDBRANCH   5   6
ENDBRANCH   4   5
ENDBRANCH   3   4
ENDBRANCH   2   3
ENDBRANCH   1   2
BRANCH   1  25
ATOM     25  C   UNL A   1      46.259  20.432  24.722  1.00  0.00     0.188 C 
BRANCH  25  26
ATOM     26  O   UNL A   1      46.208  21.369  25.778  1.00  0.00    -0.376 OA
BRANCH  26  27
ATOM     27  C   UNL A   1      45.768  22.690  25.517  1.00  0.00     0.202 C 
BRANCH  27  28
ATOM     28  C   UNL A   1      44.688  23.006  24.472  1.00  0.00     0.261 C 
BRANCH  28  29
ATOM     29  O   UNL A   1      43.888  24.169  24.721  1.00  0.00    -0.460 OA
BRANCH  29  30
ATOM     30  C   UNL A   1      44.567  25.262  25.136  1.00  0.00     0.338 C 
ATOM     31  O   UNL A   1      45.627  25.698  24.696  1.00  0.00    -0.246 OA
BRANCH  30  32
ATOM     32  C   UNL A   1      43.774  25.975  26.146  1.00  0.00     0.060 A 
ATOM     33  C   UNL A   1      44.118  27.292  26.492  1.00  0.00     0.016 A 
ATOM     34  C   UNL A   1      42.737  25.314  26.801  1.00  0.00     0.016 A 
ATOM     35  C   UNL A   1      43.432  27.948  27.515  1.00  0.00     0.010 A 
ATOM     36  C   UNL A   1      42.070  25.962  27.839  1.00  0.00     0.010 A 
ATOM     37  C   UNL A   1      42.432  27.268  28.220  1.00  0.00    -0.014 A 
BRANCH  37  38
ATOM     38  C   UNL A   1      41.881  27.810  29.482  1.00  0.00     0.031 A 
ATOM     39  C   UNL A   1      40.639  28.652  29.405  1.00  0.00     0.074 A 
ATOM     40  C   UNL A   1      42.506  27.626  30.657  1.00  0.00     0.049 A 
ATOM     41  N   UNL A   1      40.090  29.410  30.317  1.00  0.00    -0.248 NA
ATOM     42  C   UNL A   1      39.931  28.647  28.114  1.00  0.00     0.031 C 
ATOM     43  C   UNL A   1      43.686  26.793  30.868  1.00  0.00     0.029 A 
ATOM     44  N   UNL A   1      42.248  28.169  31.892  1.00  0.00    -0.354 N 
ATOM     45  C   UNL A   1      38.989  29.994  29.703  1.00  0.00     0.074 A 
ATOM     46  C   UNL A   1      38.957  29.514  28.339  1.00  0.00     0.031 C 
ATOM     47  C   UNL A   1      44.072  26.906  32.151  1.00  0.00     0.029 A 
ATOM     48  C   UNL A   1      43.196  27.857  32.834  1.00  0.00     0.049 A 
ATOM     49  H   UNL A   1      41.459  28.727  32.082  1.00  0.00     0.167 HD
ATOM     50  C   UNL A   1      38.090  30.857  30.231  1.00  0.00     0.037 A 
ATOM     51  C   UNL A   1      43.360  28.324  34.087  1.00  0.00     0.037 A 
ATOM     52  C   UNL A   1      38.134  31.336  31.586  1.00  0.00     0.049 A 
ATOM     53  C   UNL A   1      42.393  29.346  34.631  1.00  0.00     0.074 A 
ATOM     54  C   UNL A   1      37.265  32.205  32.222  1.00  0.00     0.029 A 
ATOM     55  N   UNL A   1      39.108  30.993  32.511  1.00  0.00    -0.354 N 
ATOM     56  N   UNL A   1      41.349  29.889  34.051  1.00  0.00    -0.248 NA
ATOM     57  C   UNL A   1      42.630  29.824  36.002  1.00  0.00     0.031 C 
ATOM     58  C   UNL A   1      37.743  32.428  33.517  1.00  0.00     0.029 A 
ATOM     59  C   UNL A   1      38.871  31.647  33.708  1.00  0.00     0.049 A 
ATOM     60  H   UNL A   1      39.856  30.376  32.342  1.00  0.00     0.167 HD
ATOM     61  C   UNL A   1      40.780  30.732  35.000  1.00  0.00     0.074 A 
ATOM     62  C   UNL A   1      41.598  30.634  36.190  1.00  0.00     0.031 C 
ATOM     63  C   UNL A   1      39.676  31.512  34.896  1.00  0.00     0.037 A 
BRANCH  50  64
ATOM     64  C   UNL A   1      37.005  31.365  29.327  1.00  0.00     0.057 A 
ATOM     65  C   UNL A   1      35.900  30.577  28.978  1.00  0.00     0.134 A 
ATOM     66  C   UNL A   1      37.056  32.669  28.817  1.00  0.00     0.134 A 
ATOM     67  F   UNL A   1      35.799  29.314  29.419  1.00  0.00    -0.206 F 
ATOM     68  C   UNL A   1      34.898  31.060  28.135  1.00  0.00     0.040 A 
ATOM     69  C   UNL A   1      36.045  33.172  27.997  1.00  0.00     0.040 A 
ATOM     70  F   UNL A   1      38.085  33.477  29.114  1.00  0.00    -0.206 F 
ATOM     71  C   UNL A   1      34.966  32.364  27.647  1.00  0.00     0.006 A 
ENDBRANCH  50  64
BRANCH  51  72
ATOM     72  C   UNL A   1      44.497  27.850  34.918  1.00  0.00     0.057 A 
ATOM     73  C   UNL A   1      44.377  26.711  35.722  1.00  0.00     0.134 A 
ATOM     74  C   UNL A   1      45.717  28.536  34.951  1.00  0.00     0.134 A 
ATOM     75  F   UNL A   1      43.225  26.025  35.753  1.00  0.00    -0.206 F 
ATOM     76  C   UNL A   1      45.421  26.281  36.545  1.00  0.00     0.040 A 
ATOM     77  C   UNL A   1      46.779  28.102  35.747  1.00  0.00     0.040 A 
ATOM     78  F   UNL A   1      45.897  29.635  34.205  1.00  0.00    -0.206 F 
ATOM     79  C   UNL A   1      46.628  26.977  36.554  1.00  0.00     0.006 A 
ENDBRANCH  51  72
BRANCH  63  80
ATOM     80  C   UNL A   1      39.230  32.262  36.118  1.00  0.00     0.057 A 
ATOM     81  C   UNL A   1      39.666  33.560  36.403  1.00  0.00     0.134 A 
ATOM     82  C   UNL A   1      38.281  31.694  36.982  1.00  0.00     0.134 A 
ATOM     83  F   UNL A   1      40.581  34.157  35.622  1.00  0.00    -0.206 F 
ATOM     84  C   UNL A   1      39.187  34.264  37.509  1.00  0.00     0.040 A 
ATOM     85  C   UNL A   1      37.773  32.398  38.073  1.00  0.00     0.040 A 
ATOM     86  F   UNL A   1      37.812  30.457  36.760  1.00  0.00    -0.206 F 
ATOM     87  C   UNL A   1      38.229  33.687  38.342  1.00  0.00     0.006 A 
ENDBRANCH  63  80
ENDBRANCH  37  38
ENDBRANCH  30  32
ENDBRANCH  29  30
ENDBRANCH  28  29
ENDBRANCH  27  28
ENDBRANCH  26  27
ENDBRANCH  25  26
ENDBRANCH   1  25
TORSDOF 20
ENDMDL
MODEL 3
REMARK VINA RESULT:     -11.0      4.642     10.322
REMARK SMILES Cc1ccc(C)c(OCc2ccc(C(=O)OCCOCCOCCOC(=O)c3ccc(-c4c5nc(c(-c6c(F)cccc6F)c6ccc([nH]6)c(-c6c(F)cccc6F)c6nc(c(-c7c(F)cccc7F)c7ccc4[nH]7)C=C6)C=C5)cc3)cc2)c1C
REMARK SMILES IDX 20 1 19 2 18 3 17 4 16 5 14 6 15 7 13 8 10 9 11 10 83 11
REMARK SMILES IDX 12 12 82 13 9 14 8 15 7 16 1 17 2 18 3 19 84 20 4 21 85 22
REMARK SMILES IDX 5 23 6 24 21 25 22 26 23 27 24 28 25 29 26 30 27 31 28 32
REMARK SMILES IDX 29 33 81 34 30 35 80 36 31 37 32 38 33 39 74 40 34 41 79 42
REMARK SMILES IDX 73 43 75 44 35 45 78 46 72 47 71 48 36 50 62 51 45 52 61 53
REMARK SMILES IDX 46 54 49 55 60 56 76 57 47 58 48 59 59 61 77 62 50 63 37 64
REMARK SMILES IDX 38 65 43 66 39 67 40 68 42 69 44 70 41 71 63 72 64 73 69 74
REMARK SMILES IDX 65 75 66 76 68 77 70 78 67 79 51 80 52 81 57 82 53 83 54 84
REMARK SMILES IDX 56 85 58 86 55 87
REMARK H PARENT 75 49 49 60
REMARK Flexibility Score: inf
ROOT
ATOM      1  C   UNL A   1      33.177  35.845  30.159  1.00  0.00     0.188 C 
ENDROOT
BRANCH   1   2
ATOM      2  O   UNL A   1      32.731  34.676  29.512  1.00  0.00    -0.376 OA
BRANCH   2   3
ATOM      3  C   UNL A   1      33.296  34.279  28.270  1.00  0.00     0.202 C 
BRANCH   3   4
ATOM      4  C   UNL A   1      34.023  32.945  28.010  1.00  0.00     0.261 C 
BRANCH   4   5
ATOM      5  O   UNL A   1      33.205  31.836  27.626  1.00  0.00    -0.460 OA
BRANCH   5   6
ATOM      6  C   UNL A   1      33.891  30.730  27.243  1.00  0.00     0.338 C 
ATOM      7  O   UNL A   1      35.049  30.449  27.499  1.00  0.00    -0.246 OA
BRANCH   6   8
ATOM      8  C   UNL A   1      32.955  29.752  26.666  1.00  0.00     0.060 A 
ATOM      9  C   UNL A   1      31.334  27.716  25.602  1.00  0.00    -0.011 A 
ATOM     10  C   UNL A   1      31.955  27.565  26.846  1.00  0.00     0.008 A 
ATOM     11  C   UNL A   1      31.440  28.971  24.965  1.00  0.00     0.008 A 
ATOM     12  C   UNL A   1      32.818  28.537  27.337  1.00  0.00     0.016 A 
ATOM     13  C   UNL A   1      32.223  30.001  25.510  1.00  0.00     0.016 A 
BRANCH   9  14
ATOM     14  C   UNL A   1      30.771  26.527  24.825  1.00  0.00     0.265 C 
BRANCH  14  15
ATOM     15  O   UNL A   1      31.224  25.208  25.103  1.00  0.00    -0.488 OA
BRANCH  15  16
ATOM     16  C   UNL A   1      32.177  24.526  24.401  1.00  0.00     0.125 A 
ATOM     17  C   UNL A   1      33.306  20.844  24.620  1.00  0.00     0.045 C 
ATOM     18  C   UNL A   1      33.242  22.310  24.290  1.00  0.00    -0.044 A 
ATOM     19  C   UNL A   1      34.253  22.867  23.504  1.00  0.00     0.004 A 
ATOM     20  C   UNL A   1      32.185  23.138  24.724  1.00  0.00    -0.006 A 
ATOM     21  C   UNL A   1      34.168  24.191  23.080  1.00  0.00     0.007 A 
ATOM     22  C   UNL A   1      31.027  22.578  25.520  1.00  0.00     0.049 C 
ATOM     23  C   UNL A   1      33.107  25.028  23.474  1.00  0.00    -0.009 A 
ATOM     24  C   UNL A   1      33.042  26.380  22.818  1.00  0.00     0.048 C 
ENDBRANCH  15  16
ENDBRANCH  14  15
ENDBRANCH   9  14
ENDBRANCH   6   8
ENDBRANCH   5   6
ENDBRANCH   4   5
ENDBRANCH   3   4
ENDBRANCH   2   3
ENDBRANCH   1   2
BRANCH   1  25
ATOM     25  C   UNL A   1      33.250  35.855  31.703  1.00  0.00     0.188 C 
BRANCH  25  26
ATOM     26  O   UNL A   1      34.493  35.930  32.369  1.00  0.00    -0.376 OA
BRANCH  26  27
ATOM     27  C   UNL A   1      34.643  35.318  33.638  1.00  0.00     0.202 C 
BRANCH  27  28
ATOM     28  C   UNL A   1      35.168  33.884  33.802  1.00  0.00     0.261 C 
BRANCH  28  29
ATOM     29  O   UNL A   1      36.078  33.425  32.795  1.00  0.00    -0.460 OA
BRANCH  29  30
ATOM     30  C   UNL A   1      35.556  32.570  31.886  1.00  0.00     0.338 C 
ATOM     31  O   UNL A   1      34.407  32.546  31.453  1.00  0.00    -0.246 OA
BRANCH  30  32
ATOM     32  C   UNL A   1      36.622  31.710  31.356  1.00  0.00     0.060 A 
ATOM     33  C   UNL A   1      37.381  30.926  32.240  1.00  0.00     0.016 A 
ATOM     34  C   UNL A   1      36.916  31.736  29.994  1.00  0.00     0.016 A 
ATOM     35  C   UNL A   1      38.456  30.177  31.761  1.00  0.00     0.010 A 
ATOM     36  C   UNL A   1      38.005  31.006  29.522  1.00  0.00     0.010 A 
ATOM     37  C   UNL A   1      38.797  30.248  30.405  1.00  0.00    -0.014 A 
BRANCH  37  38
ATOM     38  C   UNL A   1      40.082  29.707  29.908  1.00  0.00     0.031 A 
ATOM     39  C   UNL A   1      41.227  30.662  29.728  1.00  0.00     0.074 A 
ATOM     40  C   UNL A   1      40.210  28.417  29.554  1.00  0.00     0.049 A 
ATOM     41  N   UNL A   1      42.367  30.488  29.113  1.00  0.00    -0.248 NA
ATOM     42  C   UNL A   1      41.049  32.004  30.308  1.00  0.00     0.031 C 
ATOM     43  C   UNL A   1      39.192  27.385  29.726  1.00  0.00     0.029 A 
ATOM     44  N   UNL A   1      41.250  27.769  28.935  1.00  0.00    -0.354 N 
ATOM     45  C   UNL A   1      43.031  31.705  29.208  1.00  0.00     0.074 A 
ATOM     46  C   UNL A   1      42.162  32.611  29.926  1.00  0.00     0.031 C 
ATOM     47  C   UNL A   1      39.644  26.237  29.193  1.00  0.00     0.029 A 
ATOM     48  C   UNL A   1      40.961  26.469  28.600  1.00  0.00     0.049 A 
ATOM     49  H   UNL A   1      42.118  28.194  28.750  1.00  0.00     0.167 HD
ATOM     50  C   UNL A   1      44.256  32.035  28.735  1.00  0.00     0.037 A 
ATOM     51  C   UNL A   1      41.661  25.587  27.859  1.00  0.00     0.037 A 
ATOM     52  C   UNL A   1      45.110  31.131  28.015  1.00  0.00     0.049 A 
ATOM     53  C   UNL A   1      42.988  26.000  27.273  1.00  0.00     0.074 A 
ATOM     54  C   UNL A   1      46.374  31.363  27.500  1.00  0.00     0.029 A 
ATOM     55  N   UNL A   1      44.783  29.820  27.699  1.00  0.00    -0.354 N 
ATOM     56  N   UNL A   1      43.617  27.147  27.372  1.00  0.00    -0.248 NA
ATOM     57  C   UNL A   1      43.700  24.997  26.466  1.00  0.00     0.031 C 
ATOM     58  C   UNL A   1      46.789  30.209  26.828  1.00  0.00     0.029 A 
ATOM     59  C   UNL A   1      45.814  29.237  26.981  1.00  0.00     0.049 A 
ATOM     60  H   UNL A   1      43.943  29.371  27.949  1.00  0.00     0.167 HD
ATOM     61  C   UNL A   1      44.815  26.988  26.684  1.00  0.00     0.074 A 
ATOM     62  C   UNL A   1      44.823  25.635  26.167  1.00  0.00     0.031 C 
ATOM     63  C   UNL A   1      45.821  27.878  26.503  1.00  0.00     0.037 A 
BRANCH  50  64
ATOM     64  C   UNL A   1      44.723  33.444  28.950  1.00  0.00     0.057 A 
ATOM     65  C   UNL A   1      45.547  33.797  30.027  1.00  0.00     0.134 A 
ATOM     66  C   UNL A   1      44.364  34.458  28.053  1.00  0.00     0.134 A 
ATOM     67  F   UNL A   1      45.914  32.877  30.932  1.00  0.00    -0.206 F 
ATOM     68  C   UNL A   1      45.974  35.112  30.218  1.00  0.00     0.040 A 
ATOM     69  C   UNL A   1      44.810  35.770  28.216  1.00  0.00     0.040 A 
ATOM     70  F   UNL A   1      43.580  34.188  26.998  1.00  0.00    -0.206 F 
ATOM     71  C   UNL A   1      45.611  36.102  29.306  1.00  0.00     0.006 A 
ENDBRANCH  50  64
BRANCH  51  72
ATOM     72  C   UNL A   1      41.119  24.227  27.607  1.00  0.00     0.057 A 
ATOM     73  C   UNL A   1      41.643  23.109  28.264  1.00  0.00     0.134 A 
ATOM     74  C   UNL A   1      40.087  24.008  26.687  1.00  0.00     0.134 A 
ATOM     75  F   UNL A   1      42.650  23.250  29.140  1.00  0.00    -0.206 F 
ATOM     76  C   UNL A   1      41.177  21.819  28.002  1.00  0.00     0.040 A 
ATOM     77  C   UNL A   1      39.592  22.727  26.434  1.00  0.00     0.040 A 
ATOM     78  F   UNL A   1      39.542  25.037  26.022  1.00  0.00    -0.206 F 
ATOM     79  C   UNL A   1      40.144  21.627  27.086  1.00  0.00     0.006 A 
ENDBRANCH  51  72
BRANCH  63  80
ATOM     80  C   UNL A   1      47.054  27.407  25.787  1.00  0.00     0.057 A 
ATOM     81  C   UNL A   1      48.096  26.745  26.445  1.00  0.00     0.134 A 
ATOM     82  C   UNL A   1      47.157  27.554  24.396  1.00  0.00     0.134 A 
ATOM     83  F   UNL A   1      48.064  26.581  27.776  1.00  0.00    -0.206 F 
ATOM     84  C   UNL A   1      49.203  26.256  25.749  1.00  0.00     0.040 A 
ATOM     85  C   UNL A   1      48.244  27.044  23.686  1.00  0.00     0.040 A 
ATOM     86  F   UNL A   1      46.187  28.169  23.702  1.00  0.00    -0.206 F 
ATOM     87  C   UNL A   1      49.274  26.396  24.363  1.00  0.00     0.006 A 
ENDBRANCH  63  80
ENDBRANCH  37  38
ENDBRANCH  30  32
ENDBRANCH  29  30
ENDBRANCH  28  29
ENDBRANCH  27  28
ENDBRANCH  26  27
ENDBRANCH  25  26
ENDBRANCH   1  25
TORSDOF 20
ENDMDL
