MODEL 1
REMARK VINA RESULT:     -11.2      0.000      0.000
REMARK SMILES O=C(OCCOCCOCCOC(=O)c1c(F)cccc1N[C@H]1CCCc2ccccc21)c1ccc(-c2c3nc(c(-c4c(F)cccc4F)c4ccc([nH]4)c(-c4c(F)cccc4F)c4nc(c(-c5c(F)cccc5F)c5ccc2[nH]5)C=C4)C=C3)cc1
REMARK SMILES IDX 7 1 6 2 5 3 4 4 3 5 2 6 1 7 33 8 34 9 86 10 35 11 85 12
REMARK SMILES IDX 36 13 37 14 38 15 79 16 39 17 84 18 78 19 80 20 40 21 83 22
REMARK SMILES IDX 77 23 76 24 41 26 67 27 50 28 66 29 51 30 54 31 65 32 81 33
REMARK SMILES IDX 52 34 53 35 64 37 82 38 55 39 42 40 43 41 48 42 44 43 45 44
REMARK SMILES IDX 47 45 49 46 46 47 68 48 69 49 74 50 70 51 71 52 73 53 75 54
REMARK SMILES IDX 72 55 56 56 57 57 62 58 58 59 59 60 61 61 63 62 60 63 8 64
REMARK SMILES IDX 9 65 10 66 11 67 12 68 13 69 14 70 15 71 16 72 21 73 17 74
REMARK SMILES IDX 18 75 20 76 19 77 22 78 23 80 24 81 32 82 25 83 27 84 31 85
REMARK SMILES IDX 26 86 28 87 30 88 29 89
REMARK H PARENT 80 25 54 36 22 79
REMARK Flexibility Score: inf
ROOT
ATOM      1  C   UNL A   1      41.922  21.175  26.648  1.00  0.00     0.188 C 
ENDROOT
BRANCH   1   2
ATOM      2  O   UNL A   1      42.664  20.983  25.459  1.00  0.00    -0.376 OA
BRANCH   2   3
ATOM      3  C   UNL A   1      43.991  21.480  25.300  1.00  0.00     0.202 C 
BRANCH   3   4
ATOM      4  C   UNL A   1      44.299  22.627  24.321  1.00  0.00     0.261 C 
BRANCH   4   5
ATOM      5  O   UNL A   1      43.487  23.769  24.627  1.00  0.00    -0.460 OA
BRANCH   5   6
ATOM      6  C   UNL A   1      44.126  24.873  25.071  1.00  0.00     0.338 C 
ATOM      7  O   UNL A   1      45.286  25.185  24.845  1.00  0.00    -0.246 OA
BRANCH   6   8
ATOM      8  C   UNL A   1      43.213  25.562  26.011  1.00  0.00     0.060 A 
ATOM      9  C   UNL A   1      43.388  26.939  26.190  1.00  0.00     0.016 A 
ATOM     10  C   UNL A   1      42.178  24.897  26.675  1.00  0.00     0.016 A 
ATOM     11  C   UNL A   1      42.633  27.632  27.099  1.00  0.00     0.010 A 
ATOM     12  C   UNL A   1      41.393  25.606  27.594  1.00  0.00     0.010 A 
ATOM     13  C   UNL A   1      41.660  26.965  27.835  1.00  0.00    -0.014 A 
BRANCH  13  14
ATOM     14  C   UNL A   1      41.161  27.710  29.002  1.00  0.00     0.031 A 
ATOM     15  C   UNL A   1      41.985  27.674  30.252  1.00  0.00     0.074 A 
ATOM     16  C   UNL A   1      40.204  28.643  28.848  1.00  0.00     0.049 A 
ATOM     17  N   UNL A   1      41.803  28.319  31.371  1.00  0.00    -0.248 NA
ATOM     18  C   UNL A   1      43.218  26.865  30.215  1.00  0.00     0.031 C 
ATOM     19  C   UNL A   1      39.561  28.978  27.577  1.00  0.00     0.029 A 
ATOM     20  N   UNL A   1      39.651  29.523  29.738  1.00  0.00    -0.354 N 
ATOM     21  C   UNL A   1      42.898  28.005  32.160  1.00  0.00     0.074 A 
ATOM     22  C   UNL A   1      43.732  27.095  31.413  1.00  0.00     0.031 C 
ATOM     23  C   UNL A   1      38.679  29.967  27.782  1.00  0.00     0.029 A 
ATOM     24  C   UNL A   1      38.631  30.267  29.198  1.00  0.00     0.049 A 
ATOM     25  H   UNL A   1      39.953  29.613  30.671  1.00  0.00     0.167 HD
ATOM     26  C   UNL A   1      43.177  28.461  33.399  1.00  0.00     0.037 A 
ATOM     27  C   UNL A   1      37.718  31.054  29.791  1.00  0.00     0.037 A 
ATOM     28  C   UNL A   1      42.341  29.387  34.106  1.00  0.00     0.049 A 
ATOM     29  C   UNL A   1      37.895  31.340  31.246  1.00  0.00     0.074 A 
ATOM     30  C   UNL A   1      42.502  29.878  35.387  1.00  0.00     0.029 A 
ATOM     31  N   UNL A   1      41.186  29.957  33.592  1.00  0.00    -0.354 N 
ATOM     32  N   UNL A   1      38.881  30.974  32.027  1.00  0.00    -0.248 NA
ATOM     33  C   UNL A   1      36.868  32.154  31.903  1.00  0.00     0.031 C 
ATOM     34  C   UNL A   1      41.401  30.686  35.677  1.00  0.00     0.029 A 
ATOM     35  C   UNL A   1      40.588  30.749  34.555  1.00  0.00     0.049 A 
ATOM     36  H   UNL A   1      40.843  29.819  32.680  1.00  0.00     0.167 HD
ATOM     37  C   UNL A   1      38.617  31.540  33.259  1.00  0.00     0.074 A 
ATOM     38  C   UNL A   1      37.372  32.272  33.125  1.00  0.00     0.031 C 
ATOM     39  C   UNL A   1      39.350  31.468  34.394  1.00  0.00     0.037 A 
BRANCH  26  40
ATOM     40  C   UNL A   1      44.383  27.911  34.089  1.00  0.00     0.057 A 
ATOM     41  C   UNL A   1      44.272  26.739  34.847  1.00  0.00     0.134 A 
ATOM     42  C   UNL A   1      45.625  28.556  34.061  1.00  0.00     0.134 A 
ATOM     43  F   UNL A   1      43.110  26.072  34.901  1.00  0.00    -0.206 F 
ATOM     44  C   UNL A   1      45.349  26.242  35.581  1.00  0.00     0.040 A 
ATOM     45  C   UNL A   1      46.716  28.055  34.774  1.00  0.00     0.040 A 
ATOM     46  F   UNL A   1      45.801  29.663  33.326  1.00  0.00    -0.206 F 
ATOM     47  C   UNL A   1      46.574  26.903  35.547  1.00  0.00     0.006 A 
ENDBRANCH  26  40
BRANCH  27  48
ATOM     48  C   UNL A   1      36.526  31.513  29.035  1.00  0.00     0.057 A 
ATOM     49  C   UNL A   1      35.501  30.608  28.720  1.00  0.00     0.134 A 
ATOM     50  C   UNL A   1      36.360  32.838  28.626  1.00  0.00     0.134 A 
ATOM     51  F   UNL A   1      35.594  29.322  29.089  1.00  0.00    -0.206 F 
ATOM     52  C   UNL A   1      34.361  31.000  28.017  1.00  0.00     0.040 A 
ATOM     53  C   UNL A   1      35.214  33.249  27.940  1.00  0.00     0.040 A 
ATOM     54  F   UNL A   1      37.293  33.755  28.916  1.00  0.00    -0.206 F 
ATOM     55  C   UNL A   1      34.214  32.329  27.629  1.00  0.00     0.006 A 
ENDBRANCH  27  48
BRANCH  39  56
ATOM     56  C   UNL A   1      38.839  32.203  35.589  1.00  0.00     0.057 A 
ATOM     57  C   UNL A   1      39.171  33.549  35.787  1.00  0.00     0.134 A 
ATOM     58  C   UNL A   1      38.134  31.544  36.600  1.00  0.00     0.134 A 
ATOM     59  F   UNL A   1      39.854  34.227  34.852  1.00  0.00    -0.206 F 
ATOM     60  C   UNL A   1      38.856  34.204  36.974  1.00  0.00     0.040 A 
ATOM     61  C   UNL A   1      37.787  32.198  37.781  1.00  0.00     0.040 A 
ATOM     62  F   UNL A   1      37.776  30.259  36.455  1.00  0.00    -0.206 F 
ATOM     63  C   UNL A   1      38.165  33.525  37.977  1.00  0.00     0.006 A 
ENDBRANCH  39  56
ENDBRANCH  13  14
ENDBRANCH   6   8
ENDBRANCH   5   6
ENDBRANCH   4   5
ENDBRANCH   3   4
ENDBRANCH   2   3
ENDBRANCH   1   2
BRANCH   1  64
ATOM     64  C   UNL A   1      40.453  20.724  26.730  1.00  0.00     0.188 C 
BRANCH  64  65
ATOM     65  O   UNL A   1      39.380  21.419  26.125  1.00  0.00    -0.376 OA
BRANCH  65  66
ATOM     66  C   UNL A   1      39.105  22.750  26.504  1.00  0.00     0.202 C 
BRANCH  66  67
ATOM     67  C   UNL A   1      37.846  23.428  25.948  1.00  0.00     0.261 C 
BRANCH  67  68
ATOM     68  O   UNL A   1      36.627  22.663  25.937  1.00  0.00    -0.460 OA
BRANCH  68  69
ATOM     69  C   UNL A   1      36.257  22.161  24.729  1.00  0.00     0.343 C 
ATOM     70  O   UNL A   1      36.916  22.141  23.704  1.00  0.00    -0.246 OA
BRANCH  69  71
ATOM     71  C   UNL A   1      34.834  21.799  24.769  1.00  0.00     0.118 A 
ATOM     72  C   UNL A   1      34.624  20.411  24.784  1.00  0.00     0.139 A 
ATOM     73  C   UNL A   1      33.749  22.700  24.888  1.00  0.00     0.052 A 
ATOM     74  F   UNL A   1      35.655  19.558  24.676  1.00  0.00    -0.206 F 
ATOM     75  C   UNL A   1      33.354  19.877  24.917  1.00  0.00     0.040 A 
ATOM     76  C   UNL A   1      32.470  22.114  24.817  1.00  0.00     0.027 A 
ATOM     77  C   UNL A   1      32.266  20.734  24.905  1.00  0.00     0.005 A 
BRANCH  73  78
ATOM     78  N   UNL A   1      33.882  24.085  25.033  1.00  0.00    -0.377 N 
ATOM     79  H   UNL A   1      34.789  24.451  25.151  1.00  0.00     0.161 HD
BRANCH  78  80
ATOM     80  C   UNL A   1      32.744  25.040  25.017  1.00  0.00     0.110 C 
ATOM     81  C   UNL A   1      32.282  25.373  26.458  1.00  0.00     0.030 C 
ATOM     82  C   UNL A   1      33.103  26.315  24.241  1.00  0.00    -0.023 A 
ATOM     83  C   UNL A   1      31.418  26.622  26.504  1.00  0.00     0.007 C 
ATOM     84  C   UNL A   1      32.907  27.608  24.779  1.00  0.00    -0.043 A 
ATOM     85  C   UNL A   1      33.529  26.226  22.909  1.00  0.00     0.006 A 
ATOM     86  C   UNL A   1      32.275  27.817  26.130  1.00  0.00     0.036 C 
ATOM     87  C   UNL A   1      33.266  28.750  24.043  1.00  0.00     0.004 A 
ATOM     88  C   UNL A   1      33.813  27.371  22.157  1.00  0.00     0.000 A 
ATOM     89  C   UNL A   1      33.712  28.631  22.732  1.00  0.00     0.000 A 
ENDBRANCH  78  80
ENDBRANCH  73  78
ENDBRANCH  69  71
ENDBRANCH  68  69
ENDBRANCH  67  68
ENDBRANCH  66  67
ENDBRANCH  65  66
ENDBRANCH  64  65
ENDBRANCH   1  64
TORSDOF 19
ENDMDL
MODEL 2
REMARK VINA RESULT:     -11.2      1.121      6.204
REMARK SMILES O=C(OCCOCCOCCOC(=O)c1c(F)cccc1N[C@H]1CCCc2ccccc21)c1ccc(-c2c3nc(c(-c4c(F)cccc4F)c4ccc([nH]4)c(-c4c(F)cccc4F)c4nc(c(-c5c(F)cccc5F)c5ccc2[nH]5)C=C4)C=C3)cc1
REMARK SMILES IDX 7 1 6 2 5 3 4 4 3 5 2 6 1 7 33 8 34 9 86 10 35 11 85 12
REMARK SMILES IDX 36 13 37 14 38 15 79 16 39 17 84 18 78 19 80 20 40 21 83 22
REMARK SMILES IDX 77 23 76 24 41 26 67 27 50 28 66 29 51 30 54 31 65 32 81 33
REMARK SMILES IDX 52 34 53 35 64 37 82 38 55 39 42 40 43 41 48 42 44 43 45 44
REMARK SMILES IDX 47 45 49 46 46 47 68 48 69 49 74 50 70 51 71 52 73 53 75 54
REMARK SMILES IDX 72 55 56 56 57 57 62 58 58 59 59 60 61 61 63 62 60 63 8 64
REMARK SMILES IDX 9 65 10 66 11 67 12 68 13 69 14 70 15 71 16 72 21 73 17 74
REMARK SMILES IDX 18 75 20 76 19 77 22 78 23 80 24 81 32 82 25 83 27 84 31 85
REMARK SMILES IDX 26 86 28 87 30 88 29 89
REMARK H PARENT 80 25 54 36 22 79
REMARK Flexibility Score: inf
ROOT
ATOM      1  C   UNL A   1      41.104  21.159  26.486  1.00  0.00     0.188 C 
ENDROOT
BRANCH   1   2
ATOM      2  O   UNL A   1      42.069  21.216  25.454  1.00  0.00    -0.376 OA
BRANCH   2   3
ATOM      3  C   UNL A   1      43.470  21.162  25.716  1.00  0.00     0.202 C 
BRANCH   3   4
ATOM      4  C   UNL A   1      44.333  22.437  25.695  1.00  0.00     0.261 C 
BRANCH   4   5
ATOM      5  O   UNL A   1      43.575  23.538  25.175  1.00  0.00    -0.460 OA
BRANCH   5   6
ATOM      6  C   UNL A   1      44.177  24.747  25.173  1.00  0.00     0.338 C 
ATOM      7  O   UNL A   1      45.223  25.041  24.614  1.00  0.00    -0.246 OA
BRANCH   6   8
ATOM      8  C   UNL A   1      43.417  25.617  26.100  1.00  0.00     0.060 A 
ATOM      9  C   UNL A   1      43.977  26.857  26.429  1.00  0.00     0.016 A 
ATOM     10  C   UNL A   1      42.166  25.258  26.610  1.00  0.00     0.016 A 
ATOM     11  C   UNL A   1      43.374  27.684  27.338  1.00  0.00     0.010 A 
ATOM     12  C   UNL A   1      41.536  26.109  27.529  1.00  0.00     0.010 A 
ATOM     13  C   UNL A   1      42.172  27.300  27.924  1.00  0.00    -0.014 A 
BRANCH  13  14
ATOM     14  C   UNL A   1      41.798  28.079  29.115  1.00  0.00     0.031 A 
ATOM     15  C   UNL A   1      40.568  28.929  29.029  1.00  0.00     0.074 A 
ATOM     16  C   UNL A   1      42.330  27.775  30.313  1.00  0.00     0.049 A 
ATOM     17  N   UNL A   1      39.990  29.627  29.967  1.00  0.00    -0.248 NA
ATOM     18  C   UNL A   1      39.852  28.938  27.740  1.00  0.00     0.031 C 
ATOM     19  C   UNL A   1      43.316  26.721  30.546  1.00  0.00     0.029 A 
ATOM     20  N   UNL A   1      42.078  28.273  31.563  1.00  0.00    -0.354 N 
ATOM     21  C   UNL A   1      38.842  30.144  29.386  1.00  0.00     0.074 A 
ATOM     22  C   UNL A   1      38.809  29.706  28.012  1.00  0.00     0.031 C 
ATOM     23  C   UNL A   1      43.606  26.676  31.855  1.00  0.00     0.029 A 
ATOM     24  C   UNL A   1      42.902  27.748  32.528  1.00  0.00     0.049 A 
ATOM     25  H   UNL A   1      41.377  28.938  31.751  1.00  0.00     0.167 HD
ATOM     26  C   UNL A   1      37.896  30.906  29.972  1.00  0.00     0.037 A 
ATOM     27  C   UNL A   1      43.112  28.133  33.798  1.00  0.00     0.037 A 
ATOM     28  C   UNL A   1      37.942  31.303  31.350  1.00  0.00     0.049 A 
ATOM     29  C   UNL A   1      42.211  29.184  34.358  1.00  0.00     0.074 A 
ATOM     30  C   UNL A   1      37.062  32.116  32.036  1.00  0.00     0.029 A 
ATOM     31  N   UNL A   1      38.926  30.917  32.248  1.00  0.00    -0.354 N 
ATOM     32  N   UNL A   1      41.175  29.747  33.787  1.00  0.00    -0.248 NA
ATOM     33  C   UNL A   1      42.477  29.641  35.725  1.00  0.00     0.031 C 
ATOM     34  C   UNL A   1      37.556  32.286  33.330  1.00  0.00     0.029 A 
ATOM     35  C   UNL A   1      38.709  31.528  33.469  1.00  0.00     0.049 A 
ATOM     36  H   UNL A   1      39.668  30.302  32.046  1.00  0.00     0.167 HD
ATOM     37  C   UNL A   1      40.640  30.600  34.734  1.00  0.00     0.074 A 
ATOM     38  C   UNL A   1      41.470  30.485  35.917  1.00  0.00     0.031 C 
ATOM     39  C   UNL A   1      39.550  31.395  34.631  1.00  0.00     0.037 A 
BRANCH  26  40
ATOM     40  C   UNL A   1      36.783  31.418  29.116  1.00  0.00     0.057 A 
ATOM     41  C   UNL A   1      36.787  32.756  28.703  1.00  0.00     0.134 A 
ATOM     42  C   UNL A   1      35.690  30.625  28.749  1.00  0.00     0.134 A 
ATOM     43  F   UNL A   1      37.814  33.560  29.015  1.00  0.00    -0.206 F 
ATOM     44  C   UNL A   1      35.724  33.298  27.981  1.00  0.00     0.040 A 
ATOM     45  C   UNL A   1      34.631  31.151  28.006  1.00  0.00     0.040 A 
ATOM     46  F   UNL A   1      35.646  29.328  29.086  1.00  0.00    -0.206 F 
ATOM     47  C   UNL A   1      34.641  32.494  27.634  1.00  0.00     0.006 A 
ENDBRANCH  26  40
BRANCH  27  48
ATOM     48  C   UNL A   1      44.274  27.604  34.554  1.00  0.00     0.057 A 
ATOM     49  C   UNL A   1      44.104  26.544  35.459  1.00  0.00     0.134 A 
ATOM     50  C   UNL A   1      45.567  28.106  34.392  1.00  0.00     0.134 A 
ATOM     51  F   UNL A   1      42.889  26.011  35.656  1.00  0.00    -0.206 F 
ATOM     52  C   UNL A   1      45.171  26.014  36.184  1.00  0.00     0.040 A 
ATOM     53  C   UNL A   1      46.650  27.570  35.096  1.00  0.00     0.040 A 
ATOM     54  F   UNL A   1      45.800  29.102  33.527  1.00  0.00    -0.206 F 
ATOM     55  C   UNL A   1      46.452  26.525  35.998  1.00  0.00     0.006 A 
ENDBRANCH  27  48
BRANCH  39  56
ATOM     56  C   UNL A   1      39.176  32.204  35.828  1.00  0.00     0.057 A 
ATOM     57  C   UNL A   1      38.252  31.708  36.757  1.00  0.00     0.134 A 
ATOM     58  C   UNL A   1      39.628  33.517  35.987  1.00  0.00     0.134 A 
ATOM     59  F   UNL A   1      37.779  30.458  36.647  1.00  0.00    -0.206 F 
ATOM     60  C   UNL A   1      37.757  32.510  37.782  1.00  0.00     0.040 A 
ATOM     61  C   UNL A   1      39.161  34.320  37.027  1.00  0.00     0.040 A 
ATOM     62  F   UNL A   1      40.526  34.036  35.136  1.00  0.00    -0.206 F 
ATOM     63  C   UNL A   1      38.209  33.822  37.915  1.00  0.00     0.006 A 
ENDBRANCH  39  56
ENDBRANCH  13  14
ENDBRANCH   6   8
ENDBRANCH   5   6
ENDBRANCH   4   5
ENDBRANCH   3   4
ENDBRANCH   2   3
ENDBRANCH   1   2
BRANCH   1  64
ATOM     64  C   UNL A   1      40.086  22.299  26.664  1.00  0.00     0.188 C 
BRANCH  64  65
ATOM     65  O   UNL A   1      38.776  22.275  26.132  1.00  0.00    -0.376 OA
BRANCH  65  66
ATOM     66  C   UNL A   1      37.999  23.452  26.127  1.00  0.00     0.202 C 
BRANCH  66  67
ATOM     67  C   UNL A   1      37.057  23.708  24.943  1.00  0.00     0.261 C 
BRANCH  67  68
ATOM     68  O   UNL A   1      35.647  23.784  25.220  1.00  0.00    -0.460 OA
BRANCH  68  69
ATOM     69  C   UNL A   1      34.825  23.527  24.168  1.00  0.00     0.343 C 
ATOM     70  O   UNL A   1      35.084  23.641  22.982  1.00  0.00    -0.246 OA
BRANCH  69  71
ATOM     71  C   UNL A   1      33.468  23.263  24.665  1.00  0.00     0.118 A 
ATOM     72  C   UNL A   1      33.209  21.894  24.841  1.00  0.00     0.139 A 
ATOM     73  C   UNL A   1      32.516  24.238  25.045  1.00  0.00     0.052 A 
ATOM     74  F   UNL A   1      34.115  20.970  24.485  1.00  0.00    -0.206 F 
ATOM     75  C   UNL A   1      32.018  21.453  25.392  1.00  0.00     0.040 A 
ATOM     76  C   UNL A   1      31.251  23.734  25.409  1.00  0.00     0.027 A 
ATOM     77  C   UNL A   1      31.021  22.377  25.652  1.00  0.00     0.005 A 
BRANCH  73  78
ATOM     78  N   UNL A   1      32.751  25.617  25.044  1.00  0.00    -0.377 N 
ATOM     79  H   UNL A   1      33.513  25.954  24.518  1.00  0.00     0.161 HD
BRANCH  78  80
ATOM     80  C   UNL A   1      31.925  26.606  25.784  1.00  0.00     0.110 C 
ATOM     81  C   UNL A   1      32.802  27.456  26.736  1.00  0.00     0.030 C 
ATOM     82  C   UNL A   1      31.133  27.497  24.817  1.00  0.00    -0.023 A 
ATOM     83  C   UNL A   1      32.087  28.717  27.195  1.00  0.00     0.007 C 
ATOM     84  C   UNL A   1      31.146  28.908  24.905  1.00  0.00    -0.043 A 
ATOM     85  C   UNL A   1      30.264  26.915  23.882  1.00  0.00     0.006 A 
ATOM     86  C   UNL A   1      31.897  29.627  25.995  1.00  0.00     0.036 C 
ATOM     87  C   UNL A   1      30.421  29.688  23.988  1.00  0.00     0.004 A 
ATOM     88  C   UNL A   1      29.488  27.700  23.023  1.00  0.00     0.000 A 
ATOM     89  C   UNL A   1      29.589  29.084  23.054  1.00  0.00     0.000 A 
ENDBRANCH  78  80
ENDBRANCH  73  78
ENDBRANCH  69  71
ENDBRANCH  68  69
ENDBRANCH  67  68
ENDBRANCH  66  67
ENDBRANCH  65  66
ENDBRANCH  64  65
ENDBRANCH   1  64
TORSDOF 19
ENDMDL
MODEL 3
REMARK VINA RESULT:     -10.9      0.632      6.030
REMARK SMILES O=C(OCCOCCOCCOC(=O)c1c(F)cccc1N[C@H]1CCCc2ccccc21)c1ccc(-c2c3nc(c(-c4c(F)cccc4F)c4ccc([nH]4)c(-c4c(F)cccc4F)c4nc(c(-c5c(F)cccc5F)c5ccc2[nH]5)C=C4)C=C3)cc1
REMARK SMILES IDX 7 1 6 2 5 3 4 4 3 5 2 6 1 7 33 8 34 9 86 10 35 11 85 12
REMARK SMILES IDX 36 13 37 14 38 15 79 16 39 17 84 18 78 19 80 20 40 21 83 22
REMARK SMILES IDX 77 23 76 24 41 26 67 27 50 28 66 29 51 30 54 31 65 32 81 33
REMARK SMILES IDX 52 34 53 35 64 37 82 38 55 39 42 40 43 41 48 42 44 43 45 44
REMARK SMILES IDX 47 45 49 46 46 47 68 48 69 49 74 50 70 51 71 52 73 53 75 54
REMARK SMILES IDX 72 55 56 56 57 57 62 58 58 59 59 60 61 61 63 62 60 63 8 64
REMARK SMILES IDX 9 65 10 66 11 67 12 68 13 69 14 70 15 71 16 72 21 73 17 74
REMARK SMILES IDX 18 75 20 76 19 77 22 78 23 80 24 81 32 82 25 83 27 84 31 85
REMARK SMILES IDX 26 86 28 87 30 88 29 89
REMARK H PARENT 80 25 54 36 22 79
REMARK Flexibility Score: inf
ROOT
ATOM      1  C   UNL A   1      42.093  21.255  26.949  1.00  0.00     0.188 C 
ENDROOT
BRANCH   1   2
ATOM      2  O   UNL A   1      43.171  22.081  26.558  1.00  0.00    -0.376 OA
BRANCH   2   3
ATOM      3  C   UNL A   1      43.967  21.803  25.408  1.00  0.00     0.202 C 
BRANCH   3   4
ATOM      4  C   UNL A   1      44.168  22.860  24.305  1.00  0.00     0.261 C 
BRANCH   4   5
ATOM      5  O   UNL A   1      43.479  24.070  24.650  1.00  0.00    -0.460 OA
BRANCH   5   6
ATOM      6  C   UNL A   1      44.238  25.109  25.061  1.00  0.00     0.338 C 
ATOM      7  O   UNL A   1      45.416  25.302  24.797  1.00  0.00    -0.246 OA
BRANCH   6   8
ATOM      8  C   UNL A   1      43.426  25.895  26.018  1.00  0.00     0.060 A 
ATOM      9  C   UNL A   1      43.786  27.231  26.227  1.00  0.00     0.016 A 
ATOM     10  C   UNL A   1      42.311  25.361  26.670  1.00  0.00     0.016 A 
ATOM     11  C   UNL A   1      43.132  28.001  27.152  1.00  0.00     0.010 A 
ATOM     12  C   UNL A   1      41.629  26.150  27.607  1.00  0.00     0.010 A 
ATOM     13  C   UNL A   1      42.078  27.455  27.876  1.00  0.00    -0.014 A 
BRANCH  13  14
ATOM     14  C   UNL A   1      41.684  28.235  29.061  1.00  0.00     0.031 A 
ATOM     15  C   UNL A   1      40.425  29.043  28.972  1.00  0.00     0.074 A 
ATOM     16  C   UNL A   1      42.232  27.964  30.259  1.00  0.00     0.049 A 
ATOM     17  N   UNL A   1      39.829  29.732  29.905  1.00  0.00    -0.248 NA
ATOM     18  C   UNL A   1      39.702  29.012  27.687  1.00  0.00     0.031 C 
ATOM     19  C   UNL A   1      43.255  26.946  30.499  1.00  0.00     0.029 A 
ATOM     20  N   UNL A   1      41.970  28.467  31.505  1.00  0.00    -0.354 N 
ATOM     21  C   UNL A   1      38.662  30.203  29.325  1.00  0.00     0.074 A 
ATOM     22  C   UNL A   1      38.635  29.748  27.956  1.00  0.00     0.031 C 
ATOM     23  C   UNL A   1      43.552  26.926  31.806  1.00  0.00     0.029 A 
ATOM     24  C   UNL A   1      42.817  27.982  32.471  1.00  0.00     0.049 A 
ATOM     25  H   UNL A   1      41.248  29.111  31.689  1.00  0.00     0.167 HD
ATOM     26  C   UNL A   1      37.693  30.939  29.908  1.00  0.00     0.037 A 
ATOM     27  C   UNL A   1      43.020  28.388  33.735  1.00  0.00     0.037 A 
ATOM     28  C   UNL A   1      37.733  31.354  31.280  1.00  0.00     0.049 A 
ATOM     29  C   UNL A   1      42.087  29.415  34.288  1.00  0.00     0.074 A 
ATOM     30  C   UNL A   1      36.830  32.144  31.962  1.00  0.00     0.029 A 
ATOM     31  N   UNL A   1      38.735  31.011  32.177  1.00  0.00    -0.354 N 
ATOM     32  N   UNL A   1      41.029  29.936  33.717  1.00  0.00    -0.248 NA
ATOM     33  C   UNL A   1      42.345  29.897  35.648  1.00  0.00     0.031 C 
ATOM     34  C   UNL A   1      37.324  32.346  33.251  1.00  0.00     0.029 A 
ATOM     35  C   UNL A   1      38.503  31.629  33.392  1.00  0.00     0.049 A 
ATOM     36  H   UNL A   1      39.495  30.419  31.978  1.00  0.00     0.167 HD
ATOM     37  C   UNL A   1      40.471  30.781  34.656  1.00  0.00     0.074 A 
ATOM     38  C   UNL A   1      41.311  30.708  35.837  1.00  0.00     0.031 C 
ATOM     39  C   UNL A   1      39.354  31.538  34.551  1.00  0.00     0.037 A 
BRANCH  26  40
ATOM     40  C   UNL A   1      36.559  31.403  29.052  1.00  0.00     0.057 A 
ATOM     41  C   UNL A   1      36.504  32.741  28.641  1.00  0.00     0.134 A 
ATOM     42  C   UNL A   1      35.502  30.563  28.684  1.00  0.00     0.134 A 
ATOM     43  F   UNL A   1      37.495  33.588  28.953  1.00  0.00    -0.206 F 
ATOM     44  C   UNL A   1      35.419  33.237  27.919  1.00  0.00     0.040 A 
ATOM     45  C   UNL A   1      34.421  31.044  27.942  1.00  0.00     0.040 A 
ATOM     46  F   UNL A   1      35.514  29.265  29.019  1.00  0.00    -0.206 F 
ATOM     47  C   UNL A   1      34.372  32.387  27.571  1.00  0.00     0.006 A 
ENDBRANCH  26  40
BRANCH  27  48
ATOM     48  C   UNL A   1      44.204  27.907  34.491  1.00  0.00     0.057 A 
ATOM     49  C   UNL A   1      44.082  26.826  35.377  1.00  0.00     0.134 A 
ATOM     50  C   UNL A   1      45.470  28.479  34.346  1.00  0.00     0.134 A 
ATOM     51  F   UNL A   1      42.895  26.227  35.557  1.00  0.00    -0.206 F 
ATOM     52  C   UNL A   1      45.172  26.340  36.101  1.00  0.00     0.040 A 
ATOM     53  C   UNL A   1      46.574  27.988  35.048  1.00  0.00     0.040 A 
ATOM     54  F   UNL A   1      45.656  29.499  33.498  1.00  0.00    -0.206 F 
ATOM     55  C   UNL A   1      46.425  26.920  35.932  1.00  0.00     0.006 A 
ENDBRANCH  27  48
BRANCH  39  56
ATOM     56  C   UNL A   1      38.959  32.348  35.741  1.00  0.00     0.057 A 
ATOM     57  C   UNL A   1      39.409  33.668  35.879  1.00  0.00     0.134 A 
ATOM     58  C   UNL A   1      38.249  31.780  36.802  1.00  0.00     0.134 A 
ATOM     59  F   UNL A   1      40.102  34.258  34.894  1.00  0.00    -0.206 F 
ATOM     60  C   UNL A   1      39.201  34.382  37.056  1.00  0.00     0.040 A 
ATOM     61  C   UNL A   1      38.010  32.496  37.974  1.00  0.00     0.040 A 
ATOM     62  F   UNL A   1      37.781  30.526  36.716  1.00  0.00    -0.206 F 
ATOM     63  C   UNL A   1      38.502  33.793  38.109  1.00  0.00     0.006 A 
ENDBRANCH  39  56
ENDBRANCH  13  14
ENDBRANCH   6   8
ENDBRANCH   5   6
ENDBRANCH   4   5
ENDBRANCH   3   4
ENDBRANCH   2   3
ENDBRANCH   1   2
BRANCH   1  64
ATOM     64  C   UNL A   1      40.699  21.858  27.194  1.00  0.00     0.188 C 
BRANCH  64  65
ATOM     65  O   UNL A   1      39.682  21.916  26.213  1.00  0.00    -0.376 OA
BRANCH  65  66
ATOM     66  C   UNL A   1      38.497  22.636  26.472  1.00  0.00     0.202 C 
BRANCH  66  67
ATOM     67  C   UNL A   1      37.852  23.430  25.329  1.00  0.00     0.261 C 
BRANCH  67  68
ATOM     68  O   UNL A   1      36.434  23.281  25.133  1.00  0.00    -0.460 OA
BRANCH  68  69
ATOM     69  C   UNL A   1      36.052  22.836  23.906  1.00  0.00     0.343 C 
ATOM     70  O   UNL A   1      36.541  23.129  22.828  1.00  0.00    -0.246 OA
BRANCH  69  71
ATOM     71  C   UNL A   1      34.804  22.073  24.034  1.00  0.00     0.118 A 
ATOM     72  C   UNL A   1      34.982  20.842  24.684  1.00  0.00     0.139 A 
ATOM     73  C   UNL A   1      33.514  22.517  23.659  1.00  0.00     0.052 A 
ATOM     74  F   UNL A   1      36.206  20.423  25.043  1.00  0.00    -0.206 F 
ATOM     75  C   UNL A   1      33.906  20.024  24.983  1.00  0.00     0.040 A 
ATOM     76  C   UNL A   1      32.485  21.566  23.802  1.00  0.00     0.027 A 
ATOM     77  C   UNL A   1      32.651  20.375  24.513  1.00  0.00     0.005 A 
BRANCH  73  78
ATOM     78  N   UNL A   1      33.232  23.789  23.146  1.00  0.00    -0.377 N 
ATOM     79  H   UNL A   1      33.529  23.991  22.229  1.00  0.00     0.161 HD
BRANCH  78  80
ATOM     80  C   UNL A   1      32.513  24.851  23.896  1.00  0.00     0.110 C 
ATOM     81  C   UNL A   1      32.493  24.541  25.413  1.00  0.00     0.030 C 
ATOM     82  C   UNL A   1      33.125  26.232  23.620  1.00  0.00    -0.023 A 
ATOM     83  C   UNL A   1      32.140  25.766  26.240  1.00  0.00     0.007 C 
ATOM     84  C   UNL A   1      33.498  27.115  24.659  1.00  0.00    -0.043 A 
ATOM     85  C   UNL A   1      33.217  26.705  22.304  1.00  0.00     0.006 A 
ATOM     86  C   UNL A   1      33.262  26.778  26.108  1.00  0.00     0.036 C 
ATOM     87  C   UNL A   1      34.073  28.363  24.364  1.00  0.00     0.004 A 
ATOM     88  C   UNL A   1      33.721  27.980  22.022  1.00  0.00     0.000 A 
ATOM     89  C   UNL A   1      34.177  28.797  23.048  1.00  0.00     0.000 A 
ENDBRANCH  78  80
ENDBRANCH  73  78
ENDBRANCH  69  71
ENDBRANCH  68  69
ENDBRANCH  67  68
ENDBRANCH  66  67
ENDBRANCH  65  66
ENDBRANCH  64  65
ENDBRANCH   1  64
TORSDOF 19
ENDMDL
