MODEL 1
REMARK VINA RESULT:     -11.7      0.000      0.000
REMARK SMILES CCc1cccc(C)c1Nc1ccccc1CC(=O)OCCOCCOCCOC(=O)c1ccc(-c2c3nc(c(-c4c(F)cccc4F)c4ccc([nH]4)c(-c4c(F)cccc4F)c4nc(c(-c5c(F)cccc5F)c5ccc2[nH]5)C=C4)C=C3)cc1
REMARK SMILES IDX 24 1 23 2 22 3 21 4 20 5 18 6 19 7 17 8 16 9 11 10 12 11
REMARK SMILES IDX 13 12 15 13 14 14 10 15 9 17 3 18 4 19 5 20 7 21 6 22 8 23
REMARK SMILES IDX 2 24 1 25 25 26 26 27 27 28 28 29 29 30 30 31 31 32 32 33
REMARK SMILES IDX 33 34 85 35 34 36 84 37 35 38 36 39 37 40 78 41 38 42 83 43
REMARK SMILES IDX 77 44 79 45 39 46 82 47 76 48 75 49 40 51 66 52 49 53 65 54
REMARK SMILES IDX 50 55 53 56 64 57 80 58 51 59 52 60 63 62 81 63 54 64 41 65
REMARK SMILES IDX 42 66 47 67 43 68 44 69 46 70 48 71 45 72 67 73 68 74 73 75
REMARK SMILES IDX 69 76 70 77 72 78 74 79 71 80 55 81 56 82 61 83 57 84 58 85
REMARK SMILES IDX 60 86 62 87 59 88
REMARK H PARENT 10 16 79 50 53 61
REMARK Flexibility Score: inf
ROOT
ATOM      1  C   UNL A   1      41.083  21.349  27.392  1.00  0.00     0.188 C 
ENDROOT
BRANCH   1   2
ATOM      2  O   UNL A   1      39.956  21.931  26.730  1.00  0.00    -0.376 OA
BRANCH   2   3
ATOM      3  C   UNL A   1      39.660  23.251  27.300  1.00  0.00     0.202 C 
BRANCH   3   4
ATOM      4  C   UNL A   1      38.629  24.162  26.483  1.00  0.00     0.261 C 
BRANCH   4   5
ATOM      5  O   UNL A   1      37.375  23.720  25.296  1.00  0.00    -0.463 OA
BRANCH   5   6
ATOM      6  C   UNL A   1      36.834  22.708  24.249  1.00  0.00     0.310 C 
ATOM      7  O   UNL A   1      37.090  21.516  24.015  1.00  0.00    -0.252 OA
BRANCH   6   8
ATOM      8  C   UNL A   1      35.704  23.118  23.445  1.00  0.00     0.160 C 
BRANCH   8   9
ATOM      9  C   UNL A   1      34.502  23.041  24.288  1.00  0.00    -0.013 A 
ATOM     10  C   UNL A   1      34.068  24.265  24.984  1.00  0.00     0.042 A 
ATOM     11  C   UNL A   1      34.318  23.756  26.429  1.00  0.00     0.026 A 
ATOM     12  C   UNL A   1      34.334  22.373  26.869  1.00  0.00     0.002 A 
ATOM     13  C   UNL A   1      34.387  21.648  24.674  1.00  0.00     0.006 A 
ATOM     14  C   UNL A   1      34.241  21.320  25.983  1.00  0.00     0.000 A 
BRANCH  10  15
ATOM     15  N   UNL A   1      32.754  25.733  24.415  1.00  0.00    -0.355 N 
ATOM     16  H   UNL A   1      33.119  25.846  23.508  1.00  0.00     0.167 HD
BRANCH  15  17
ATOM     17  C   UNL A   1      31.487  26.958  24.250  1.00  0.00     0.045 A 
ATOM     18  C   UNL A   1      31.997  28.277  24.795  1.00  0.00    -0.024 A 
ATOM     19  C   UNL A   1      31.273  29.521  24.545  1.00  0.00     0.006 A 
ATOM     20  C   UNL A   1      30.079  29.665  23.911  1.00  0.00     0.001 A 
ATOM     21  C   UNL A   1      30.019  27.167  23.653  1.00  0.00    -0.027 A 
ATOM     22  C   UNL A   1      29.491  28.528  23.479  1.00  0.00     0.005 A 
ATOM     23  C   UNL A   1      28.410  26.627  23.715  1.00  0.00     0.046 C 
BRANCH  18  24
ATOM     24  C   UNL A   1      32.940  28.690  25.961  1.00  0.00     0.034 C 
ATOM     25  C   UNL A   1      34.356  28.420  26.395  1.00  0.00     0.009 C 
ENDBRANCH  18  24
ENDBRANCH  15  17
ENDBRANCH  10  15
ENDBRANCH   8   9
ENDBRANCH   6   8
ENDBRANCH   5   6
ENDBRANCH   4   5
ENDBRANCH   3   4
ENDBRANCH   2   3
ENDBRANCH   1   2
BRANCH   1  26
ATOM     26  C   UNL A   1      42.491  21.914  27.907  1.00  0.00     0.188 C 
BRANCH  26  27
ATOM     27  O   UNL A   1      43.456  22.462  27.039  1.00  0.00    -0.376 OA
BRANCH  27  28
ATOM     28  C   UNL A   1      43.828  23.773  27.566  1.00  0.00     0.202 C 
BRANCH  28  29
ATOM     29  C   UNL A   1      43.389  25.066  26.771  1.00  0.00     0.261 C 
BRANCH  29  30
ATOM     30  O   UNL A   1      42.174  25.688  27.275  1.00  0.00    -0.460 OA
BRANCH  30  31
ATOM     31  C   UNL A   1      41.490  26.538  26.433  1.00  0.00     0.338 C 
ATOM     32  O   UNL A   1      41.085  26.233  25.328  1.00  0.00    -0.246 OA
BRANCH  31  33
ATOM     33  C   UNL A   1      41.372  27.891  27.043  1.00  0.00     0.060 A 
ATOM     34  C   UNL A   1      42.628  29.251  27.262  1.00  0.00     0.016 A 
ATOM     35  C   UNL A   1      39.824  28.027  27.945  1.00  0.00     0.016 A 
ATOM     36  C   UNL A   1      42.437  30.451  28.675  1.00  0.00     0.010 A 
ATOM     37  C   UNL A   1      39.674  29.237  29.304  1.00  0.00     0.010 A 
ATOM     38  C   UNL A   1      40.991  30.433  29.804  1.00  0.00    -0.014 A 
BRANCH  38  39
ATOM     39  C   UNL A   1      40.794  31.444  31.278  1.00  0.00     0.031 A 
ATOM     40  C   UNL A   1      41.722  31.570  32.899  1.00  0.00     0.074 A 
ATOM     41  C   UNL A   1      39.937  32.482  31.078  1.00  0.00     0.049 A 
ATOM     42  N   UNL A   1      41.313  32.078  34.042  1.00  0.00    -0.248 NA
ATOM     43  C   UNL A   1      43.232  30.900  33.427  1.00  0.00     0.031 C 
ATOM     44  C   UNL A   1      40.076  33.779  31.740  1.00  0.00     0.029 A 
ATOM     45  N   UNL A   1      38.875  32.694  30.179  1.00  0.00    -0.354 N 
ATOM     46  C   UNL A   1      42.447  32.044  34.936  1.00  0.00     0.074 A 
ATOM     47  C   UNL A   1      43.202  30.893  34.738  1.00  0.00     0.031 C 
ATOM     48  C   UNL A   1      39.131  34.625  31.302  1.00  0.00     0.029 A 
ATOM     49  C   UNL A   1      38.135  33.821  30.642  1.00  0.00     0.049 A 
ATOM     50  H   UNL A   1      38.680  32.161  29.375  1.00  0.00     0.167 HD
ATOM     51  C   UNL A   1      42.991  33.185  35.458  1.00  0.00     0.037 A 
ATOM     52  C   UNL A   1      36.859  33.714  31.148  1.00  0.00     0.037 A 
ATOM     53  C   UNL A   1      41.957  34.177  35.406  1.00  0.00     0.049 A 
ATOM     54  C   UNL A   1      36.764  33.926  32.655  1.00  0.00     0.074 A 
ATOM     55  C   UNL A   1      41.728  35.351  34.733  1.00  0.00     0.029 A 
ATOM     56  N   UNL A   1      40.734  33.742  35.871  1.00  0.00    -0.354 N 
ATOM     57  N   UNL A   1      37.771  34.249  33.425  1.00  0.00    -0.248 NA
ATOM     58  C   UNL A   1      35.535  33.743  33.424  1.00  0.00     0.031 C 
ATOM     59  C   UNL A   1      40.303  35.539  34.721  1.00  0.00     0.029 A 
ATOM     60  C   UNL A   1      39.694  34.500  35.417  1.00  0.00     0.049 A 
ATOM     61  H   UNL A   1      40.623  32.967  36.468  1.00  0.00     0.167 HD
ATOM     62  C   UNL A   1      37.422  34.075  34.736  1.00  0.00     0.074 A 
ATOM     63  C   UNL A   1      35.991  33.871  34.681  1.00  0.00     0.031 C 
ATOM     64  C   UNL A   1      38.351  34.010  35.740  1.00  0.00     0.037 A 
BRANCH  51  65
ATOM     65  C   UNL A   1      44.454  33.412  35.910  1.00  0.00     0.057 A 
ATOM     66  C   UNL A   1      44.696  33.579  37.286  1.00  0.00     0.134 A 
ATOM     67  C   UNL A   1      45.640  33.553  35.127  1.00  0.00     0.134 A 
ATOM     68  F   UNL A   1      43.691  33.522  38.169  1.00  0.00    -0.206 F 
ATOM     69  C   UNL A   1      45.969  33.825  37.834  1.00  0.00     0.040 A 
ATOM     70  C   UNL A   1      46.928  33.749  35.670  1.00  0.00     0.040 A 
ATOM     71  F   UNL A   1      45.642  33.577  33.787  1.00  0.00    -0.206 F 
ATOM     72  C   UNL A   1      47.098  33.890  37.033  1.00  0.00     0.006 A 
ENDBRANCH  51  65
BRANCH  52  73
ATOM     73  C   UNL A   1      36.028  32.757  30.367  1.00  0.00     0.057 A 
ATOM     74  C   UNL A   1      35.722  33.157  29.055  1.00  0.00     0.134 A 
ATOM     75  C   UNL A   1      36.185  31.394  30.622  1.00  0.00     0.134 A 
ATOM     76  F   UNL A   1      35.448  34.441  28.779  1.00  0.00    -0.206 F 
ATOM     77  C   UNL A   1      35.917  32.286  27.991  1.00  0.00     0.040 A 
ATOM     78  C   UNL A   1      36.350  30.506  29.566  1.00  0.00     0.040 A 
ATOM     79  F   UNL A   1      36.375  30.943  31.868  1.00  0.00    -0.206 F 
ATOM     80  C   UNL A   1      36.302  30.977  28.255  1.00  0.00     0.006 A 
ENDBRANCH  52  73
BRANCH  64  81
ATOM     81  C   UNL A   1      38.082  33.384  37.121  1.00  0.00     0.057 A 
ATOM     82  C   UNL A   1      37.699  32.050  37.328  1.00  0.00     0.134 A 
ATOM     83  C   UNL A   1      38.330  34.093  38.328  1.00  0.00     0.134 A 
ATOM     84  F   UNL A   1      37.644  31.159  36.332  1.00  0.00    -0.206 F 
ATOM     85  C   UNL A   1      37.408  31.529  38.598  1.00  0.00     0.040 A 
ATOM     86  C   UNL A   1      38.176  33.539  39.602  1.00  0.00     0.040 A 
ATOM     87  F   UNL A   1      38.764  35.360  38.346  1.00  0.00    -0.206 F 
ATOM     88  C   UNL A   1      37.648  32.271  39.743  1.00  0.00     0.006 A 
ENDBRANCH  64  81
ENDBRANCH  38  39
ENDBRANCH  31  33
ENDBRANCH  30  31
ENDBRANCH  29  30
ENDBRANCH  28  29
ENDBRANCH  27  28
ENDBRANCH  26  27
ENDBRANCH   1  26
TORSDOF 21
ENDMDL
MODEL 2
REMARK VINA RESULT:     -11.4      1.740      2.487
REMARK SMILES CCc1cccc(C)c1Nc1ccccc1CC(=O)OCCOCCOCCOC(=O)c1ccc(-c2c3nc(c(-c4c(F)cccc4F)c4ccc([nH]4)c(-c4c(F)cccc4F)c4nc(c(-c5c(F)cccc5F)c5ccc2[nH]5)C=C4)C=C3)cc1
REMARK SMILES IDX 24 1 23 2 22 3 21 4 20 5 18 6 19 7 17 8 16 9 11 10 12 11
REMARK SMILES IDX 13 12 15 13 14 14 10 15 9 17 3 18 4 19 5 20 7 21 6 22 8 23
REMARK SMILES IDX 2 24 1 25 25 26 26 27 27 28 28 29 29 30 30 31 31 32 32 33
REMARK SMILES IDX 33 34 85 35 34 36 84 37 35 38 36 39 37 40 78 41 38 42 83 43
REMARK SMILES IDX 77 44 79 45 39 46 82 47 76 48 75 49 40 51 66 52 49 53 65 54
REMARK SMILES IDX 50 55 53 56 64 57 80 58 51 59 52 60 63 62 81 63 54 64 41 65
REMARK SMILES IDX 42 66 47 67 43 68 44 69 46 70 48 71 45 72 67 73 68 74 73 75
REMARK SMILES IDX 69 76 70 77 72 78 74 79 71 80 55 81 56 82 61 83 57 84 58 85
REMARK SMILES IDX 60 86 62 87 59 88
REMARK H PARENT 10 16 79 50 53 61
REMARK Flexibility Score: inf
ROOT
ATOM      1  C   UNL A   1      40.111  21.206  26.116  1.00  0.00     0.188 C 
ENDROOT
BRANCH   1   2
ATOM      2  O   UNL A   1      39.007  22.110  26.229  1.00  0.00    -0.376 OA
BRANCH   2   3
ATOM      3  C   UNL A   1      37.910  21.677  25.354  1.00  0.00     0.202 C 
BRANCH   3   4
ATOM      4  C   UNL A   1      36.515  22.438  25.538  1.00  0.00     0.261 C 
BRANCH   4   5
ATOM      5  O   UNL A   1      34.861  21.803  25.738  1.00  0.00    -0.463 OA
BRANCH   5   6
ATOM      6  C   UNL A   1      33.829  21.037  26.610  1.00  0.00     0.310 C 
ATOM      7  O   UNL A   1      33.192  21.343  27.630  1.00  0.00    -0.252 OA
BRANCH   6   8
ATOM      8  C   UNL A   1      33.356  19.761  26.120  1.00  0.00     0.160 C 
BRANCH   8   9
ATOM      9  C   UNL A   1      33.647  19.697  24.680  1.00  0.00    -0.013 A 
ATOM     10  C   UNL A   1      32.776  20.456  23.766  1.00  0.00     0.042 A 
ATOM     11  C   UNL A   1      32.165  19.232  23.032  1.00  0.00     0.026 A 
ATOM     12  C   UNL A   1      32.765  17.918  22.894  1.00  0.00     0.002 A 
ATOM     13  C   UNL A   1      34.357  18.448  24.484  1.00  0.00     0.006 A 
ATOM     14  C   UNL A   1      33.938  17.576  23.532  1.00  0.00     0.000 A 
BRANCH  10  15
ATOM     15  N   UNL A   1      32.949  22.362  23.030  1.00  0.00    -0.355 N 
ATOM     16  H   UNL A   1      33.394  22.104  22.191  1.00  0.00     0.167 HD
BRANCH  15  17
ATOM     17  C   UNL A   1      32.936  24.100  22.696  1.00  0.00     0.045 A 
ATOM     18  C   UNL A   1      32.852  24.858  24.006  1.00  0.00    -0.024 A 
ATOM     19  C   UNL A   1      33.095  26.298  24.056  1.00  0.00     0.006 A 
ATOM     20  C   UNL A   1      33.330  27.129  23.007  1.00  0.00     0.001 A 
ATOM     21  C   UNL A   1      33.062  25.144  21.491  1.00  0.00    -0.027 A 
ATOM     22  C   UNL A   1      33.321  26.562  21.780  1.00  0.00     0.005 A 
ATOM     23  C   UNL A   1      32.386  25.641  20.016  1.00  0.00     0.046 C 
BRANCH  18  24
ATOM     24  C   UNL A   1      32.152  24.609  25.372  1.00  0.00     0.034 C 
ATOM     25  C   UNL A   1      31.178  23.622  25.960  1.00  0.00     0.009 C 
ENDBRANCH  18  24
ENDBRANCH  15  17
ENDBRANCH  10  15
ENDBRANCH   8   9
ENDBRANCH   6   8
ENDBRANCH   5   6
ENDBRANCH   4   5
ENDBRANCH   3   4
ENDBRANCH   2   3
ENDBRANCH   1   2
BRANCH   1  26
ATOM     26  C   UNL A   1      41.698  21.356  26.274  1.00  0.00     0.188 C 
BRANCH  26  27
ATOM     27  O   UNL A   1      42.293  22.291  27.145  1.00  0.00    -0.376 OA
BRANCH  27  28
ATOM     28  C   UNL A   1      42.265  23.591  26.478  1.00  0.00     0.202 C 
BRANCH  28  29
ATOM     29  C   UNL A   1      43.239  24.728  26.984  1.00  0.00     0.261 C 
BRANCH  29  30
ATOM     30  O   UNL A   1      43.139  25.971  26.233  1.00  0.00    -0.460 OA
BRANCH  30  31
ATOM     31  C   UNL A   1      41.983  26.709  26.363  1.00  0.00     0.338 C 
ATOM     32  O   UNL A   1      41.279  27.054  25.434  1.00  0.00    -0.246 OA
BRANCH  31  33
ATOM     33  C   UNL A   1      41.754  27.070  27.789  1.00  0.00     0.060 A 
ATOM     34  C   UNL A   1      40.238  26.918  28.865  1.00  0.00     0.016 A 
ATOM     35  C   UNL A   1      43.114  28.076  28.396  1.00  0.00     0.016 A 
ATOM     36  C   UNL A   1      40.005  28.101  30.286  1.00  0.00     0.010 A 
ATOM     37  C   UNL A   1      42.845  29.200  29.809  1.00  0.00     0.010 A 
ATOM     38  C   UNL A   1      41.266  29.347  30.757  1.00  0.00    -0.014 A 
BRANCH  38  39
ATOM     39  C   UNL A   1      41.068  30.624  32.008  1.00  0.00     0.031 A 
ATOM     40  C   UNL A   1      41.993  31.060  33.576  1.00  0.00     0.074 A 
ATOM     41  C   UNL A   1      40.212  31.604  31.610  1.00  0.00     0.049 A 
ATOM     42  N   UNL A   1      41.582  31.779  34.599  1.00  0.00    -0.248 NA
ATOM     43  C   UNL A   1      43.502  30.504  34.226  1.00  0.00     0.031 C 
ATOM     44  C   UNL A   1      40.351  33.005  32.009  1.00  0.00     0.029 A 
ATOM     45  N   UNL A   1      39.151  31.639  30.685  1.00  0.00    -0.354 N 
ATOM     46  C   UNL A   1      42.715  31.919  35.484  1.00  0.00     0.074 A 
ATOM     47  C   UNL A   1      43.470  30.750  35.514  1.00  0.00     0.031 C 
ATOM     48  C   UNL A   1      39.408  33.751  31.414  1.00  0.00     0.029 A 
ATOM     49  C   UNL A   1      38.411  32.834  30.920  1.00  0.00     0.049 A 
ATOM     50  H   UNL A   1      38.957  30.961  29.998  1.00  0.00     0.167 HD
ATOM     51  C   UNL A   1      43.259  33.138  35.777  1.00  0.00     0.037 A 
ATOM     52  C   UNL A   1      37.135  32.828  31.434  1.00  0.00     0.037 A 
ATOM     53  C   UNL A   1      42.226  34.102  35.532  1.00  0.00     0.049 A 
ATOM     54  C   UNL A   1      37.038  33.327  32.872  1.00  0.00     0.074 A 
ATOM     55  C   UNL A   1      41.999  35.124  34.644  1.00  0.00     0.029 A 
ATOM     56  N   UNL A   1      41.002  33.766  36.070  1.00  0.00    -0.354 N 
ATOM     57  N   UNL A   1      38.043  33.792  33.567  1.00  0.00    -0.248 NA
ATOM     58  C   UNL A   1      35.807  33.297  33.660  1.00  0.00     0.031 C 
ATOM     59  C   UNL A   1      40.574  35.307  34.594  1.00  0.00     0.029 A 
ATOM     60  C   UNL A   1      39.963  34.423  35.476  1.00  0.00     0.049 A 
ATOM     61  H   UNL A   1      40.889  33.121  36.806  1.00  0.00     0.167 HD
ATOM     62  C   UNL A   1      37.692  33.875  34.887  1.00  0.00     0.074 A 
ATOM     63  C   UNL A   1      36.261  33.665  34.869  1.00  0.00     0.031 C 
ATOM     64  C   UNL A   1      38.619  34.005  35.885  1.00  0.00     0.037 A 
BRANCH  51  65
ATOM     65  C   UNL A   1      44.722  33.448  36.180  1.00  0.00     0.057 A 
ATOM     66  C   UNL A   1      45.007  33.593  37.549  1.00  0.00     0.134 A 
ATOM     67  C   UNL A   1      45.863  33.687  35.356  1.00  0.00     0.134 A 
ATOM     68  F   UNL A   1      44.044  33.447  38.468  1.00  0.00    -0.206 F 
ATOM     69  C   UNL A   1      46.283  33.907  38.055  1.00  0.00     0.040 A 
ATOM     70  C   UNL A   1      47.157  33.951  35.855  1.00  0.00     0.040 A 
ATOM     71  F   UNL A   1      45.810  33.748  34.018  1.00  0.00    -0.206 F 
ATOM     72  C   UNL A   1      47.373  34.066  37.214  1.00  0.00     0.006 A 
ENDBRANCH  51  65
BRANCH  52  73
ATOM     73  C   UNL A   1      36.304  31.739  30.851  1.00  0.00     0.057 A 
ATOM     74  C   UNL A   1      35.975  31.893  29.494  1.00  0.00     0.134 A 
ATOM     75  C   UNL A   1      36.481  30.445  31.345  1.00  0.00     0.134 A 
ATOM     76  F   UNL A   1      35.682  33.104  28.996  1.00  0.00    -0.206 F 
ATOM     77  C   UNL A   1      36.166  30.847  28.601  1.00  0.00     0.040 A 
ATOM     78  C   UNL A   1      36.642  29.383  30.463  1.00  0.00     0.040 A 
ATOM     79  F   UNL A   1      36.694  30.228  32.649  1.00  0.00    -0.206 F 
ATOM     80  C   UNL A   1      36.570  29.610  29.091  1.00  0.00     0.006 A 
ENDBRANCH  52  73
BRANCH  64  81
ATOM     81  C   UNL A   1      38.348  33.658  37.361  1.00  0.00     0.057 A 
ATOM     82  C   UNL A   1      37.925  32.400  37.817  1.00  0.00     0.134 A 
ATOM     83  C   UNL A   1      38.633  34.571  38.413  1.00  0.00     0.134 A 
ATOM     84  F   UNL A   1      37.829  31.340  37.005  1.00  0.00    -0.206 F 
ATOM     85  C   UNL A   1      37.632  32.136  39.163  1.00  0.00     0.040 A 
ATOM     86  C   UNL A   1      38.477  34.271  39.769  1.00  0.00     0.040 A 
ATOM     87  F   UNL A   1      39.107  35.804  38.190  1.00  0.00    -0.206 F 
ATOM     88  C   UNL A   1      37.910  33.070  40.147  1.00  0.00     0.006 A 
ENDBRANCH  64  81
ENDBRANCH  38  39
ENDBRANCH  31  33
ENDBRANCH  30  31
ENDBRANCH  29  30
ENDBRANCH  28  29
ENDBRANCH  27  28
ENDBRANCH  26  27
ENDBRANCH   1  26
TORSDOF 21
ENDMDL
MODEL 3
REMARK VINA RESULT:     -11.2     10.387     16.198
REMARK SMILES CCc1cccc(C)c1Nc1ccccc1CC(=O)OCCOCCOCCOC(=O)c1ccc(-c2c3nc(c(-c4c(F)cccc4F)c4ccc([nH]4)c(-c4c(F)cccc4F)c4nc(c(-c5c(F)cccc5F)c5ccc2[nH]5)C=C4)C=C3)cc1
REMARK SMILES IDX 24 1 23 2 22 3 21 4 20 5 18 6 19 7 17 8 16 9 11 10 12 11
REMARK SMILES IDX 13 12 15 13 14 14 10 15 9 17 3 18 4 19 5 20 7 21 6 22 8 23
REMARK SMILES IDX 2 24 1 25 25 26 26 27 27 28 28 29 29 30 30 31 31 32 32 33
REMARK SMILES IDX 33 34 85 35 34 36 84 37 35 38 36 39 37 40 78 41 38 42 83 43
REMARK SMILES IDX 77 44 79 45 39 46 82 47 76 48 75 49 40 51 66 52 49 53 65 54
REMARK SMILES IDX 50 55 53 56 64 57 80 58 51 59 52 60 63 62 81 63 54 64 41 65
REMARK SMILES IDX 42 66 47 67 43 68 44 69 46 70 48 71 45 72 67 73 68 74 73 75
REMARK SMILES IDX 69 76 70 77 72 78 74 79 71 80 55 81 56 82 61 83 57 84 58 85
REMARK SMILES IDX 60 86 62 87 59 88
REMARK H PARENT 10 16 79 50 53 61
REMARK Flexibility Score: inf
ROOT
ATOM      1  C   UNL A   1      44.419  41.467  24.991  1.00  0.00     0.188 C 
ENDROOT
BRANCH   1   2
ATOM      2  O   UNL A   1      43.067  41.392  24.528  1.00  0.00    -0.376 OA
BRANCH   2   3
ATOM      3  C   UNL A   1      42.602  42.720  24.112  1.00  0.00     0.202 C 
BRANCH   3   4
ATOM      4  C   UNL A   1      41.531  42.756  22.923  1.00  0.00     0.261 C 
BRANCH   4   5
ATOM      5  O   UNL A   1      41.594  43.545  21.326  1.00  0.00    -0.463 OA
BRANCH   5   6
ATOM      6  C   UNL A   1      41.802  43.424  19.792  1.00  0.00     0.310 C 
ATOM      7  O   UNL A   1      42.302  42.543  19.073  1.00  0.00    -0.252 OA
BRANCH   6   8
ATOM      8  C   UNL A   1      41.191  44.430  18.952  1.00  0.00     0.160 C 
BRANCH   8   9
ATOM      9  C   UNL A   1      42.244  45.005  18.102  1.00  0.00    -0.013 A 
ATOM     10  C   UNL A   1      43.196  45.942  18.722  1.00  0.00     0.042 A 
ATOM     11  C   UNL A   1      42.770  47.200  17.918  1.00  0.00     0.026 A 
ATOM     12  C   UNL A   1      42.140  47.219  16.610  1.00  0.00     0.002 A 
ATOM     13  C   UNL A   1      41.725  44.948  16.749  1.00  0.00     0.006 A 
ATOM     14  C   UNL A   1      41.731  46.065  15.976  1.00  0.00     0.000 A 
BRANCH  10  15
ATOM     15  N   UNL A   1      45.021  45.612  19.597  1.00  0.00    -0.355 N 
ATOM     16  H   UNL A   1      45.537  46.149  18.955  1.00  0.00     0.167 HD
BRANCH  15  17
ATOM     17  C   UNL A   1      46.410  45.133  20.585  1.00  0.00     0.045 A 
ATOM     18  C   UNL A   1      46.995  46.363  21.249  1.00  0.00    -0.024 A 
ATOM     19  C   UNL A   1      47.974  46.238  22.327  1.00  0.00     0.006 A 
ATOM     20  C   UNL A   1      48.533  45.094  22.803  1.00  0.00     0.001 A 
ATOM     21  C   UNL A   1      47.210  43.839  21.075  1.00  0.00    -0.027 A 
ATOM     22  C   UNL A   1      48.151  43.947  22.199  1.00  0.00     0.005 A 
ATOM     23  C   UNL A   1      48.087  42.479  20.563  1.00  0.00     0.046 C 
BRANCH  18  24
ATOM     24  C   UNL A   1      47.167  47.853  20.839  1.00  0.00     0.034 C 
ATOM     25  C   UNL A   1      46.495  48.838  19.920  1.00  0.00     0.009 C 
ENDBRANCH  18  24
ENDBRANCH  15  17
ENDBRANCH  10  15
ENDBRANCH   8   9
ENDBRANCH   6   8
ENDBRANCH   5   6
ENDBRANCH   4   5
ENDBRANCH   3   4
ENDBRANCH   2   3
ENDBRANCH   1   2
BRANCH   1  26
ATOM     26  C   UNL A   1      45.147  41.126  26.377  1.00  0.00     0.188 C 
BRANCH  26  27
ATOM     27  O   UNL A   1      46.546  41.173  26.535  1.00  0.00    -0.376 OA
BRANCH  27  28
ATOM     28  C   UNL A   1      46.981  39.852  26.985  1.00  0.00     0.202 C 
BRANCH  28  29
ATOM     29  C   UNL A   1      46.181  38.580  26.498  1.00  0.00     0.261 C 
BRANCH  29  30
ATOM     30  O   UNL A   1      46.925  37.728  25.582  1.00  0.00    -0.460 OA
BRANCH  30  31
ATOM     31  C   UNL A   1      47.628  36.670  26.116  1.00  0.00     0.338 C 
ATOM     32  O   UNL A   1      48.694  36.774  26.691  1.00  0.00    -0.246 OA
BRANCH  31  33
ATOM     33  C   UNL A   1      46.930  35.386  25.837  1.00  0.00     0.060 A 
ATOM     34  C   UNL A   1      45.152  35.024  25.409  1.00  0.00     0.016 A 
ATOM     35  C   UNL A   1      47.978  34.002  26.300  1.00  0.00     0.016 A 
ATOM     36  C   UNL A   1      44.422  33.370  25.862  1.00  0.00     0.010 A 
ATOM     37  C   UNL A   1      47.220  32.392  26.709  1.00  0.00     0.010 A 
ATOM     38  C   UNL A   1      45.413  32.020  26.611  1.00  0.00    -0.014 A 
BRANCH  38  39
ATOM     39  C   UNL A   1      44.768  30.455  27.220  1.00  0.00     0.031 A 
ATOM     40  C   UNL A   1      43.523  29.990  28.539  1.00  0.00     0.074 A 
ATOM     41  C   UNL A   1      45.082  29.416  26.400  1.00  0.00     0.049 A 
ATOM     42  N   UNL A   1      43.368  28.835  29.151  1.00  0.00    -0.248 NA
ATOM     43  C   UNL A   1      42.402  30.937  29.463  1.00  0.00     0.031 C 
ATOM     44  C   UNL A   1      44.216  28.253  26.207  1.00  0.00     0.029 A 
ATOM     45  N   UNL A   1      46.115  29.204  25.468  1.00  0.00    -0.354 N 
ATOM     46  C   UNL A   1      42.194  28.965  29.982  1.00  0.00     0.074 A 
ATOM     47  C   UNL A   1      42.114  30.239  30.535  1.00  0.00     0.031 C 
ATOM     48  C   UNL A   1      44.750  27.425  25.296  1.00  0.00     0.029 A 
ATOM     49  C   UNL A   1      46.129  27.815  25.146  1.00  0.00     0.049 A 
ATOM     50  H   UNL A   1      46.718  29.891  25.103  1.00  0.00     0.167 HD
ATOM     51  C   UNL A   1      41.085  28.188  29.794  1.00  0.00     0.037 A 
ATOM     52  C   UNL A   1      47.151  26.975  25.528  1.00  0.00     0.037 A 
ATOM     53  C   UNL A   1      41.537  27.012  29.107  1.00  0.00     0.049 A 
ATOM     54  C   UNL A   1      46.772  25.991  26.629  1.00  0.00     0.074 A 
ATOM     55  C   UNL A   1      41.365  26.448  27.868  1.00  0.00     0.029 A 
ATOM     56  N   UNL A   1      42.671  26.445  29.647  1.00  0.00    -0.354 N 
ATOM     57  N   UNL A   1      45.576  25.877  27.146  1.00  0.00    -0.248 NA
ATOM     58  C   UNL A   1      47.724  25.089  27.273  1.00  0.00     0.031 C 
ATOM     59  C   UNL A   1      42.506  25.602  27.647  1.00  0.00     0.029 A 
ATOM     60  C   UNL A   1      43.330  25.637  28.766  1.00  0.00     0.049 A 
ATOM     61  H   UNL A   1      42.972  26.604  30.571  1.00  0.00     0.167 HD
ATOM     62  C   UNL A   1      45.637  25.131  28.290  1.00  0.00     0.074 A 
ATOM     63  C   UNL A   1      46.972  24.573  28.258  1.00  0.00     0.031 C 
ATOM     64  C   UNL A   1      44.627  25.120  29.214  1.00  0.00     0.037 A 
BRANCH  51  65
ATOM     65  C   UNL A   1      39.616  28.538  30.139  1.00  0.00     0.057 A 
ATOM     66  C   UNL A   1      38.820  29.091  29.120  1.00  0.00     0.134 A 
ATOM     67  C   UNL A   1      38.927  28.452  31.386  1.00  0.00     0.134 A 
ATOM     68  F   UNL A   1      39.316  29.285  27.892  1.00  0.00    -0.206 F 
ATOM     69  C   UNL A   1      37.480  29.486  29.301  1.00  0.00     0.040 A 
ATOM     70  C   UNL A   1      37.570  28.798  31.565  1.00  0.00     0.040 A 
ATOM     71  F   UNL A   1      39.518  28.094  32.534  1.00  0.00    -0.206 F 
ATOM     72  C   UNL A   1      36.838  29.322  30.518  1.00  0.00     0.006 A 
ENDBRANCH  51  65
BRANCH  52  73
ATOM     73  C   UNL A   1      48.485  27.617  25.378  1.00  0.00     0.057 A 
ATOM     74  C   UNL A   1      49.083  28.050  26.573  1.00  0.00     0.134 A 
ATOM     75  C   UNL A   1      49.316  27.168  24.350  1.00  0.00     0.134 A 
ATOM     76  F   UNL A   1      48.341  28.598  27.548  1.00  0.00    -0.206 F 
ATOM     77  C   UNL A   1      50.400  27.718  26.862  1.00  0.00     0.040 A 
ATOM     78  C   UNL A   1      50.645  26.861  24.616  1.00  0.00     0.040 A 
ATOM     79  F   UNL A   1      48.815  26.840  23.152  1.00  0.00    -0.206 F 
ATOM     80  C   UNL A   1      51.153  27.057  25.898  1.00  0.00     0.006 A 
ENDBRANCH  52  73
BRANCH  64  81
ATOM     81  C   UNL A   1      44.807  24.686  30.680  1.00  0.00     0.057 A 
ATOM     82  C   UNL A   1      45.589  25.373  31.622  1.00  0.00     0.134 A 
ATOM     83  C   UNL A   1      44.076  23.601  31.239  1.00  0.00     0.134 A 
ATOM     84  F   UNL A   1      46.165  26.550  31.352  1.00  0.00    -0.206 F 
ATOM     85  C   UNL A   1      45.776  24.917  32.936  1.00  0.00     0.040 A 
ATOM     86  C   UNL A   1      44.149  23.223  32.582  1.00  0.00     0.040 A 
ATOM     87  F   UNL A   1      43.225  22.857  30.520  1.00  0.00    -0.206 F 
ATOM     88  C   UNL A   1      45.053  23.840  33.423  1.00  0.00     0.006 A 
ENDBRANCH  64  81
ENDBRANCH  38  39
ENDBRANCH  31  33
ENDBRANCH  30  31
ENDBRANCH  29  30
ENDBRANCH  28  29
ENDBRANCH  27  28
ENDBRANCH  26  27
ENDBRANCH   1  26
TORSDOF 21
ENDMDL
