MODEL 1
REMARK VINA RESULT:     -11.5      0.000      0.000
REMARK SMILES C[C@@H]1CCc2sc(NC(=O)/C=C/C(=O)OCCOCCOCCOC(=O)c3ccc(-c4c5nc(c(-c6c(F)cccc6F)c6ccc([nH]6)c(-c6c(F)cccc6F)c6nc(c(-c7c(F)cccc7F)c7ccc4[nH]7)C=C6)C=C5)cc3)c(C#N)c2C1
REMARK SMILES IDX 19 1 18 2 17 3 16 4 15 5 13 6 14 7 12 8 11 9 9 10 8 11 10 13
REMARK SMILES IDX 7 14 1 15 2 16 3 17 85 18 4 19 84 20 5 21 81 22 6 23 82 24
REMARK SMILES IDX 83 25 20 26 21 27 22 28 23 29 24 30 25 31 26 32 27 33 28 34
REMARK SMILES IDX 80 35 29 36 79 37 30 38 31 39 32 40 73 41 33 42 78 43 72 44
REMARK SMILES IDX 74 45 34 46 77 47 71 48 70 49 35 51 61 52 44 53 60 54 45 55
REMARK SMILES IDX 48 56 59 57 75 58 46 59 47 60 58 62 76 63 49 64 36 65 37 66
REMARK SMILES IDX 42 67 38 68 39 69 41 70 43 71 40 72 62 73 63 74 68 75 64 76
REMARK SMILES IDX 65 77 67 78 69 79 66 80 50 81 51 82 56 83 52 84 53 85 55 86
REMARK SMILES IDX 57 87 54 88
REMARK H PARENT 8 12 74 50 48 61
REMARK Flexibility Score: inf
ROOT
ATOM      1  C   UNL A   1      34.739  33.523  28.022  1.00  0.00     0.188 C 
ENDROOT
BRANCH   1   2
ATOM      2  O   UNL A   1      35.038  32.259  27.479  1.00  0.00    -0.376 OA
BRANCH   2   3
ATOM      3  C   UNL A   1      34.448  31.070  27.977  1.00  0.00     0.202 C 
BRANCH   3   4
ATOM      4  C   UNL A   1      33.796  29.987  27.089  1.00  0.00     0.261 C 
BRANCH   4   5
ATOM      5  O   UNL A   1      32.375  29.900  27.217  1.00  0.00    -0.460 OA
BRANCH   5   6
ATOM      6  C   UNL A   1      31.843  28.659  27.204  1.00  0.00     0.331 C 
ATOM      7  O   UNL A   1      31.178  28.142  28.083  1.00  0.00    -0.247 OA
BRANCH   6   8
ATOM      8  C   UNL A   1      31.926  28.128  25.832  1.00  0.00     0.099 C 
ATOM      9  C   UNL A   1      31.016  27.392  25.205  1.00  0.00     0.079 C 
BRANCH   9  10
ATOM     10  C   UNL A   1      31.129  26.952  23.795  1.00  0.00     0.249 C 
ATOM     11  N   UNL A   1      31.566  25.746  23.338  1.00  0.00    -0.313 N 
ATOM     12  H   UNL A   1      31.516  25.696  22.355  1.00  0.00     0.171 HD
ATOM     13  O   UNL A   1      30.783  27.776  22.939  1.00  0.00    -0.270 OA
BRANCH  11  14
ATOM     14  C   UNL A   1      32.056  24.576  23.875  1.00  0.00     0.114 A 
ATOM     15  C   UNL A   1      33.803  21.359  27.195  1.00  0.00     0.008 C 
ATOM     16  C   UNL A   1      33.525  20.560  25.914  1.00  0.00    -0.009 C 
ATOM     17  C   UNL A   1      34.700  20.588  24.901  1.00  0.00     0.009 C 
ATOM     18  C   UNL A   1      32.249  21.071  25.229  1.00  0.00     0.041 C 
ATOM     19  C   UNL A   1      34.961  21.959  24.242  1.00  0.00     0.047 C 
ATOM     20  C   UNL A   1      32.485  22.427  24.630  1.00  0.00    -0.014 A 
ATOM     21  C   UNL A   1      33.693  22.737  24.044  1.00  0.00     0.011 A 
ATOM     22  C   UNL A   1      31.762  23.646  24.851  1.00  0.00     0.090 A 
ATOM     23  S   UNL A   1      33.606  24.206  23.194  1.00  0.00    -0.121 S 
BRANCH  22  24
ATOM     24  C   UNL A   1      30.955  23.836  26.013  1.00  0.00     0.103 C 
ATOM     25  N   UNL A   1      30.286  23.876  26.965  1.00  0.00    -0.192 NA
ENDBRANCH  22  24
ENDBRANCH  11  14
ENDBRANCH   9  10
ENDBRANCH   6   8
ENDBRANCH   5   6
ENDBRANCH   4   5
ENDBRANCH   3   4
ENDBRANCH   2   3
ENDBRANCH   1   2
BRANCH   1  26
ATOM     26  C   UNL A   1      33.293  34.073  28.149  1.00  0.00     0.188 C 
BRANCH  26  27
ATOM     27  O   UNL A   1      32.698  34.557  29.333  1.00  0.00    -0.376 OA
BRANCH  27  28
ATOM     28  C   UNL A   1      32.942  35.827  29.915  1.00  0.00     0.202 C 
BRANCH  28  29
ATOM     29  C   UNL A   1      32.755  36.128  31.401  1.00  0.00     0.261 C 
BRANCH  29  30
ATOM     30  O   UNL A   1      33.066  35.040  32.240  1.00  0.00    -0.460 OA
BRANCH  30  31
ATOM     31  C   UNL A   1      34.177  35.250  32.980  1.00  0.00     0.338 C 
ATOM     32  O   UNL A   1      34.770  36.302  33.150  1.00  0.00    -0.246 OA
BRANCH  31  33
ATOM     33  C   UNL A   1      34.549  33.966  33.615  1.00  0.00     0.060 A 
ATOM     34  C   UNL A   1      35.534  34.096  34.593  1.00  0.00     0.016 A 
ATOM     35  C   UNL A   1      34.507  32.881  32.746  1.00  0.00     0.016 A 
ATOM     36  C   UNL A   1      36.750  33.531  34.304  1.00  0.00     0.010 A 
ATOM     37  C   UNL A   1      35.708  32.302  32.472  1.00  0.00     0.010 A 
ATOM     38  C   UNL A   1      36.845  32.772  33.137  1.00  0.00    -0.014 A 
BRANCH  38  39
ATOM     39  C   UNL A   1      38.130  32.300  32.674  1.00  0.00     0.031 A 
ATOM     40  C   UNL A   1      39.037  32.184  33.837  1.00  0.00     0.074 A 
ATOM     41  C   UNL A   1      38.350  31.903  31.401  1.00  0.00     0.049 A 
ATOM     42  N   UNL A   1      39.916  33.054  34.215  1.00  0.00    -0.248 NA
ATOM     43  C   UNL A   1      38.681  31.212  34.894  1.00  0.00     0.031 C 
ATOM     44  C   UNL A   1      37.421  31.836  30.266  1.00  0.00     0.029 A 
ATOM     45  N   UNL A   1      39.493  31.364  30.876  1.00  0.00    -0.354 N 
ATOM     46  C   UNL A   1      40.400  32.540  35.413  1.00  0.00     0.074 A 
ATOM     47  C   UNL A   1      39.356  31.712  35.928  1.00  0.00     0.031 C 
ATOM     48  C   UNL A   1      37.951  31.059  29.289  1.00  0.00     0.029 A 
ATOM     49  C   UNL A   1      39.291  30.664  29.673  1.00  0.00     0.049 A 
ATOM     50  H   UNL A   1      40.376  31.457  31.302  1.00  0.00     0.167 HD
ATOM     51  C   UNL A   1      41.742  32.431  35.619  1.00  0.00     0.037 A 
ATOM     52  C   UNL A   1      40.174  29.768  29.145  1.00  0.00     0.037 A 
ATOM     53  C   UNL A   1      42.451  33.286  34.694  1.00  0.00     0.049 A 
ATOM     54  C   UNL A   1      41.496  30.063  29.773  1.00  0.00     0.074 A 
ATOM     55  C   UNL A   1      42.438  34.639  34.417  1.00  0.00     0.029 A 
ATOM     56  N   UNL A   1      43.001  32.676  33.592  1.00  0.00    -0.354 N 
ATOM     57  N   UNL A   1      42.140  31.183  29.572  1.00  0.00    -0.248 NA
ATOM     58  C   UNL A   1      41.777  29.390  31.036  1.00  0.00     0.031 C 
ATOM     59  C   UNL A   1      42.545  34.729  32.999  1.00  0.00     0.029 A 
ATOM     60  C   UNL A   1      42.739  33.445  32.490  1.00  0.00     0.049 A 
ATOM     61  H   UNL A   1      43.500  31.827  33.595  1.00  0.00     0.167 HD
ATOM     62  C   UNL A   1      42.526  31.588  30.844  1.00  0.00     0.074 A 
ATOM     63  C   UNL A   1      42.291  30.426  31.705  1.00  0.00     0.031 C 
ATOM     64  C   UNL A   1      42.687  32.910  31.149  1.00  0.00     0.037 A 
BRANCH  51  65
ATOM     65  C   UNL A   1      42.404  31.224  36.264  1.00  0.00     0.057 A 
ATOM     66  C   UNL A   1      43.351  31.468  37.273  1.00  0.00     0.134 A 
ATOM     67  C   UNL A   1      42.395  29.895  35.780  1.00  0.00     0.134 A 
ATOM     68  F   UNL A   1      43.450  32.677  37.845  1.00  0.00    -0.206 F 
ATOM     69  C   UNL A   1      44.292  30.510  37.673  1.00  0.00     0.040 A 
ATOM     70  C   UNL A   1      43.304  28.921  36.200  1.00  0.00     0.040 A 
ATOM     71  F   UNL A   1      41.576  29.452  34.824  1.00  0.00    -0.206 F 
ATOM     72  C   UNL A   1      44.282  29.238  37.121  1.00  0.00     0.006 A 
ENDBRANCH  51  65
BRANCH  52  73
ATOM     73  C   UNL A   1      39.887  28.451  28.507  1.00  0.00     0.057 A 
ATOM     74  C   UNL A   1      40.389  28.115  27.236  1.00  0.00     0.134 A 
ATOM     75  C   UNL A   1      39.365  27.379  29.251  1.00  0.00     0.134 A 
ATOM     76  F   UNL A   1      40.952  29.050  26.456  1.00  0.00    -0.206 F 
ATOM     77  C   UNL A   1      40.392  26.794  26.752  1.00  0.00     0.040 A 
ATOM     78  C   UNL A   1      39.362  26.060  28.781  1.00  0.00     0.040 A 
ATOM     79  F   UNL A   1      38.924  27.556  30.504  1.00  0.00    -0.206 F 
ATOM     80  C   UNL A   1      39.889  25.759  27.533  1.00  0.00     0.006 A 
ENDBRANCH  52  73
BRANCH  64  81
ATOM     81  C   UNL A   1      42.634  33.913  30.031  1.00  0.00     0.057 A 
ATOM     82  C   UNL A   1      41.473  34.584  29.613  1.00  0.00     0.134 A 
ATOM     83  C   UNL A   1      43.844  34.347  29.482  1.00  0.00     0.134 A 
ATOM     84  F   UNL A   1      40.281  34.309  30.157  1.00  0.00    -0.206 F 
ATOM     85  C   UNL A   1      41.516  35.614  28.667  1.00  0.00     0.040 A 
ATOM     86  C   UNL A   1      43.904  35.395  28.563  1.00  0.00     0.040 A 
ATOM     87  F   UNL A   1      44.999  33.796  29.883  1.00  0.00    -0.206 F 
ATOM     88  C   UNL A   1      42.737  36.027  28.143  1.00  0.00     0.006 A 
ENDBRANCH  64  81
ENDBRANCH  38  39
ENDBRANCH  31  33
ENDBRANCH  30  31
ENDBRANCH  29  30
ENDBRANCH  28  29
ENDBRANCH  27  28
ENDBRANCH  26  27
ENDBRANCH   1  26
TORSDOF 20
ENDMDL
MODEL 2
REMARK VINA RESULT:     -11.1      1.200      1.820
REMARK SMILES C[C@@H]1CCc2sc(NC(=O)/C=C/C(=O)OCCOCCOCCOC(=O)c3ccc(-c4c5nc(c(-c6c(F)cccc6F)c6ccc([nH]6)c(-c6c(F)cccc6F)c6nc(c(-c7c(F)cccc7F)c7ccc4[nH]7)C=C6)C=C5)cc3)c(C#N)c2C1
REMARK SMILES IDX 19 1 18 2 17 3 16 4 15 5 13 6 14 7 12 8 11 9 9 10 8 11 10 13
REMARK SMILES IDX 7 14 1 15 2 16 3 17 85 18 4 19 84 20 5 21 81 22 6 23 82 24
REMARK SMILES IDX 83 25 20 26 21 27 22 28 23 29 24 30 25 31 26 32 27 33 28 34
REMARK SMILES IDX 80 35 29 36 79 37 30 38 31 39 32 40 73 41 33 42 78 43 72 44
REMARK SMILES IDX 74 45 34 46 77 47 71 48 70 49 35 51 61 52 44 53 60 54 45 55
REMARK SMILES IDX 48 56 59 57 75 58 46 59 47 60 58 62 76 63 49 64 36 65 37 66
REMARK SMILES IDX 42 67 38 68 39 69 41 70 43 71 40 72 62 73 63 74 68 75 64 76
REMARK SMILES IDX 65 77 67 78 69 79 66 80 50 81 51 82 56 83 52 84 53 85 55 86
REMARK SMILES IDX 57 87 54 88
REMARK H PARENT 8 12 74 50 48 61
REMARK Flexibility Score: inf
ROOT
ATOM      1  C   UNL A   1      34.044  31.877  27.882  1.00  0.00     0.188 C 
ENDROOT
BRANCH   1   2
ATOM      2  O   UNL A   1      34.672  30.628  28.043  1.00  0.00    -0.376 OA
BRANCH   2   3
ATOM      3  C   UNL A   1      34.403  29.537  27.179  1.00  0.00     0.202 C 
BRANCH   3   4
ATOM      4  C   UNL A   1      33.182  28.601  27.317  1.00  0.00     0.261 C 
BRANCH   4   5
ATOM      5  O   UNL A   1      32.015  29.055  26.629  1.00  0.00    -0.460 OA
BRANCH   5   6
ATOM      6  C   UNL A   1      31.499  28.222  25.699  1.00  0.00     0.331 C 
ATOM      7  O   UNL A   1      31.440  28.417  24.499  1.00  0.00    -0.247 OA
BRANCH   6   8
ATOM      8  C   UNL A   1      31.292  26.901  26.317  1.00  0.00     0.099 C 
ATOM      9  C   UNL A   1      30.492  25.934  25.883  1.00  0.00     0.079 C 
BRANCH   9  10
ATOM     10  C   UNL A   1      30.386  24.596  26.511  1.00  0.00     0.249 C 
ATOM     11  N   UNL A   1      31.353  23.640  26.587  1.00  0.00    -0.313 N 
ATOM     12  H   UNL A   1      31.037  22.850  27.081  1.00  0.00     0.171 HD
ATOM     13  O   UNL A   1      29.295  24.321  27.025  1.00  0.00    -0.270 OA
BRANCH  11  14
ATOM     14  C   UNL A   1      32.653  23.479  26.161  1.00  0.00     0.114 A 
ATOM     15  C   UNL A   1      36.508  22.823  23.139  1.00  0.00     0.008 C 
ATOM     16  C   UNL A   1      37.086  23.152  24.522  1.00  0.00    -0.009 C 
ATOM     17  C   UNL A   1      37.232  21.910  25.441  1.00  0.00     0.009 C 
ATOM     18  C   UNL A   1      36.224  24.210  25.227  1.00  0.00     0.041 C 
ATOM     19  C   UNL A   1      35.901  21.286  25.912  1.00  0.00     0.047 C 
ATOM     20  C   UNL A   1      34.908  23.618  25.642  1.00  0.00    -0.014 A 
ATOM     21  C   UNL A   1      34.832  22.322  26.101  1.00  0.00     0.011 A 
ATOM     22  C   UNL A   1      33.582  24.066  25.326  1.00  0.00     0.090 A 
ATOM     23  S   UNL A   1      33.306  21.995  26.773  1.00  0.00    -0.121 S 
BRANCH  22  24
ATOM     24  C   UNL A   1      33.326  24.916  24.208  1.00  0.00     0.103 C 
ATOM     25  N   UNL A   1      33.005  25.602  23.324  1.00  0.00    -0.192 NA
ENDBRANCH  22  24
ENDBRANCH  11  14
ENDBRANCH   9  10
ENDBRANCH   6   8
ENDBRANCH   5   6
ENDBRANCH   4   5
ENDBRANCH   3   4
ENDBRANCH   2   3
ENDBRANCH   1   2
BRANCH   1  26
ATOM     26  C   UNL A   1      34.790  33.231  28.037  1.00  0.00     0.188 C 
BRANCH  26  27
ATOM     27  O   UNL A   1      34.214  34.509  27.889  1.00  0.00    -0.376 OA
BRANCH  27  28
ATOM     28  C   UNL A   1      34.012  35.445  28.935  1.00  0.00     0.202 C 
BRANCH  28  29
ATOM     29  C   UNL A   1      32.930  35.299  30.005  1.00  0.00     0.261 C 
BRANCH  29  30
ATOM     30  O   UNL A   1      33.324  34.510  31.102  1.00  0.00    -0.460 OA
BRANCH  30  31
ATOM     31  C   UNL A   1      33.811  35.243  32.127  1.00  0.00     0.338 C 
ATOM     32  O   UNL A   1      33.785  36.455  32.252  1.00  0.00    -0.246 OA
BRANCH  31  33
ATOM     33  C   UNL A   1      34.356  34.306  33.135  1.00  0.00     0.060 A 
ATOM     34  C   UNL A   1      35.387  34.853  33.898  1.00  0.00     0.016 A 
ATOM     35  C   UNL A   1      34.368  32.981  32.717  1.00  0.00     0.016 A 
ATOM     36  C   UNL A   1      36.633  34.311  33.706  1.00  0.00     0.010 A 
ATOM     37  C   UNL A   1      35.601  32.430  32.546  1.00  0.00     0.010 A 
ATOM     38  C   UNL A   1      36.726  33.190  32.881  1.00  0.00    -0.014 A 
BRANCH  38  39
ATOM     39  C   UNL A   1      38.019  32.676  32.488  1.00  0.00     0.031 A 
ATOM     40  C   UNL A   1      38.889  32.626  33.683  1.00  0.00     0.074 A 
ATOM     41  C   UNL A   1      38.271  32.197  31.250  1.00  0.00     0.049 A 
ATOM     42  N   UNL A   1      39.767  33.510  34.031  1.00  0.00    -0.248 NA
ATOM     43  C   UNL A   1      38.491  31.726  34.787  1.00  0.00     0.031 C 
ATOM     44  C   UNL A   1      37.375  32.068  30.094  1.00  0.00     0.029 A 
ATOM     45  N   UNL A   1      39.422  31.615  30.795  1.00  0.00    -0.354 N 
ATOM     46  C   UNL A   1      40.210  33.068  35.273  1.00  0.00     0.074 A 
ATOM     47  C   UNL A   1      39.141  32.285  35.808  1.00  0.00     0.031 C 
ATOM     48  C   UNL A   1      37.924  31.225  29.184  1.00  0.00     0.029 A 
ATOM     49  C   UNL A   1      39.248  30.842  29.633  1.00  0.00     0.049 A 
ATOM     50  H   UNL A   1      40.293  31.726  31.240  1.00  0.00     0.167 HD
ATOM     51  C   UNL A   1      41.543  32.959  35.526  1.00  0.00     0.037 A 
ATOM     52  C   UNL A   1      40.135  29.905  29.189  1.00  0.00     0.037 A 
ATOM     53  C   UNL A   1      42.289  33.746  34.570  1.00  0.00     0.049 A 
ATOM     54  C   UNL A   1      41.442  30.227  29.836  1.00  0.00     0.074 A 
ATOM     55  C   UNL A   1      42.301  35.079  34.208  1.00  0.00     0.029 A 
ATOM     56  N   UNL A   1      42.864  33.062  33.526  1.00  0.00    -0.354 N 
ATOM     57  N   UNL A   1      42.105  31.324  29.584  1.00  0.00    -0.248 NA
ATOM     58  C   UNL A   1      41.678  29.632  31.147  1.00  0.00     0.031 C 
ATOM     59  C   UNL A   1      42.451  35.077  32.791  1.00  0.00     0.029 A 
ATOM     60  C   UNL A   1      42.644  33.762  32.370  1.00  0.00     0.049 A 
ATOM     61  H   UNL A   1      43.353  32.210  33.598  1.00  0.00     0.167 HD
ATOM     62  C   UNL A   1      42.457  31.806  30.840  1.00  0.00     0.074 A 
ATOM     63  C   UNL A   1      42.184  30.704  31.765  1.00  0.00     0.031 C 
ATOM     64  C   UNL A   1      42.625  33.143  31.065  1.00  0.00     0.037 A 
BRANCH  51  65
ATOM     65  C   UNL A   1      42.172  31.788  36.266  1.00  0.00     0.057 A 
ATOM     66  C   UNL A   1      43.078  32.087  37.298  1.00  0.00     0.134 A 
ATOM     67  C   UNL A   1      42.176  30.434  35.858  1.00  0.00     0.134 A 
ATOM     68  F   UNL A   1      43.160  33.326  37.803  1.00  0.00    -0.206 F 
ATOM     69  C   UNL A   1      43.996  31.151  37.790  1.00  0.00     0.040 A 
ATOM     70  C   UNL A   1      43.062  29.483  36.371  1.00  0.00     0.040 A 
ATOM     71  F   UNL A   1      41.395  29.939  34.896  1.00  0.00    -0.206 F 
ATOM     72  C   UNL A   1      44.003  29.849  37.312  1.00  0.00     0.006 A 
ENDBRANCH  51  65
BRANCH  52  73
ATOM     73  C   UNL A   1      39.852  28.553  28.627  1.00  0.00     0.057 A 
ATOM     74  C   UNL A   1      40.394  28.128  27.400  1.00  0.00     0.134 A 
ATOM     75  C   UNL A   1      39.287  27.539  29.419  1.00  0.00     0.134 A 
ATOM     76  F   UNL A   1      40.999  29.004  26.583  1.00  0.00    -0.206 F 
ATOM     77  C   UNL A   1      40.394  26.779  27.003  1.00  0.00     0.040 A 
ATOM     78  C   UNL A   1      39.281  26.192  29.036  1.00  0.00     0.040 A 
ATOM     79  F   UNL A   1      38.804  27.803  30.641  1.00  0.00    -0.206 F 
ATOM     80  C   UNL A   1      39.848  25.804  27.830  1.00  0.00     0.006 A 
ENDBRANCH  52  73
BRANCH  64  81
ATOM     81  C   UNL A   1      42.617  34.073  29.884  1.00  0.00     0.057 A 
ATOM     82  C   UNL A   1      41.482  34.750  29.408  1.00  0.00     0.134 A 
ATOM     83  C   UNL A   1      43.846  34.435  29.327  1.00  0.00     0.134 A 
ATOM     84  F   UNL A   1      40.276  34.547  29.952  1.00  0.00    -0.206 F 
ATOM     85  C   UNL A   1      41.568  35.716  28.399  1.00  0.00     0.040 A 
ATOM     86  C   UNL A   1      43.950  35.420  28.344  1.00  0.00     0.040 A 
ATOM     87  F   UNL A   1      44.979  33.877  29.779  1.00  0.00    -0.206 F 
ATOM     88  C   UNL A   1      42.808  36.058  27.868  1.00  0.00     0.006 A 
ENDBRANCH  64  81
ENDBRANCH  38  39
ENDBRANCH  31  33
ENDBRANCH  30  31
ENDBRANCH  29  30
ENDBRANCH  28  29
ENDBRANCH  27  28
ENDBRANCH  26  27
ENDBRANCH   1  26
TORSDOF 20
ENDMDL
MODEL 3
REMARK VINA RESULT:     -10.5      4.915      9.336
REMARK SMILES C[C@@H]1CCc2sc(NC(=O)/C=C/C(=O)OCCOCCOCCOC(=O)c3ccc(-c4c5nc(c(-c6c(F)cccc6F)c6ccc([nH]6)c(-c6c(F)cccc6F)c6nc(c(-c7c(F)cccc7F)c7ccc4[nH]7)C=C6)C=C5)cc3)c(C#N)c2C1
REMARK SMILES IDX 19 1 18 2 17 3 16 4 15 5 13 6 14 7 12 8 11 9 9 10 8 11 10 13
REMARK SMILES IDX 7 14 1 15 2 16 3 17 85 18 4 19 84 20 5 21 81 22 6 23 82 24
REMARK SMILES IDX 83 25 20 26 21 27 22 28 23 29 24 30 25 31 26 32 27 33 28 34
REMARK SMILES IDX 80 35 29 36 79 37 30 38 31 39 32 40 73 41 33 42 78 43 72 44
REMARK SMILES IDX 74 45 34 46 77 47 71 48 70 49 35 51 61 52 44 53 60 54 45 55
REMARK SMILES IDX 48 56 59 57 75 58 46 59 47 60 58 62 76 63 49 64 36 65 37 66
REMARK SMILES IDX 42 67 38 68 39 69 41 70 43 71 40 72 62 73 63 74 68 75 64 76
REMARK SMILES IDX 65 77 67 78 69 79 66 80 50 81 51 82 56 83 52 84 53 85 55 86
REMARK SMILES IDX 57 87 54 88
REMARK H PARENT 8 12 74 50 48 61
REMARK Flexibility Score: inf
ROOT
ATOM      1  C   UNL A   1      35.841  22.816  26.012  1.00  0.00     0.188 C 
ENDROOT
BRANCH   1   2
ATOM      2  O   UNL A   1      35.714  21.426  26.194  1.00  0.00    -0.376 OA
BRANCH   2   3
ATOM      3  C   UNL A   1      35.441  20.550  25.112  1.00  0.00     0.202 C 
BRANCH   3   4
ATOM      4  C   UNL A   1      34.150  19.713  24.979  1.00  0.00     0.261 C 
BRANCH   4   5
ATOM      5  O   UNL A   1      33.181  20.267  24.086  1.00  0.00    -0.460 OA
BRANCH   5   6
ATOM      6  C   UNL A   1      32.609  21.432  24.462  1.00  0.00     0.331 C 
ATOM      7  O   UNL A   1      32.019  21.650  25.505  1.00  0.00    -0.247 OA
BRANCH   6   8
ATOM      8  C   UNL A   1      33.070  22.495  23.553  1.00  0.00     0.099 C 
ATOM      9  C   UNL A   1      32.552  22.815  22.373  1.00  0.00     0.079 C 
BRANCH   9  10
ATOM     10  C   UNL A   1      33.017  23.949  21.540  1.00  0.00     0.249 C 
ATOM     11  N   UNL A   1      33.103  25.259  21.902  1.00  0.00    -0.313 N 
ATOM     12  H   UNL A   1      33.470  25.809  21.172  1.00  0.00     0.171 HD
ATOM     13  O   UNL A   1      33.367  23.669  20.387  1.00  0.00    -0.270 OA
BRANCH  11  14
ATOM     14  C   UNL A   1      32.818  26.025  23.011  1.00  0.00     0.114 A 
ATOM     15  C   UNL A   1      31.781  29.980  25.788  1.00  0.00     0.008 C 
ATOM     16  C   UNL A   1      31.596  28.750  26.688  1.00  0.00    -0.009 C 
ATOM     17  C   UNL A   1      32.911  28.272  27.357  1.00  0.00     0.009 C 
ATOM     18  C   UNL A   1      30.976  27.591  25.894  1.00  0.00     0.041 C 
ATOM     19  C   UNL A   1      33.954  27.670  26.391  1.00  0.00     0.047 C 
ATOM     20  C   UNL A   1      31.972  27.036  24.917  1.00  0.00    -0.014 A 
ATOM     21  C   UNL A   1      33.306  26.943  25.249  1.00  0.00     0.011 A 
ATOM     22  C   UNL A   1      31.845  26.874  23.497  1.00  0.00     0.090 A 
ATOM     23  S   UNL A   1      34.162  26.024  24.104  1.00  0.00    -0.121 S 
BRANCH  22  24
ATOM     24  C   UNL A   1      30.888  27.617  22.743  1.00  0.00     0.103 C 
ATOM     25  N   UNL A   1      30.187  28.307  22.120  1.00  0.00    -0.192 NA
ENDBRANCH  22  24
ENDBRANCH  11  14
ENDBRANCH   9  10
ENDBRANCH   6   8
ENDBRANCH   5   6
ENDBRANCH   4   5
ENDBRANCH   3   4
ENDBRANCH   2   3
ENDBRANCH   1   2
BRANCH   1  26
ATOM     26  C   UNL A   1      37.207  23.555  26.034  1.00  0.00     0.188 C 
BRANCH  26  27
ATOM     27  O   UNL A   1      38.460  22.977  25.744  1.00  0.00    -0.376 OA
BRANCH  27  28
ATOM     28  C   UNL A   1      39.509  22.780  26.677  1.00  0.00     0.202 C 
BRANCH  28  29
ATOM     29  C   UNL A   1      40.642  21.775  26.478  1.00  0.00     0.261 C 
BRANCH  29  30
ATOM     30  O   UNL A   1      41.601  22.186  25.533  1.00  0.00    -0.460 OA
BRANCH  30  31
ATOM     31  C   UNL A   1      42.815  21.630  25.741  1.00  0.00     0.338 C 
ATOM     32  O   UNL A   1      43.059  20.483  26.076  1.00  0.00    -0.246 OA
BRANCH  31  33
ATOM     33  C   UNL A   1      43.840  22.653  25.439  1.00  0.00     0.060 A 
ATOM     34  C   UNL A   1      44.815  22.769  26.430  1.00  0.00     0.016 A 
ATOM     35  C   UNL A   1      43.343  23.758  24.757  1.00  0.00     0.016 A 
ATOM     36  C   UNL A   1      44.819  23.944  27.137  1.00  0.00     0.010 A 
ATOM     37  C   UNL A   1      43.365  24.932  25.447  1.00  0.00     0.010 A 
ATOM     38  C   UNL A   1      43.952  24.952  26.715  1.00  0.00    -0.014 A 
BRANCH  38  39
ATOM     39  C   UNL A   1      43.770  26.142  27.515  1.00  0.00     0.031 A 
ATOM     40  C   UNL A   1      44.877  27.079  27.225  1.00  0.00     0.074 A 
ATOM     41  C   UNL A   1      42.667  26.360  28.265  1.00  0.00     0.049 A 
ATOM     42  N   UNL A   1      45.956  27.232  27.923  1.00  0.00    -0.248 NA
ATOM     43  C   UNL A   1      44.987  27.611  25.849  1.00  0.00     0.031 C 
ATOM     44  C   UNL A   1      41.468  25.528  28.432  1.00  0.00     0.029 A 
ATOM     45  N   UNL A   1      42.352  27.476  28.989  1.00  0.00    -0.354 N 
ATOM     46  C   UNL A   1      46.717  28.118  27.168  1.00  0.00     0.074 A 
ATOM     47  C   UNL A   1      46.273  27.956  25.820  1.00  0.00     0.031 C 
ATOM     48  C   UNL A   1      40.472  26.269  28.977  1.00  0.00     0.029 A 
ATOM     49  C   UNL A   1      40.984  27.586  29.300  1.00  0.00     0.049 A 
ATOM     50  H   UNL A   1      43.021  28.143  29.268  1.00  0.00     0.167 HD
ATOM     51  C   UNL A   1      47.261  29.222  27.750  1.00  0.00     0.037 A 
ATOM     52  C   UNL A   1      40.374  28.740  29.698  1.00  0.00     0.037 A 
ATOM     53  C   UNL A   1      47.302  29.050  29.185  1.00  0.00     0.049 A 
ATOM     54  C   UNL A   1      41.458  29.635  30.199  1.00  0.00     0.074 A 
ATOM     55  C   UNL A   1      47.868  28.121  30.036  1.00  0.00     0.029 A 
ATOM     56  N   UNL A   1      46.315  29.679  29.906  1.00  0.00    -0.354 N 
ATOM     57  N   UNL A   1      42.169  29.360  31.261  1.00  0.00    -0.248 NA
ATOM     58  C   UNL A   1      42.109  30.483  29.206  1.00  0.00     0.031 C 
ATOM     59  C   UNL A   1      46.898  27.917  31.060  1.00  0.00     0.029 A 
ATOM     60  C   UNL A   1      45.846  28.810  30.855  1.00  0.00     0.049 A 
ATOM     61  H   UNL A   1      45.999  30.600  29.764  1.00  0.00     0.167 HD
ATOM     62  C   UNL A   1      43.481  29.589  30.864  1.00  0.00     0.074 A 
ATOM     63  C   UNL A   1      43.377  30.302  29.589  1.00  0.00     0.031 C 
ATOM     64  C   UNL A   1      44.522  28.903  31.423  1.00  0.00     0.037 A 
BRANCH  51  65
ATOM     65  C   UNL A   1      47.274  30.600  27.106  1.00  0.00     0.057 A 
ATOM     66  C   UNL A   1      48.489  31.306  27.112  1.00  0.00     0.134 A 
ATOM     67  C   UNL A   1      46.147  31.378  26.754  1.00  0.00     0.134 A 
ATOM     68  F   UNL A   1      49.642  30.686  27.399  1.00  0.00    -0.206 F 
ATOM     69  C   UNL A   1      48.558  32.690  26.913  1.00  0.00     0.040 A 
ATOM     70  C   UNL A   1      46.211  32.753  26.515  1.00  0.00     0.040 A 
ATOM     71  F   UNL A   1      44.901  30.905  26.688  1.00  0.00    -0.206 F 
ATOM     72  C   UNL A   1      47.413  33.421  26.632  1.00  0.00     0.006 A 
ENDBRANCH  51  65
BRANCH  52  73
ATOM     73  C   UNL A   1      39.045  29.275  29.284  1.00  0.00     0.057 A 
ATOM     74  C   UNL A   1      38.709  29.468  27.932  1.00  0.00     0.134 A 
ATOM     75  C   UNL A   1      37.969  29.331  30.186  1.00  0.00     0.134 A 
ATOM     76  F   UNL A   1      39.649  29.392  26.978  1.00  0.00    -0.206 F 
ATOM     77  C   UNL A   1      37.384  29.676  27.507  1.00  0.00     0.040 A 
ATOM     78  C   UNL A   1      36.646  29.537  29.777  1.00  0.00     0.040 A 
ATOM     79  F   UNL A   1      38.148  29.091  31.493  1.00  0.00    -0.206 F 
ATOM     80  C   UNL A   1      36.345  29.697  28.431  1.00  0.00     0.006 A 
ENDBRANCH  52  73
BRANCH  64  81
ATOM     81  C   UNL A   1      44.245  28.037  32.620  1.00  0.00     0.057 A 
ATOM     82  C   UNL A   1      43.926  26.670  32.560  1.00  0.00     0.134 A 
ATOM     83  C   UNL A   1      44.493  28.571  33.887  1.00  0.00     0.134 A 
ATOM     84  F   UNL A   1      43.772  26.045  31.387  1.00  0.00    -0.206 F 
ATOM     85  C   UNL A   1      43.827  25.884  33.715  1.00  0.00     0.040 A 
ATOM     86  C   UNL A   1      44.430  27.791  35.043  1.00  0.00     0.040 A 
ATOM     87  F   UNL A   1      44.867  29.853  34.014  1.00  0.00    -0.206 F 
ATOM     88  C   UNL A   1      44.085  26.445  34.962  1.00  0.00     0.006 A 
ENDBRANCH  64  81
ENDBRANCH  38  39
ENDBRANCH  31  33
ENDBRANCH  30  31
ENDBRANCH  29  30
ENDBRANCH  28  29
ENDBRANCH  27  28
ENDBRANCH  26  27
ENDBRANCH   1  26
TORSDOF 20
ENDMDL
