MODEL 1
REMARK VINA RESULT:     -11.0      0.000      0.000
REMARK SMILES O=C(C[C@@H](C(=O)OCCOCCOCCOC(=O)c1ccc(-c2c3nc(c(-c4c(F)cccc4F)c4ccc([nH]4)c(-c4c(F)cccc4F)c4nc(c(-c5c(F)cccc5F)c5ccc2[nH]5)C=C4)C=C3)cc1)c1ccccc1)Nc1cc(C(F)(F)F)ccc1-n1cncn1
REMARK SMILES IDX 11 1 10 2 9 3 8 4 7 5 5 6 6 7 4 8 3 9 2 10 1 11 79 12 80 14
REMARK SMILES IDX 81 15 89 16 82 17 88 18 87 19 90 20 91 21 94 22 92 23 93 24
REMARK SMILES IDX 83 25 84 26 85 27 86 28 73 29 74 30 78 31 75 32 77 33 76 34
REMARK SMILES IDX 12 35 13 36 14 37 15 38 16 39 17 40 18 41 19 42 20 43 72 44
REMARK SMILES IDX 21 45 71 46 22 47 23 48 24 49 65 50 25 51 70 52 64 53 66 54
REMARK SMILES IDX 26 55 69 56 63 57 62 58 27 60 53 61 36 62 52 63 37 64 40 65
REMARK SMILES IDX 51 66 67 67 38 68 39 69 50 71 68 72 41 73 28 74 29 75 34 76
REMARK SMILES IDX 30 77 31 78 33 79 35 80 32 81 54 82 55 83 60 84 56 85 57 86
REMARK SMILES IDX 59 87 61 88 58 89 42 90 43 91 48 92 44 93 45 94 47 95 49 96
REMARK SMILES IDX 46 97
REMARK H PARENT 79 13 66 59 40 70
REMARK Flexibility Score: inf
ROOT
ATOM      1  C   UNL A   1      40.892  21.512  27.576  1.00  0.00     0.188 C 
ENDROOT
BRANCH   1   2
ATOM      2  O   UNL A   1      39.820  22.402  27.297  1.00  0.00    -0.376 OA
BRANCH   2   3
ATOM      3  C   UNL A   1      38.980  22.056  26.192  1.00  0.00     0.202 C 
BRANCH   3   4
ATOM      4  C   UNL A   1      37.763  22.969  25.969  1.00  0.00     0.261 C 
BRANCH   4   5
ATOM      5  O   UNL A   1      36.512  22.231  25.955  1.00  0.00    -0.463 OA
BRANCH   5   6
ATOM      6  C   UNL A   1      36.025  21.939  24.712  1.00  0.00     0.314 C 
ATOM      7  O   UNL A   1      36.745  21.754  23.736  1.00  0.00    -0.252 OA
BRANCH   6   8
ATOM      8  C   UNL A   1      34.500  21.744  24.672  1.00  0.00     0.138 C 
BRANCH   8   9
ATOM      9  C   UNL A   1      33.727  22.400  25.823  1.00  0.00     0.120 C 
BRANCH   9  10
ATOM     10  C   UNL A   1      32.839  23.570  25.488  1.00  0.00     0.225 C 
ATOM     11  O   UNL A   1      31.642  23.564  25.747  1.00  0.00    -0.275 OA
ATOM     12  N   UNL A   1      33.530  24.639  24.948  1.00  0.00    -0.324 N 
ATOM     13  H   UNL A   1      34.451  24.491  24.634  1.00  0.00     0.170 HD
BRANCH  12  14
ATOM     14  C   UNL A   1      32.982  25.929  24.823  1.00  0.00     0.067 A 
ATOM     15  C   UNL A   1      32.699  26.581  26.028  1.00  0.00     0.041 A 
ATOM     16  C   UNL A   1      32.768  26.596  23.605  1.00  0.00     0.090 A 
ATOM     17  C   UNL A   1      32.283  27.920  26.046  1.00  0.00     0.058 A 
ATOM     18  C   UNL A   1      32.378  27.946  23.617  1.00  0.00     0.031 A 
ATOM     19  C   UNL A   1      32.136  28.600  24.829  1.00  0.00     0.015 A 
BRANCH  16  20
ATOM     20  N   UNL A   1      32.799  25.927  22.353  1.00  0.00    -0.219 N 
ATOM     21  C   UNL A   1      32.985  26.464  21.099  1.00  0.00     0.226 A 
ATOM     22  N   UNL A   1      32.792  24.572  22.245  1.00  0.00    -0.155 NA
ATOM     23  N   UNL A   1      32.929  25.532  20.178  1.00  0.00    -0.223 NA
ATOM     24  C   UNL A   1      32.781  24.400  20.921  1.00  0.00     0.246 A 
ENDBRANCH  16  20
BRANCH  17  25
ATOM     25  C   UNL A   1      32.052  28.602  27.372  1.00  0.00     0.416 C 
ATOM     26  F   UNL A   1      31.860  29.944  27.231  1.00  0.00    -0.166 F 
ATOM     27  F   UNL A   1      30.941  28.134  28.005  1.00  0.00    -0.166 F 
ATOM     28  F   UNL A   1      33.080  28.459  28.250  1.00  0.00    -0.166 F 
ENDBRANCH  17  25
ENDBRANCH  12  14
ENDBRANCH   9  10
ENDBRANCH   8   9
BRANCH   8  29
ATOM     29  C   UNL A   1      34.055  20.277  24.452  1.00  0.00    -0.033 A 
ATOM     30  C   UNL A   1      34.932  19.198  24.698  1.00  0.00     0.004 A 
ATOM     31  C   UNL A   1      32.737  19.951  24.090  1.00  0.00     0.004 A 
ATOM     32  C   UNL A   1      34.523  17.868  24.558  1.00  0.00     0.000 A 
ATOM     33  C   UNL A   1      32.331  18.619  23.940  1.00  0.00     0.000 A 
ATOM     34  C   UNL A   1      33.223  17.578  24.170  1.00  0.00     0.000 A 
ENDBRANCH   8  29
ENDBRANCH   6   8
ENDBRANCH   5   6
ENDBRANCH   4   5
ENDBRANCH   3   4
ENDBRANCH   2   3
ENDBRANCH   1   2
BRANCH   1  35
ATOM     35  C   UNL A   1      40.957  20.249  26.712  1.00  0.00     0.188 C 
BRANCH  35  36
ATOM     36  O   UNL A   1      41.872  20.278  25.622  1.00  0.00    -0.376 OA
BRANCH  36  37
ATOM     37  C   UNL A   1      43.237  20.552  25.976  1.00  0.00     0.202 C 
BRANCH  37  38
ATOM     38  C   UNL A   1      43.928  21.710  25.213  1.00  0.00     0.261 C 
BRANCH  38  39
ATOM     39  O   UNL A   1      43.295  23.006  25.312  1.00  0.00    -0.460 OA
BRANCH  39  40
ATOM     40  C   UNL A   1      44.095  24.099  25.366  1.00  0.00     0.338 C 
ATOM     41  O   UNL A   1      44.930  24.426  24.540  1.00  0.00    -0.246 OA
BRANCH  40  42
ATOM     42  C   UNL A   1      43.556  25.009  26.416  1.00  0.00     0.060 A 
ATOM     43  C   UNL A   1      44.007  26.338  26.429  1.00  0.00     0.016 A 
ATOM     44  C   UNL A   1      42.532  24.616  27.285  1.00  0.00     0.016 A 
ATOM     45  C   UNL A   1      43.444  27.268  27.309  1.00  0.00     0.010 A 
ATOM     46  C   UNL A   1      41.983  25.545  28.178  1.00  0.00     0.010 A 
ATOM     47  C   UNL A   1      42.443  26.874  28.206  1.00  0.00    -0.014 A 
BRANCH  47  48
ATOM     48  C   UNL A   1      41.984  27.797  29.276  1.00  0.00     0.031 A 
ATOM     49  C   UNL A   1      42.694  27.768  30.600  1.00  0.00     0.074 A 
ATOM     50  C   UNL A   1      40.952  28.641  29.097  1.00  0.00     0.049 A 
ATOM     51  N   UNL A   1      42.411  28.397  31.712  1.00  0.00    -0.248 NA
ATOM     52  C   UNL A   1      43.885  26.909  30.674  1.00  0.00     0.031 C 
ATOM     53  C   UNL A   1      40.201  28.812  27.856  1.00  0.00     0.029 A 
ATOM     54  N   UNL A   1      40.344  29.501  29.981  1.00  0.00    -0.354 N 
ATOM     55  C   UNL A   1      43.385  28.005  32.620  1.00  0.00     0.074 A 
ATOM     56  C   UNL A   1      44.251  27.069  31.936  1.00  0.00     0.031 C 
ATOM     57  C   UNL A   1      39.211  29.697  28.067  1.00  0.00     0.029 A 
ATOM     58  C   UNL A   1      39.234  30.126  29.466  1.00  0.00     0.049 A 
ATOM     59  H   UNL A   1      40.673  29.655  30.897  1.00  0.00     0.167 HD
ATOM     60  C   UNL A   1      43.548  28.390  33.909  1.00  0.00     0.037 A 
ATOM     61  C   UNL A   1      38.319  30.917  30.064  1.00  0.00     0.037 A 
ATOM     62  C   UNL A   1      42.680  29.304  34.603  1.00  0.00     0.049 A 
ATOM     63  C   UNL A   1      38.455  31.253  31.527  1.00  0.00     0.074 A 
ATOM     64  C   UNL A   1      42.775  29.764  35.905  1.00  0.00     0.029 A 
ATOM     65  N   UNL A   1      41.543  29.882  34.058  1.00  0.00    -0.354 N 
ATOM     66  N   UNL A   1      39.390  30.897  32.375  1.00  0.00    -0.248 NA
ATOM     67  C   UNL A   1      37.401  32.092  32.120  1.00  0.00     0.031 C 
ATOM     68  C   UNL A   1      41.665  30.574  36.165  1.00  0.00     0.029 A 
ATOM     69  C   UNL A   1      40.907  30.663  35.009  1.00  0.00     0.049 A 
ATOM     70  H   UNL A   1      41.235  29.756  33.131  1.00  0.00     0.167 HD
ATOM     71  C   UNL A   1      39.046  31.476  33.592  1.00  0.00     0.074 A 
ATOM     72  C   UNL A   1      37.826  32.223  33.370  1.00  0.00     0.031 C 
ATOM     73  C   UNL A   1      39.685  31.395  34.786  1.00  0.00     0.037 A 
BRANCH  60  74
ATOM     74  C   UNL A   1      44.690  27.775  34.662  1.00  0.00     0.057 A 
ATOM     75  C   UNL A   1      44.551  26.573  35.370  1.00  0.00     0.134 A 
ATOM     76  C   UNL A   1      45.943  28.400  34.688  1.00  0.00     0.134 A 
ATOM     77  F   UNL A   1      43.371  25.934  35.401  1.00  0.00    -0.206 F 
ATOM     78  C   UNL A   1      45.608  26.034  36.105  1.00  0.00     0.040 A 
ATOM     79  C   UNL A   1      47.015  27.856  35.396  1.00  0.00     0.040 A 
ATOM     80  F   UNL A   1      46.144  29.551  34.029  1.00  0.00    -0.206 F 
ATOM     81  C   UNL A   1      46.846  26.675  36.116  1.00  0.00     0.006 A 
ENDBRANCH  60  74
BRANCH  61  82
ATOM     82  C   UNL A   1      37.152  31.408  29.286  1.00  0.00     0.057 A 
ATOM     83  C   UNL A   1      36.031  30.600  29.062  1.00  0.00     0.134 A 
ATOM     84  C   UNL A   1      37.137  32.696  28.739  1.00  0.00     0.134 A 
ATOM     85  F   UNL A   1      35.999  29.345  29.533  1.00  0.00    -0.206 F 
ATOM     86  C   UNL A   1      34.940  31.054  28.318  1.00  0.00     0.040 A 
ATOM     87  C   UNL A   1      36.044  33.173  28.015  1.00  0.00     0.040 A 
ATOM     88  F   UNL A   1      38.185  33.516  28.912  1.00  0.00    -0.206 F 
ATOM     89  C   UNL A   1      34.942  32.349  27.799  1.00  0.00     0.006 A 
ENDBRANCH  61  82
BRANCH  73  90
ATOM     90  C   UNL A   1      39.088  32.134  35.949  1.00  0.00     0.057 A 
ATOM     91  C   UNL A   1      38.196  31.518  36.836  1.00  0.00     0.134 A 
ATOM     92  C   UNL A   1      39.456  33.459  36.222  1.00  0.00     0.134 A 
ATOM     93  F   UNL A   1      37.794  30.255  36.628  1.00  0.00    -0.206 F 
ATOM     94  C   UNL A   1      37.682  32.195  37.944  1.00  0.00     0.040 A 
ATOM     95  C   UNL A   1      38.968  34.138  37.339  1.00  0.00     0.040 A 
ATOM     96  F   UNL A   1      40.313  34.107  35.418  1.00  0.00    -0.206 F 
ATOM     97  C   UNL A   1      38.075  33.508  38.203  1.00  0.00     0.006 A 
ENDBRANCH  73  90
ENDBRANCH  47  48
ENDBRANCH  40  42
ENDBRANCH  39  40
ENDBRANCH  38  39
ENDBRANCH  37  38
ENDBRANCH  36  37
ENDBRANCH  35  36
ENDBRANCH   1  35
TORSDOF 23
ENDMDL
MODEL 2
REMARK VINA RESULT:     -10.0      1.023      5.897
REMARK SMILES O=C(C[C@@H](C(=O)OCCOCCOCCOC(=O)c1ccc(-c2c3nc(c(-c4c(F)cccc4F)c4ccc([nH]4)c(-c4c(F)cccc4F)c4nc(c(-c5c(F)cccc5F)c5ccc2[nH]5)C=C4)C=C3)cc1)c1ccccc1)Nc1cc(C(F)(F)F)ccc1-n1cncn1
REMARK SMILES IDX 11 1 10 2 9 3 8 4 7 5 5 6 6 7 4 8 3 9 2 10 1 11 79 12 80 14
REMARK SMILES IDX 81 15 89 16 82 17 88 18 87 19 90 20 91 21 94 22 92 23 93 24
REMARK SMILES IDX 83 25 84 26 85 27 86 28 73 29 74 30 78 31 75 32 77 33 76 34
REMARK SMILES IDX 12 35 13 36 14 37 15 38 16 39 17 40 18 41 19 42 20 43 72 44
REMARK SMILES IDX 21 45 71 46 22 47 23 48 24 49 65 50 25 51 70 52 64 53 66 54
REMARK SMILES IDX 26 55 69 56 63 57 62 58 27 60 53 61 36 62 52 63 37 64 40 65
REMARK SMILES IDX 51 66 67 67 38 68 39 69 50 71 68 72 41 73 28 74 29 75 34 76
REMARK SMILES IDX 30 77 31 78 33 79 35 80 32 81 54 82 55 83 60 84 56 85 57 86
REMARK SMILES IDX 59 87 61 88 58 89 42 90 43 91 48 92 44 93 45 94 47 95 49 96
REMARK SMILES IDX 46 97
REMARK H PARENT 79 13 66 59 40 70
REMARK Flexibility Score: inf
ROOT
ATOM      1  C   UNL A   1      41.235  22.920  27.189  1.00  0.00     0.188 C 
ENDROOT
BRANCH   1   2
ATOM      2  O   UNL A   1      39.942  23.484  27.021  1.00  0.00    -0.376 OA
BRANCH   2   3
ATOM      3  C   UNL A   1      39.015  22.721  26.242  1.00  0.00     0.202 C 
BRANCH   3   4
ATOM      4  C   UNL A   1      37.610  23.328  26.098  1.00  0.00     0.261 C 
BRANCH   4   5
ATOM      5  O   UNL A   1      36.594  22.321  25.845  1.00  0.00    -0.463 OA
BRANCH   5   6
ATOM      6  C   UNL A   1      36.077  22.324  24.580  1.00  0.00     0.314 C 
ATOM      7  O   UNL A   1      36.773  22.272  23.571  1.00  0.00    -0.252 OA
BRANCH   6   8
ATOM      8  C   UNL A   1      34.540  22.275  24.536  1.00  0.00     0.138 C 
BRANCH   8   9
ATOM      9  C   UNL A   1      33.831  23.019  25.675  1.00  0.00     0.120 C 
BRANCH   9  10
ATOM     10  C   UNL A   1      32.879  24.123  25.300  1.00  0.00     0.225 C 
ATOM     11  O   UNL A   1      31.668  24.006  25.441  1.00  0.00    -0.275 OA
ATOM     12  N   UNL A   1      33.520  25.270  24.868  1.00  0.00    -0.324 N 
ATOM     13  H   UNL A   1      34.476  25.214  24.640  1.00  0.00     0.170 HD
BRANCH  12  14
ATOM     14  C   UNL A   1      32.875  26.513  24.738  1.00  0.00     0.067 A 
ATOM     15  C   UNL A   1      32.619  27.186  25.937  1.00  0.00     0.041 A 
ATOM     16  C   UNL A   1      32.541  27.121  23.515  1.00  0.00     0.090 A 
ATOM     17  C   UNL A   1      32.110  28.493  25.940  1.00  0.00     0.058 A 
ATOM     18  C   UNL A   1      32.057  28.440  23.510  1.00  0.00     0.031 A 
ATOM     19  C   UNL A   1      31.842  29.118  24.715  1.00  0.00     0.015 A 
BRANCH  16  20
ATOM     20  N   UNL A   1      32.544  26.412  22.285  1.00  0.00    -0.219 N 
ATOM     21  C   UNL A   1      33.472  25.506  21.822  1.00  0.00     0.226 A 
ATOM     22  N   UNL A   1      31.493  26.432  21.424  1.00  0.00    -0.155 NA
ATOM     23  N   UNL A   1      33.146  25.073  20.627  1.00  0.00    -0.223 NA
ATOM     24  C   UNL A   1      31.949  25.687  20.415  1.00  0.00     0.246 A 
ENDBRANCH  16  20
BRANCH  17  25
ATOM     25  C   UNL A   1      31.911  29.203  27.257  1.00  0.00     0.416 C 
ATOM     26  F   UNL A   1      31.440  30.471  27.088  1.00  0.00    -0.166 F 
ATOM     27  F   UNL A   1      31.001  28.573  28.050  1.00  0.00    -0.166 F 
ATOM     28  F   UNL A   1      33.046  29.318  27.997  1.00  0.00    -0.166 F 
ENDBRANCH  17  25
ENDBRANCH  12  14
ENDBRANCH   9  10
ENDBRANCH   8   9
BRANCH   8  29
ATOM     29  C   UNL A   1      33.957  20.855  24.335  1.00  0.00    -0.033 A 
ATOM     30  C   UNL A   1      32.721  20.654  23.684  1.00  0.00     0.004 A 
ATOM     31  C   UNL A   1      34.673  19.703  24.705  1.00  0.00     0.004 A 
ATOM     32  C   UNL A   1      32.211  19.373  23.446  1.00  0.00     0.000 A 
ATOM     33  C   UNL A   1      34.157  18.421  24.476  1.00  0.00     0.000 A 
ATOM     34  C   UNL A   1      32.927  18.255  23.850  1.00  0.00     0.000 A 
ENDBRANCH   8  29
ENDBRANCH   6   8
ENDBRANCH   5   6
ENDBRANCH   4   5
ENDBRANCH   3   4
ENDBRANCH   2   3
ENDBRANCH   1   2
BRANCH   1  35
ATOM     35  C   UNL A   1      41.555  21.702  26.318  1.00  0.00     0.188 C 
BRANCH  35  36
ATOM     36  O   UNL A   1      42.355  21.944  25.166  1.00  0.00    -0.376 OA
BRANCH  36  37
ATOM     37  C   UNL A   1      43.770  21.783  25.359  1.00  0.00     0.202 C 
BRANCH  37  38
ATOM     38  C   UNL A   1      44.621  23.077  25.337  1.00  0.00     0.261 C 
BRANCH  38  39
ATOM     39  O   UNL A   1      43.892  24.321  25.452  1.00  0.00    -0.460 OA
BRANCH  39  40
ATOM     40  C   UNL A   1      44.608  25.464  25.592  1.00  0.00     0.338 C 
ATOM     41  O   UNL A   1      45.348  25.960  24.760  1.00  0.00    -0.246 OA
BRANCH  40  42
ATOM     42  C   UNL A   1      44.085  26.188  26.785  1.00  0.00     0.060 A 
ATOM     43  C   UNL A   1      43.507  25.428  27.814  1.00  0.00     0.016 A 
ATOM     44  C   UNL A   1      44.276  27.562  26.961  1.00  0.00     0.016 A 
ATOM     45  C   UNL A   1      43.115  26.038  29.009  1.00  0.00     0.010 A 
ATOM     46  C   UNL A   1      43.865  28.174  28.152  1.00  0.00     0.010 A 
ATOM     47  C   UNL A   1      43.270  27.420  29.180  1.00  0.00    -0.014 A 
BRANCH  47  48
ATOM     48  C   UNL A   1      42.676  28.105  30.356  1.00  0.00     0.031 A 
ATOM     49  C   UNL A   1      41.413  28.896  30.162  1.00  0.00     0.074 A 
ATOM     50  C   UNL A   1      43.238  28.046  31.577  1.00  0.00     0.049 A 
ATOM     51  N   UNL A   1      40.770  29.662  31.005  1.00  0.00    -0.248 NA
ATOM     52  C   UNL A   1      40.796  28.809  28.830  1.00  0.00     0.031 C 
ATOM     53  C   UNL A   1      44.432  27.282  31.925  1.00  0.00     0.029 A 
ATOM     54  N   UNL A   1      42.881  28.669  32.751  1.00  0.00    -0.354 N 
ATOM     55  C   UNL A   1      39.676  30.153  30.306  1.00  0.00     0.074 A 
ATOM     56  C   UNL A   1      39.756  29.617  28.964  1.00  0.00     0.031 C 
ATOM     57  C   UNL A   1      44.730  27.507  33.217  1.00  0.00     0.029 A 
ATOM     58  C   UNL A   1      43.770  28.459  33.777  1.00  0.00     0.049 A 
ATOM     59  H   UNL A   1      42.066  29.213  32.846  1.00  0.00     0.167 HD
ATOM     60  C   UNL A   1      38.691  30.976  30.738  1.00  0.00     0.037 A 
ATOM     61  C   UNL A   1      43.828  29.005  35.009  1.00  0.00     0.037 A 
ATOM     62  C   UNL A   1      38.615  31.530  32.064  1.00  0.00     0.049 A 
ATOM     63  C   UNL A   1      42.782  30.001  35.442  1.00  0.00     0.074 A 
ATOM     64  C   UNL A   1      37.645  32.360  32.597  1.00  0.00     0.029 A 
ATOM     65  N   UNL A   1      39.558  31.326  33.061  1.00  0.00    -0.354 N 
ATOM     66  N   UNL A   1      41.738  30.444  34.782  1.00  0.00    -0.248 NA
ATOM     67  C   UNL A   1      42.928  30.580  36.787  1.00  0.00     0.031 C 
ATOM     68  C   UNL A   1      38.031  32.706  33.897  1.00  0.00     0.029 A 
ATOM     69  C   UNL A   1      39.213  32.046  34.193  1.00  0.00     0.049 A 
ATOM     70  H   UNL A   1      40.354  30.753  32.976  1.00  0.00     0.167 HD
ATOM     71  C   UNL A   1      41.100  31.341  35.632  1.00  0.00     0.074 A 
ATOM     72  C   UNL A   1      41.862  31.366  36.863  1.00  0.00     0.031 C 
ATOM     73  C   UNL A   1      39.982  32.078  35.412  1.00  0.00     0.037 A 
BRANCH  60  74
ATOM     74  C   UNL A   1      37.640  31.361  29.739  1.00  0.00     0.057 A 
ATOM     75  C   UNL A   1      37.680  32.584  29.055  1.00  0.00     0.134 A 
ATOM     76  C   UNL A   1      36.569  30.502  29.467  1.00  0.00     0.134 A 
ATOM     77  F   UNL A   1      38.670  33.460  29.285  1.00  0.00    -0.206 F 
ATOM     78  C   UNL A   1      36.672  32.952  28.162  1.00  0.00     0.040 A 
ATOM     79  C   UNL A   1      35.571  30.847  28.556  1.00  0.00     0.040 A 
ATOM     80  F   UNL A   1      36.473  29.316  30.086  1.00  0.00    -0.206 F 
ATOM     81  C   UNL A   1      35.615  32.080  27.908  1.00  0.00     0.006 A 
ENDBRANCH  60  74
BRANCH  61  82
ATOM     82  C   UNL A   1      44.955  28.660  35.913  1.00  0.00     0.057 A 
ATOM     83  C   UNL A   1      46.167  29.360  35.870  1.00  0.00     0.134 A 
ATOM     84  C   UNL A   1      44.849  27.612  36.836  1.00  0.00     0.134 A 
ATOM     85  F   UNL A   1      46.342  30.353  34.986  1.00  0.00    -0.206 F 
ATOM     86  C   UNL A   1      47.234  29.027  36.708  1.00  0.00     0.040 A 
ATOM     87  C   UNL A   1      45.898  27.285  37.697  1.00  0.00     0.040 A 
ATOM     88  F   UNL A   1      43.717  26.899  36.921  1.00  0.00    -0.206 F 
ATOM     89  C   UNL A   1      47.096  27.991  37.631  1.00  0.00     0.006 A 
ENDBRANCH  61  82
BRANCH  73  90
ATOM     90  C   UNL A   1      39.504  32.971  36.520  1.00  0.00     0.057 A 
ATOM     91  C   UNL A   1      38.540  32.548  37.445  1.00  0.00     0.134 A 
ATOM     92  C   UNL A   1      40.055  34.246  36.703  1.00  0.00     0.134 A 
ATOM     93  F   UNL A   1      37.963  31.343  37.323  1.00  0.00    -0.206 F 
ATOM     94  C   UNL A   1      38.134  33.364  38.502  1.00  0.00     0.040 A 
ATOM     95  C   UNL A   1      39.675  35.062  37.770  1.00  0.00     0.040 A 
ATOM     96  F   UNL A   1      40.989  34.711  35.859  1.00  0.00    -0.206 F 
ATOM     97  C   UNL A   1      38.710  34.623  38.672  1.00  0.00     0.006 A 
ENDBRANCH  73  90
ENDBRANCH  47  48
ENDBRANCH  40  42
ENDBRANCH  39  40
ENDBRANCH  38  39
ENDBRANCH  37  38
ENDBRANCH  36  37
ENDBRANCH  35  36
ENDBRANCH   1  35
TORSDOF 23
ENDMDL
MODEL 3
REMARK VINA RESULT:      -9.7      4.819      8.397
REMARK SMILES O=C(C[C@@H](C(=O)OCCOCCOCCOC(=O)c1ccc(-c2c3nc(c(-c4c(F)cccc4F)c4ccc([nH]4)c(-c4c(F)cccc4F)c4nc(c(-c5c(F)cccc5F)c5ccc2[nH]5)C=C4)C=C3)cc1)c1ccccc1)Nc1cc(C(F)(F)F)ccc1-n1cncn1
REMARK SMILES IDX 11 1 10 2 9 3 8 4 7 5 5 6 6 7 4 8 3 9 2 10 1 11 79 12 80 14
REMARK SMILES IDX 81 15 89 16 82 17 88 18 87 19 90 20 91 21 94 22 92 23 93 24
REMARK SMILES IDX 83 25 84 26 85 27 86 28 73 29 74 30 78 31 75 32 77 33 76 34
REMARK SMILES IDX 12 35 13 36 14 37 15 38 16 39 17 40 18 41 19 42 20 43 72 44
REMARK SMILES IDX 21 45 71 46 22 47 23 48 24 49 65 50 25 51 70 52 64 53 66 54
REMARK SMILES IDX 26 55 69 56 63 57 62 58 27 60 53 61 36 62 52 63 37 64 40 65
REMARK SMILES IDX 51 66 67 67 38 68 39 69 50 71 68 72 41 73 28 74 29 75 34 76
REMARK SMILES IDX 30 77 31 78 33 79 35 80 32 81 54 82 55 83 60 84 56 85 57 86
REMARK SMILES IDX 59 87 61 88 58 89 42 90 43 91 48 92 44 93 45 94 47 95 49 96
REMARK SMILES IDX 46 97
REMARK H PARENT 79 13 66 59 40 70
REMARK Flexibility Score: inf
ROOT
ATOM      1  C   UNL A   1      40.724  22.410  27.738  1.00  0.00     0.188 C 
ENDROOT
BRANCH   1   2
ATOM      2  O   UNL A   1      39.924  23.468  27.231  1.00  0.00    -0.376 OA
BRANCH   2   3
ATOM      3  C   UNL A   1      39.098  23.154  26.106  1.00  0.00     0.202 C 
BRANCH   3   4
ATOM      4  C   UNL A   1      37.681  23.752  26.133  1.00  0.00     0.261 C 
BRANCH   4   5
ATOM      5  O   UNL A   1      36.649  22.731  26.153  1.00  0.00    -0.463 OA
BRANCH   5   6
ATOM      6  C   UNL A   1      36.180  22.356  24.925  1.00  0.00     0.314 C 
ATOM      7  O   UNL A   1      36.908  21.955  24.023  1.00  0.00    -0.252 OA
BRANCH   6   8
ATOM      8  C   UNL A   1      34.646  22.369  24.815  1.00  0.00     0.138 C 
BRANCH   8   9
ATOM      9  C   UNL A   1      33.914  23.079  25.962  1.00  0.00     0.120 C 
BRANCH   9  10
ATOM     10  C   UNL A   1      33.259  24.400  25.659  1.00  0.00     0.225 C 
ATOM     11  O   UNL A   1      32.117  24.651  26.022  1.00  0.00    -0.275 OA
ATOM     12  N   UNL A   1      34.101  25.289  25.016  1.00  0.00    -0.324 N 
ATOM     13  H   UNL A   1      34.938  24.945  24.629  1.00  0.00     0.170 HD
BRANCH  12  14
ATOM     14  C   UNL A   1      33.821  26.662  24.887  1.00  0.00     0.067 A 
ATOM     15  C   UNL A   1      34.071  27.436  26.024  1.00  0.00     0.041 A 
ATOM     16  C   UNL A   1      33.380  27.284  23.706  1.00  0.00     0.090 A 
ATOM     17  C   UNL A   1      33.969  28.835  25.985  1.00  0.00     0.058 A 
ATOM     18  C   UNL A   1      33.302  28.686  23.652  1.00  0.00     0.031 A 
ATOM     19  C   UNL A   1      33.592  29.452  24.785  1.00  0.00     0.015 A 
BRANCH  16  20
ATOM     20  N   UNL A   1      32.877  26.549  22.599  1.00  0.00    -0.219 N 
ATOM     21  C   UNL A   1      31.674  25.889  22.485  1.00  0.00     0.226 A 
ATOM     22  N   UNL A   1      33.497  26.528  21.390  1.00  0.00    -0.155 NA
ATOM     23  N   UNL A   1      31.571  25.304  21.316  1.00  0.00    -0.223 NA
ATOM     24  C   UNL A   1      32.717  25.698  20.694  1.00  0.00     0.246 A 
ENDBRANCH  16  20
BRANCH  17  25
ATOM     25  C   UNL A   1      34.311  29.633  27.219  1.00  0.00     0.416 C 
ATOM     26  F   UNL A   1      34.036  30.958  27.063  1.00  0.00    -0.166 F 
ATOM     27  F   UNL A   1      33.598  29.232  28.307  1.00  0.00    -0.166 F 
ATOM     28  F   UNL A   1      35.622  29.560  27.575  1.00  0.00    -0.166 F 
ENDBRANCH  17  25
ENDBRANCH  12  14
ENDBRANCH   9  10
ENDBRANCH   8   9
BRANCH   8  29
ATOM     29  C   UNL A   1      34.021  20.985  24.513  1.00  0.00    -0.033 A 
ATOM     30  C   UNL A   1      32.798  20.866  23.817  1.00  0.00     0.004 A 
ATOM     31  C   UNL A   1      34.686  19.789  24.834  1.00  0.00     0.004 A 
ATOM     32  C   UNL A   1      32.253  19.620  23.490  1.00  0.00     0.000 A 
ATOM     33  C   UNL A   1      34.134  18.541  24.516  1.00  0.00     0.000 A 
ATOM     34  C   UNL A   1      32.918  18.456  23.846  1.00  0.00     0.000 A 
ENDBRANCH   8  29
ENDBRANCH   6   8
ENDBRANCH   5   6
ENDBRANCH   4   5
ENDBRANCH   3   4
ENDBRANCH   2   3
ENDBRANCH   1   2
BRANCH   1  35
ATOM     35  C   UNL A   1      40.445  21.020  27.159  1.00  0.00     0.188 C 
BRANCH  35  36
ATOM     36  O   UNL A   1      41.261  20.617  26.066  1.00  0.00    -0.376 OA
BRANCH  36  37
ATOM     37  C   UNL A   1      41.876  19.325  26.204  1.00  0.00     0.202 C 
BRANCH  37  38
ATOM     38  C   UNL A   1      43.355  19.215  25.757  1.00  0.00     0.261 C 
BRANCH  38  39
ATOM     39  O   UNL A   1      43.753  20.059  24.652  1.00  0.00    -0.460 OA
BRANCH  39  40
ATOM     40  C   UNL A   1      45.079  20.262  24.456  1.00  0.00     0.338 C 
ATOM     41  O   UNL A   1      45.829  19.556  23.803  1.00  0.00    -0.246 OA
BRANCH  40  42
ATOM     42  C   UNL A   1      45.396  21.655  24.878  1.00  0.00     0.060 A 
ATOM     43  C   UNL A   1      45.468  21.925  26.253  1.00  0.00     0.016 A 
ATOM     44  C   UNL A   1      45.751  22.647  23.958  1.00  0.00     0.016 A 
ATOM     45  C   UNL A   1      45.884  23.180  26.708  1.00  0.00     0.010 A 
ATOM     46  C   UNL A   1      46.150  23.909  24.415  1.00  0.00     0.010 A 
ATOM     47  C   UNL A   1      46.208  24.190  25.792  1.00  0.00    -0.014 A 
BRANCH  47  48
ATOM     48  C   UNL A   1      46.454  25.579  26.258  1.00  0.00     0.031 A 
ATOM     49  C   UNL A   1      45.275  26.421  26.656  1.00  0.00     0.074 A 
ATOM     50  C   UNL A   1      47.692  26.102  26.321  1.00  0.00     0.049 A 
ATOM     51  N   UNL A   1      45.227  27.685  26.991  1.00  0.00    -0.248 NA
ATOM     52  C   UNL A   1      43.973  25.738  26.677  1.00  0.00     0.031 C 
ATOM     53  C   UNL A   1      48.930  25.392  26.012  1.00  0.00     0.029 A 
ATOM     54  N   UNL A   1      48.104  27.373  26.648  1.00  0.00    -0.354 N 
ATOM     55  C   UNL A   1      43.891  27.951  27.256  1.00  0.00     0.074 A 
ATOM     56  C   UNL A   1      43.160  26.724  27.021  1.00  0.00     0.031 C 
ATOM     57  C   UNL A   1      49.961  26.247  26.132  1.00  0.00     0.029 A 
ATOM     58  C   UNL A   1      49.454  27.572  26.488  1.00  0.00     0.049 A 
ATOM     59  H   UNL A   1      47.489  28.074  26.965  1.00  0.00     0.167 HD
ATOM     60  C   UNL A   1      43.320  29.111  27.659  1.00  0.00     0.037 A 
ATOM     61  C   UNL A   1      50.188  28.700  26.577  1.00  0.00     0.037 A 
ATOM     62  C   UNL A   1      44.036  30.340  27.875  1.00  0.00     0.049 A 
ATOM     63  C   UNL A   1      49.522  30.007  26.925  1.00  0.00     0.074 A 
ATOM     64  C   UNL A   1      43.544  31.562  28.299  1.00  0.00     0.029 A 
ATOM     65  N   UNL A   1      45.396  30.510  27.662  1.00  0.00    -0.354 N 
ATOM     66  N   UNL A   1      48.261  30.247  27.196  1.00  0.00    -0.248 NA
ATOM     67  C   UNL A   1      50.380  31.202  26.970  1.00  0.00     0.031 C 
ATOM     68  C   UNL A   1      44.595  32.485  28.287  1.00  0.00     0.029 A 
ATOM     69  C   UNL A   1      45.753  31.826  27.908  1.00  0.00     0.049 A 
ATOM     70  H   UNL A   1      46.016  29.800  27.378  1.00  0.00     0.167 HD
ATOM     71  C   UNL A   1      48.177  31.611  27.454  1.00  0.00     0.074 A 
ATOM     72  C   UNL A   1      49.517  32.145  27.326  1.00  0.00     0.031 C 
ATOM     73  C   UNL A   1      47.087  32.355  27.768  1.00  0.00     0.037 A 
BRANCH  60  74
ATOM     74  C   UNL A   1      41.831  29.106  27.846  1.00  0.00     0.057 A 
ATOM     75  C   UNL A   1      41.244  29.044  29.117  1.00  0.00     0.134 A 
ATOM     76  C   UNL A   1      40.976  29.154  26.738  1.00  0.00     0.134 A 
ATOM     77  F   UNL A   1      42.008  28.977  30.217  1.00  0.00    -0.206 F 
ATOM     78  C   UNL A   1      39.858  28.995  29.276  1.00  0.00     0.040 A 
ATOM     79  C   UNL A   1      39.589  29.134  26.887  1.00  0.00     0.040 A 
ATOM     80  F   UNL A   1      41.475  29.217  25.495  1.00  0.00    -0.206 F 
ATOM     81  C   UNL A   1      39.026  29.043  28.158  1.00  0.00     0.006 A 
ENDBRANCH  60  74
BRANCH  61  82
ATOM     82  C   UNL A   1      51.643  28.656  26.276  1.00  0.00     0.057 A 
ATOM     83  C   UNL A   1      52.122  28.767  24.966  1.00  0.00     0.134 A 
ATOM     84  C   UNL A   1      52.588  28.489  27.296  1.00  0.00     0.134 A 
ATOM     85  F   UNL A   1      51.265  28.896  23.943  1.00  0.00    -0.206 F 
ATOM     86  C   UNL A   1      53.488  28.709  24.680  1.00  0.00     0.040 A 
ATOM     87  C   UNL A   1      53.957  28.455  27.028  1.00  0.00     0.040 A 
ATOM     88  F   UNL A   1      52.191  28.368  28.572  1.00  0.00    -0.206 F 
ATOM     89  C   UNL A   1      54.410  28.562  25.715  1.00  0.00     0.006 A 
ENDBRANCH  61  82
BRANCH  73  90
ATOM     90  C   UNL A   1      47.287  33.825  28.004  1.00  0.00     0.057 A 
ATOM     91  C   UNL A   1      47.139  34.764  26.976  1.00  0.00     0.134 A 
ATOM     92  C   UNL A   1      47.571  34.313  29.286  1.00  0.00     0.134 A 
ATOM     93  F   UNL A   1      46.876  34.364  25.722  1.00  0.00    -0.206 F 
ATOM     94  C   UNL A   1      47.278  36.133  27.211  1.00  0.00     0.040 A 
ATOM     95  C   UNL A   1      47.689  35.680  29.539  1.00  0.00     0.040 A 
ATOM     96  F   UNL A   1      47.718  33.469  30.319  1.00  0.00    -0.206 F 
ATOM     97  C   UNL A   1      47.545  36.596  28.499  1.00  0.00     0.006 A 
ENDBRANCH  73  90
ENDBRANCH  47  48
ENDBRANCH  40  42
ENDBRANCH  39  40
ENDBRANCH  38  39
ENDBRANCH  37  38
ENDBRANCH  36  37
ENDBRANCH  35  36
ENDBRANCH   1  35
TORSDOF 23
ENDMDL
