MODEL 1
REMARK VINA RESULT:     -10.3      0.000      0.000
REMARK SMILES CC(C)SCC(=O)N1Cc2ccccc2C[C@H]1C(=O)OCCOCCOCCOC(=O)c1ccc(-c2c3nc(c(-c4c(F)cccc4F)c4ccc([nH]4)c(-c4c(F)cccc4F)c4nc(c(-c5c(F)cccc5F)c5ccc2[nH]5)C=C4)C=C3)cc1
REMARK SMILES IDX 24 1 23 2 22 3 21 4 20 5 18 6 19 7 17 8 8 9 9 10 10 11 16 12
REMARK SMILES IDX 11 13 15 14 12 15 14 16 13 17 6 18 7 19 5 20 4 21 2 22 1 23
REMARK SMILES IDX 3 24 25 25 26 26 27 27 28 28 29 29 30 30 31 31 32 32 33 33
REMARK SMILES IDX 85 34 34 35 84 36 35 37 36 38 37 39 78 40 38 41 83 42 77 43
REMARK SMILES IDX 79 44 39 45 82 46 76 47 75 48 40 50 66 51 49 52 65 53 50 54
REMARK SMILES IDX 53 55 64 56 80 57 51 58 52 59 63 61 81 62 54 63 41 64 42 65
REMARK SMILES IDX 47 66 43 67 44 68 46 69 48 70 45 71 67 72 68 73 73 74 69 75
REMARK SMILES IDX 70 76 72 77 74 78 71 79 55 80 56 81 61 82 57 83 58 84 60 85
REMARK SMILES IDX 62 86 59 87
REMARK H PARENT 79 49 53 60
REMARK Flexibility Score: inf
ROOT
ATOM      1  C   UNL A   1      39.648  21.440  26.207  1.00  0.00     0.188 C 
ENDROOT
BRANCH   1   2
ATOM      2  O   UNL A   1      38.586  21.152  25.305  1.00  0.00    -0.376 OA
BRANCH   2   3
ATOM      3  C   UNL A   1      37.461  22.024  25.280  1.00  0.00     0.202 C 
BRANCH   3   4
ATOM      4  C   UNL A   1      36.129  21.378  24.881  1.00  0.00     0.261 C 
BRANCH   4   5
ATOM      5  O   UNL A   1      34.975  22.253  24.995  1.00  0.00    -0.462 OA
BRANCH   5   6
ATOM      6  C   UNL A   1      34.988  23.328  24.163  1.00  0.00     0.329 C 
ATOM      7  O   UNL A   1      35.832  23.497  23.287  1.00  0.00    -0.250 OA
BRANCH   6   8
ATOM      8  C   UNL A   1      33.913  24.404  24.447  1.00  0.00     0.199 C 
ATOM      9  N   UNL A   1      32.450  24.098  24.553  1.00  0.00    -0.323 N 
ATOM     10  C   UNL A   1      31.763  24.565  25.753  1.00  0.00     0.156 C 
ATOM     11  C   UNL A   1      32.126  25.999  26.021  1.00  0.00    -0.025 A 
ATOM     12  C   UNL A   1      34.445  25.200  25.672  1.00  0.00     0.073 C 
ATOM     13  C   UNL A   1      31.173  26.997  26.224  1.00  0.00     0.006 A 
ATOM     14  C   UNL A   1      33.494  26.319  26.006  1.00  0.00    -0.040 A 
ATOM     15  C   UNL A   1      31.591  28.310  26.434  1.00  0.00     0.000 A 
ATOM     16  C   UNL A   1      33.907  27.627  26.241  1.00  0.00     0.004 A 
ATOM     17  C   UNL A   1      32.952  28.622  26.453  1.00  0.00     0.000 A 
BRANCH   9  18
ATOM     18  C   UNL A   1      31.664  24.166  23.396  1.00  0.00     0.233 C 
ATOM     19  O   UNL A   1      30.443  24.016  23.399  1.00  0.00    -0.274 OA
BRANCH  18  20
ATOM     20  C   UNL A   1      32.446  24.249  22.122  1.00  0.00     0.169 C 
BRANCH  20  21
ATOM     21  S   UNL A   1      32.395  25.844  21.308  1.00  0.00    -0.149 SA
BRANCH  21  22
ATOM     22  C   UNL A   1      32.052  27.041  22.624  1.00  0.00     0.041 C 
ATOM     23  C   UNL A   1      33.196  28.049  22.686  1.00  0.00     0.019 C 
ATOM     24  C   UNL A   1      30.730  27.724  22.301  1.00  0.00     0.019 C 
ENDBRANCH  21  22
ENDBRANCH  20  21
ENDBRANCH  18  20
ENDBRANCH   9  18
ENDBRANCH   6   8
ENDBRANCH   5   6
ENDBRANCH   4   5
ENDBRANCH   3   4
ENDBRANCH   2   3
ENDBRANCH   1   2
BRANCH   1  25
ATOM     25  C   UNL A   1      40.678  20.333  26.449  1.00  0.00     0.188 C 
BRANCH  25  26
ATOM     26  O   UNL A   1      41.958  20.785  26.882  1.00  0.00    -0.376 OA
BRANCH  26  27
ATOM     27  C   UNL A   1      43.008  20.301  26.023  1.00  0.00     0.202 C 
BRANCH  27  28
ATOM     28  C   UNL A   1      43.845  21.428  25.413  1.00  0.00     0.261 C 
BRANCH  28  29
ATOM     29  O   UNL A   1      43.085  22.641  25.246  1.00  0.00    -0.460 OA
BRANCH  29  30
ATOM     30  C   UNL A   1      43.768  23.812  25.158  1.00  0.00     0.338 C 
ATOM     31  O   UNL A   1      44.600  24.104  24.313  1.00  0.00    -0.246 OA
BRANCH  30  32
ATOM     32  C   UNL A   1      43.282  24.745  26.215  1.00  0.00     0.060 A 
ATOM     33  C   UNL A   1      43.904  25.994  26.360  1.00  0.00     0.016 A 
ATOM     34  C   UNL A   1      42.161  24.440  26.997  1.00  0.00     0.016 A 
ATOM     35  C   UNL A   1      43.341  26.967  27.199  1.00  0.00     0.010 A 
ATOM     36  C   UNL A   1      41.639  25.390  27.882  1.00  0.00     0.010 A 
ATOM     37  C   UNL A   1      42.210  26.669  27.977  1.00  0.00    -0.014 A 
BRANCH  37  38
ATOM     38  C   UNL A   1      41.762  27.600  29.049  1.00  0.00     0.031 A 
ATOM     39  C   UNL A   1      42.439  27.500  30.381  1.00  0.00     0.074 A 
ATOM     40  C   UNL A   1      40.748  28.475  28.895  1.00  0.00     0.049 A 
ATOM     41  N   UNL A   1      42.255  28.218  31.458  1.00  0.00    -0.248 NA
ATOM     42  C   UNL A   1      43.471  26.459  30.512  1.00  0.00     0.031 C 
ATOM     43  C   UNL A   1      40.014  28.710  27.663  1.00  0.00     0.029 A 
ATOM     44  N   UNL A   1      40.142  29.320  29.795  1.00  0.00    -0.354 N 
ATOM     45  C   UNL A   1      43.192  27.759  32.369  1.00  0.00     0.074 A 
ATOM     46  C   UNL A   1      43.910  26.672  31.741  1.00  0.00     0.031 C 
ATOM     47  C   UNL A   1      39.020  29.585  27.882  1.00  0.00     0.029 A 
ATOM     48  C   UNL A   1      39.052  29.986  29.284  1.00  0.00     0.049 A 
ATOM     49  H   UNL A   1      40.459  29.438  30.721  1.00  0.00     0.167 HD
ATOM     50  C   UNL A   1      43.438  28.202  33.621  1.00  0.00     0.037 A 
ATOM     51  C   UNL A   1      38.172  30.816  29.877  1.00  0.00     0.037 A 
ATOM     52  C   UNL A   1      42.658  29.195  34.301  1.00  0.00     0.049 A 
ATOM     53  C   UNL A   1      38.366  31.177  31.324  1.00  0.00     0.074 A 
ATOM     54  C   UNL A   1      42.812  29.682  35.584  1.00  0.00     0.029 A 
ATOM     55  N   UNL A   1      41.541  29.816  33.763  1.00  0.00    -0.354 N 
ATOM     56  N   UNL A   1      39.323  30.815  32.142  1.00  0.00    -0.248 NA
ATOM     57  C   UNL A   1      37.368  32.073  31.926  1.00  0.00     0.031 C 
ATOM     58  C   UNL A   1      41.752  30.559  35.845  1.00  0.00     0.029 A 
ATOM     59  C   UNL A   1      40.967  30.651  34.706  1.00  0.00     0.049 A 
ATOM     60  H   UNL A   1      41.206  29.682  32.847  1.00  0.00     0.167 HD
ATOM     61  C   UNL A   1      39.067  31.468  33.340  1.00  0.00     0.074 A 
ATOM     62  C   UNL A   1      37.864  32.248  33.143  1.00  0.00     0.031 C 
ATOM     63  C   UNL A   1      39.775  31.431  34.495  1.00  0.00     0.037 A 
BRANCH  50  64
ATOM     64  C   UNL A   1      44.583  27.548  34.325  1.00  0.00     0.057 A 
ATOM     65  C   UNL A   1      44.392  26.398  35.103  1.00  0.00     0.134 A 
ATOM     66  C   UNL A   1      45.858  28.118  34.299  1.00  0.00     0.134 A 
ATOM     67  F   UNL A   1      43.180  25.829  35.191  1.00  0.00    -0.206 F 
ATOM     68  C   UNL A   1      45.429  25.855  35.860  1.00  0.00     0.040 A 
ATOM     69  C   UNL A   1      46.908  27.572  35.038  1.00  0.00     0.040 A 
ATOM     70  F   UNL A   1      46.095  29.230  33.587  1.00  0.00    -0.206 F 
ATOM     71  C   UNL A   1      46.692  26.445  35.829  1.00  0.00     0.006 A 
ENDBRANCH  50  64
BRANCH  51  72
ATOM     72  C   UNL A   1      37.017  31.364  29.118  1.00  0.00     0.057 A 
ATOM     73  C   UNL A   1      37.016  32.681  28.646  1.00  0.00     0.134 A 
ATOM     74  C   UNL A   1      35.864  30.600  28.901  1.00  0.00     0.134 A 
ATOM     75  F   UNL A   1      38.082  33.471  28.846  1.00  0.00    -0.206 F 
ATOM     76  C   UNL A   1      35.901  33.229  28.008  1.00  0.00     0.040 A 
ATOM     77  C   UNL A   1      34.748  31.129  28.247  1.00  0.00     0.040 A 
ATOM     78  F   UNL A   1      35.800  29.332  29.331  1.00  0.00    -0.206 F 
ATOM     79  C   UNL A   1      34.762  32.451  27.807  1.00  0.00     0.006 A 
ENDBRANCH  51  72
BRANCH  63  80
ATOM     80  C   UNL A   1      39.293  32.286  35.627  1.00  0.00     0.057 A 
ATOM     81  C   UNL A   1      39.692  33.620  35.769  1.00  0.00     0.134 A 
ATOM     82  C   UNL A   1      38.371  31.781  36.554  1.00  0.00     0.134 A 
ATOM     83  F   UNL A   1      40.585  34.157  34.923  1.00  0.00    -0.206 F 
ATOM     84  C   UNL A   1      39.197  34.421  36.799  1.00  0.00     0.040 A 
ATOM     85  C   UNL A   1      37.852  32.579  37.572  1.00  0.00     0.040 A 
ATOM     86  F   UNL A   1      37.948  30.511  36.470  1.00  0.00    -0.206 F 
ATOM     87  C   UNL A   1      38.267  33.903  37.699  1.00  0.00     0.006 A 
ENDBRANCH  63  80
ENDBRANCH  37  38
ENDBRANCH  30  32
ENDBRANCH  29  30
ENDBRANCH  28  29
ENDBRANCH  27  28
ENDBRANCH  26  27
ENDBRANCH  25  26
ENDBRANCH   1  25
TORSDOF 21
ENDMDL
MODEL 2
REMARK VINA RESULT:     -10.1      1.471      2.442
REMARK SMILES CC(C)SCC(=O)N1Cc2ccccc2C[C@H]1C(=O)OCCOCCOCCOC(=O)c1ccc(-c2c3nc(c(-c4c(F)cccc4F)c4ccc([nH]4)c(-c4c(F)cccc4F)c4nc(c(-c5c(F)cccc5F)c5ccc2[nH]5)C=C4)C=C3)cc1
REMARK SMILES IDX 24 1 23 2 22 3 21 4 20 5 18 6 19 7 17 8 8 9 9 10 10 11 16 12
REMARK SMILES IDX 11 13 15 14 12 15 14 16 13 17 6 18 7 19 5 20 4 21 2 22 1 23
REMARK SMILES IDX 3 24 25 25 26 26 27 27 28 28 29 29 30 30 31 31 32 32 33 33
REMARK SMILES IDX 85 34 34 35 84 36 35 37 36 38 37 39 78 40 38 41 83 42 77 43
REMARK SMILES IDX 79 44 39 45 82 46 76 47 75 48 40 50 66 51 49 52 65 53 50 54
REMARK SMILES IDX 53 55 64 56 80 57 51 58 52 59 63 61 81 62 54 63 41 64 42 65
REMARK SMILES IDX 47 66 43 67 44 68 46 69 48 70 45 71 67 72 68 73 73 74 69 75
REMARK SMILES IDX 70 76 72 77 74 78 71 79 55 80 56 81 61 82 57 83 58 84 60 85
REMARK SMILES IDX 62 86 59 87
REMARK H PARENT 79 49 53 60
REMARK Flexibility Score: inf
ROOT
ATOM      1  C   UNL A   1      40.530  19.932  26.206  1.00  0.00     0.188 C 
ENDROOT
BRANCH   1   2
ATOM      2  O   UNL A   1      39.237  20.305  25.745  1.00  0.00    -0.376 OA
BRANCH   2   3
ATOM      3  C   UNL A   1      38.880  21.684  25.767  1.00  0.00     0.202 C 
BRANCH   3   4
ATOM      4  C   UNL A   1      37.384  21.985  25.616  1.00  0.00     0.261 C 
BRANCH   4   5
ATOM      5  O   UNL A   1      37.085  23.288  25.049  1.00  0.00    -0.462 OA
BRANCH   5   6
ATOM      6  C   UNL A   1      36.210  23.272  24.008  1.00  0.00     0.329 C 
ATOM      7  O   UNL A   1      36.540  23.031  22.849  1.00  0.00    -0.250 OA
BRANCH   6   8
ATOM      8  C   UNL A   1      34.757  23.676  24.352  1.00  0.00     0.199 C 
ATOM      9  N   UNL A   1      33.744  22.720  24.902  1.00  0.00    -0.323 N 
ATOM     10  C   UNL A   1      33.057  23.118  26.126  1.00  0.00     0.156 C 
ATOM     11  C   UNL A   1      32.576  24.537  26.000  1.00  0.00    -0.025 A 
ATOM     12  C   UNL A   1      34.884  24.967  25.208  1.00  0.00     0.073 C 
ATOM     13  C   UNL A   1      31.258  24.916  26.250  1.00  0.00     0.006 A 
ATOM     14  C   UNL A   1      33.513  25.485  25.557  1.00  0.00    -0.040 A 
ATOM     15  C   UNL A   1      30.884  26.248  26.079  1.00  0.00     0.000 A 
ATOM     16  C   UNL A   1      33.142  26.819  25.411  1.00  0.00     0.004 A 
ATOM     17  C   UNL A   1      31.824  27.197  25.671  1.00  0.00     0.000 A 
BRANCH   9  18
ATOM     18  C   UNL A   1      32.931  22.013  24.008  1.00  0.00     0.233 C 
ATOM     19  O   UNL A   1      32.733  22.372  22.848  1.00  0.00    -0.274 OA
BRANCH  18  20
ATOM     20  C   UNL A   1      32.167  20.885  24.627  1.00  0.00     0.169 C 
BRANCH  20  21
ATOM     21  S   UNL A   1      33.179  19.578  25.316  1.00  0.00    -0.149 SA
BRANCH  21  22
ATOM     22  C   UNL A   1      33.627  18.528  23.909  1.00  0.00     0.041 C 
ATOM     23  C   UNL A   1      34.170  17.203  24.433  1.00  0.00     0.019 C 
ATOM     24  C   UNL A   1      32.375  18.318  23.066  1.00  0.00     0.019 C 
ENDBRANCH  21  22
ENDBRANCH  20  21
ENDBRANCH  18  20
ENDBRANCH   9  18
ENDBRANCH   6   8
ENDBRANCH   5   6
ENDBRANCH   4   5
ENDBRANCH   3   4
ENDBRANCH   2   3
ENDBRANCH   1   2
BRANCH   1  25
ATOM     25  C   UNL A   1      41.110  20.729  27.378  1.00  0.00     0.188 C 
BRANCH  25  26
ATOM     26  O   UNL A   1      42.492  21.054  27.262  1.00  0.00    -0.376 OA
BRANCH  26  27
ATOM     27  C   UNL A   1      43.054  20.548  26.037  1.00  0.00     0.202 C 
BRANCH  27  28
ATOM     28  C   UNL A   1      43.825  21.612  25.251  1.00  0.00     0.261 C 
BRANCH  28  29
ATOM     29  O   UNL A   1      44.301  22.675  26.100  1.00  0.00    -0.460 OA
BRANCH  29  30
ATOM     30  C   UNL A   1      44.264  23.943  25.612  1.00  0.00     0.338 C 
ATOM     31  O   UNL A   1      44.558  24.293  24.480  1.00  0.00    -0.246 OA
BRANCH  30  32
ATOM     32  C   UNL A   1      43.720  24.856  26.658  1.00  0.00     0.060 A 
ATOM     33  C   UNL A   1      44.317  26.112  26.845  1.00  0.00     0.016 A 
ATOM     34  C   UNL A   1      42.570  24.527  27.387  1.00  0.00     0.016 A 
ATOM     35  C   UNL A   1      43.704  27.067  27.670  1.00  0.00     0.010 A 
ATOM     36  C   UNL A   1      41.997  25.459  28.259  1.00  0.00     0.010 A 
ATOM     37  C   UNL A   1      42.545  26.744  28.394  1.00  0.00    -0.014 A 
BRANCH  37  38
ATOM     38  C   UNL A   1      42.037  27.656  29.456  1.00  0.00     0.031 A 
ATOM     39  C   UNL A   1      42.675  27.565  30.809  1.00  0.00     0.074 A 
ATOM     40  C   UNL A   1      41.006  28.504  29.275  1.00  0.00     0.049 A 
ATOM     41  N   UNL A   1      42.437  28.272  31.883  1.00  0.00    -0.248 NA
ATOM     42  C   UNL A   1      43.730  26.552  30.967  1.00  0.00     0.031 C 
ATOM     43  C   UNL A   1      40.305  28.726  28.021  1.00  0.00     0.029 A 
ATOM     44  N   UNL A   1      40.349  29.326  30.160  1.00  0.00    -0.354 N 
ATOM     45  C   UNL A   1      43.356  27.832  32.821  1.00  0.00     0.074 A 
ATOM     46  C   UNL A   1      44.123  26.769  32.210  1.00  0.00     0.031 C 
ATOM     47  C   UNL A   1      39.282  29.573  28.213  1.00  0.00     0.029 A 
ATOM     48  C   UNL A   1      39.257  29.965  29.618  1.00  0.00     0.049 A 
ATOM     49  H   UNL A   1      40.633  29.447  31.095  1.00  0.00     0.167 HD
ATOM     50  C   UNL A   1      43.551  28.274  34.083  1.00  0.00     0.037 A 
ATOM     51  C   UNL A   1      38.337  30.767  30.186  1.00  0.00     0.037 A 
ATOM     52  C   UNL A   1      42.723  29.241  34.743  1.00  0.00     0.049 A 
ATOM     53  C   UNL A   1      38.475  31.124  31.641  1.00  0.00     0.074 A 
ATOM     54  C   UNL A   1      42.822  29.724  36.033  1.00  0.00     0.029 A 
ATOM     55  N   UNL A   1      41.607  29.835  34.173  1.00  0.00    -0.354 N 
ATOM     56  N   UNL A   1      39.415  30.783  32.487  1.00  0.00    -0.248 NA
ATOM     57  C   UNL A   1      37.434  31.989  32.215  1.00  0.00     0.031 C 
ATOM     58  C   UNL A   1      41.730  30.570  36.265  1.00  0.00     0.029 A 
ATOM     59  C   UNL A   1      40.980  30.648  35.101  1.00  0.00     0.049 A 
ATOM     60  H   UNL A   1      41.304  29.698  33.245  1.00  0.00     0.167 HD
ATOM     61  C   UNL A   1      39.103  31.422  33.680  1.00  0.00     0.074 A 
ATOM     62  C   UNL A   1      37.886  32.170  33.449  1.00  0.00     0.031 C 
ATOM     63  C   UNL A   1      39.774  31.396  34.856  1.00  0.00     0.037 A 
BRANCH  50  64
ATOM     64  C   UNL A   1      44.689  27.647  34.819  1.00  0.00     0.057 A 
ATOM     65  C   UNL A   1      44.502  26.496  35.598  1.00  0.00     0.134 A 
ATOM     66  C   UNL A   1      45.953  28.242  34.824  1.00  0.00     0.134 A 
ATOM     67  F   UNL A   1      43.300  25.904  35.658  1.00  0.00    -0.206 F 
ATOM     68  C   UNL A   1      45.530  25.978  36.384  1.00  0.00     0.040 A 
ATOM     69  C   UNL A   1      46.994  27.722  35.592  1.00  0.00     0.040 A 
ATOM     70  F   UNL A   1      46.185  29.356  34.112  1.00  0.00    -0.206 F 
ATOM     71  C   UNL A   1      46.781  26.593  36.383  1.00  0.00     0.006 A 
ENDBRANCH  50  64
BRANCH  51  72
ATOM     72  C   UNL A   1      37.192  31.288  29.394  1.00  0.00     0.057 A 
ATOM     73  C   UNL A   1      36.062  30.501  29.146  1.00  0.00     0.134 A 
ATOM     74  C   UNL A   1      37.229  32.564  28.818  1.00  0.00     0.134 A 
ATOM     75  F   UNL A   1      35.978  29.261  29.649  1.00  0.00    -0.206 F 
ATOM     76  C   UNL A   1      35.020  30.953  28.332  1.00  0.00     0.040 A 
ATOM     77  C   UNL A   1      36.186  33.036  28.017  1.00  0.00     0.040 A 
ATOM     78  F   UNL A   1      38.284  33.366  29.015  1.00  0.00    -0.206 F 
ATOM     79  C   UNL A   1      35.081  32.225  27.765  1.00  0.00     0.006 A 
ENDBRANCH  51  72
BRANCH  63  80
ATOM     80  C   UNL A   1      39.233  32.231  35.978  1.00  0.00     0.057 A 
ATOM     81  C   UNL A   1      39.615  33.565  36.158  1.00  0.00     0.134 A 
ATOM     82  C   UNL A   1      38.273  31.706  36.852  1.00  0.00     0.134 A 
ATOM     83  F   UNL A   1      40.542  34.121  35.363  1.00  0.00    -0.206 F 
ATOM     84  C   UNL A   1      39.066  34.347  37.175  1.00  0.00     0.040 A 
ATOM     85  C   UNL A   1      37.701  32.484  37.857  1.00  0.00     0.040 A 
ATOM     86  F   UNL A   1      37.864  30.433  36.730  1.00  0.00    -0.206 F 
ATOM     87  C   UNL A   1      38.099  33.809  38.023  1.00  0.00     0.006 A 
ENDBRANCH  63  80
ENDBRANCH  37  38
ENDBRANCH  30  32
ENDBRANCH  29  30
ENDBRANCH  28  29
ENDBRANCH  27  28
ENDBRANCH  26  27
ENDBRANCH  25  26
ENDBRANCH   1  25
TORSDOF 21
ENDMDL
MODEL 3
REMARK VINA RESULT:      -9.9      3.156      8.337
REMARK SMILES CC(C)SCC(=O)N1Cc2ccccc2C[C@H]1C(=O)OCCOCCOCCOC(=O)c1ccc(-c2c3nc(c(-c4c(F)cccc4F)c4ccc([nH]4)c(-c4c(F)cccc4F)c4nc(c(-c5c(F)cccc5F)c5ccc2[nH]5)C=C4)C=C3)cc1
REMARK SMILES IDX 24 1 23 2 22 3 21 4 20 5 18 6 19 7 17 8 8 9 9 10 10 11 16 12
REMARK SMILES IDX 11 13 15 14 12 15 14 16 13 17 6 18 7 19 5 20 4 21 2 22 1 23
REMARK SMILES IDX 3 24 25 25 26 26 27 27 28 28 29 29 30 30 31 31 32 32 33 33
REMARK SMILES IDX 85 34 34 35 84 36 35 37 36 38 37 39 78 40 38 41 83 42 77 43
REMARK SMILES IDX 79 44 39 45 82 46 76 47 75 48 40 50 66 51 49 52 65 53 50 54
REMARK SMILES IDX 53 55 64 56 80 57 51 58 52 59 63 61 81 62 54 63 41 64 42 65
REMARK SMILES IDX 47 66 43 67 44 68 46 69 48 70 45 71 67 72 68 73 73 74 69 75
REMARK SMILES IDX 70 76 72 77 74 78 71 79 55 80 56 81 61 82 57 83 58 84 60 85
REMARK SMILES IDX 62 86 59 87
REMARK H PARENT 79 49 53 60
REMARK Flexibility Score: inf
ROOT
ATOM      1  C   UNL A   1      34.037  29.305  26.514  1.00  0.00     0.188 C 
ENDROOT
BRANCH   1   2
ATOM      2  O   UNL A   1      33.780  27.969  26.099  1.00  0.00    -0.376 OA
BRANCH   2   3
ATOM      3  C   UNL A   1      33.087  27.761  24.872  1.00  0.00     0.202 C 
BRANCH   3   4
ATOM      4  C   UNL A   1      31.720  27.075  24.990  1.00  0.00     0.261 C 
BRANCH   4   5
ATOM      5  O   UNL A   1      31.734  25.650  24.708  1.00  0.00    -0.462 OA
BRANCH   5   6
ATOM      6  C   UNL A   1      32.000  24.858  25.780  1.00  0.00     0.329 C 
ATOM      7  O   UNL A   1      31.476  25.008  26.881  1.00  0.00    -0.250 OA
BRANCH   6   8
ATOM      8  C   UNL A   1      33.098  23.789  25.563  1.00  0.00     0.199 C 
ATOM      9  N   UNL A   1      33.004  22.710  24.529  1.00  0.00    -0.323 N 
ATOM     10  C   UNL A   1      34.131  22.575  23.612  1.00  0.00     0.156 C 
ATOM     11  C   UNL A   1      35.420  22.592  24.385  1.00  0.00    -0.025 A 
ATOM     12  C   UNL A   1      34.430  24.585  25.475  1.00  0.00     0.073 C 
ATOM     13  C   UNL A   1      36.400  21.609  24.248  1.00  0.00     0.006 A 
ATOM     14  C   UNL A   1      35.585  23.631  25.316  1.00  0.00    -0.040 A 
ATOM     15  C   UNL A   1      37.554  21.680  25.026  1.00  0.00     0.000 A 
ATOM     16  C   UNL A   1      36.750  23.711  26.074  1.00  0.00     0.004 A 
ATOM     17  C   UNL A   1      37.733  22.732  25.928  1.00  0.00     0.000 A 
BRANCH   9  18
ATOM     18  C   UNL A   1      32.421  21.487  24.884  1.00  0.00     0.233 C 
ATOM     19  O   UNL A   1      31.554  21.379  25.750  1.00  0.00    -0.274 OA
BRANCH  18  20
ATOM     20  C   UNL A   1      33.068  20.291  24.260  1.00  0.00     0.169 C 
BRANCH  20  21
ATOM     21  S   UNL A   1      33.061  18.815  25.275  1.00  0.00    -0.149 SA
BRANCH  21  22
ATOM     22  C   UNL A   1      33.519  17.465  24.157  1.00  0.00     0.041 C 
ATOM     23  C   UNL A   1      33.015  16.148  24.740  1.00  0.00     0.019 C 
ATOM     24  C   UNL A   1      32.886  17.746  22.801  1.00  0.00     0.019 C 
ENDBRANCH  21  22
ENDBRANCH  20  21
ENDBRANCH  18  20
ENDBRANCH   9  18
ENDBRANCH   6   8
ENDBRANCH   5   6
ENDBRANCH   4   5
ENDBRANCH   3   4
ENDBRANCH   2   3
ENDBRANCH   1   2
BRANCH   1  25
ATOM     25  C   UNL A   1      32.848  30.114  27.038  1.00  0.00     0.188 C 
BRANCH  25  26
ATOM     26  O   UNL A   1      33.180  31.379  27.602  1.00  0.00    -0.376 OA
BRANCH  26  27
ATOM     27  C   UNL A   1      32.155  32.358  27.347  1.00  0.00     0.202 C 
BRANCH  27  28
ATOM     28  C   UNL A   1      32.704  33.784  27.248  1.00  0.00     0.261 C 
BRANCH  28  29
ATOM     29  O   UNL A   1      32.451  34.547  28.444  1.00  0.00    -0.460 OA
BRANCH  29  30
ATOM     30  C   UNL A   1      33.456  35.323  28.928  1.00  0.00     0.338 C 
ATOM     31  O   UNL A   1      33.457  36.541  29.005  1.00  0.00    -0.246 OA
BRANCH  30  32
ATOM     32  C   UNL A   1      34.548  34.448  29.441  1.00  0.00     0.060 A 
ATOM     33  C   UNL A   1      34.260  33.517  30.450  1.00  0.00     0.016 A 
ATOM     34  C   UNL A   1      35.827  34.468  28.870  1.00  0.00     0.016 A 
ATOM     35  C   UNL A   1      35.208  32.546  30.804  1.00  0.00     0.010 A 
ATOM     36  C   UNL A   1      36.794  33.538  29.272  1.00  0.00     0.010 A 
ATOM     37  C   UNL A   1      36.488  32.556  30.226  1.00  0.00    -0.014 A 
BRANCH  37  38
ATOM     38  C   UNL A   1      37.573  31.696  30.775  1.00  0.00     0.031 A 
ATOM     39  C   UNL A   1      38.087  32.020  32.145  1.00  0.00     0.074 A 
ATOM     40  C   UNL A   1      38.147  30.693  30.082  1.00  0.00     0.049 A 
ATOM     41  N   UNL A   1      38.995  31.403  32.853  1.00  0.00    -0.248 NA
ATOM     42  C   UNL A   1      37.484  33.187  32.809  1.00  0.00     0.031 C 
ATOM     43  C   UNL A   1      37.744  30.240  28.761  1.00  0.00     0.029 A 
ATOM     44  N   UNL A   1      39.214  29.882  30.388  1.00  0.00    -0.354 N 
ATOM     45  C   UNL A   1      39.026  32.068  34.068  1.00  0.00     0.074 A 
ATOM     46  C   UNL A   1      38.083  33.162  33.987  1.00  0.00     0.031 C 
ATOM     47  C   UNL A   1      38.577  29.279  28.333  1.00  0.00     0.029 A 
ATOM     48  C   UNL A   1      39.579  29.037  29.365  1.00  0.00     0.049 A 
ATOM     49  H   UNL A   1      39.674  29.902  31.259  1.00  0.00     0.167 HD
ATOM     50  C   UNL A   1      39.772  31.795  35.161  1.00  0.00     0.037 A 
ATOM     51  C   UNL A   1      40.608  28.174  29.264  1.00  0.00     0.037 A 
ATOM     52  C   UNL A   1      40.796  30.792  35.217  1.00  0.00     0.049 A 
ATOM     53  C   UNL A   1      41.533  27.995  30.437  1.00  0.00     0.074 A 
ATOM     54  C   UNL A   1      41.628  30.466  36.271  1.00  0.00     0.029 A 
ATOM     55  N   UNL A   1      41.161  29.985  34.149  1.00  0.00    -0.354 N 
ATOM     56  N   UNL A   1      41.481  28.557  31.619  1.00  0.00    -0.248 NA
ATOM     57  C   UNL A   1      42.649  27.053  30.267  1.00  0.00     0.031 C 
ATOM     58  C   UNL A   1      42.537  29.499  35.823  1.00  0.00     0.029 A 
ATOM     59  C   UNL A   1      42.237  29.192  34.505  1.00  0.00     0.049 A 
ATOM     60  H   UNL A   1      40.719  29.979  33.268  1.00  0.00     0.167 HD
ATOM     61  C   UNL A   1      42.528  28.008  32.347  1.00  0.00     0.074 A 
ATOM     62  C   UNL A   1      43.201  27.070  31.473  1.00  0.00     0.031 C 
ATOM     63  C   UNL A   1      42.891  28.254  33.629  1.00  0.00     0.037 A 
BRANCH  50  64
ATOM     64  C   UNL A   1      39.510  32.654  36.354  1.00  0.00     0.057 A 
ATOM     65  C   UNL A   1      38.508  32.326  37.277  1.00  0.00     0.134 A 
ATOM     66  C   UNL A   1      40.198  33.857  36.535  1.00  0.00     0.134 A 
ATOM     67  F   UNL A   1      37.792  31.200  37.132  1.00  0.00    -0.206 F 
ATOM     68  C   UNL A   1      38.176  33.185  38.323  1.00  0.00     0.040 A 
ATOM     69  C   UNL A   1      39.887  34.716  37.588  1.00  0.00     0.040 A 
ATOM     70  F   UNL A   1      41.155  34.232  35.672  1.00  0.00    -0.206 F 
ATOM     71  C   UNL A   1      38.867  34.386  38.480  1.00  0.00     0.006 A 
ENDBRANCH  50  64
BRANCH  51  72
ATOM     72  C   UNL A   1      40.838  27.411  28.008  1.00  0.00     0.057 A 
ATOM     73  C   UNL A   1      41.607  27.941  26.966  1.00  0.00     0.134 A 
ATOM     74  C   UNL A   1      40.244  26.161  27.800  1.00  0.00     0.134 A 
ATOM     75  F   UNL A   1      42.181  29.146  27.096  1.00  0.00    -0.206 F 
ATOM     76  C   UNL A   1      41.756  27.268  25.751  1.00  0.00     0.040 A 
ATOM     77  C   UNL A   1      40.400  25.467  26.597  1.00  0.00     0.040 A 
ATOM     78  F   UNL A   1      39.493  25.599  28.758  1.00  0.00    -0.206 F 
ATOM     79  C   UNL A   1      41.151  26.026  25.565  1.00  0.00     0.006 A 
ENDBRANCH  51  72
BRANCH  63  80
ATOM     80  C   UNL A   1      44.044  27.472  34.182  1.00  0.00     0.057 A 
ATOM     81  C   UNL A   1      43.864  26.239  34.818  1.00  0.00     0.134 A 
ATOM     82  C   UNL A   1      45.357  27.936  34.022  1.00  0.00     0.134 A 
ATOM     83  F   UNL A   1      42.630  25.749  35.017  1.00  0.00    -0.206 F 
ATOM     84  C   UNL A   1      44.950  25.497  35.285  1.00  0.00     0.040 A 
ATOM     85  C   UNL A   1      46.450  27.192  34.463  1.00  0.00     0.040 A 
ATOM     86  F   UNL A   1      45.595  29.110  33.418  1.00  0.00    -0.206 F 
ATOM     87  C   UNL A   1      46.248  25.968  35.099  1.00  0.00     0.006 A 
ENDBRANCH  63  80
ENDBRANCH  37  38
ENDBRANCH  30  32
ENDBRANCH  29  30
ENDBRANCH  28  29
ENDBRANCH  27  28
ENDBRANCH  26  27
ENDBRANCH  25  26
ENDBRANCH   1  25
TORSDOF 21
ENDMDL
