MODEL 1
REMARK VINA RESULT:     -10.5      0.000      0.000
REMARK SMILES CCN(CCC(=O)OCCOCCOCCOC(=O)c1ccc(-c2c3nc(c(-c4c(F)cccc4F)c4ccc([nH]4)c(-c4c(F)cccc4F)c4nc(c(-c5c(F)cccc5F)c5ccc2[nH]5)C=C4)C=C3)cc1)C(=O)c1cc(Cl)ccc1F
REMARK SMILES IDX 12 1 11 2 10 3 9 4 8 5 6 6 7 7 5 8 4 9 3 10 2 11 1 12 74 13
REMARK SMILES IDX 75 14 76 15 77 16 82 17 78 18 81 19 83 20 79 21 80 22 13 23
REMARK SMILES IDX 14 24 15 25 16 26 17 27 18 28 19 29 20 30 21 31 73 32 22 33
REMARK SMILES IDX 72 34 23 35 24 36 25 37 66 38 26 39 71 40 65 41 67 42 27 43
REMARK SMILES IDX 70 44 64 45 63 46 28 48 54 49 37 50 53 51 38 52 41 53 52 54
REMARK SMILES IDX 68 55 39 56 40 57 51 59 69 60 42 61 29 62 30 63 35 64 31 65
REMARK SMILES IDX 32 66 34 67 36 68 33 69 55 70 56 71 61 72 57 73 58 74 60 75
REMARK SMILES IDX 62 76 59 77 43 78 44 79 49 80 45 81 46 82 48 83 50 84 47 85
REMARK H PARENT 67 47 41 58
REMARK Flexibility Score: inf
ROOT
ATOM      1  C   UNL A   1      34.046  30.609  27.957  1.00  0.00     0.188 C 
ENDROOT
BRANCH   1   2
ATOM      2  O   UNL A   1      33.551  29.590  26.903  1.00  0.00    -0.376 OA
BRANCH   2   3
ATOM      3  C   UNL A   1      32.965  27.731  26.438  1.00  0.00     0.202 C 
BRANCH   3   4
ATOM      4  C   UNL A   1      33.730  26.473  25.557  1.00  0.00     0.261 C 
BRANCH   4   5
ATOM      5  O   UNL A   1      33.857  25.131  26.104  1.00  0.00    -0.463 OA
BRANCH   5   6
ATOM      6  C   UNL A   1      34.730  24.132  25.792  1.00  0.00     0.307 C 
ATOM      7  O   UNL A   1      35.832  24.454  25.339  1.00  0.00    -0.252 OA
BRANCH   6   8
ATOM      8  C   UNL A   1      34.388  22.643  25.973  1.00  0.00     0.144 C 
BRANCH   8   9
ATOM      9  C   UNL A   1      34.444  21.564  24.853  1.00  0.00     0.131 C 
BRANCH   9  10
ATOM     10  N   UNL A   1      33.202  21.346  24.080  1.00  0.00    -0.338 N 
BRANCH  10  11
ATOM     11  C   UNL A   1      32.525  20.061  24.317  1.00  0.00     0.116 C 
ATOM     12  C   UNL A   1      33.471  18.970  24.817  1.00  0.00     0.027 C 
ENDBRANCH  10  11
BRANCH  10  13
ATOM     13  C   UNL A   1      32.512  22.246  23.255  1.00  0.00     0.256 C 
ATOM     14  O   UNL A   1      32.596  22.186  22.024  1.00  0.00    -0.269 OA
BRANCH  13  15
ATOM     15  C   UNL A   1      31.694  23.358  23.768  1.00  0.00     0.077 A 
ATOM     16  C   UNL A   1      31.598  24.866  22.755  1.00  0.00     0.037 A 
ATOM     17  C   UNL A   1      30.853  23.346  25.383  1.00  0.00     0.136 A 
ATOM     18  C   UNL A   1      30.739  26.313  23.401  1.00  0.00     0.042 A 
ATOM     19  C   UNL A   1      30.047  24.838  26.034  1.00  0.00     0.041 A 
ATOM     20  F   UNL A   1      30.479  22.243  26.018  1.00  0.00    -0.206 F 
ATOM     21  Cl  UNL A   1      30.486  27.697  22.409  1.00  0.00    -0.084 Cl
ATOM     22  C   UNL A   1      29.953  26.297  25.014  1.00  0.00     0.023 A 
ENDBRANCH  13  15
ENDBRANCH  10  13
ENDBRANCH   9  10
ENDBRANCH   8   9
ENDBRANCH   6   8
ENDBRANCH   5   6
ENDBRANCH   4   5
ENDBRANCH   3   4
ENDBRANCH   2   3
ENDBRANCH   1   2
BRANCH   1  23
ATOM     23  C   UNL A   1      33.729  32.081  27.586  1.00  0.00     0.188 C 
BRANCH  23  24
ATOM     24  O   UNL A   1      34.521  33.080  28.216  1.00  0.00    -0.376 OA
BRANCH  24  25
ATOM     25  C   UNL A   1      33.903  33.837  29.254  1.00  0.00     0.202 C 
BRANCH  25  26
ATOM     26  C   UNL A   1      34.598  33.750  30.615  1.00  0.00     0.261 C 
BRANCH  26  27
ATOM     27  O   UNL A   1      34.573  32.405  31.128  1.00  0.00    -0.460 OA
BRANCH  27  28
ATOM     28  C   UNL A   1      35.530  32.115  32.045  1.00  0.00     0.338 C 
ATOM     29  O   UNL A   1      35.580  32.467  33.202  1.00  0.00    -0.246 OA
BRANCH  28  30
ATOM     30  C   UNL A   1      36.457  31.117  31.474  1.00  0.00     0.060 A 
ATOM     31  C   UNL A   1      37.403  30.536  32.331  1.00  0.00     0.016 A 
ATOM     32  C   UNL A   1      36.464  30.835  30.106  1.00  0.00     0.016 A 
ATOM     33  C   UNL A   1      38.415  29.736  31.810  1.00  0.00     0.010 A 
ATOM     34  C   UNL A   1      37.491  30.052  29.580  1.00  0.00     0.010 A 
ATOM     35  C   UNL A   1      38.500  29.555  30.424  1.00  0.00    -0.014 A 
BRANCH  35  36
ATOM     36  C   UNL A   1      39.784  29.115  29.836  1.00  0.00     0.031 A 
ATOM     37  C   UNL A   1      40.879  30.140  29.715  1.00  0.00     0.074 A 
ATOM     38  C   UNL A   1      39.976  27.847  29.439  1.00  0.00     0.049 A 
ATOM     39  N   UNL A   1      42.058  30.040  29.161  1.00  0.00    -0.248 NA
ATOM     40  C   UNL A   1      40.602  31.464  30.304  1.00  0.00     0.031 C 
ATOM     41  C   UNL A   1      39.004  26.764  29.564  1.00  0.00     0.029 A 
ATOM     42  N   UNL A   1      41.060  27.264  28.837  1.00  0.00    -0.354 N 
ATOM     43  C   UNL A   1      42.660  31.282  29.334  1.00  0.00     0.074 A 
ATOM     44  C   UNL A   1      41.709  32.129  30.017  1.00  0.00     0.031 C 
ATOM     45  C   UNL A   1      39.528  25.648  29.025  1.00  0.00     0.029 A 
ATOM     46  C   UNL A   1      40.856  25.951  28.495  1.00  0.00     0.049 A 
ATOM     47  H   UNL A   1      41.904  27.742  28.666  1.00  0.00     0.167 HD
ATOM     48  C   UNL A   1      43.899  31.676  28.964  1.00  0.00     0.037 A 
ATOM     49  C   UNL A   1      41.647  25.108  27.805  1.00  0.00     0.037 A 
ATOM     50  C   UNL A   1      44.829  30.833  28.266  1.00  0.00     0.049 A 
ATOM     51  C   UNL A   1      42.991  25.594  27.329  1.00  0.00     0.074 A 
ATOM     52  C   UNL A   1      46.098  31.135  27.808  1.00  0.00     0.029 A 
ATOM     53  N   UNL A   1      44.580  29.512  27.924  1.00  0.00    -0.354 N 
ATOM     54  N   UNL A   1      43.549  26.771  27.487  1.00  0.00    -0.248 NA
ATOM     55  C   UNL A   1      43.817  24.636  26.582  1.00  0.00     0.031 C 
ATOM     56  C   UNL A   1      46.605  30.004  27.159  1.00  0.00     0.029 A 
ATOM     57  C   UNL A   1      45.668  28.986  27.251  1.00  0.00     0.049 A 
ATOM     58  H   UNL A   1      43.751  29.022  28.129  1.00  0.00     0.167 HD
ATOM     59  C   UNL A   1      44.798  26.687  26.883  1.00  0.00     0.074 A 
ATOM     60  C   UNL A   1      44.920  25.338  26.367  1.00  0.00     0.031 C 
ATOM     61  C   UNL A   1      45.760  27.635  26.762  1.00  0.00     0.037 A 
BRANCH  48  62
ATOM     62  C   UNL A   1      44.297  33.085  29.288  1.00  0.00     0.057 A 
ATOM     63  C   UNL A   1      44.093  34.135  28.381  1.00  0.00     0.134 A 
ATOM     64  C   UNL A   1      44.887  33.399  30.518  1.00  0.00     0.134 A 
ATOM     65  F   UNL A   1      43.554  33.897  27.176  1.00  0.00    -0.206 F 
ATOM     66  C   UNL A   1      44.481  35.442  28.679  1.00  0.00     0.040 A 
ATOM     67  C   UNL A   1      45.258  34.708  30.836  1.00  0.00     0.040 A 
ATOM     68  F   UNL A   1      45.114  32.443  31.429  1.00  0.00    -0.206 F 
ATOM     69  C   UNL A   1      45.059  35.732  29.913  1.00  0.00     0.006 A 
ENDBRANCH  48  62
BRANCH  49  70
ATOM     70  C   UNL A   1      41.183  23.732  27.496  1.00  0.00     0.057 A 
ATOM     71  C   UNL A   1      40.175  23.495  26.555  1.00  0.00     0.134 A 
ATOM     72  C   UNL A   1      41.721  22.620  28.158  1.00  0.00     0.134 A 
ATOM     73  F   UNL A   1      39.604  24.521  25.906  1.00  0.00    -0.206 F 
ATOM     74  C   UNL A   1      39.704  22.207  26.295  1.00  0.00     0.040 A 
ATOM     75  C   UNL A   1      41.276  21.323  27.889  1.00  0.00     0.040 A 
ATOM     76  F   UNL A   1      42.689  22.778  29.071  1.00  0.00    -0.206 F 
ATOM     77  C   UNL A   1      40.259  21.115  26.961  1.00  0.00     0.006 A 
ENDBRANCH  49  70
BRANCH  61  78
ATOM     78  C   UNL A   1      47.034  27.232  26.084  1.00  0.00     0.057 A 
ATOM     79  C   UNL A   1      47.242  27.448  24.716  1.00  0.00     0.134 A 
ATOM     80  C   UNL A   1      48.080  26.659  26.820  1.00  0.00     0.134 A 
ATOM     81  F   UNL A   1      46.275  27.983  23.957  1.00  0.00    -0.206 F 
ATOM     82  C   UNL A   1      48.441  27.088  24.099  1.00  0.00     0.040 A 
ATOM     83  C   UNL A   1      49.291  26.319  26.218  1.00  0.00     0.040 A 
ATOM     84  F   UNL A   1      47.946  26.437  28.136  1.00  0.00    -0.206 F 
ATOM     85  C   UNL A   1      49.472  26.527  24.852  1.00  0.00     0.006 A 
ENDBRANCH  61  78
ENDBRANCH  35  36
ENDBRANCH  28  30
ENDBRANCH  27  28
ENDBRANCH  26  27
ENDBRANCH  25  26
ENDBRANCH  24  25
ENDBRANCH  23  24
ENDBRANCH   1  23
TORSDOF 22
ENDMDL
MODEL 2
REMARK VINA RESULT:      -9.9      1.931      6.895
REMARK SMILES CCN(CCC(=O)OCCOCCOCCOC(=O)c1ccc(-c2c3nc(c(-c4c(F)cccc4F)c4ccc([nH]4)c(-c4c(F)cccc4F)c4nc(c(-c5c(F)cccc5F)c5ccc2[nH]5)C=C4)C=C3)cc1)C(=O)c1cc(Cl)ccc1F
REMARK SMILES IDX 12 1 11 2 10 3 9 4 8 5 6 6 7 7 5 8 4 9 3 10 2 11 1 12 74 13
REMARK SMILES IDX 75 14 76 15 77 16 82 17 78 18 81 19 83 20 79 21 80 22 13 23
REMARK SMILES IDX 14 24 15 25 16 26 17 27 18 28 19 29 20 30 21 31 73 32 22 33
REMARK SMILES IDX 72 34 23 35 24 36 25 37 66 38 26 39 71 40 65 41 67 42 27 43
REMARK SMILES IDX 70 44 64 45 63 46 28 48 54 49 37 50 53 51 38 52 41 53 52 54
REMARK SMILES IDX 68 55 39 56 40 57 51 59 69 60 42 61 29 62 30 63 35 64 31 65
REMARK SMILES IDX 32 66 34 67 36 68 33 69 55 70 56 71 61 72 57 73 58 74 60 75
REMARK SMILES IDX 62 76 59 77 43 78 44 79 49 80 45 81 46 82 48 83 50 84 47 85
REMARK H PARENT 67 47 41 58
REMARK Flexibility Score: inf
ROOT
ATOM      1  C   UNL A   1      34.323  33.085  31.446  1.00  0.00     0.188 C 
ENDROOT
BRANCH   1   2
ATOM      2  O   UNL A   1      34.768  32.777  29.996  1.00  0.00    -0.376 OA
BRANCH   2   3
ATOM      3  C   UNL A   1      34.396  31.935  28.217  1.00  0.00     0.202 C 
BRANCH   3   4
ATOM      4  C   UNL A   1      34.689  30.355  27.610  1.00  0.00     0.261 C 
BRANCH   4   5
ATOM      5  O   UNL A   1      33.885  29.793  26.537  1.00  0.00    -0.463 OA
BRANCH   5   6
ATOM      6  C   UNL A   1      32.838  28.922  26.585  1.00  0.00     0.307 C 
ATOM      7  O   UNL A   1      32.707  28.239  27.604  1.00  0.00    -0.252 OA
BRANCH   6   8
ATOM      8  C   UNL A   1      31.840  28.756  25.426  1.00  0.00     0.144 C 
BRANCH   8   9
ATOM      9  C   UNL A   1      31.140  27.425  25.023  1.00  0.00     0.131 C 
BRANCH   9  10
ATOM     10  N   UNL A   1      32.009  26.237  24.879  1.00  0.00    -0.338 N 
BRANCH  10  11
ATOM     11  C   UNL A   1      32.951  26.275  23.748  1.00  0.00     0.116 C 
ATOM     12  C   UNL A   1      32.279  26.619  22.420  1.00  0.00     0.027 C 
ENDBRANCH  10  11
BRANCH  10  13
ATOM     13  C   UNL A   1      32.151  25.142  25.744  1.00  0.00     0.256 C 
ATOM     14  O   UNL A   1      31.615  25.128  26.857  1.00  0.00    -0.269 OA
BRANCH  13  15
ATOM     15  C   UNL A   1      32.980  23.964  25.438  1.00  0.00     0.077 A 
ATOM     16  C   UNL A   1      32.139  22.501  24.758  1.00  0.00     0.037 A 
ATOM     17  C   UNL A   1      34.765  23.855  25.780  1.00  0.00     0.136 A 
ATOM     18  C   UNL A   1      33.074  20.980  24.509  1.00  0.00     0.042 A 
ATOM     19  C   UNL A   1      35.667  22.293  25.576  1.00  0.00     0.041 A 
ATOM     20  F   UNL A   1      35.572  24.906  25.863  1.00  0.00    -0.206 F 
ATOM     21  Cl  UNL A   1      32.355  19.631  23.717  1.00  0.00    -0.084 Cl
ATOM     22  C   UNL A   1      34.824  20.878  24.892  1.00  0.00     0.023 A 
ENDBRANCH  13  15
ENDBRANCH  10  13
ENDBRANCH   9  10
ENDBRANCH   8   9
ENDBRANCH   6   8
ENDBRANCH   5   6
ENDBRANCH   4   5
ENDBRANCH   3   4
ENDBRANCH   2   3
ENDBRANCH   1   2
BRANCH   1  23
ATOM     23  C   UNL A   1      34.176  34.601  31.735  1.00  0.00     0.188 C 
BRANCH  23  24
ATOM     24  O   UNL A   1      35.228  35.214  32.470  1.00  0.00    -0.376 OA
BRANCH  24  25
ATOM     25  C   UNL A   1      35.399  34.800  33.823  1.00  0.00     0.202 C 
BRANCH  25  26
ATOM     26  C   UNL A   1      36.699  34.041  34.104  1.00  0.00     0.261 C 
BRANCH  26  27
ATOM     27  O   UNL A   1      36.671  32.726  33.518  1.00  0.00    -0.460 OA
BRANCH  27  28
ATOM     28  C   UNL A   1      37.516  31.824  34.077  1.00  0.00     0.338 C 
ATOM     29  O   UNL A   1      37.620  31.529  35.246  1.00  0.00    -0.246 OA
BRANCH  28  30
ATOM     30  C   UNL A   1      38.204  31.079  33.003  1.00  0.00     0.060 A 
ATOM     31  C   UNL A   1      39.087  30.056  33.378  1.00  0.00     0.016 A 
ATOM     32  C   UNL A   1      38.063  31.446  31.663  1.00  0.00     0.016 A 
ATOM     33  C   UNL A   1      39.898  29.452  32.421  1.00  0.00     0.010 A 
ATOM     34  C   UNL A   1      38.890  30.857  30.708  1.00  0.00     0.010 A 
ATOM     35  C   UNL A   1      39.851  29.906  31.098  1.00  0.00    -0.014 A 
BRANCH  35  36
ATOM     36  C   UNL A   1      40.988  29.615  30.198  1.00  0.00     0.031 A 
ATOM     37  C   UNL A   1      41.020  28.264  29.535  1.00  0.00     0.074 A 
ATOM     38  C   UNL A   1      41.948  30.524  29.965  1.00  0.00     0.049 A 
ATOM     39  N   UNL A   1      41.941  27.729  28.779  1.00  0.00    -0.248 NA
ATOM     40  C   UNL A   1      39.848  27.399  29.760  1.00  0.00     0.031 C 
ATOM     41  C   UNL A   1      41.982  31.879  30.509  1.00  0.00     0.029 A 
ATOM     42  N   UNL A   1      43.089  30.430  29.212  1.00  0.00    -0.354 N 
ATOM     43  C   UNL A   1      41.460  26.469  28.438  1.00  0.00     0.074 A 
ATOM     44  C   UNL A   1      40.182  26.306  29.093  1.00  0.00     0.031 C 
ATOM     45  C   UNL A   1      43.109  32.485  30.093  1.00  0.00     0.029 A 
ATOM     46  C   UNL A   1      43.883  31.548  29.280  1.00  0.00     0.049 A 
ATOM     47  H   UNL A   1      43.318  29.638  28.675  1.00  0.00     0.167 HD
ATOM     48  C   UNL A   1      42.030  25.536  27.643  1.00  0.00     0.037 A 
ATOM     49  C   UNL A   1      45.108  31.767  28.767  1.00  0.00     0.037 A 
ATOM     50  C   UNL A   1      43.311  25.699  27.015  1.00  0.00     0.049 A 
ATOM     51  C   UNL A   1      45.761  30.681  27.951  1.00  0.00     0.074 A 
ATOM     52  C   UNL A   1      44.005  24.807  26.217  1.00  0.00     0.029 A 
ATOM     53  N   UNL A   1      44.092  26.841  27.120  1.00  0.00    -0.354 N 
ATOM     54  N   UNL A   1      45.306  29.489  27.643  1.00  0.00    -0.248 NA
ATOM     55  C   UNL A   1      47.097  30.969  27.412  1.00  0.00     0.031 C 
ATOM     56  C   UNL A   1      45.224  25.399  25.866  1.00  0.00     0.029 A 
ATOM     57  C   UNL A   1      45.267  26.674  26.410  1.00  0.00     0.049 A 
ATOM     58  H   UNL A   1      43.846  27.649  27.625  1.00  0.00     0.167 HD
ATOM     59  C   UNL A   1      46.285  28.898  26.854  1.00  0.00     0.074 A 
ATOM     60  C   UNL A   1      47.353  29.867  26.721  1.00  0.00     0.031 C 
ATOM     61  C   UNL A   1      46.304  27.666  26.289  1.00  0.00     0.037 A 
BRANCH  48  62
ATOM     62  C   UNL A   1      41.277  24.255  27.439  1.00  0.00     0.057 A 
ATOM     63  C   UNL A   1      41.636  23.075  28.106  1.00  0.00     0.134 A 
ATOM     64  C   UNL A   1      40.182  24.198  26.569  1.00  0.00     0.134 A 
ATOM     65  F   UNL A   1      42.690  23.058  28.935  1.00  0.00    -0.206 F 
ATOM     66  C   UNL A   1      40.944  21.881  27.900  1.00  0.00     0.040 A 
ATOM     67  C   UNL A   1      39.468  23.014  26.372  1.00  0.00     0.040 A 
ATOM     68  F   UNL A   1      39.788  25.288  25.896  1.00  0.00    -0.206 F 
ATOM     69  C   UNL A   1      39.852  21.850  27.035  1.00  0.00     0.006 A 
ENDBRANCH  48  62
BRANCH  49  70
ATOM     70  C   UNL A   1      45.809  33.048  29.027  1.00  0.00     0.057 A 
ATOM     71  C   UNL A   1      45.723  34.123  28.135  1.00  0.00     0.134 A 
ATOM     72  C   UNL A   1      46.609  33.220  30.165  1.00  0.00     0.134 A 
ATOM     73  F   UNL A   1      44.992  34.012  27.016  1.00  0.00    -0.206 F 
ATOM     74  C   UNL A   1      46.418  35.314  28.353  1.00  0.00     0.040 A 
ATOM     75  C   UNL A   1      47.291  34.414  30.408  1.00  0.00     0.040 A 
ATOM     76  F   UNL A   1      46.735  32.229  31.059  1.00  0.00    -0.206 F 
ATOM     77  C   UNL A   1      47.202  35.463  29.496  1.00  0.00     0.006 A 
ENDBRANCH  49  70
BRANCH  61  78
ATOM     78  C   UNL A   1      47.496  27.319  25.448  1.00  0.00     0.057 A 
ATOM     79  C   UNL A   1      47.534  27.590  24.075  1.00  0.00     0.134 A 
ATOM     80  C   UNL A   1      48.634  26.746  26.031  1.00  0.00     0.134 A 
ATOM     81  F   UNL A   1      46.472  28.128  23.458  1.00  0.00    -0.206 F 
ATOM     82  C   UNL A   1      48.657  27.282  23.306  1.00  0.00     0.040 A 
ATOM     83  C   UNL A   1      49.770  26.457  25.277  1.00  0.00     0.040 A 
ATOM     84  F   UNL A   1      48.662  26.473  27.344  1.00  0.00    -0.206 F 
ATOM     85  C   UNL A   1      49.782  26.719  23.908  1.00  0.00     0.006 A 
ENDBRANCH  61  78
ENDBRANCH  35  36
ENDBRANCH  28  30
ENDBRANCH  27  28
ENDBRANCH  26  27
ENDBRANCH  25  26
ENDBRANCH  24  25
ENDBRANCH  23  24
ENDBRANCH   1  23
TORSDOF 22
ENDMDL
MODEL 3
REMARK VINA RESULT:      -9.8      1.919      2.881
REMARK SMILES CCN(CCC(=O)OCCOCCOCCOC(=O)c1ccc(-c2c3nc(c(-c4c(F)cccc4F)c4ccc([nH]4)c(-c4c(F)cccc4F)c4nc(c(-c5c(F)cccc5F)c5ccc2[nH]5)C=C4)C=C3)cc1)C(=O)c1cc(Cl)ccc1F
REMARK SMILES IDX 12 1 11 2 10 3 9 4 8 5 6 6 7 7 5 8 4 9 3 10 2 11 1 12 74 13
REMARK SMILES IDX 75 14 76 15 77 16 82 17 78 18 81 19 83 20 79 21 80 22 13 23
REMARK SMILES IDX 14 24 15 25 16 26 17 27 18 28 19 29 20 30 21 31 73 32 22 33
REMARK SMILES IDX 72 34 23 35 24 36 25 37 66 38 26 39 71 40 65 41 67 42 27 43
REMARK SMILES IDX 70 44 64 45 63 46 28 48 54 49 37 50 53 51 38 52 41 53 52 54
REMARK SMILES IDX 68 55 39 56 40 57 51 59 69 60 42 61 29 62 30 63 35 64 31 65
REMARK SMILES IDX 32 66 34 67 36 68 33 69 55 70 56 71 61 72 57 73 58 74 60 75
REMARK SMILES IDX 62 76 59 77 43 78 44 79 49 80 45 81 46 82 48 83 50 84 47 85
REMARK H PARENT 67 47 41 58
REMARK Flexibility Score: inf
ROOT
ATOM      1  C   UNL A   1      34.491  31.575  28.395  1.00  0.00     0.188 C 
ENDROOT
BRANCH   1   2
ATOM      2  O   UNL A   1      34.644  30.433  27.362  1.00  0.00    -0.376 OA
BRANCH   2   3
ATOM      3  C   UNL A   1      34.052  28.658  26.648  1.00  0.00     0.202 C 
BRANCH   3   4
ATOM      4  C   UNL A   1      32.528  27.867  26.658  1.00  0.00     0.261 C 
BRANCH   4   5
ATOM      5  O   UNL A   1      31.431  28.322  25.818  1.00  0.00    -0.463 OA
BRANCH   5   6
ATOM      6  C   UNL A   1      31.108  27.990  24.536  1.00  0.00     0.307 C 
ATOM      7  O   UNL A   1      31.631  28.639  23.626  1.00  0.00    -0.252 OA
BRANCH   6   8
ATOM      8  C   UNL A   1      30.121  26.861  24.193  1.00  0.00     0.144 C 
BRANCH   8   9
ATOM      9  C   UNL A   1      29.939  25.546  25.006  1.00  0.00     0.131 C 
BRANCH   9  10
ATOM     10  N   UNL A   1      31.142  24.703  25.180  1.00  0.00    -0.338 N 
BRANCH  10  11
ATOM     11  C   UNL A   1      31.317  24.117  26.518  1.00  0.00     0.116 C 
ATOM     12  C   UNL A   1      30.160  23.206  26.929  1.00  0.00     0.027 C 
ENDBRANCH  10  11
BRANCH  10  13
ATOM     13  C   UNL A   1      32.064  24.279  24.212  1.00  0.00     0.256 C 
ATOM     14  O   UNL A   1      31.964  24.629  23.031  1.00  0.00    -0.269 OA
BRANCH  13  15
ATOM     15  C   UNL A   1      33.174  23.353  24.494  1.00  0.00     0.077 A 
ATOM     16  C   UNL A   1      32.864  21.576  24.253  1.00  0.00     0.037 A 
ATOM     17  C   UNL A   1      34.792  23.869  25.149  1.00  0.00     0.136 A 
ATOM     18  C   UNL A   1      34.132  20.386  24.728  1.00  0.00     0.042 A 
ATOM     19  C   UNL A   1      36.026  22.644  25.676  1.00  0.00     0.041 A 
ATOM     20  F   UNL A   1      35.309  25.079  24.985  1.00  0.00    -0.206 F 
ATOM     21  Cl  UNL A   1      33.943  18.714  24.363  1.00  0.00    -0.084 Cl
ATOM     22  C   UNL A   1      35.705  20.910  25.413  1.00  0.00     0.023 A 
ENDBRANCH  13  15
ENDBRANCH  10  13
ENDBRANCH   9  10
ENDBRANCH   8   9
ENDBRANCH   6   8
ENDBRANCH   5   6
ENDBRANCH   4   5
ENDBRANCH   3   4
ENDBRANCH   2   3
ENDBRANCH   1   2
BRANCH   1  23
ATOM     23  C   UNL A   1      35.187  32.892  27.965  1.00  0.00     0.188 C 
BRANCH  23  24
ATOM     24  O   UNL A   1      34.912  34.043  28.754  1.00  0.00    -0.376 OA
BRANCH  24  25
ATOM     25  C   UNL A   1      34.484  33.822  30.095  1.00  0.00     0.202 C 
BRANCH  25  26
ATOM     26  C   UNL A   1      35.579  33.982  31.154  1.00  0.00     0.261 C 
BRANCH  26  27
ATOM     27  O   UNL A   1      36.679  33.087  30.906  1.00  0.00    -0.460 OA
BRANCH  27  28
ATOM     28  C   UNL A   1      36.622  31.902  31.566  1.00  0.00     0.338 C 
ATOM     29  O   UNL A   1      35.844  31.571  32.431  1.00  0.00    -0.246 OA
BRANCH  28  30
ATOM     30  C   UNL A   1      37.565  30.955  30.935  1.00  0.00     0.060 A 
ATOM     31  C   UNL A   1      38.337  30.142  31.778  1.00  0.00     0.016 A 
ATOM     32  C   UNL A   1      37.760  30.941  29.553  1.00  0.00     0.016 A 
ATOM     33  C   UNL A   1      39.368  29.372  31.248  1.00  0.00     0.010 A 
ATOM     34  C   UNL A   1      38.807  30.187  29.024  1.00  0.00     0.010 A 
ATOM     35  C   UNL A   1      39.649  29.453  29.878  1.00  0.00    -0.014 A 
BRANCH  35  36
ATOM     36  C   UNL A   1      40.978  29.025  29.392  1.00  0.00     0.031 A 
ATOM     37  C   UNL A   1      42.059  30.069  29.318  1.00  0.00     0.074 A 
ATOM     38  C   UNL A   1      41.222  27.751  29.047  1.00  0.00     0.049 A 
ATOM     39  N   UNL A   1      43.275  29.979  28.849  1.00  0.00    -0.248 NA
ATOM     40  C   UNL A   1      41.716  31.402  29.848  1.00  0.00     0.031 C 
ATOM     41  C   UNL A   1      40.265  26.651  29.135  1.00  0.00     0.029 A 
ATOM     42  N   UNL A   1      42.356  27.175  28.537  1.00  0.00    -0.354 N 
ATOM     43  C   UNL A   1      43.839  31.238  29.027  1.00  0.00     0.074 A 
ATOM     44  C   UNL A   1      42.827  32.083  29.619  1.00  0.00     0.031 C 
ATOM     45  C   UNL A   1      40.846  25.532  28.666  1.00  0.00     0.029 A 
ATOM     46  C   UNL A   1      42.202  25.849  28.220  1.00  0.00     0.049 A 
ATOM     47  H   UNL A   1      43.200  27.666  28.411  1.00  0.00     0.167 HD
ATOM     48  C   UNL A   1      45.093  31.648  28.732  1.00  0.00     0.037 A 
ATOM     49  C   UNL A   1      43.055  25.004  27.610  1.00  0.00     0.037 A 
ATOM     50  C   UNL A   1      46.085  30.807  28.124  1.00  0.00     0.049 A 
ATOM     51  C   UNL A   1      44.420  25.506  27.214  1.00  0.00     0.074 A 
ATOM     52  C   UNL A   1      47.377  31.124  27.746  1.00  0.00     0.029 A 
ATOM     53  N   UNL A   1      45.886  29.472  27.804  1.00  0.00    -0.354 N 
ATOM     54  N   UNL A   1      44.942  26.699  27.375  1.00  0.00    -0.248 NA
ATOM     55  C   UNL A   1      45.313  24.546  26.553  1.00  0.00     0.031 C 
ATOM     56  C   UNL A   1      47.949  29.986  27.166  1.00  0.00     0.029 A 
ATOM     57  C   UNL A   1      47.028  28.951  27.223  1.00  0.00     0.049 A 
ATOM     58  H   UNL A   1      45.055  28.970  27.966  1.00  0.00     0.167 HD
ATOM     59  C   UNL A   1      46.231  26.625  26.862  1.00  0.00     0.074 A 
ATOM     60  C   UNL A   1      46.415  25.266  26.395  1.00  0.00     0.031 C 
ATOM     61  C   UNL A   1      47.180  27.589  26.780  1.00  0.00     0.037 A 
BRANCH  48  62
ATOM     62  C   UNL A   1      45.440  33.074  29.042  1.00  0.00     0.057 A 
ATOM     63  C   UNL A   1      45.212  34.105  28.120  1.00  0.00     0.134 A 
ATOM     64  C   UNL A   1      46.005  33.423  30.275  1.00  0.00     0.134 A 
ATOM     65  F   UNL A   1      44.695  33.833  26.912  1.00  0.00    -0.206 F 
ATOM     66  C   UNL A   1      45.552  35.428  28.405  1.00  0.00     0.040 A 
ATOM     67  C   UNL A   1      46.328  34.747  30.580  1.00  0.00     0.040 A 
ATOM     68  F   UNL A   1      46.254  32.486  31.200  1.00  0.00    -0.206 F 
ATOM     69  C   UNL A   1      46.107  35.753  29.641  1.00  0.00     0.006 A 
ENDBRANCH  48  62
BRANCH  49  70
ATOM     70  C   UNL A   1      42.640  23.611  27.310  1.00  0.00     0.057 A 
ATOM     71  C   UNL A   1      42.269  23.222  26.018  1.00  0.00     0.134 A 
ATOM     72  C   UNL A   1      42.580  22.639  28.317  1.00  0.00     0.134 A 
ATOM     73  F   UNL A   1      42.283  24.113  25.016  1.00  0.00    -0.206 F 
ATOM     74  C   UNL A   1      41.835  21.924  25.740  1.00  0.00     0.040 A 
ATOM     75  C   UNL A   1      42.171  21.331  28.049  1.00  0.00     0.040 A 
ATOM     76  F   UNL A   1      42.922  22.947  29.576  1.00  0.00    -0.206 F 
ATOM     77  C   UNL A   1      41.789  20.973  26.758  1.00  0.00     0.006 A 
ENDBRANCH  49  70
BRANCH  61  78
ATOM     78  C   UNL A   1      48.506  27.195  26.203  1.00  0.00     0.057 A 
ATOM     79  C   UNL A   1      48.797  27.359  24.843  1.00  0.00     0.134 A 
ATOM     80  C   UNL A   1      49.517  26.686  27.028  1.00  0.00     0.134 A 
ATOM     81  F   UNL A   1      47.866  27.832  24.001  1.00  0.00    -0.206 F 
ATOM     82  C   UNL A   1      50.042  27.009  24.319  1.00  0.00     0.040 A 
ATOM     83  C   UNL A   1      50.773  26.356  26.521  1.00  0.00     0.040 A 
ATOM     84  F   UNL A   1      49.304  26.516  28.342  1.00  0.00    -0.206 F 
ATOM     85  C   UNL A   1      51.036  26.511  25.161  1.00  0.00     0.006 A 
ENDBRANCH  61  78
ENDBRANCH  35  36
ENDBRANCH  28  30
ENDBRANCH  27  28
ENDBRANCH  26  27
ENDBRANCH  25  26
ENDBRANCH  24  25
ENDBRANCH  23  24
ENDBRANCH   1  23
TORSDOF 22
ENDMDL
