MODEL 1
REMARK VINA RESULT:     -10.2      0.000      0.000
REMARK SMILES CC(C)c1cc(OCC(=O)OCCOCCOCCOC(=O)c2ccc(-c3c4nc(c(-c5c(F)cccc5F)c5ccc([nH]5)c(-c5c(F)cccc5F)c5nc(c(-c6c(F)cccc6F)c6ccc3[nH]6)C=C5)C=C4)cc2)nc(Nc2ccc(F)cc2F)n1
REMARK SMILES IDX 15 1 14 2 13 3 12 4 11 5 9 6 10 7 8 8 7 9 6 10 4 11 5 12
REMARK SMILES IDX 88 13 78 14 77 15 2 16 1 17 3 18 79 19 80 21 81 22 86 23
REMARK SMILES IDX 82 24 85 25 87 26 83 27 84 28 16 29 17 30 18 31 19 32 20 33
REMARK SMILES IDX 21 34 22 35 23 36 24 37 76 38 25 39 75 40 26 41 27 42 28 43
REMARK SMILES IDX 69 44 29 45 74 46 68 47 70 48 30 49 73 50 67 51 66 52 31 54
REMARK SMILES IDX 57 55 40 56 56 57 41 58 44 59 55 60 71 61 42 62 43 63 54 65
REMARK SMILES IDX 72 66 45 67 32 68 33 69 38 70 34 71 35 72 37 73 39 74 36 75
REMARK SMILES IDX 58 76 59 77 64 78 60 79 61 80 63 81 65 82 62 83 46 84 47 85
REMARK SMILES IDX 52 86 48 87 49 88 51 89 53 90 50 91
REMARK H PARENT 79 20 70 53 44 64
REMARK Flexibility Score: inf
ROOT
ATOM      1  C   UNL A   1      33.444  34.359  28.497  1.00  0.00     0.188 C 
ENDROOT
BRANCH   1   2
ATOM      2  O   UNL A   1      34.702  34.246  27.837  1.00  0.00    -0.376 OA
BRANCH   2   3
ATOM      3  C   UNL A   1      35.348  32.983  27.960  1.00  0.00     0.202 C 
BRANCH   3   4
ATOM      4  C   UNL A   1      34.404  31.856  28.412  1.00  0.00     0.261 C 
BRANCH   4   5
ATOM      5  O   UNL A   1      34.181  30.882  27.355  1.00  0.00    -0.461 OA
BRANCH   5   6
ATOM      6  C   UNL A   1      34.686  29.627  27.542  1.00  0.00     0.344 C 
ATOM      7  O   UNL A   1      35.706  29.389  28.182  1.00  0.00    -0.248 OA
BRANCH   6   8
ATOM      8  C   UNL A   1      33.776  28.494  26.987  1.00  0.00     0.353 C 
BRANCH   8   9
ATOM      9  O   UNL A   1      34.163  27.921  25.746  1.00  0.00    -0.466 OA
BRANCH   9  10
ATOM     10  C   UNL A   1      33.392  26.868  25.272  1.00  0.00     0.218 A 
ATOM     11  C   UNL A   1      32.178  24.896  25.847  1.00  0.00     0.052 A 
ATOM     12  C   UNL A   1      33.301  25.683  26.005  1.00  0.00     0.092 A 
ATOM     13  N   UNL A   1      31.303  25.279  24.928  1.00  0.00    -0.217 NA
ATOM     14  C   UNL A   1      31.472  26.377  24.181  1.00  0.00     0.230 A 
ATOM     15  N   UNL A   1      32.512  27.203  24.311  1.00  0.00    -0.177 NA
BRANCH  11  16
ATOM     16  C   UNL A   1      31.772  23.597  26.550  1.00  0.00     0.032 C 
ATOM     17  C   UNL A   1      30.291  23.377  26.874  1.00  0.00     0.014 C 
ATOM     18  C   UNL A   1      32.098  22.361  25.673  1.00  0.00     0.014 C 
ENDBRANCH  11  16
BRANCH  14  19
ATOM     19  N   UNL A   1      30.482  26.552  23.208  1.00  0.00    -0.322 N 
ATOM     20  H   UNL A   1      30.288  25.827  22.571  1.00  0.00     0.170 HD
BRANCH  19  21
ATOM     21  C   UNL A   1      29.758  27.765  23.135  1.00  0.00     0.077 A 
ATOM     22  C   UNL A   1      30.279  28.865  22.441  1.00  0.00     0.032 A 
ATOM     23  C   UNL A   1      28.380  27.784  23.461  1.00  0.00     0.149 A 
ATOM     24  C   UNL A   1      29.438  29.923  22.064  1.00  0.00     0.041 A 
ATOM     25  C   UNL A   1      27.544  28.832  23.097  1.00  0.00     0.080 A 
ATOM     26  F   UNL A   1      27.825  26.722  24.073  1.00  0.00    -0.205 F 
ATOM     27  C   UNL A   1      28.082  29.888  22.383  1.00  0.00     0.126 A 
ATOM     28  F   UNL A   1      27.276  30.871  21.958  1.00  0.00    -0.207 F 
ENDBRANCH  19  21
ENDBRANCH  14  19
ENDBRANCH   9  10
ENDBRANCH   8   9
ENDBRANCH   6   8
ENDBRANCH   5   6
ENDBRANCH   4   5
ENDBRANCH   3   4
ENDBRANCH   2   3
ENDBRANCH   1   2
BRANCH   1  29
ATOM     29  C   UNL A   1      33.394  35.325  29.693  1.00  0.00     0.188 C 
BRANCH  29  30
ATOM     30  O   UNL A   1      33.424  34.566  30.905  1.00  0.00    -0.376 OA
BRANCH  30  31
ATOM     31  C   UNL A   1      34.740  34.235  31.342  1.00  0.00     0.202 C 
BRANCH  31  32
ATOM     32  C   UNL A   1      34.779  33.359  32.624  1.00  0.00     0.261 C 
BRANCH  32  33
ATOM     33  O   UNL A   1      35.179  31.954  32.615  1.00  0.00    -0.460 OA
BRANCH  33  34
ATOM     34  C   UNL A   1      36.454  31.692  32.927  1.00  0.00     0.338 C 
ATOM     35  O   UNL A   1      37.022  32.147  33.901  1.00  0.00    -0.246 OA
BRANCH  34  36
ATOM     36  C   UNL A   1      37.303  30.937  31.982  1.00  0.00     0.060 A 
ATOM     37  C   UNL A   1      38.410  30.284  32.553  1.00  0.00     0.016 A 
ATOM     38  C   UNL A   1      37.322  31.270  30.629  1.00  0.00     0.016 A 
ATOM     39  C   UNL A   1      39.586  30.109  31.831  1.00  0.00     0.010 A 
ATOM     40  C   UNL A   1      38.474  31.004  29.874  1.00  0.00     0.010 A 
ATOM     41  C   UNL A   1      39.618  30.436  30.469  1.00  0.00    -0.014 A 
BRANCH  41  42
ATOM     42  C   UNL A   1      40.695  29.893  29.604  1.00  0.00     0.031 A 
ATOM     43  C   UNL A   1      40.721  28.487  29.080  1.00  0.00     0.074 A 
ATOM     44  C   UNL A   1      41.753  30.706  29.432  1.00  0.00     0.049 A 
ATOM     45  N   UNL A   1      41.731  27.824  28.574  1.00  0.00    -0.248 NA
ATOM     46  C   UNL A   1      39.463  27.728  29.114  1.00  0.00     0.031 C 
ATOM     47  C   UNL A   1      41.819  32.102  29.882  1.00  0.00     0.029 A 
ATOM     48  N   UNL A   1      42.992  30.469  28.899  1.00  0.00    -0.354 N 
ATOM     49  C   UNL A   1      41.250  26.558  28.256  1.00  0.00     0.074 A 
ATOM     50  C   UNL A   1      39.843  26.553  28.615  1.00  0.00     0.031 C 
ATOM     51  C   UNL A   1      43.047  32.578  29.660  1.00  0.00     0.029 A 
ATOM     52  C   UNL A   1      43.864  31.505  29.121  1.00  0.00     0.049 A 
ATOM     53  H   UNL A   1      43.229  29.647  28.412  1.00  0.00     0.167 HD
ATOM     54  C   UNL A   1      41.933  25.509  27.730  1.00  0.00     0.037 A 
ATOM     55  C   UNL A   1      45.197  31.578  28.983  1.00  0.00     0.037 A 
ATOM     56  C   UNL A   1      43.335  25.550  27.372  1.00  0.00     0.049 A 
ATOM     57  C   UNL A   1      45.933  30.398  28.451  1.00  0.00     0.074 A 
ATOM     58  C   UNL A   1      44.107  24.560  26.784  1.00  0.00     0.029 A 
ATOM     59  N   UNL A   1      44.178  26.632  27.581  1.00  0.00    -0.354 N 
ATOM     60  N   UNL A   1      45.468  29.211  28.152  1.00  0.00    -0.248 NA
ATOM     61  C   UNL A   1      47.369  30.572  28.220  1.00  0.00     0.031 C 
ATOM     62  C   UNL A   1      45.424  25.025  26.683  1.00  0.00     0.029 A 
ATOM     63  C   UNL A   1      45.465  26.324  27.160  1.00  0.00     0.049 A 
ATOM     64  H   UNL A   1      43.904  27.494  27.970  1.00  0.00     0.167 HD
ATOM     65  C   UNL A   1      46.552  28.497  27.671  1.00  0.00     0.074 A 
ATOM     66  C   UNL A   1      47.693  29.392  27.713  1.00  0.00     0.031 C 
ATOM     67  C   UNL A   1      46.593  27.218  27.226  1.00  0.00     0.037 A 
BRANCH  54  68
ATOM     68  C   UNL A   1      41.207  24.204  27.530  1.00  0.00     0.057 A 
ATOM     69  C   UNL A   1      40.265  24.018  26.510  1.00  0.00     0.134 A 
ATOM     70  C   UNL A   1      41.544  23.081  28.302  1.00  0.00     0.134 A 
ATOM     71  F   UNL A   1      39.898  25.043  25.728  1.00  0.00    -0.206 F 
ATOM     72  C   UNL A   1      39.679  22.769  26.273  1.00  0.00     0.040 A 
ATOM     73  C   UNL A   1      40.981  21.825  28.061  1.00  0.00     0.040 A 
ATOM     74  F   UNL A   1      42.451  23.179  29.285  1.00  0.00    -0.206 F 
ATOM     75  C   UNL A   1      40.043  21.667  27.044  1.00  0.00     0.006 A 
ENDBRANCH  54  68
BRANCH  55  76
ATOM     76  C   UNL A   1      45.875  32.833  29.370  1.00  0.00     0.057 A 
ATOM     77  C   UNL A   1      46.494  32.948  30.617  1.00  0.00     0.134 A 
ATOM     78  C   UNL A   1      46.044  33.882  28.456  1.00  0.00     0.134 A 
ATOM     79  F   UNL A   1      46.366  31.969  31.524  1.00  0.00    -0.206 F 
ATOM     80  C   UNL A   1      47.267  34.061  30.943  1.00  0.00     0.040 A 
ATOM     81  C   UNL A   1      46.834  34.990  28.760  1.00  0.00     0.040 A 
ATOM     82  F   UNL A   1      45.501  33.808  27.231  1.00  0.00    -0.206 F 
ATOM     83  C   UNL A   1      47.448  35.080  30.009  1.00  0.00     0.006 A 
ENDBRANCH  55  76
BRANCH  67  84
ATOM     84  C   UNL A   1      47.923  26.737  26.729  1.00  0.00     0.057 A 
ATOM     85  C   UNL A   1      48.834  26.092  27.574  1.00  0.00     0.134 A 
ATOM     86  C   UNL A   1      48.308  26.956  25.401  1.00  0.00     0.134 A 
ATOM     87  F   UNL A   1      48.531  25.875  28.862  1.00  0.00    -0.206 F 
ATOM     88  C   UNL A   1      50.098  25.711  27.122  1.00  0.00     0.040 A 
ATOM     89  C   UNL A   1      49.560  26.560  24.932  1.00  0.00     0.040 A 
ATOM     90  F   UNL A   1      47.479  27.571  24.543  1.00  0.00    -0.206 F 
ATOM     91  C   UNL A   1      50.463  25.944  25.798  1.00  0.00     0.006 A 
ENDBRANCH  67  84
ENDBRANCH  41  42
ENDBRANCH  34  36
ENDBRANCH  33  34
ENDBRANCH  32  33
ENDBRANCH  31  32
ENDBRANCH  30  31
ENDBRANCH  29  30
ENDBRANCH   1  29
TORSDOF 22
ENDMDL
MODEL 2
REMARK VINA RESULT:     -10.0      1.959      3.636
REMARK SMILES CC(C)c1cc(OCC(=O)OCCOCCOCCOC(=O)c2ccc(-c3c4nc(c(-c5c(F)cccc5F)c5ccc([nH]5)c(-c5c(F)cccc5F)c5nc(c(-c6c(F)cccc6F)c6ccc3[nH]6)C=C5)C=C4)cc2)nc(Nc2ccc(F)cc2F)n1
REMARK SMILES IDX 15 1 14 2 13 3 12 4 11 5 9 6 10 7 8 8 7 9 6 10 4 11 5 12
REMARK SMILES IDX 88 13 78 14 77 15 2 16 1 17 3 18 79 19 80 21 81 22 86 23
REMARK SMILES IDX 82 24 85 25 87 26 83 27 84 28 16 29 17 30 18 31 19 32 20 33
REMARK SMILES IDX 21 34 22 35 23 36 24 37 76 38 25 39 75 40 26 41 27 42 28 43
REMARK SMILES IDX 69 44 29 45 74 46 68 47 70 48 30 49 73 50 67 51 66 52 31 54
REMARK SMILES IDX 57 55 40 56 56 57 41 58 44 59 55 60 71 61 42 62 43 63 54 65
REMARK SMILES IDX 72 66 45 67 32 68 33 69 38 70 34 71 35 72 37 73 39 74 36 75
REMARK SMILES IDX 58 76 59 77 64 78 60 79 61 80 63 81 65 82 62 83 46 84 47 85
REMARK SMILES IDX 52 86 48 87 49 88 51 89 53 90 50 91
REMARK H PARENT 79 20 70 53 44 64
REMARK Flexibility Score: inf
ROOT
ATOM      1  C   UNL A   1      35.260  34.248  28.784  1.00  0.00     0.188 C 
ENDROOT
BRANCH   1   2
ATOM      2  O   UNL A   1      35.132  33.448  27.610  1.00  0.00    -0.376 OA
BRANCH   2   3
ATOM      3  C   UNL A   1      35.605  32.111  27.725  1.00  0.00     0.202 C 
BRANCH   3   4
ATOM      4  C   UNL A   1      34.489  31.057  27.624  1.00  0.00     0.261 C 
BRANCH   4   5
ATOM      5  O   UNL A   1      33.169  31.658  27.723  1.00  0.00    -0.461 OA
BRANCH   5   6
ATOM      6  C   UNL A   1      32.255  31.323  26.764  1.00  0.00     0.344 C 
ATOM      7  O   UNL A   1      31.234  31.967  26.538  1.00  0.00    -0.248 OA
BRANCH   6   8
ATOM      8  C   UNL A   1      32.687  30.121  25.878  1.00  0.00     0.353 C 
BRANCH   8   9
ATOM      9  O   UNL A   1      31.856  28.969  25.923  1.00  0.00    -0.466 OA
BRANCH   9  10
ATOM     10  C   UNL A   1      31.057  28.727  24.812  1.00  0.00     0.218 A 
ATOM     11  C   UNL A   1      29.975  29.684  22.913  1.00  0.00     0.052 A 
ATOM     12  C   UNL A   1      30.309  29.763  24.250  1.00  0.00     0.092 A 
ATOM     13  N   UNL A   1      30.310  28.570  22.278  1.00  0.00    -0.217 NA
ATOM     14  C   UNL A   1      30.950  27.559  22.878  1.00  0.00     0.230 A 
ATOM     15  N   UNL A   1      31.338  27.587  24.155  1.00  0.00    -0.177 NA
BRANCH  11  16
ATOM     16  C   UNL A   1      29.231  30.679  22.017  1.00  0.00     0.032 C 
ATOM     17  C   UNL A   1      28.084  30.156  21.146  1.00  0.00     0.014 C 
ATOM     18  C   UNL A   1      28.526  31.772  22.860  1.00  0.00     0.014 C 
ENDBRANCH  11  16
BRANCH  14  19
ATOM     19  N   UNL A   1      31.127  26.439  22.058  1.00  0.00    -0.322 N 
ATOM     20  H   UNL A   1      30.911  26.496  21.099  1.00  0.00     0.170 HD
BRANCH  19  21
ATOM     21  C   UNL A   1      31.617  25.227  22.599  1.00  0.00     0.077 A 
ATOM     22  C   UNL A   1      30.732  24.241  23.054  1.00  0.00     0.032 A 
ATOM     23  C   UNL A   1      32.967  24.855  22.383  1.00  0.00     0.149 A 
ATOM     24  C   UNL A   1      31.183  22.927  23.250  1.00  0.00     0.041 A 
ATOM     25  C   UNL A   1      33.420  23.557  22.584  1.00  0.00     0.080 A 
ATOM     26  F   UNL A   1      33.836  25.754  21.890  1.00  0.00    -0.205 F 
ATOM     27  C   UNL A   1      32.514  22.598  23.001  1.00  0.00     0.126 A 
ATOM     28  F   UNL A   1      32.916  21.326  23.127  1.00  0.00    -0.207 F 
ENDBRANCH  19  21
ENDBRANCH  14  19
ENDBRANCH   9  10
ENDBRANCH   8   9
ENDBRANCH   6   8
ENDBRANCH   5   6
ENDBRANCH   4   5
ENDBRANCH   3   4
ENDBRANCH   2   3
ENDBRANCH   1   2
BRANCH   1  29
ATOM     29  C   UNL A   1      33.987  34.408  29.633  1.00  0.00     0.188 C 
BRANCH  29  30
ATOM     30  O   UNL A   1      34.315  34.192  31.008  1.00  0.00    -0.376 OA
BRANCH  30  31
ATOM     31  C   UNL A   1      34.817  32.885  31.278  1.00  0.00     0.202 C 
BRANCH  31  32
ATOM     32  C   UNL A   1      36.240  32.872  31.902  1.00  0.00     0.261 C 
BRANCH  32  33
ATOM     33  O   UNL A   1      36.799  31.705  32.580  1.00  0.00    -0.460 OA
BRANCH  33  34
ATOM     34  C   UNL A   1      37.040  30.629  31.820  1.00  0.00     0.338 C 
ATOM     35  O   UNL A   1      36.271  29.695  31.702  1.00  0.00    -0.246 OA
BRANCH  34  36
ATOM     36  C   UNL A   1      38.367  30.454  31.191  1.00  0.00     0.060 A 
ATOM     37  C   UNL A   1      38.392  30.579  29.791  1.00  0.00     0.016 A 
ATOM     38  C   UNL A   1      39.362  29.725  31.837  1.00  0.00     0.016 A 
ATOM     39  C   UNL A   1      39.303  29.855  29.026  1.00  0.00     0.010 A 
ATOM     40  C   UNL A   1      40.340  29.074  31.070  1.00  0.00     0.010 A 
ATOM     41  C   UNL A   1      40.312  29.120  29.663  1.00  0.00    -0.014 A 
BRANCH  41  42
ATOM     42  C   UNL A   1      41.506  28.688  28.895  1.00  0.00     0.031 A 
ATOM     43  C   UNL A   1      41.734  27.284  28.417  1.00  0.00     0.074 A 
ATOM     44  C   UNL A   1      42.473  29.617  28.774  1.00  0.00     0.049 A 
ATOM     45  N   UNL A   1      42.850  26.734  28.005  1.00  0.00    -0.248 NA
ATOM     46  C   UNL A   1      40.574  26.383  28.384  1.00  0.00     0.031 C 
ATOM     47  C   UNL A   1      42.343  31.020  29.185  1.00  0.00     0.029 A 
ATOM     48  N   UNL A   1      43.767  29.516  28.340  1.00  0.00    -0.354 N 
ATOM     49  C   UNL A   1      42.544  25.414  27.693  1.00  0.00     0.074 A 
ATOM     50  C   UNL A   1      41.124  25.251  27.949  1.00  0.00     0.031 C 
ATOM     51  C   UNL A   1      43.520  31.633  29.038  1.00  0.00     0.029 A 
ATOM     52  C   UNL A   1      44.494  30.652  28.592  1.00  0.00     0.049 A 
ATOM     53  H   UNL A   1      44.134  28.717  27.896  1.00  0.00     0.167 HD
ATOM     54  C   UNL A   1      43.381  24.442  27.249  1.00  0.00     0.037 A 
ATOM     55  C   UNL A   1      45.816  30.879  28.548  1.00  0.00     0.037 A 
ATOM     56  C   UNL A   1      44.792  24.639  26.992  1.00  0.00     0.049 A 
ATOM     57  C   UNL A   1      46.721  29.782  28.106  1.00  0.00     0.074 A 
ATOM     58  C   UNL A   1      45.715  23.735  26.491  1.00  0.00     0.029 A 
ATOM     59  N   UNL A   1      45.486  25.818  27.228  1.00  0.00    -0.354 N 
ATOM     60  N   UNL A   1      46.422  28.543  27.811  1.00  0.00    -0.248 NA
ATOM     61  C   UNL A   1      48.141  30.120  27.974  1.00  0.00     0.031 C 
ATOM     62  C   UNL A   1      46.974  24.350  26.471  1.00  0.00     0.029 A 
ATOM     63  C   UNL A   1      46.828  25.655  26.910  1.00  0.00     0.049 A 
ATOM     64  H   UNL A   1      45.085  26.650  27.570  1.00  0.00     0.167 HD
ATOM     65  C   UNL A   1      47.614  27.951  27.431  1.00  0.00     0.074 A 
ATOM     66  C   UNL A   1      48.637  28.975  27.527  1.00  0.00     0.031 C 
ATOM     67  C   UNL A   1      47.836  26.677  27.029  1.00  0.00     0.037 A 
BRANCH  54  68
ATOM     68  C   UNL A   1      42.829  23.055  27.037  1.00  0.00     0.057 A 
ATOM     69  C   UNL A   1      42.649  22.507  25.762  1.00  0.00     0.134 A 
ATOM     70  C   UNL A   1      42.582  22.217  28.135  1.00  0.00     0.134 A 
ATOM     71  F   UNL A   1      42.871  23.246  24.665  1.00  0.00    -0.206 F 
ATOM     72  C   UNL A   1      42.235  21.181  25.585  1.00  0.00     0.040 A 
ATOM     73  C   UNL A   1      42.188  20.885  27.972  1.00  0.00     0.040 A 
ATOM     74  F   UNL A   1      42.750  22.667  29.387  1.00  0.00    -0.206 F 
ATOM     75  C   UNL A   1      42.012  20.365  26.693  1.00  0.00     0.006 A 
ENDBRANCH  54  68
BRANCH  55  76
ATOM     76  C   UNL A   1      46.313  32.214  28.944  1.00  0.00     0.057 A 
ATOM     77  C   UNL A   1      46.369  33.253  28.012  1.00  0.00     0.134 A 
ATOM     78  C   UNL A   1      46.602  32.517  30.282  1.00  0.00     0.134 A 
ATOM     79  F   UNL A   1      46.097  33.014  26.721  1.00  0.00    -0.206 F 
ATOM     80  C   UNL A   1      46.688  34.554  28.396  1.00  0.00     0.040 A 
ATOM     81  C   UNL A   1      46.899  33.819  30.683  1.00  0.00     0.040 A 
ATOM     82  F   UNL A   1      46.528  31.564  31.223  1.00  0.00    -0.206 F 
ATOM     83  C   UNL A   1      46.942  34.841  29.737  1.00  0.00     0.006 A 
ENDBRANCH  55  76
BRANCH  67  84
ATOM     84  C   UNL A   1      49.246  26.345  26.644  1.00  0.00     0.057 A 
ATOM     85  C   UNL A   1      49.727  26.571  25.348  1.00  0.00     0.134 A 
ATOM     86  C   UNL A   1      50.118  25.760  27.569  1.00  0.00     0.134 A 
ATOM     87  F   UNL A   1      48.930  27.107  24.411  1.00  0.00    -0.206 F 
ATOM     88  C   UNL A   1      51.018  26.194  24.977  1.00  0.00     0.040 A 
ATOM     89  C   UNL A   1      51.418  25.400  27.216  1.00  0.00     0.040 A 
ATOM     90  F   UNL A   1      49.716  25.517  28.826  1.00  0.00    -0.206 F 
ATOM     91  C   UNL A   1      51.867  25.607  25.913  1.00  0.00     0.006 A 
ENDBRANCH  67  84
ENDBRANCH  41  42
ENDBRANCH  34  36
ENDBRANCH  33  34
ENDBRANCH  32  33
ENDBRANCH  31  32
ENDBRANCH  30  31
ENDBRANCH  29  30
ENDBRANCH   1  29
TORSDOF 22
ENDMDL
MODEL 3
REMARK VINA RESULT:      -9.9      4.397      9.576
REMARK SMILES CC(C)c1cc(OCC(=O)OCCOCCOCCOC(=O)c2ccc(-c3c4nc(c(-c5c(F)cccc5F)c5ccc([nH]5)c(-c5c(F)cccc5F)c5nc(c(-c6c(F)cccc6F)c6ccc3[nH]6)C=C5)C=C4)cc2)nc(Nc2ccc(F)cc2F)n1
REMARK SMILES IDX 15 1 14 2 13 3 12 4 11 5 9 6 10 7 8 8 7 9 6 10 4 11 5 12
REMARK SMILES IDX 88 13 78 14 77 15 2 16 1 17 3 18 79 19 80 21 81 22 86 23
REMARK SMILES IDX 82 24 85 25 87 26 83 27 84 28 16 29 17 30 18 31 19 32 20 33
REMARK SMILES IDX 21 34 22 35 23 36 24 37 76 38 25 39 75 40 26 41 27 42 28 43
REMARK SMILES IDX 69 44 29 45 74 46 68 47 70 48 30 49 73 50 67 51 66 52 31 54
REMARK SMILES IDX 57 55 40 56 56 57 41 58 44 59 55 60 71 61 42 62 43 63 54 65
REMARK SMILES IDX 72 66 45 67 32 68 33 69 38 70 34 71 35 72 37 73 39 74 36 75
REMARK SMILES IDX 58 76 59 77 64 78 60 79 61 80 63 81 65 82 62 83 46 84 47 85
REMARK SMILES IDX 52 86 48 87 49 88 51 89 53 90 50 91
REMARK H PARENT 79 20 70 53 44 64
REMARK Flexibility Score: inf
ROOT
ATOM      1  C   UNL A   1      42.617  18.536  26.084  1.00  0.00     0.188 C 
ENDROOT
BRANCH   1   2
ATOM      2  O   UNL A   1      41.388  19.197  25.792  1.00  0.00    -0.376 OA
BRANCH   2   3
ATOM      3  C   UNL A   1      41.370  20.598  26.042  1.00  0.00     0.202 C 
BRANCH   3   4
ATOM      4  C   UNL A   1      40.100  21.072  26.770  1.00  0.00     0.261 C 
BRANCH   4   5
ATOM      5  O   UNL A   1      39.512  22.236  26.127  1.00  0.00    -0.461 OA
BRANCH   5   6
ATOM      6  C   UNL A   1      38.248  22.103  25.624  1.00  0.00     0.344 C 
ATOM      7  O   UNL A   1      37.758  21.031  25.282  1.00  0.00    -0.248 OA
BRANCH   6   8
ATOM      8  C   UNL A   1      37.420  23.419  25.649  1.00  0.00     0.353 C 
BRANCH   8   9
ATOM      9  O   UNL A   1      36.333  23.502  24.737  1.00  0.00    -0.466 OA
BRANCH   9  10
ATOM     10  C   UNL A   1      35.055  23.444  25.277  1.00  0.00     0.218 A 
ATOM     11  C   UNL A   1      33.088  24.676  25.831  1.00  0.00     0.052 A 
ATOM     12  C   UNL A   1      34.466  24.594  25.805  1.00  0.00     0.092 A 
ATOM     13  N   UNL A   1      32.418  23.602  25.438  1.00  0.00    -0.217 NA
ATOM     14  C   UNL A   1      33.023  22.483  25.023  1.00  0.00     0.230 A 
ATOM     15  N   UNL A   1      34.348  22.352  24.934  1.00  0.00    -0.177 NA
BRANCH  11  16
ATOM     16  C   UNL A   1      32.172  25.818  26.281  1.00  0.00     0.032 C 
ATOM     17  C   UNL A   1      32.417  27.217  25.706  1.00  0.00     0.014 C 
ATOM     18  C   UNL A   1      30.702  25.551  25.870  1.00  0.00     0.014 C 
ENDBRANCH  11  16
BRANCH  14  19
ATOM     19  N   UNL A   1      32.138  21.436  24.742  1.00  0.00    -0.322 N 
ATOM     20  H   UNL A   1      31.167  21.591  24.784  1.00  0.00     0.170 HD
BRANCH  19  21
ATOM     21  C   UNL A   1      32.632  20.157  24.394  1.00  0.00     0.077 A 
ATOM     22  C   UNL A   1      33.076  19.271  25.385  1.00  0.00     0.032 A 
ATOM     23  C   UNL A   1      32.376  19.630  23.104  1.00  0.00     0.149 A 
ATOM     24  C   UNL A   1      33.223  17.906  25.095  1.00  0.00     0.041 A 
ATOM     25  C   UNL A   1      32.527  18.281  22.810  1.00  0.00     0.080 A 
ATOM     26  F   UNL A   1      31.890  20.431  22.140  1.00  0.00    -0.205 F 
ATOM     27  C   UNL A   1      32.935  17.426  23.819  1.00  0.00     0.126 A 
ATOM     28  F   UNL A   1      33.014  16.111  23.574  1.00  0.00    -0.207 F 
ENDBRANCH  19  21
ENDBRANCH  14  19
ENDBRANCH   9  10
ENDBRANCH   8   9
ENDBRANCH   6   8
ENDBRANCH   5   6
ENDBRANCH   4   5
ENDBRANCH   3   4
ENDBRANCH   2   3
ENDBRANCH   1   2
BRANCH   1  29
ATOM     29  C   UNL A   1      43.822  18.937  25.215  1.00  0.00     0.188 C 
BRANCH  29  30
ATOM     30  O   UNL A   1      44.903  18.038  25.476  1.00  0.00    -0.376 OA
BRANCH  30  31
ATOM     31  C   UNL A   1      46.176  18.677  25.541  1.00  0.00     0.202 C 
BRANCH  31  32
ATOM     32  C   UNL A   1      46.218  20.073  24.860  1.00  0.00     0.261 C 
BRANCH  32  33
ATOM     33  O   UNL A   1      46.284  21.323  25.613  1.00  0.00    -0.460 OA
BRANCH  33  34
ATOM     34  C   UNL A   1      45.758  22.405  25.026  1.00  0.00     0.338 C 
ATOM     35  O   UNL A   1      45.351  22.425  23.880  1.00  0.00    -0.246 OA
BRANCH  34  36
ATOM     36  C   UNL A   1      45.797  23.710  25.718  1.00  0.00     0.060 A 
ATOM     37  C   UNL A   1      45.937  23.647  27.116  1.00  0.00     0.016 A 
ATOM     38  C   UNL A   1      45.226  24.837  25.133  1.00  0.00     0.016 A 
ATOM     39  C   UNL A   1      45.370  24.620  27.935  1.00  0.00     0.010 A 
ATOM     40  C   UNL A   1      44.741  25.865  25.956  1.00  0.00     0.010 A 
ATOM     41  C   UNL A   1      44.795  25.761  27.359  1.00  0.00    -0.014 A 
BRANCH  41  42
ATOM     42  C   UNL A   1      44.561  26.968  28.189  1.00  0.00     0.031 A 
ATOM     43  C   UNL A   1      43.202  27.521  28.502  1.00  0.00     0.074 A 
ATOM     44  C   UNL A   1      45.671  27.647  28.534  1.00  0.00     0.049 A 
ATOM     45  N   UNL A   1      42.889  28.710  28.958  1.00  0.00    -0.248 NA
ATOM     46  C   UNL A   1      42.046  26.638  28.291  1.00  0.00     0.031 C 
ATOM     47  C   UNL A   1      47.043  27.184  28.298  1.00  0.00     0.029 A 
ATOM     48  N   UNL A   1      45.829  28.888  29.090  1.00  0.00    -0.354 N 
ATOM     49  C   UNL A   1      41.503  28.738  29.061  1.00  0.00     0.074 A 
ATOM     50  C   UNL A   1      41.033  27.432  28.632  1.00  0.00     0.031 C 
ATOM     51  C   UNL A   1      47.899  28.146  28.651  1.00  0.00     0.029 A 
ATOM     52  C   UNL A   1      47.135  29.309  29.069  1.00  0.00     0.049 A 
ATOM     53  H   UNL A   1      45.088  29.418  29.464  1.00  0.00     0.167 HD
ATOM     54  C   UNL A   1      40.713  29.766  29.462  1.00  0.00     0.037 A 
ATOM     55  C   UNL A   1      47.674  30.519  29.285  1.00  0.00     0.037 A 
ATOM     56  C   UNL A   1      41.213  31.054  29.895  1.00  0.00     0.049 A 
ATOM     57  C   UNL A   1      46.782  31.645  29.676  1.00  0.00     0.074 A 
ATOM     58  C   UNL A   1      40.501  32.144  30.371  1.00  0.00     0.029 A 
ATOM     59  N   UNL A   1      42.549  31.430  29.892  1.00  0.00    -0.354 N 
ATOM     60  N   UNL A   1      45.477  31.660  29.773  1.00  0.00    -0.248 NA
ATOM     61  C   UNL A   1      47.438  32.913  30.005  1.00  0.00     0.031 C 
ATOM     62  C   UNL A   1      41.399  33.193  30.608  1.00  0.00     0.029 A 
ATOM     63  C   UNL A   1      42.678  32.742  30.329  1.00  0.00     0.049 A 
ATOM     64  H   UNL A   1      43.298  30.852  29.619  1.00  0.00     0.167 HD
ATOM     65  C   UNL A   1      45.149  32.935  30.200  1.00  0.00     0.074 A 
ATOM     66  C   UNL A   1      46.398  33.659  30.350  1.00  0.00     0.031 C 
ATOM     67  C   UNL A   1      43.924  33.454  30.455  1.00  0.00     0.037 A 
BRANCH  54  68
ATOM     68  C   UNL A   1      39.217  29.582  29.430  1.00  0.00     0.057 A 
ATOM     69  C   UNL A   1      38.454  29.442  30.596  1.00  0.00     0.134 A 
ATOM     70  C   UNL A   1      38.520  29.663  28.216  1.00  0.00     0.134 A 
ATOM     71  F   UNL A   1      39.051  29.363  31.795  1.00  0.00    -0.206 F 
ATOM     72  C   UNL A   1      37.057  29.377  30.554  1.00  0.00     0.040 A 
ATOM     73  C   UNL A   1      37.124  29.622  28.162  1.00  0.00     0.040 A 
ATOM     74  F   UNL A   1      39.183  29.817  27.060  1.00  0.00    -0.206 F 
ATOM     75  C   UNL A   1      36.388  29.476  29.335  1.00  0.00     0.006 A 
ENDBRANCH  54  68
BRANCH  55  76
ATOM     76  C   UNL A   1      49.135  30.676  29.123  1.00  0.00     0.057 A 
ATOM     77  C   UNL A   1      50.003  30.332  30.161  1.00  0.00     0.134 A 
ATOM     78  C   UNL A   1      49.697  31.031  27.889  1.00  0.00     0.134 A 
ATOM     79  F   UNL A   1      49.514  29.981  31.359  1.00  0.00    -0.206 F 
ATOM     80  C   UNL A   1      51.385  30.327  29.979  1.00  0.00     0.040 A 
ATOM     81  C   UNL A   1      51.077  31.007  27.686  1.00  0.00     0.040 A 
ATOM     82  F   UNL A   1      48.909  31.335  26.847  1.00  0.00    -0.206 F 
ATOM     83  C   UNL A   1      51.924  30.653  28.735  1.00  0.00     0.006 A 
ENDBRANCH  55  76
BRANCH  67  84
ATOM     84  C   UNL A   1      43.899  34.870  30.945  1.00  0.00     0.057 A 
ATOM     85  C   UNL A   1      43.869  35.954  30.059  1.00  0.00     0.134 A 
ATOM     86  C   UNL A   1      43.942  35.149  32.315  1.00  0.00     0.134 A 
ATOM     87  F   UNL A   1      43.851  35.749  28.734  1.00  0.00    -0.206 F 
ATOM     88  C   UNL A   1      43.917  37.270  30.521  1.00  0.00     0.040 A 
ATOM     89  C   UNL A   1      43.968  36.461  32.789  1.00  0.00     0.040 A 
ATOM     90  F   UNL A   1      43.973  34.154  33.214  1.00  0.00    -0.206 F 
ATOM     91  C   UNL A   1      43.966  37.526  31.889  1.00  0.00     0.006 A 
ENDBRANCH  67  84
ENDBRANCH  41  42
ENDBRANCH  34  36
ENDBRANCH  33  34
ENDBRANCH  32  33
ENDBRANCH  31  32
ENDBRANCH  30  31
ENDBRANCH  29  30
ENDBRANCH   1  29
TORSDOF 22
ENDMDL
