MODEL 1
REMARK VINA RESULT:     -10.2      0.000      0.000
REMARK SMILES C[NH2+][C@@]1(C(=O)OCCOCCOCCOC(=O)c2ccc(-c3c4nc(c(-c5c(F)cccc5F)c5ccc([nH]5)c(-c5c(F)cccc5F)c5nc(c(-c6c(F)cccc6F)c6ccc3[nH]6)C=C5)C=C4)cc2)CCC[C@@H]([N@@H+](C)C2CC[NH+](C)CC2)C1
REMARK SMILES IDX 10 1 9 2 8 3 7 4 6 5 4 6 5 7 3 8 72 9 85 10 73 11 75 12
REMARK SMILES IDX 74 13 2 14 1 15 76 18 77 19 78 21 79 22 84 23 80 24 83 25
REMARK SMILES IDX 81 26 82 27 11 29 12 30 13 31 14 32 15 33 16 34 17 35 18 36
REMARK SMILES IDX 19 37 71 38 20 39 70 40 21 41 22 42 23 43 64 44 24 45 69 46
REMARK SMILES IDX 63 47 65 48 25 49 68 50 62 51 61 52 26 54 52 55 35 56 51 57
REMARK SMILES IDX 36 58 39 59 50 60 66 61 37 62 38 63 49 65 67 66 40 67 27 68
REMARK SMILES IDX 28 69 33 70 29 71 30 72 32 73 34 74 31 75 53 76 54 77 59 78
REMARK SMILES IDX 55 79 56 80 58 81 60 82 57 83 41 84 42 85 47 86 43 87 44 88
REMARK SMILES IDX 46 89 48 90 45 91
REMARK H PARENT 2 16 2 17 76 20 81 28 65 53 39 64
REMARK Flexibility Score: inf
ROOT
ATOM      1  C   UNL A   1      29.828  27.185  23.571  1.00  0.00     0.188 C 
ENDROOT
BRANCH   1   2
ATOM      2  O   UNL A   1      30.687  26.287  22.887  1.00  0.00    -0.376 OA
BRANCH   2   3
ATOM      3  C   UNL A   1      31.484  26.822  21.833  1.00  0.00     0.202 C 
BRANCH   3   4
ATOM      4  C   UNL A   1      32.939  26.339  21.720  1.00  0.00     0.261 C 
BRANCH   4   5
ATOM      5  O   UNL A   1      33.310  25.263  22.607  1.00  0.00    -0.459 OA
BRANCH   5   6
ATOM      6  C   UNL A   1      33.555  25.647  23.888  1.00  0.00     0.368 C 
ATOM      7  O   UNL A   1      33.932  26.775  24.201  1.00  0.00    -0.245 OA
BRANCH   6   8
ATOM      8  C   UNL A   1      33.275  24.541  24.968  1.00  0.00     0.199 C 
ATOM      9  C   UNL A   1      34.497  24.600  25.894  1.00  0.00     0.081 C 
ATOM     10  C   UNL A   1      33.101  23.101  24.428  1.00  0.00     0.146 C 
ATOM     11  C   UNL A   1      35.783  24.234  25.165  1.00  0.00     0.013 C 
ATOM     12  C   UNL A   1      34.381  22.317  24.043  1.00  0.00     0.190 C 
ATOM     13  C   UNL A   1      35.752  22.900  24.430  1.00  0.00     0.065 C 
BRANCH   8  14
ATOM     14  N   UNL A   1      32.095  25.061  25.741  1.00  0.00    -0.334 N 
ATOM     15  C   UNL A   1      30.889  24.276  25.876  1.00  0.00     0.331 C 
ATOM     16  H   UNL A   1      32.428  25.245  26.687  1.00  0.00     0.347 HD
ATOM     17  H   UNL A   1      31.786  25.851  25.174  1.00  0.00     0.347 HD
ENDBRANCH   8  14
BRANCH  12  18
ATOM     18  N   UNL A   1      34.260  20.834  24.189  1.00  0.00    -0.332 N 
ATOM     19  C   UNL A   1      35.187  20.336  25.222  1.00  0.00     0.333 C 
ATOM     20  H   UNL A   1      34.493  20.601  23.224  1.00  0.00     0.348 HD
BRANCH  18  21
ATOM     21  C   UNL A   1      32.960  20.095  24.270  1.00  0.00     0.195 C 
ATOM     22  C   UNL A   1      32.571  19.465  25.620  1.00  0.00     0.126 C 
ATOM     23  C   UNL A   1      32.524  19.149  23.133  1.00  0.00     0.126 C 
ATOM     24  C   UNL A   1      32.898  17.982  25.750  1.00  0.00     0.268 C 
ATOM     25  C   UNL A   1      32.893  17.683  23.348  1.00  0.00     0.268 C 
ATOM     26  N   UNL A   1      32.426  17.158  24.636  1.00  0.00    -0.337 N 
ATOM     27  C   UNL A   1      32.902  15.774  24.802  1.00  0.00     0.332 C 
ATOM     28  H   UNL A   1      31.406  17.177  24.640  1.00  0.00     0.347 HD
ENDBRANCH  18  21
ENDBRANCH  12  18
ENDBRANCH   6   8
ENDBRANCH   5   6
ENDBRANCH   4   5
ENDBRANCH   3   4
ENDBRANCH   2   3
ENDBRANCH   1   2
BRANCH   1  29
ATOM     29  C   UNL A   1      29.719  28.609  23.034  1.00  0.00     0.188 C 
BRANCH  29  30
ATOM     30  O   UNL A   1      30.365  29.610  23.812  1.00  0.00    -0.376 OA
BRANCH  30  31
ATOM     31  C   UNL A   1      31.130  29.134  24.927  1.00  0.00     0.202 C 
BRANCH  31  32
ATOM     32  C   UNL A   1      32.339  29.999  25.336  1.00  0.00     0.261 C 
BRANCH  32  33
ATOM     33  O   UNL A   1      32.400  30.292  26.749  1.00  0.00    -0.460 OA
BRANCH  33  34
ATOM     34  C   UNL A   1      32.995  31.453  27.112  1.00  0.00     0.338 C 
ATOM     35  O   UNL A   1      32.470  32.553  27.144  1.00  0.00    -0.246 OA
BRANCH  34  36
ATOM     36  C   UNL A   1      34.320  31.140  27.716  1.00  0.00     0.060 A 
ATOM     37  C   UNL A   1      34.640  29.795  27.948  1.00  0.00     0.016 A 
ATOM     38  C   UNL A   1      35.270  32.132  27.980  1.00  0.00     0.016 A 
ATOM     39  C   UNL A   1      35.878  29.446  28.501  1.00  0.00     0.010 A 
ATOM     40  C   UNL A   1      36.508  31.783  28.535  1.00  0.00     0.010 A 
ATOM     41  C   UNL A   1      36.803  30.442  28.839  1.00  0.00    -0.014 A 
BRANCH  41  42
ATOM     42  C   UNL A   1      37.961  30.117  29.713  1.00  0.00     0.031 A 
ATOM     43  C   UNL A   1      39.007  29.175  29.178  1.00  0.00     0.074 A 
ATOM     44  C   UNL A   1      38.117  30.651  30.939  1.00  0.00     0.049 A 
ATOM     45  N   UNL A   1      40.083  28.704  29.757  1.00  0.00    -0.248 NA
ATOM     46  C   UNL A   1      38.808  28.697  27.800  1.00  0.00     0.031 C 
ATOM     47  C   UNL A   1      37.214  31.607  31.573  1.00  0.00     0.029 A 
ATOM     48  N   UNL A   1      39.103  30.445  31.874  1.00  0.00    -0.354 N 
ATOM     49  C   UNL A   1      40.685  27.877  28.817  1.00  0.00     0.074 A 
ATOM     50  C   UNL A   1      39.838  27.881  27.645  1.00  0.00     0.031 C 
ATOM     51  C   UNL A   1      37.683  31.898  32.801  1.00  0.00     0.029 A 
ATOM     52  C   UNL A   1      38.902  31.127  33.050  1.00  0.00     0.049 A 
ATOM     53  H   UNL A   1      39.883  29.864  31.717  1.00  0.00     0.167 HD
ATOM     54  C   UNL A   1      41.845  27.187  28.910  1.00  0.00     0.037 A 
ATOM     55  C   UNL A   1      39.607  31.114  34.200  1.00  0.00     0.037 A 
ATOM     56  C   UNL A   1      42.695  27.169  30.069  1.00  0.00     0.049 A 
ATOM     57  C   UNL A   1      40.851  30.265  34.313  1.00  0.00     0.074 A 
ATOM     58  C   UNL A   1      43.894  26.499  30.247  1.00  0.00     0.029 A 
ATOM     59  N   UNL A   1      42.434  27.843  31.251  1.00  0.00    -0.354 N 
ATOM     60  N   UNL A   1      41.422  29.505  33.411  1.00  0.00    -0.248 NA
ATOM     61  C   UNL A   1      41.547  30.274  35.611  1.00  0.00     0.031 C 
ATOM     62  C   UNL A   1      44.334  26.729  31.555  1.00  0.00     0.029 A 
ATOM     63  C   UNL A   1      43.437  27.585  32.171  1.00  0.00     0.049 A 
ATOM     64  H   UNL A   1      41.653  28.420  31.412  1.00  0.00     0.167 HD
ATOM     65  C   UNL A   1      42.557  28.976  34.019  1.00  0.00     0.074 A 
ATOM     66  C   UNL A   1      42.599  29.507  35.364  1.00  0.00     0.031 C 
ATOM     67  C   UNL A   1      43.481  28.127  33.506  1.00  0.00     0.037 A 
BRANCH  54  68
ATOM     68  C   UNL A   1      42.248  26.366  27.721  1.00  0.00     0.057 A 
ATOM     69  C   UNL A   1      43.138  26.851  26.754  1.00  0.00     0.134 A 
ATOM     70  C   UNL A   1      41.753  25.066  27.553  1.00  0.00     0.134 A 
ATOM     71  F   UNL A   1      43.633  28.095  26.849  1.00  0.00    -0.206 F 
ATOM     72  C   UNL A   1      43.503  26.081  25.649  1.00  0.00     0.040 A 
ATOM     73  C   UNL A   1      42.131  24.278  26.466  1.00  0.00     0.040 A 
ATOM     74  F   UNL A   1      40.898  24.542  28.443  1.00  0.00    -0.206 F 
ATOM     75  C   UNL A   1      43.004  24.788  25.506  1.00  0.00     0.006 A 
ENDBRANCH  54  68
BRANCH  55  76
ATOM     76  C   UNL A   1      39.150  31.914  35.367  1.00  0.00     0.057 A 
ATOM     77  C   UNL A   1      38.305  31.369  36.340  1.00  0.00     0.134 A 
ATOM     78  C   UNL A   1      39.507  33.261  35.506  1.00  0.00     0.134 A 
ATOM     79  F   UNL A   1      37.900  30.093  36.245  1.00  0.00    -0.206 F 
ATOM     80  C   UNL A   1      37.815  32.137  37.399  1.00  0.00     0.040 A 
ATOM     81  C   UNL A   1      39.046  34.034  36.572  1.00  0.00     0.040 A 
ATOM     82  F   UNL A   1      40.306  33.847  34.602  1.00  0.00    -0.206 F 
ATOM     83  C   UNL A   1      38.190  33.474  37.519  1.00  0.00     0.006 A 
ENDBRANCH  55  76
BRANCH  67  84
ATOM     84  C   UNL A   1      44.644  27.746  34.378  1.00  0.00     0.057 A 
ATOM     85  C   UNL A   1      44.654  26.565  35.131  1.00  0.00     0.134 A 
ATOM     86  C   UNL A   1      45.793  28.548  34.423  1.00  0.00     0.134 A 
ATOM     87  F   UNL A   1      43.583  25.756  35.141  1.00  0.00    -0.206 F 
ATOM     88  C   UNL A   1      45.754  26.206  35.912  1.00  0.00     0.040 A 
ATOM     89  C   UNL A   1      46.909  28.187  35.179  1.00  0.00     0.040 A 
ATOM     90  F   UNL A   1      45.857  29.687  33.717  1.00  0.00    -0.206 F 
ATOM     91  C   UNL A   1      46.890  27.014  35.931  1.00  0.00     0.006 A 
ENDBRANCH  67  84
ENDBRANCH  41  42
ENDBRANCH  34  36
ENDBRANCH  33  34
ENDBRANCH  32  33
ENDBRANCH  31  32
ENDBRANCH  30  31
ENDBRANCH  29  30
ENDBRANCH   1  29
TORSDOF 20
ENDMDL
MODEL 2
REMARK VINA RESULT:      -9.7      1.084      6.117
REMARK SMILES C[NH2+][C@@]1(C(=O)OCCOCCOCCOC(=O)c2ccc(-c3c4nc(c(-c5c(F)cccc5F)c5ccc([nH]5)c(-c5c(F)cccc5F)c5nc(c(-c6c(F)cccc6F)c6ccc3[nH]6)C=C5)C=C4)cc2)CCC[C@@H]([N@@H+](C)C2CC[NH+](C)CC2)C1
REMARK SMILES IDX 10 1 9 2 8 3 7 4 6 5 4 6 5 7 3 8 72 9 85 10 73 11 75 12
REMARK SMILES IDX 74 13 2 14 1 15 76 18 77 19 78 21 79 22 84 23 80 24 83 25
REMARK SMILES IDX 81 26 82 27 11 29 12 30 13 31 14 32 15 33 16 34 17 35 18 36
REMARK SMILES IDX 19 37 71 38 20 39 70 40 21 41 22 42 23 43 64 44 24 45 69 46
REMARK SMILES IDX 63 47 65 48 25 49 68 50 62 51 61 52 26 54 52 55 35 56 51 57
REMARK SMILES IDX 36 58 39 59 50 60 66 61 37 62 38 63 49 65 67 66 40 67 27 68
REMARK SMILES IDX 28 69 33 70 29 71 30 72 32 73 34 74 31 75 53 76 54 77 59 78
REMARK SMILES IDX 55 79 56 80 58 81 60 82 57 83 41 84 42 85 47 86 43 87 44 88
REMARK SMILES IDX 46 89 48 90 45 91
REMARK H PARENT 2 16 2 17 76 20 81 28 65 53 39 64
REMARK Flexibility Score: inf
ROOT
ATOM      1  C   UNL A   1      30.411  27.662  23.910  1.00  0.00     0.188 C 
ENDROOT
BRANCH   1   2
ATOM      2  O   UNL A   1      31.207  26.853  23.057  1.00  0.00    -0.376 OA
BRANCH   2   3
ATOM      3  C   UNL A   1      32.458  27.389  22.633  1.00  0.00     0.202 C 
BRANCH   3   4
ATOM      4  C   UNL A   1      33.698  26.487  22.750  1.00  0.00     0.261 C 
BRANCH   4   5
ATOM      5  O   UNL A   1      33.601  25.206  22.093  1.00  0.00    -0.459 OA
BRANCH   5   6
ATOM      6  C   UNL A   1      34.095  24.163  22.814  1.00  0.00     0.368 C 
ATOM      7  O   UNL A   1      35.297  23.941  22.954  1.00  0.00    -0.245 OA
BRANCH   6   8
ATOM      8  C   UNL A   1      33.003  23.271  23.506  1.00  0.00     0.199 C 
ATOM      9  C   UNL A   1      32.902  23.836  24.929  1.00  0.00     0.081 C 
ATOM     10  C   UNL A   1      33.313  21.756  23.568  1.00  0.00     0.146 C 
ATOM     11  C   UNL A   1      34.205  23.674  25.700  1.00  0.00     0.013 C 
ATOM     12  C   UNL A   1      34.311  21.269  24.649  1.00  0.00     0.190 C 
ATOM     13  C   UNL A   1      34.759  22.256  25.743  1.00  0.00     0.065 C 
BRANCH   8  14
ATOM     14  N   UNL A   1      31.726  23.615  22.790  1.00  0.00    -0.334 N 
ATOM     15  C   UNL A   1      30.494  23.813  23.519  1.00  0.00     0.331 C 
ATOM     16  H   UNL A   1      31.905  24.480  22.281  1.00  0.00     0.347 HD
ATOM     17  H   UNL A   1      31.536  22.768  22.254  1.00  0.00     0.347 HD
ENDBRANCH   8  14
BRANCH  12  18
ATOM     18  N   UNL A   1      34.075  19.870  25.118  1.00  0.00    -0.332 N 
ATOM     19  C   UNL A   1      32.981  19.828  26.105  1.00  0.00     0.333 C 
ATOM     20  H   UNL A   1      35.015  19.706  25.479  1.00  0.00     0.348 HD
BRANCH  18  21
ATOM     21  C   UNL A   1      33.993  18.677  24.215  1.00  0.00     0.195 C 
ATOM     22  C   UNL A   1      32.596  18.139  23.857  1.00  0.00     0.126 C 
ATOM     23  C   UNL A   1      34.956  17.487  24.398  1.00  0.00     0.126 C 
ATOM     24  C   UNL A   1      32.131  16.958  24.701  1.00  0.00     0.268 C 
ATOM     25  C   UNL A   1      34.407  16.352  25.259  1.00  0.00     0.268 C 
ATOM     26  N   UNL A   1      33.101  15.866  24.801  1.00  0.00    -0.337 N 
ATOM     27  C   UNL A   1      32.603  14.842  25.736  1.00  0.00     0.332 C 
ATOM     28  H   UNL A   1      33.216  15.462  23.872  1.00  0.00     0.347 HD
ENDBRANCH  18  21
ENDBRANCH  12  18
ENDBRANCH   6   8
ENDBRANCH   5   6
ENDBRANCH   4   5
ENDBRANCH   3   4
ENDBRANCH   2   3
ENDBRANCH   1   2
BRANCH   1  29
ATOM     29  C   UNL A   1      30.143  29.100  23.475  1.00  0.00     0.188 C 
BRANCH  29  30
ATOM     30  O   UNL A   1      30.885  30.098  24.166  1.00  0.00    -0.376 OA
BRANCH  30  31
ATOM     31  C   UNL A   1      31.385  29.721  25.456  1.00  0.00     0.202 C 
BRANCH  31  32
ATOM     32  C   UNL A   1      32.783  30.259  25.823  1.00  0.00     0.261 C 
BRANCH  32  33
ATOM     33  O   UNL A   1      32.942  30.567  27.226  1.00  0.00    -0.460 OA
BRANCH  33  34
ATOM     34  C   UNL A   1      33.681  31.659  27.536  1.00  0.00     0.338 C 
ATOM     35  O   UNL A   1      33.281  32.811  27.584  1.00  0.00    -0.246 OA
BRANCH  34  36
ATOM     36  C   UNL A   1      34.999  31.209  28.063  1.00  0.00     0.060 A 
ATOM     37  C   UNL A   1      35.180  29.841  28.310  1.00  0.00     0.016 A 
ATOM     38  C   UNL A   1      36.071  32.091  28.238  1.00  0.00     0.016 A 
ATOM     39  C   UNL A   1      36.404  29.364  28.792  1.00  0.00     0.010 A 
ATOM     40  C   UNL A   1      37.295  31.614  28.723  1.00  0.00     0.010 A 
ATOM     41  C   UNL A   1      37.456  30.254  29.044  1.00  0.00    -0.014 A 
BRANCH  41  42
ATOM     42  C   UNL A   1      38.626  29.816  29.851  1.00  0.00     0.031 A 
ATOM     43  C   UNL A   1      38.772  30.373  31.243  1.00  0.00     0.074 A 
ATOM     44  C   UNL A   1      39.531  28.931  29.394  1.00  0.00     0.049 A 
ATOM     45  N   UNL A   1      39.721  30.181  32.125  1.00  0.00    -0.248 NA
ATOM     46  C   UNL A   1      37.700  31.271  31.700  1.00  0.00     0.031 C 
ATOM     47  C   UNL A   1      39.500  28.276  28.090  1.00  0.00     0.029 A 
ATOM     48  N   UNL A   1      40.668  28.440  29.992  1.00  0.00    -0.354 N 
ATOM     49  C   UNL A   1      39.360  30.933  33.235  1.00  0.00     0.074 A 
ATOM     50  C   UNL A   1      38.127  31.613  32.904  1.00  0.00     0.031 C 
ATOM     51  C   UNL A   1      40.577  27.475  27.980  1.00  0.00     0.029 A 
ATOM     52  C   UNL A   1      41.387  27.584  29.194  1.00  0.00     0.049 A 
ATOM     53  H   UNL A   1      40.942  28.679  30.907  1.00  0.00     0.167 HD
ATOM     54  C   UNL A   1      39.986  31.041  34.430  1.00  0.00     0.037 A 
ATOM     55  C   UNL A   1      42.573  26.977  29.409  1.00  0.00     0.037 A 
ATOM     56  C   UNL A   1      41.215  30.376  34.772  1.00  0.00     0.049 A 
ATOM     57  C   UNL A   1      43.300  27.182  30.716  1.00  0.00     0.074 A 
ATOM     58  C   UNL A   1      41.916  30.426  35.964  1.00  0.00     0.029 A 
ATOM     59  N   UNL A   1      41.928  29.549  33.921  1.00  0.00    -0.354 N 
ATOM     60  N   UNL A   1      42.938  27.878  31.767  1.00  0.00    -0.248 NA
ATOM     61  C   UNL A   1      44.605  26.515  30.864  1.00  0.00     0.031 C 
ATOM     62  C   UNL A   1      43.082  29.666  35.818  1.00  0.00     0.029 A 
ATOM     63  C   UNL A   1      43.077  29.101  34.553  1.00  0.00     0.049 A 
ATOM     64  H   UNL A   1      41.660  29.314  33.003  1.00  0.00     0.167 HD
ATOM     65  C   UNL A   1      43.950  27.705  32.707  1.00  0.00     0.074 A 
ATOM     66  C   UNL A   1      44.936  26.832  32.108  1.00  0.00     0.031 C 
ATOM     67  C   UNL A   1      44.050  28.223  33.956  1.00  0.00     0.037 A 
BRANCH  54  68
ATOM     68  C   UNL A   1      39.358  31.942  35.451  1.00  0.00     0.057 A 
ATOM     69  C   UNL A   1      38.429  31.465  36.386  1.00  0.00     0.134 A 
ATOM     70  C   UNL A   1      39.700  33.298  35.512  1.00  0.00     0.134 A 
ATOM     71  F   UNL A   1      38.046  30.179  36.368  1.00  0.00    -0.206 F 
ATOM     72  C   UNL A   1      37.846  32.311  37.330  1.00  0.00     0.040 A 
ATOM     73  C   UNL A   1      39.143  34.148  36.468  1.00  0.00     0.040 A 
ATOM     74  F   UNL A   1      40.584  33.817  34.646  1.00  0.00    -0.206 F 
ATOM     75  C   UNL A   1      38.208  33.656  37.376  1.00  0.00     0.006 A 
ENDBRANCH  54  68
BRANCH  55  76
ATOM     76  C   UNL A   1      43.178  26.122  28.354  1.00  0.00     0.057 A 
ATOM     77  C   UNL A   1      42.933  24.745  28.302  1.00  0.00     0.134 A 
ATOM     78  C   UNL A   1      44.058  26.655  27.405  1.00  0.00     0.134 A 
ATOM     79  F   UNL A   1      42.125  24.168  29.204  1.00  0.00    -0.206 F 
ATOM     80  C   UNL A   1      43.555  23.925  27.357  1.00  0.00     0.040 A 
ATOM     81  C   UNL A   1      44.668  25.853  26.439  1.00  0.00     0.040 A 
ATOM     82  F   UNL A   1      44.343  27.966  27.406  1.00  0.00    -0.206 F 
ATOM     83  C   UNL A   1      44.422  24.481  26.418  1.00  0.00     0.006 A 
ENDBRANCH  55  76
BRANCH  67  84
ATOM     84  C   UNL A   1      45.242  27.832  34.784  1.00  0.00     0.057 A 
ATOM     85  C   UNL A   1      45.244  26.685  35.588  1.00  0.00     0.134 A 
ATOM     86  C   UNL A   1      46.422  28.586  34.735  1.00  0.00     0.134 A 
ATOM     87  F   UNL A   1      44.144  25.923  35.689  1.00  0.00    -0.206 F 
ATOM     88  C   UNL A   1      46.369  26.314  36.328  1.00  0.00     0.040 A 
ATOM     89  C   UNL A   1      47.561  28.210  35.449  1.00  0.00     0.040 A 
ATOM     90  F   UNL A   1      46.495  29.689  33.975  1.00  0.00    -0.206 F 
ATOM     91  C   UNL A   1      47.535  27.073  36.253  1.00  0.00     0.006 A 
ENDBRANCH  67  84
ENDBRANCH  41  42
ENDBRANCH  34  36
ENDBRANCH  33  34
ENDBRANCH  32  33
ENDBRANCH  31  32
ENDBRANCH  30  31
ENDBRANCH  29  30
ENDBRANCH   1  29
TORSDOF 20
ENDMDL
MODEL 3
REMARK VINA RESULT:      -9.6      4.088      7.940
REMARK SMILES C[NH2+][C@@]1(C(=O)OCCOCCOCCOC(=O)c2ccc(-c3c4nc(c(-c5c(F)cccc5F)c5ccc([nH]5)c(-c5c(F)cccc5F)c5nc(c(-c6c(F)cccc6F)c6ccc3[nH]6)C=C5)C=C4)cc2)CCC[C@@H]([N@@H+](C)C2CC[NH+](C)CC2)C1
REMARK SMILES IDX 10 1 9 2 8 3 7 4 6 5 4 6 5 7 3 8 72 9 85 10 73 11 75 12
REMARK SMILES IDX 74 13 2 14 1 15 76 18 77 19 78 21 79 22 84 23 80 24 83 25
REMARK SMILES IDX 81 26 82 27 11 29 12 30 13 31 14 32 15 33 16 34 17 35 18 36
REMARK SMILES IDX 19 37 71 38 20 39 70 40 21 41 22 42 23 43 64 44 24 45 69 46
REMARK SMILES IDX 63 47 65 48 25 49 68 50 62 51 61 52 26 54 52 55 35 56 51 57
REMARK SMILES IDX 36 58 39 59 50 60 66 61 37 62 38 63 49 65 67 66 40 67 27 68
REMARK SMILES IDX 28 69 33 70 29 71 30 72 32 73 34 74 31 75 53 76 54 77 59 78
REMARK SMILES IDX 55 79 56 80 58 81 60 82 57 83 41 84 42 85 47 86 43 87 44 88
REMARK SMILES IDX 46 89 48 90 45 91
REMARK H PARENT 2 16 2 17 76 20 81 28 65 53 39 64
REMARK Flexibility Score: inf
ROOT
ATOM      1  C   UNL A   1      35.296  30.331  27.998  1.00  0.00     0.188 C 
ENDROOT
BRANCH   1   2
ATOM      2  O   UNL A   1      34.309  30.917  27.163  1.00  0.00    -0.376 OA
BRANCH   2   3
ATOM      3  C   UNL A   1      32.967  30.463  27.323  1.00  0.00     0.202 C 
BRANCH   3   4
ATOM      4  C   UNL A   1      32.040  30.528  26.098  1.00  0.00     0.261 C 
BRANCH   4   5
ATOM      5  O   UNL A   1      31.412  29.284  25.724  1.00  0.00    -0.459 OA
BRANCH   5   6
ATOM      6  C   UNL A   1      32.188  28.466  24.964  1.00  0.00     0.368 C 
ATOM      7  O   UNL A   1      33.287  28.043  25.323  1.00  0.00    -0.245 OA
BRANCH   6   8
ATOM      8  C   UNL A   1      31.553  28.052  23.588  1.00  0.00     0.199 C 
ATOM      9  C   UNL A   1      30.172  27.499  23.963  1.00  0.00     0.081 C 
ATOM     10  C   UNL A   1      32.336  26.992  22.777  1.00  0.00     0.146 C 
ATOM     11  C   UNL A   1      30.274  26.252  24.830  1.00  0.00     0.013 C 
ATOM     12  C   UNL A   1      32.207  25.511  23.214  1.00  0.00     0.190 C 
ATOM     13  C   UNL A   1      31.143  25.138  24.263  1.00  0.00     0.065 C 
BRANCH   8  14
ATOM     14  N   UNL A   1      31.339  29.354  22.866  1.00  0.00    -0.334 N 
ATOM     15  C   UNL A   1      30.028  29.734  22.390  1.00  0.00     0.331 C 
ATOM     16  H   UNL A   1      31.642  30.090  23.503  1.00  0.00     0.347 HD
ATOM     17  H   UNL A   1      31.861  29.217  22.000  1.00  0.00     0.347 HD
ENDBRANCH   8  14
BRANCH  12  18
ATOM     18  N   UNL A   1      32.374  24.526  22.103  1.00  0.00    -0.332 N 
ATOM     19  C   UNL A   1      32.740  25.211  20.850  1.00  0.00     0.333 C 
ATOM     20  H   UNL A   1      31.431  24.139  22.146  1.00  0.00     0.348 HD
BRANCH  18  21
ATOM     21  C   UNL A   1      33.130  23.238  22.220  1.00  0.00     0.195 C 
ATOM     22  C   UNL A   1      32.341  21.969  22.588  1.00  0.00     0.126 C 
ATOM     23  C   UNL A   1      34.502  23.195  22.922  1.00  0.00     0.126 C 
ATOM     24  C   UNL A   1      32.382  21.597  24.065  1.00  0.00     0.268 C 
ATOM     25  C   UNL A   1      34.448  22.815  24.400  1.00  0.00     0.268 C 
ATOM     26  N   UNL A   1      33.728  21.559  24.642  1.00  0.00    -0.337 N 
ATOM     27  C   UNL A   1      33.641  21.315  26.092  1.00  0.00     0.332 C 
ATOM     28  H   UNL A   1      34.242  20.802  24.192  1.00  0.00     0.347 HD
ENDBRANCH  18  21
ENDBRANCH  12  18
ENDBRANCH   6   8
ENDBRANCH   5   6
ENDBRANCH   4   5
ENDBRANCH   3   4
ENDBRANCH   2   3
ENDBRANCH   1   2
BRANCH   1  29
ATOM     29  C   UNL A   1      35.658  31.062  29.288  1.00  0.00     0.188 C 
BRANCH  29  30
ATOM     30  O   UNL A   1      35.265  32.427  29.350  1.00  0.00    -0.376 OA
BRANCH  30  31
ATOM     31  C   UNL A   1      34.399  32.777  30.439  1.00  0.00     0.202 C 
BRANCH  31  32
ATOM     32  C   UNL A   1      34.998  33.716  31.505  1.00  0.00     0.261 C 
BRANCH  32  33
ATOM     33  O   UNL A   1      35.823  33.043  32.481  1.00  0.00    -0.460 OA
BRANCH  33  34
ATOM     34  C   UNL A   1      37.073  33.530  32.671  1.00  0.00     0.338 C 
ATOM     35  O   UNL A   1      37.411  34.342  33.516  1.00  0.00    -0.246 OA
BRANCH  34  36
ATOM     36  C   UNL A   1      38.026  32.727  31.855  1.00  0.00     0.060 A 
ATOM     37  C   UNL A   1      38.648  31.625  32.459  1.00  0.00     0.016 A 
ATOM     38  C   UNL A   1      38.251  32.991  30.500  1.00  0.00     0.016 A 
ATOM     39  C   UNL A   1      39.541  30.829  31.733  1.00  0.00     0.010 A 
ATOM     40  C   UNL A   1      39.147  32.196  29.773  1.00  0.00     0.010 A 
ATOM     41  C   UNL A   1      39.830  31.136  30.397  1.00  0.00    -0.014 A 
BRANCH  41  42
ATOM     42  C   UNL A   1      41.001  30.512  29.726  1.00  0.00     0.031 A 
ATOM     43  C   UNL A   1      42.208  31.375  29.463  1.00  0.00     0.074 A 
ATOM     44  C   UNL A   1      41.028  29.214  29.373  1.00  0.00     0.049 A 
ATOM     45  N   UNL A   1      43.331  31.081  28.858  1.00  0.00    -0.248 NA
ATOM     46  C   UNL A   1      42.133  32.763  29.950  1.00  0.00     0.031 C 
ATOM     47  C   UNL A   1      39.958  28.247  29.599  1.00  0.00     0.029 A 
ATOM     48  N   UNL A   1      42.008  28.491  28.734  1.00  0.00    -0.354 N 
ATOM     49  C   UNL A   1      44.092  32.243  28.891  1.00  0.00     0.074 A 
ATOM     50  C   UNL A   1      43.291  33.256  29.541  1.00  0.00     0.031 C 
ATOM     51  C   UNL A   1      40.335  27.057  29.096  1.00  0.00     0.029 A 
ATOM     52  C   UNL A   1      41.660  27.185  28.487  1.00  0.00     0.049 A 
ATOM     53  H   UNL A   1      42.879  28.872  28.479  1.00  0.00     0.167 HD
ATOM     54  C   UNL A   1      45.350  32.450  28.436  1.00  0.00     0.037 A 
ATOM     55  C   UNL A   1      42.323  26.213  27.827  1.00  0.00     0.037 A 
ATOM     56  C   UNL A   1      46.156  31.454  27.783  1.00  0.00     0.049 A 
ATOM     57  C   UNL A   1      43.690  26.491  27.248  1.00  0.00     0.074 A 
ATOM     58  C   UNL A   1      47.446  31.578  27.295  1.00  0.00     0.029 A 
ATOM     59  N   UNL A   1      45.750  30.157  27.520  1.00  0.00    -0.354 N 
ATOM     60  N   UNL A   1      44.408  27.587  27.305  1.00  0.00    -0.248 NA
ATOM     61  C   UNL A   1      44.336  25.393  26.510  1.00  0.00     0.031 C 
ATOM     62  C   UNL A   1      47.802  30.367  26.691  1.00  0.00     0.029 A 
ATOM     63  C   UNL A   1      46.755  29.475  26.852  1.00  0.00     0.049 A 
ATOM     64  H   UNL A   1      44.878  29.775  27.769  1.00  0.00     0.167 HD
ATOM     65  C   UNL A   1      45.598  27.299  26.643  1.00  0.00     0.074 A 
ATOM     66  C   UNL A   1      45.511  25.924  26.201  1.00  0.00     0.031 C 
ATOM     67  C   UNL A   1      46.668  28.102  26.424  1.00  0.00     0.037 A 
BRANCH  54  68
ATOM     68  C   UNL A   1      45.920  33.826  28.608  1.00  0.00     0.057 A 
ATOM     69  C   UNL A   1      45.733  34.829  27.649  1.00  0.00     0.134 A 
ATOM     70  C   UNL A   1      46.650  34.155  29.758  1.00  0.00     0.134 A 
ATOM     71  F   UNL A   1      45.058  34.571  26.518  1.00  0.00    -0.206 F 
ATOM     72  C   UNL A   1      46.271  36.106  27.816  1.00  0.00     0.040 A 
ATOM     73  C   UNL A   1      47.171  35.436  29.948  1.00  0.00     0.040 A 
ATOM     74  F   UNL A   1      46.864  33.240  30.714  1.00  0.00    -0.206 F 
ATOM     75  C   UNL A   1      46.987  36.414  28.971  1.00  0.00     0.006 A 
ENDBRANCH  54  68
BRANCH  55  76
ATOM     76  C   UNL A   1      41.704  24.874  27.647  1.00  0.00     0.057 A 
ATOM     77  C   UNL A   1      40.743  24.642  26.656  1.00  0.00     0.134 A 
ATOM     78  C   UNL A   1      42.020  23.808  28.498  1.00  0.00     0.134 A 
ATOM     79  F   UNL A   1      40.371  25.632  25.831  1.00  0.00    -0.206 F 
ATOM     80  C   UNL A   1      40.105  23.406  26.529  1.00  0.00     0.040 A 
ATOM     81  C   UNL A   1      41.410  22.560  28.367  1.00  0.00     0.040 A 
ATOM     82  F   UNL A   1      42.926  23.967  29.475  1.00  0.00    -0.206 F 
ATOM     83  C   UNL A   1      40.443  22.359  27.384  1.00  0.00     0.006 A 
ENDBRANCH  55  76
BRANCH  67  84
ATOM     84  C   UNL A   1      47.853  27.514  25.712  1.00  0.00     0.057 A 
ATOM     85  C   UNL A   1      48.914  26.916  26.404  1.00  0.00     0.134 A 
ATOM     86  C   UNL A   1      47.909  27.500  24.312  1.00  0.00     0.134 A 
ATOM     87  F   UNL A   1      48.929  26.904  27.746  1.00  0.00    -0.206 F 
ATOM     88  C   UNL A   1      49.995  26.344  25.730  1.00  0.00     0.040 A 
ATOM     89  C   UNL A   1      48.971  26.908  23.627  1.00  0.00     0.040 A 
ATOM     90  F   UNL A   1      46.921  28.044  23.585  1.00  0.00    -0.206 F 
ATOM     91  C   UNL A   1      50.021  26.331  24.337  1.00  0.00     0.006 A 
ENDBRANCH  67  84
ENDBRANCH  41  42
ENDBRANCH  34  36
ENDBRANCH  33  34
ENDBRANCH  32  33
ENDBRANCH  31  32
ENDBRANCH  30  31
ENDBRANCH  29  30
ENDBRANCH   1  29
TORSDOF 20
ENDMDL
