MODEL 1
REMARK VINA RESULT:     -11.0      0.000      0.000
REMARK SMILES CC(C)(C)c1cc2c(cc1Cl)C=C(C(=O)OCCOCCOCCOC(=O)c1ccc(-c3c4nc(c(-c5c(F)cccc5F)c5ccc([nH]5)c(-c5c(F)cccc5F)c5nc(c(-c6c(F)cccc6F)c6ccc3[nH]6)C=C5)C=C4)cc1)[C@@H](C(F)(F)F)O2
REMARK SMILES IDX 21 1 20 2 19 3 18 4 17 5 16 6 14 7 15 8 13 9 5 10 6 11 10 12
REMARK SMILES IDX 7 13 9 14 11 15 8 16 87 17 12 18 82 19 2 20 1 21 3 22 4 23
REMARK SMILES IDX 83 24 84 25 85 26 86 27 22 28 23 29 24 30 25 31 26 32 27 33
REMARK SMILES IDX 28 34 29 35 81 36 30 37 80 38 31 39 32 40 33 41 74 42 34 43
REMARK SMILES IDX 79 44 73 45 75 46 35 47 78 48 72 49 71 50 36 52 62 53 45 54
REMARK SMILES IDX 61 55 46 56 49 57 60 58 76 59 47 60 48 61 59 63 77 64 50 65
REMARK SMILES IDX 37 66 38 67 43 68 39 69 40 70 42 71 44 72 41 73 63 74 64 75
REMARK SMILES IDX 69 76 65 77 66 78 68 79 70 80 67 81 51 82 52 83 57 84 53 85
REMARK SMILES IDX 54 86 56 87 58 88 55 89
REMARK H PARENT 75 51 49 62
REMARK Flexibility Score: inf
ROOT
ATOM      1  C   UNL A   1      34.389  32.409  28.940  1.00  0.00     0.188 C 
ENDROOT
BRANCH   1   2
ATOM      2  C   UNL A   1      34.457  31.667  27.590  1.00  0.00     0.188 C 
BRANCH   2   3
ATOM      3  O   UNL A   1      33.443  30.751  27.248  1.00  0.00    -0.376 OA
BRANCH   3   4
ATOM      4  C   UNL A   1      33.671  29.353  27.264  1.00  0.00     0.202 C 
BRANCH   4   5
ATOM      5  C   UNL A   1      33.988  28.493  26.029  1.00  0.00     0.261 C 
BRANCH   5   6
ATOM      6  O   UNL A   1      33.220  27.298  25.863  1.00  0.00    -0.460 OA
BRANCH   6   7
ATOM      7  C   UNL A   1      33.319  26.720  24.642  1.00  0.00     0.338 C 
ATOM      8  O   UNL A   1      33.689  27.252  23.608  1.00  0.00    -0.246 OA
BRANCH   7   9
ATOM      9  C   UNL A   1      33.073  25.270  24.761  1.00  0.00     0.087 C 
ATOM     10  C   UNL A   1      33.619  20.241  24.761  1.00  0.00    -0.020 A 
ATOM     11  C   UNL A   1      32.527  21.144  24.765  1.00  0.00     0.053 A 
ATOM     12  C   UNL A   1      34.899  20.820  24.934  1.00  0.00     0.045 A 
ATOM     13  C   UNL A   1      32.695  22.532  24.853  1.00  0.00     0.128 A 
ATOM     14  C   UNL A   1      35.062  22.211  25.039  1.00  0.00     0.032 A 
ATOM     15  Cl  UNL A   1      36.382  19.931  24.985  1.00  0.00    -0.084 Cl
ATOM     16  C   UNL A   1      33.968  23.068  24.961  1.00  0.00     0.019 A 
ATOM     17  O   UNL A   1      31.556  23.287  24.800  1.00  0.00    -0.475 OA
ATOM     18  C   UNL A   1      34.160  24.504  24.917  1.00  0.00     0.027 C 
ATOM     19  C   UNL A   1      31.668  24.736  24.706  1.00  0.00     0.316 C 
BRANCH  10  20
ATOM     20  C   UNL A   1      33.374  18.732  24.500  1.00  0.00    -0.012 C 
ATOM     21  C   UNL A   1      32.682  18.100  25.730  1.00  0.00     0.016 C 
ATOM     22  C   UNL A   1      34.681  17.915  24.293  1.00  0.00     0.016 C 
ATOM     23  C   UNL A   1      32.537  18.481  23.227  1.00  0.00     0.016 C 
ENDBRANCH  10  20
BRANCH  19  24
ATOM     24  C   UNL A   1      30.922  25.203  23.448  1.00  0.00     0.430 C 
ATOM     25  F   UNL A   1      31.741  25.230  22.370  1.00  0.00    -0.167 F 
ATOM     26  F   UNL A   1      29.898  24.373  23.136  1.00  0.00    -0.167 F 
ATOM     27  F   UNL A   1      30.405  26.443  23.599  1.00  0.00    -0.167 F 
ENDBRANCH  19  24
ENDBRANCH   7   9
ENDBRANCH   6   7
ENDBRANCH   5   6
ENDBRANCH   4   5
ENDBRANCH   3   4
ENDBRANCH   2   3
ENDBRANCH   1   2
BRANCH   1  28
ATOM     28  O   UNL A   1      34.932  33.705  29.080  1.00  0.00    -0.376 OA
BRANCH  28  29
ATOM     29  C   UNL A   1      34.505  34.535  30.150  1.00  0.00     0.202 C 
BRANCH  29  30
ATOM     30  C   UNL A   1      34.952  34.321  31.606  1.00  0.00     0.261 C 
BRANCH  30  31
ATOM     31  O   UNL A   1      36.266  33.778  31.788  1.00  0.00    -0.460 OA
BRANCH  31  32
ATOM     32  C   UNL A   1      36.308  32.484  32.208  1.00  0.00     0.338 C 
ATOM     33  O   UNL A   1      35.494  31.899  32.886  1.00  0.00    -0.246 OA
BRANCH  32  34
ATOM     34  C   UNL A   1      37.431  31.810  31.520  1.00  0.00     0.060 A 
ATOM     35  C   UNL A   1      37.505  31.793  30.129  1.00  0.00     0.016 A 
ATOM     36  C   UNL A   1      38.416  31.182  32.296  1.00  0.00     0.016 A 
ATOM     37  C   UNL A   1      38.582  31.155  29.509  1.00  0.00     0.010 A 
ATOM     38  C   UNL A   1      39.481  30.528  31.674  1.00  0.00     0.010 A 
ATOM     39  C   UNL A   1      39.581  30.527  30.277  1.00  0.00    -0.014 A 
BRANCH  39  40
ATOM     40  C   UNL A   1      40.801  30.003  29.615  1.00  0.00     0.031 A 
ATOM     41  C   UNL A   1      40.904  28.581  29.154  1.00  0.00     0.074 A 
ATOM     42  C   UNL A   1      41.836  30.845  29.441  1.00  0.00     0.049 A 
ATOM     43  N   UNL A   1      41.877  28.000  28.496  1.00  0.00    -0.248 NA
ATOM     44  C   UNL A   1      39.777  27.696  29.474  1.00  0.00     0.031 C 
ATOM     45  C   UNL A   1      41.863  32.242  29.876  1.00  0.00     0.029 A 
ATOM     46  N   UNL A   1      43.058  30.653  28.851  1.00  0.00    -0.354 N 
ATOM     47  C   UNL A   1      41.472  26.688  28.297  1.00  0.00     0.074 A 
ATOM     48  C   UNL A   1      40.186  26.545  28.952  1.00  0.00     0.031 C 
ATOM     49  C   UNL A   1      43.036  32.789  29.517  1.00  0.00     0.029 A 
ATOM     50  C   UNL A   1      43.849  31.776  28.854  1.00  0.00     0.049 A 
ATOM     51  H   UNL A   1      43.342  29.794  28.462  1.00  0.00     0.167 HD
ATOM     52  C   UNL A   1      42.105  25.702  27.614  1.00  0.00     0.037 A 
ATOM     53  C   UNL A   1      45.093  31.967  28.376  1.00  0.00     0.037 A 
ATOM     54  C   UNL A   1      43.401  25.840  26.992  1.00  0.00     0.049 A 
ATOM     55  C   UNL A   1      45.802  30.832  27.690  1.00  0.00     0.074 A 
ATOM     56  C   UNL A   1      44.108  24.906  26.252  1.00  0.00     0.029 A 
ATOM     57  N   UNL A   1      44.194  26.977  27.053  1.00  0.00    -0.354 N 
ATOM     58  N   UNL A   1      45.371  29.623  27.430  1.00  0.00    -0.248 NA
ATOM     59  C   UNL A   1      47.171  31.095  27.226  1.00  0.00     0.031 C 
ATOM     60  C   UNL A   1      45.350  25.457  25.918  1.00  0.00     0.029 A 
ATOM     61  C   UNL A   1      45.395  26.755  26.396  1.00  0.00     0.049 A 
ATOM     62  H   UNL A   1      43.941  27.818  27.499  1.00  0.00     0.167 HD
ATOM     63  C   UNL A   1      46.402  28.990  26.747  1.00  0.00     0.074 A 
ATOM     64  C   UNL A   1      47.472  29.958  26.617  1.00  0.00     0.031 C 
ATOM     65  C   UNL A   1      46.457  27.723  26.271  1.00  0.00     0.037 A 
BRANCH  52  66
ATOM     66  C   UNL A   1      41.407  24.375  27.506  1.00  0.00     0.057 A 
ATOM     67  C   UNL A   1      41.834  23.273  28.257  1.00  0.00     0.134 A 
ATOM     68  C   UNL A   1      40.342  24.177  26.618  1.00  0.00     0.134 A 
ATOM     69  F   UNL A   1      42.858  23.388  29.115  1.00  0.00    -0.206 F 
ATOM     70  C   UNL A   1      41.224  22.023  28.130  1.00  0.00     0.040 A 
ATOM     71  C   UNL A   1      39.707  22.939  26.502  1.00  0.00     0.040 A 
ATOM     72  F   UNL A   1      39.881  25.191  25.869  1.00  0.00    -0.206 F 
ATOM     73  C   UNL A   1      40.153  21.855  27.256  1.00  0.00     0.006 A 
ENDBRANCH  52  66
BRANCH  53  74
ATOM     74  C   UNL A   1      45.750  33.289  28.516  1.00  0.00     0.057 A 
ATOM     75  C   UNL A   1      46.630  33.558  29.569  1.00  0.00     0.134 A 
ATOM     76  C   UNL A   1      45.536  34.306  27.577  1.00  0.00     0.134 A 
ATOM     77  F   UNL A   1      46.870  32.630  30.506  1.00  0.00    -0.206 F 
ATOM     78  C   UNL A   1      47.279  34.788  29.683  1.00  0.00     0.040 A 
ATOM     79  C   UNL A   1      46.200  35.530  27.663  1.00  0.00     0.040 A 
ATOM     80  F   UNL A   1      44.715  34.101  26.536  1.00  0.00    -0.206 F 
ATOM     81  C   UNL A   1      47.073  35.775  28.721  1.00  0.00     0.006 A 
ENDBRANCH  53  74
BRANCH  65  82
ATOM     82  C   UNL A   1      47.704  27.322  25.534  1.00  0.00     0.057 A 
ATOM     83  C   UNL A   1      48.795  26.774  26.221  1.00  0.00     0.134 A 
ATOM     84  C   UNL A   1      47.834  27.489  24.148  1.00  0.00     0.134 A 
ATOM     85  F   UNL A   1      48.742  26.591  27.549  1.00  0.00    -0.206 F 
ATOM     86  C   UNL A   1      49.969  26.409  25.559  1.00  0.00     0.040 A 
ATOM     87  C   UNL A   1      48.992  27.099  23.470  1.00  0.00     0.040 A 
ATOM     88  F   UNL A   1      46.821  27.990  23.426  1.00  0.00    -0.206 F 
ATOM     89  C   UNL A   1      50.065  26.564  24.178  1.00  0.00     0.006 A 
ENDBRANCH  65  82
ENDBRANCH  39  40
ENDBRANCH  32  34
ENDBRANCH  31  32
ENDBRANCH  30  31
ENDBRANCH  29  30
ENDBRANCH  28  29
ENDBRANCH   1  28
TORSDOF 19
ENDMDL
MODEL 2
REMARK VINA RESULT:     -10.7      4.839     10.023
REMARK SMILES CC(C)(C)c1cc2c(cc1Cl)C=C(C(=O)OCCOCCOCCOC(=O)c1ccc(-c3c4nc(c(-c5c(F)cccc5F)c5ccc([nH]5)c(-c5c(F)cccc5F)c5nc(c(-c6c(F)cccc6F)c6ccc3[nH]6)C=C5)C=C4)cc1)[C@@H](C(F)(F)F)O2
REMARK SMILES IDX 21 1 20 2 19 3 18 4 17 5 16 6 14 7 15 8 13 9 5 10 6 11 10 12
REMARK SMILES IDX 7 13 9 14 11 15 8 16 87 17 12 18 82 19 2 20 1 21 3 22 4 23
REMARK SMILES IDX 83 24 84 25 85 26 86 27 22 28 23 29 24 30 25 31 26 32 27 33
REMARK SMILES IDX 28 34 29 35 81 36 30 37 80 38 31 39 32 40 33 41 74 42 34 43
REMARK SMILES IDX 79 44 73 45 75 46 35 47 78 48 72 49 71 50 36 52 62 53 45 54
REMARK SMILES IDX 61 55 46 56 49 57 60 58 76 59 47 60 48 61 59 63 77 64 50 65
REMARK SMILES IDX 37 66 38 67 43 68 39 69 40 70 42 71 44 72 41 73 63 74 64 75
REMARK SMILES IDX 69 76 65 77 66 78 68 79 70 80 67 81 51 82 52 83 57 84 53 85
REMARK SMILES IDX 54 86 56 87 58 88 55 89
REMARK H PARENT 75 51 49 62
REMARK Flexibility Score: inf
ROOT
ATOM      1  C   UNL A   1      42.303  20.063  26.240  1.00  0.00     0.188 C 
ENDROOT
BRANCH   1   2
ATOM      2  C   UNL A   1      40.778  19.913  26.420  1.00  0.00     0.188 C 
BRANCH   2   3
ATOM      3  O   UNL A   1      40.026  21.001  26.904  1.00  0.00    -0.376 OA
BRANCH   3   4
ATOM      4  C   UNL A   1      39.241  21.803  26.038  1.00  0.00     0.202 C 
BRANCH   4   5
ATOM      5  C   UNL A   1      37.920  21.368  25.382  1.00  0.00     0.261 C 
BRANCH   5   6
ATOM      6  O   UNL A   1      37.024  22.410  24.988  1.00  0.00    -0.460 OA
BRANCH   6   7
ATOM      7  C   UNL A   1      35.785  22.333  25.531  1.00  0.00     0.338 C 
ATOM      8  O   UNL A   1      35.444  21.652  26.484  1.00  0.00    -0.246 OA
BRANCH   7   9
ATOM      9  C   UNL A   1      34.908  23.341  24.904  1.00  0.00     0.087 C 
ATOM     10  C   UNL A   1      32.081  27.446  24.040  1.00  0.00    -0.020 A 
ATOM     11  C   UNL A   1      32.232  26.172  23.438  1.00  0.00     0.053 A 
ATOM     12  C   UNL A   1      33.015  27.764  25.054  1.00  0.00     0.045 A 
ATOM     13  C   UNL A   1      33.190  25.243  23.866  1.00  0.00     0.128 A 
ATOM     14  C   UNL A   1      33.986  26.837  25.468  1.00  0.00     0.032 A 
ATOM     15  Cl  UNL A   1      33.054  29.260  25.923  1.00  0.00    -0.084 Cl
ATOM     16  C   UNL A   1      34.050  25.567  24.903  1.00  0.00     0.019 A 
ATOM     17  O   UNL A   1      33.195  24.036  23.226  1.00  0.00    -0.475 OA
ATOM     18  C   UNL A   1      34.952  24.567  25.440  1.00  0.00     0.027 C 
ATOM     19  C   UNL A   1      34.039  22.964  23.735  1.00  0.00     0.316 C 
BRANCH  10  20
ATOM     20  C   UNL A   1      30.899  28.361  23.626  1.00  0.00    -0.012 C 
ATOM     21  C   UNL A   1      29.612  27.515  23.494  1.00  0.00     0.016 C 
ATOM     22  C   UNL A   1      31.093  29.042  22.242  1.00  0.00     0.016 C 
ATOM     23  C   UNL A   1      30.676  29.524  24.618  1.00  0.00     0.016 C 
ENDBRANCH  10  20
BRANCH  19  24
ATOM     24  C   UNL A   1      33.155  21.748  24.043  1.00  0.00     0.430 C 
ATOM     25  F   UNL A   1      32.240  21.543  23.066  1.00  0.00    -0.167 F 
ATOM     26  F   UNL A   1      33.883  20.610  24.137  1.00  0.00    -0.167 F 
ATOM     27  F   UNL A   1      32.483  21.895  25.208  1.00  0.00    -0.167 F 
ENDBRANCH  19  24
ENDBRANCH   7   9
ENDBRANCH   6   7
ENDBRANCH   5   6
ENDBRANCH   4   5
ENDBRANCH   3   4
ENDBRANCH   2   3
ENDBRANCH   1   2
BRANCH   1  28
ATOM     28  O   UNL A   1      42.919  21.330  26.333  1.00  0.00    -0.376 OA
BRANCH  28  29
ATOM     29  C   UNL A   1      44.287  21.475  25.982  1.00  0.00     0.202 C 
BRANCH  29  30
ATOM     30  C   UNL A   1      45.152  22.655  26.457  1.00  0.00     0.261 C 
BRANCH  30  31
ATOM     31  O   UNL A   1      45.170  23.807  25.606  1.00  0.00    -0.460 OA
BRANCH  31  32
ATOM     32  C   UNL A   1      43.951  24.235  25.180  1.00  0.00     0.338 C 
ATOM     33  O   UNL A   1      43.343  23.877  24.197  1.00  0.00    -0.246 OA
BRANCH  32  34
ATOM     34  C   UNL A   1      43.360  25.083  26.239  1.00  0.00     0.060 A 
ATOM     35  C   UNL A   1      42.246  24.650  26.956  1.00  0.00     0.016 A 
ATOM     36  C   UNL A   1      43.938  26.332  26.503  1.00  0.00     0.016 A 
ATOM     37  C   UNL A   1      41.717  25.469  27.956  1.00  0.00     0.010 A 
ATOM     38  C   UNL A   1      43.395  27.158  27.489  1.00  0.00     0.010 A 
ATOM     39  C   UNL A   1      42.292  26.723  28.236  1.00  0.00    -0.014 A 
BRANCH  39  40
ATOM     40  C   UNL A   1      41.827  27.505  29.407  1.00  0.00     0.031 A 
ATOM     41  C   UNL A   1      42.504  27.415  30.740  1.00  0.00     0.074 A 
ATOM     42  C   UNL A   1      40.759  28.309  29.245  1.00  0.00     0.049 A 
ATOM     43  N   UNL A   1      42.256  28.092  31.834  1.00  0.00    -0.248 NA
ATOM     44  C   UNL A   1      43.593  26.438  30.867  1.00  0.00     0.031 C 
ATOM     45  C   UNL A   1      40.001  28.457  28.003  1.00  0.00     0.029 A 
ATOM     46  N   UNL A   1      40.133  29.154  30.124  1.00  0.00    -0.354 N 
ATOM     47  C   UNL A   1      43.174  27.647  32.775  1.00  0.00     0.074 A 
ATOM     48  C   UNL A   1      43.951  26.601  32.136  1.00  0.00     0.031 C 
ATOM     49  C   UNL A   1      39.023  29.357  28.192  1.00  0.00     0.029 A 
ATOM     50  C   UNL A   1      39.070  29.827  29.572  1.00  0.00     0.049 A 
ATOM     51  H   UNL A   1      40.416  29.268  31.060  1.00  0.00     0.167 HD
ATOM     52  C   UNL A   1      43.364  28.084  34.044  1.00  0.00     0.037 A 
ATOM     53  C   UNL A   1      38.227  30.722  30.118  1.00  0.00     0.037 A 
ATOM     54  C   UNL A   1      42.567  29.103  34.686  1.00  0.00     0.049 A 
ATOM     55  C   UNL A   1      38.415  31.132  31.553  1.00  0.00     0.074 A 
ATOM     56  C   UNL A   1      42.704  29.633  35.958  1.00  0.00     0.029 A 
ATOM     57  N   UNL A   1      41.471  29.731  34.113  1.00  0.00    -0.354 N 
ATOM     58  N   UNL A   1      39.343  30.769  32.403  1.00  0.00    -0.248 NA
ATOM     59  C   UNL A   1      37.438  32.084  32.099  1.00  0.00     0.031 C 
ATOM     60  C   UNL A   1      41.658  30.537  36.175  1.00  0.00     0.029 A 
ATOM     61  C   UNL A   1      40.902  30.616  35.018  1.00  0.00     0.049 A 
ATOM     62  H   UNL A   1      41.142  29.571  33.198  1.00  0.00     0.167 HD
ATOM     63  C   UNL A   1      39.080  31.469  33.574  1.00  0.00     0.074 A 
ATOM     64  C   UNL A   1      37.916  32.292  33.316  1.00  0.00     0.031 C 
ATOM     65  C   UNL A   1      39.743  31.432  34.756  1.00  0.00     0.037 A 
BRANCH  52  66
ATOM     66  C   UNL A   1      44.479  27.458  34.834  1.00  0.00     0.057 A 
ATOM     67  C   UNL A   1      45.766  28.011  34.826  1.00  0.00     0.134 A 
ATOM     68  C   UNL A   1      44.289  26.278  35.563  1.00  0.00     0.134 A 
ATOM     69  F   UNL A   1      46.023  29.132  34.137  1.00  0.00    -0.206 F 
ATOM     70  C   UNL A   1      46.822  27.412  35.518  1.00  0.00     0.040 A 
ATOM     71  C   UNL A   1      45.330  25.684  36.280  1.00  0.00     0.040 A 
ATOM     72  F   UNL A   1      43.081  25.696  35.614  1.00  0.00    -0.206 F 
ATOM     73  C   UNL A   1      46.603  26.250  36.253  1.00  0.00     0.006 A 
ENDBRANCH  52  66
BRANCH  53  74
ATOM     74  C   UNL A   1      37.132  31.306  29.307  1.00  0.00     0.057 A 
ATOM     75  C   UNL A   1      35.952  30.597  29.057  1.00  0.00     0.134 A 
ATOM     76  C   UNL A   1      37.228  32.603  28.789  1.00  0.00     0.134 A 
ATOM     77  F   UNL A   1      35.802  29.347  29.518  1.00  0.00    -0.206 F 
ATOM     78  C   UNL A   1      34.904  31.157  28.325  1.00  0.00     0.040 A 
ATOM     79  C   UNL A   1      36.177  33.186  28.080  1.00  0.00     0.040 A 
ATOM     80  F   UNL A   1      38.329  33.338  29.009  1.00  0.00    -0.206 F 
ATOM     81  C   UNL A   1      35.011  32.460  27.844  1.00  0.00     0.006 A 
ENDBRANCH  53  74
BRANCH  65  82
ATOM     82  C   UNL A   1      39.244  32.335  35.849  1.00  0.00     0.057 A 
ATOM     83  C   UNL A   1      38.275  31.889  36.757  1.00  0.00     0.134 A 
ATOM     84  C   UNL A   1      39.709  33.649  35.997  1.00  0.00     0.134 A 
ATOM     85  F   UNL A   1      37.782  30.645  36.671  1.00  0.00    -0.206 F 
ATOM     86  C   UNL A   1      37.787  32.716  37.771  1.00  0.00     0.040 A 
ATOM     87  C   UNL A   1      39.251  34.475  37.025  1.00  0.00     0.040 A 
ATOM     88  F   UNL A   1      40.651  34.134  35.173  1.00  0.00    -0.206 F 
ATOM     89  C   UNL A   1      38.281  34.011  37.911  1.00  0.00     0.006 A 
ENDBRANCH  65  82
ENDBRANCH  39  40
ENDBRANCH  32  34
ENDBRANCH  31  32
ENDBRANCH  30  31
ENDBRANCH  29  30
ENDBRANCH  28  29
ENDBRANCH   1  28
TORSDOF 19
ENDMDL
MODEL 3
REMARK VINA RESULT:     -10.6      1.409      2.257
REMARK SMILES CC(C)(C)c1cc2c(cc1Cl)C=C(C(=O)OCCOCCOCCOC(=O)c1ccc(-c3c4nc(c(-c5c(F)cccc5F)c5ccc([nH]5)c(-c5c(F)cccc5F)c5nc(c(-c6c(F)cccc6F)c6ccc3[nH]6)C=C5)C=C4)cc1)[C@@H](C(F)(F)F)O2
REMARK SMILES IDX 21 1 20 2 19 3 18 4 17 5 16 6 14 7 15 8 13 9 5 10 6 11 10 12
REMARK SMILES IDX 7 13 9 14 11 15 8 16 87 17 12 18 82 19 2 20 1 21 3 22 4 23
REMARK SMILES IDX 83 24 84 25 85 26 86 27 22 28 23 29 24 30 25 31 26 32 27 33
REMARK SMILES IDX 28 34 29 35 81 36 30 37 80 38 31 39 32 40 33 41 74 42 34 43
REMARK SMILES IDX 79 44 73 45 75 46 35 47 78 48 72 49 71 50 36 52 62 53 45 54
REMARK SMILES IDX 61 55 46 56 49 57 60 58 76 59 47 60 48 61 59 63 77 64 50 65
REMARK SMILES IDX 37 66 38 67 43 68 39 69 40 70 42 71 44 72 41 73 63 74 64 75
REMARK SMILES IDX 69 76 65 77 66 78 68 79 70 80 67 81 51 82 52 83 57 84 53 85
REMARK SMILES IDX 54 86 56 87 58 88 55 89
REMARK H PARENT 75 51 49 62
REMARK Flexibility Score: inf
ROOT
ATOM      1  C   UNL A   1      33.457  31.689  27.626  1.00  0.00     0.188 C 
ENDROOT
BRANCH   1   2
ATOM      2  C   UNL A   1      32.272  31.094  26.839  1.00  0.00     0.188 C 
BRANCH   2   3
ATOM      3  O   UNL A   1      31.910  29.748  27.041  1.00  0.00    -0.376 OA
BRANCH   3   4
ATOM      4  C   UNL A   1      32.245  28.740  26.102  1.00  0.00     0.202 C 
BRANCH   4   5
ATOM      5  C   UNL A   1      33.556  27.936  26.097  1.00  0.00     0.261 C 
BRANCH   5   6
ATOM      6  O   UNL A   1      33.437  26.514  26.009  1.00  0.00    -0.460 OA
BRANCH   6   7
ATOM      7  C   UNL A   1      33.447  26.016  24.749  1.00  0.00     0.338 C 
ATOM      8  O   UNL A   1      33.761  26.609  23.731  1.00  0.00    -0.246 OA
BRANCH   7   9
ATOM      9  C   UNL A   1      33.180  24.565  24.790  1.00  0.00     0.087 C 
ATOM     10  C   UNL A   1      33.669  19.535  24.574  1.00  0.00    -0.020 A 
ATOM     11  C   UNL A   1      32.588  20.451  24.578  1.00  0.00     0.053 A 
ATOM     12  C   UNL A   1      34.948  20.089  24.824  1.00  0.00     0.045 A 
ATOM     13  C   UNL A   1      32.768  21.831  24.738  1.00  0.00     0.128 A 
ATOM     14  C   UNL A   1      35.122  21.471  25.001  1.00  0.00     0.032 A 
ATOM     15  Cl  UNL A   1      36.418  19.179  24.891  1.00  0.00    -0.084 Cl
ATOM     16  C   UNL A   1      34.042  22.345  24.921  1.00  0.00     0.019 A 
ATOM     17  O   UNL A   1      31.641  22.602  24.676  1.00  0.00    -0.475 OA
ATOM     18  C   UNL A   1      34.251  23.779  24.952  1.00  0.00     0.027 C 
ATOM     19  C   UNL A   1      31.772  24.053  24.655  1.00  0.00     0.316 C 
BRANCH  10  20
ATOM     20  C   UNL A   1      33.417  18.043  24.233  1.00  0.00    -0.012 C 
ATOM     21  C   UNL A   1      32.747  17.936  22.844  1.00  0.00     0.016 C 
ATOM     22  C   UNL A   1      32.446  17.335  25.220  1.00  0.00     0.016 C 
ATOM     23  C   UNL A   1      34.712  17.202  24.269  1.00  0.00     0.016 C 
ENDBRANCH  10  20
BRANCH  19  24
ATOM     24  C   UNL A   1      31.083  24.588  23.392  1.00  0.00     0.430 C 
ATOM     25  F   UNL A   1      31.930  24.608  22.337  1.00  0.00    -0.167 F 
ATOM     26  F   UNL A   1      30.031  23.814  23.031  1.00  0.00    -0.167 F 
ATOM     27  F   UNL A   1      30.617  25.846  23.566  1.00  0.00    -0.167 F 
ENDBRANCH  19  24
ENDBRANCH   7   9
ENDBRANCH   6   7
ENDBRANCH   5   6
ENDBRANCH   4   5
ENDBRANCH   3   4
ENDBRANCH   2   3
ENDBRANCH   1   2
BRANCH   1  28
ATOM     28  O   UNL A   1      33.444  33.039  28.038  1.00  0.00    -0.376 OA
BRANCH  28  29
ATOM     29  C   UNL A   1      34.387  33.491  28.999  1.00  0.00     0.202 C 
BRANCH  29  30
ATOM     30  C   UNL A   1      34.945  32.588  30.112  1.00  0.00     0.261 C 
BRANCH  30  31
ATOM     31  O   UNL A   1      36.040  31.740  29.746  1.00  0.00    -0.460 OA
BRANCH  31  32
ATOM     32  C   UNL A   1      36.462  30.882  30.716  1.00  0.00     0.338 C 
ATOM     33  O   UNL A   1      35.854  30.519  31.698  1.00  0.00    -0.246 OA
BRANCH  32  34
ATOM     34  C   UNL A   1      37.737  30.275  30.276  1.00  0.00     0.060 A 
ATOM     35  C   UNL A   1      38.075  30.233  28.925  1.00  0.00     0.016 A 
ATOM     36  C   UNL A   1      38.595  29.736  31.245  1.00  0.00     0.016 A 
ATOM     37  C   UNL A   1      39.291  29.660  28.542  1.00  0.00     0.010 A 
ATOM     38  C   UNL A   1      39.801  29.146  30.858  1.00  0.00     0.010 A 
ATOM     39  C   UNL A   1      40.165  29.123  29.505  1.00  0.00    -0.014 A 
BRANCH  39  40
ATOM     40  C   UNL A   1      41.520  28.673  29.104  1.00  0.00     0.031 A 
ATOM     41  C   UNL A   1      41.792  27.264  28.671  1.00  0.00     0.074 A 
ATOM     42  C   UNL A   1      42.521  29.571  29.145  1.00  0.00     0.049 A 
ATOM     43  N   UNL A   1      42.908  26.745  28.223  1.00  0.00    -0.248 NA
ATOM     44  C   UNL A   1      40.674  26.316  28.755  1.00  0.00     0.031 C 
ATOM     45  C   UNL A   1      42.383  30.962  29.578  1.00  0.00     0.029 A 
ATOM     46  N   UNL A   1      43.846  29.452  28.815  1.00  0.00    -0.354 N 
ATOM     47  C   UNL A   1      42.624  25.415  27.944  1.00  0.00     0.074 A 
ATOM     48  C   UNL A   1      41.242  25.196  28.324  1.00  0.00     0.031 C 
ATOM     49  C   UNL A   1      43.572  31.575  29.466  1.00  0.00     0.029 A 
ATOM     50  C   UNL A   1      44.557  30.615  28.980  1.00  0.00     0.049 A 
ATOM     51  H   UNL A   1      44.249  28.615  28.490  1.00  0.00     0.167 HD
ATOM     52  C   UNL A   1      43.436  24.473  27.402  1.00  0.00     0.037 A 
ATOM     53  C   UNL A   1      45.860  30.878  28.764  1.00  0.00     0.037 A 
ATOM     54  C   UNL A   1      44.821  24.688  27.056  1.00  0.00     0.049 A 
ATOM     55  C   UNL A   1      46.754  29.791  28.235  1.00  0.00     0.074 A 
ATOM     56  C   UNL A   1      45.713  23.803  26.474  1.00  0.00     0.029 A 
ATOM     57  N   UNL A   1      45.521  25.864  27.279  1.00  0.00    -0.354 N 
ATOM     58  N   UNL A   1      46.451  28.564  27.891  1.00  0.00    -0.248 NA
ATOM     59  C   UNL A   1      48.172  30.134  28.059  1.00  0.00     0.031 C 
ATOM     60  C   UNL A   1      46.965  24.423  26.399  1.00  0.00     0.029 A 
ATOM     61  C   UNL A   1      46.842  25.715  26.879  1.00  0.00     0.049 A 
ATOM     62  H   UNL A   1      45.138  26.685  27.666  1.00  0.00     0.167 HD
ATOM     63  C   UNL A   1      47.633  27.997  27.430  1.00  0.00     0.074 A 
ATOM     64  C   UNL A   1      48.652  29.022  27.521  1.00  0.00     0.031 C 
ATOM     65  C   UNL A   1      47.852  26.740  26.973  1.00  0.00     0.037 A 
BRANCH  52  66
ATOM     66  C   UNL A   1      42.848  23.113  27.153  1.00  0.00     0.057 A 
ATOM     67  C   UNL A   1      42.416  22.738  25.874  1.00  0.00     0.134 A 
ATOM     68  C   UNL A   1      42.665  22.190  28.191  1.00  0.00     0.134 A 
ATOM     69  F   UNL A   1      42.547  23.577  24.836  1.00  0.00    -0.206 F 
ATOM     70  C   UNL A   1      41.825  21.494  25.639  1.00  0.00     0.040 A 
ATOM     71  C   UNL A   1      42.100  20.934  27.963  1.00  0.00     0.040 A 
ATOM     72  F   UNL A   1      43.058  22.484  29.440  1.00  0.00    -0.206 F 
ATOM     73  C   UNL A   1      41.673  20.585  26.683  1.00  0.00     0.006 A 
ENDBRANCH  52  66
BRANCH  53  74
ATOM     74  C   UNL A   1      46.401  32.232  29.037  1.00  0.00     0.057 A 
ATOM     75  C   UNL A   1      46.439  33.216  28.043  1.00  0.00     0.134 A 
ATOM     76  C   UNL A   1      46.863  32.583  30.311  1.00  0.00     0.134 A 
ATOM     77  F   UNL A   1      46.019  32.940  26.799  1.00  0.00    -0.206 F 
ATOM     78  C   UNL A   1      46.913  34.501  28.305  1.00  0.00     0.040 A 
ATOM     79  C   UNL A   1      47.313  33.873  30.595  1.00  0.00     0.040 A 
ATOM     80  F   UNL A   1      46.837  31.686  31.309  1.00  0.00    -0.206 F 
ATOM     81  C   UNL A   1      47.341  34.836  29.588  1.00  0.00     0.006 A 
ENDBRANCH  53  74
BRANCH  65  82
ATOM     82  C   UNL A   1      49.242  26.415  26.504  1.00  0.00     0.057 A 
ATOM     83  C   UNL A   1      49.656  26.753  25.208  1.00  0.00     0.134 A 
ATOM     84  C   UNL A   1      50.169  25.757  27.324  1.00  0.00     0.134 A 
ATOM     85  F   UNL A   1      48.820  27.379  24.367  1.00  0.00    -0.206 F 
ATOM     86  C   UNL A   1      50.938  26.447  24.746  1.00  0.00     0.040 A 
ATOM     87  C   UNL A   1      51.464  25.474  26.884  1.00  0.00     0.040 A 
ATOM     88  F   UNL A   1      49.845  25.423  28.582  1.00  0.00    -0.206 F 
ATOM     89  C   UNL A   1      51.848  25.813  25.589  1.00  0.00     0.006 A 
ENDBRANCH  65  82
ENDBRANCH  39  40
ENDBRANCH  32  34
ENDBRANCH  31  32
ENDBRANCH  30  31
ENDBRANCH  29  30
ENDBRANCH  28  29
ENDBRANCH   1  28
TORSDOF 19
ENDMDL
