MODEL 1
REMARK VINA RESULT:     -10.7      0.000      0.000
REMARK SMILES [NH3+][C@@]1(C(=O)OCCOCCOCCOC(=O)c2ccc(-c3c4nc(c(-c5c(F)cccc5F)c5ccc([nH]5)c(-c5c(F)cccc5F)c5nc(c(-c6c(F)cccc6F)c6ccc3[nH]6)C=C5)C=C4)cc2)CCC[C@@H](Oc2ccccc2[N+](=O)[O-])C1
REMARK SMILES IDX 9 1 8 2 7 3 6 4 5 5 3 6 4 7 2 8 71 9 85 10 72 11 74 12 73 13
REMARK SMILES IDX 1 14 75 18 76 19 77 20 81 21 78 22 80 23 79 24 82 25 83 26
REMARK SMILES IDX 84 27 10 28 11 29 12 30 13 31 14 32 15 33 16 34 17 35 18 36
REMARK SMILES IDX 70 37 19 38 69 39 20 40 21 41 22 42 63 43 23 44 68 45 62 46
REMARK SMILES IDX 64 47 24 48 67 49 61 50 60 51 25 53 51 54 34 55 50 56 35 57
REMARK SMILES IDX 38 58 49 59 65 60 36 61 37 62 48 64 66 65 39 66 26 67 27 68
REMARK SMILES IDX 32 69 28 70 29 71 31 72 33 73 30 74 52 75 53 76 58 77 54 78
REMARK SMILES IDX 55 79 57 80 59 81 56 82 40 83 41 84 46 85 42 86 43 87 45 88
REMARK SMILES IDX 47 89 44 90
REMARK H PARENT 1 15 1 16 1 17 64 52 38 63
REMARK Flexibility Score: inf
ROOT
ATOM      1  C   UNL A   1      41.702  20.982  26.439  1.00  0.00     0.188 C 
ENDROOT
BRANCH   1   2
ATOM      2  O   UNL A   1      40.371  20.995  26.937  1.00  0.00    -0.376 OA
BRANCH   2   3
ATOM      3  C   UNL A   1      39.560  22.141  26.757  1.00  0.00     0.202 C 
BRANCH   3   4
ATOM      4  C   UNL A   1      38.581  22.134  25.581  1.00  0.00     0.261 C 
BRANCH   4   5
ATOM      5  O   UNL A   1      37.198  22.099  25.950  1.00  0.00    -0.459 OA
BRANCH   5   6
ATOM      6  C   UNL A   1      36.409  21.102  25.435  1.00  0.00     0.368 C 
ATOM      7  O   UNL A   1      36.819  20.038  24.995  1.00  0.00    -0.245 OA
BRANCH   6   8
ATOM      8  C   UNL A   1      34.902  21.524  25.500  1.00  0.00     0.196 C 
ATOM      9  C   UNL A   1      33.979  20.671  24.613  1.00  0.00     0.081 C 
ATOM     10  C   UNL A   1      34.836  22.986  25.026  1.00  0.00     0.126 C 
ATOM     11  C   UNL A   1      32.527  21.171  24.648  1.00  0.00     0.011 C 
ATOM     12  C   UNL A   1      33.430  23.592  24.930  1.00  0.00     0.180 C 
ATOM     13  C   UNL A   1      32.393  22.651  24.287  1.00  0.00     0.046 C 
BRANCH   8  14
ATOM     14  N   UNL A   1      34.421  21.383  26.888  1.00  0.00    -0.343 N 
ATOM     15  H   UNL A   1      33.770  22.138  27.102  1.00  0.00     0.345 HD
ATOM     16  H   UNL A   1      35.214  21.426  27.529  1.00  0.00     0.345 HD
ATOM     17  H   UNL A   1      33.947  20.485  26.994  1.00  0.00     0.345 HD
ENDBRANCH   8  14
BRANCH  12  18
ATOM     18  O   UNL A   1      32.991  24.366  26.072  1.00  0.00    -0.483 OA
BRANCH  18  19
ATOM     19  C   UNL A   1      32.802  25.707  25.930  1.00  0.00     0.197 A 
ATOM     20  C   UNL A   1      33.913  26.544  26.065  1.00  0.00     0.054 A 
ATOM     21  C   UNL A   1      31.544  26.298  25.732  1.00  0.00     0.310 A 
ATOM     22  C   UNL A   1      33.797  27.923  25.865  1.00  0.00     0.004 A 
ATOM     23  C   UNL A   1      31.424  27.684  25.516  1.00  0.00     0.090 A 
ATOM     24  C   UNL A   1      32.559  28.490  25.562  1.00  0.00     0.007 A 
BRANCH  21  25
ATOM     25  N   UNL A   1      30.336  25.490  25.600  1.00  0.00     0.066 N 
ATOM     26  O   UNL A   1      29.994  25.160  24.450  1.00  0.00    -0.258 OA
ATOM     27  O   UNL A   1      29.707  25.198  26.626  1.00  0.00    -0.258 OA
ENDBRANCH  21  25
ENDBRANCH  18  19
ENDBRANCH  12  18
ENDBRANCH   6   8
ENDBRANCH   5   6
ENDBRANCH   4   5
ENDBRANCH   3   4
ENDBRANCH   2   3
ENDBRANCH   1   2
BRANCH   1  28
ATOM     28  C   UNL A   1      42.348  19.677  25.933  1.00  0.00     0.188 C 
BRANCH  28  29
ATOM     29  O   UNL A   1      43.405  19.884  25.014  1.00  0.00    -0.376 OA
BRANCH  29  30
ATOM     30  C   UNL A   1      44.274  20.955  25.336  1.00  0.00     0.202 C 
BRANCH  30  31
ATOM     31  C   UNL A   1      44.322  22.049  24.261  1.00  0.00     0.261 C 
BRANCH  31  32
ATOM     32  O   UNL A   1      43.722  23.318  24.610  1.00  0.00    -0.460 OA
BRANCH  32  33
ATOM     33  C   UNL A   1      44.526  24.317  25.037  1.00  0.00     0.338 C 
ATOM     34  O   UNL A   1      45.616  24.614  24.575  1.00  0.00    -0.246 OA
BRANCH  33  35
ATOM     35  C   UNL A   1      43.782  25.153  26.025  1.00  0.00     0.060 A 
ATOM     36  C   UNL A   1      44.114  26.510  26.149  1.00  0.00     0.016 A 
ATOM     37  C   UNL A   1      42.755  24.623  26.812  1.00  0.00     0.016 A 
ATOM     38  C   UNL A   1      43.445  27.326  27.074  1.00  0.00     0.010 A 
ATOM     39  C   UNL A   1      42.099  25.439  27.752  1.00  0.00     0.010 A 
ATOM     40  C   UNL A   1      42.455  26.793  27.912  1.00  0.00    -0.014 A 
BRANCH  40  41
ATOM     41  C   UNL A   1      41.911  27.603  29.044  1.00  0.00     0.031 A 
ATOM     42  C   UNL A   1      42.602  27.551  30.386  1.00  0.00     0.074 A 
ATOM     43  C   UNL A   1      40.842  28.411  28.898  1.00  0.00     0.049 A 
ATOM     44  N   UNL A   1      42.306  28.167  31.504  1.00  0.00    -0.248 NA
ATOM     45  C   UNL A   1      43.788  26.686  30.472  1.00  0.00     0.031 C 
ATOM     46  C   UNL A   1      40.082  28.599  27.666  1.00  0.00     0.029 A 
ATOM     47  N   UNL A   1      40.207  29.226  29.810  1.00  0.00    -0.354 N 
ATOM     48  C   UNL A   1      43.266  27.765  32.426  1.00  0.00     0.074 A 
ATOM     49  C   UNL A   1      44.132  26.827  31.744  1.00  0.00     0.031 C 
ATOM     50  C   UNL A   1      39.081  29.469  27.898  1.00  0.00     0.029 A 
ATOM     51  C   UNL A   1      39.109  29.877  29.302  1.00  0.00     0.049 A 
ATOM     52  H   UNL A   1      40.513  29.331  30.740  1.00  0.00     0.167 HD
ATOM     53  C   UNL A   1      43.425  28.145  33.718  1.00  0.00     0.037 A 
ATOM     54  C   UNL A   1      38.216  30.695  29.900  1.00  0.00     0.037 A 
ATOM     55  C   UNL A   1      42.567  29.068  34.417  1.00  0.00     0.049 A 
ATOM     56  C   UNL A   1      38.368  31.043  31.362  1.00  0.00     0.074 A 
ATOM     57  C   UNL A   1      42.669  29.519  35.724  1.00  0.00     0.029 A 
ATOM     58  N   UNL A   1      41.442  29.671  33.877  1.00  0.00    -0.354 N 
ATOM     59  N   UNL A   1      39.301  30.683  32.210  1.00  0.00    -0.248 NA
ATOM     60  C   UNL A   1      37.341  31.922  31.944  1.00  0.00     0.031 C 
ATOM     61  C   UNL A   1      41.573  30.347  35.991  1.00  0.00     0.029 A 
ATOM     62  C   UNL A   1      40.826  30.467  34.833  1.00  0.00     0.049 A 
ATOM     63  H   UNL A   1      41.128  29.553  32.952  1.00  0.00     0.167 HD
ATOM     64  C   UNL A   1      38.989  31.312  33.413  1.00  0.00     0.074 A 
ATOM     65  C   UNL A   1      37.796  32.095  33.177  1.00  0.00     0.031 C 
ATOM     66  C   UNL A   1      39.634  31.245  34.603  1.00  0.00     0.037 A 
BRANCH  53  67
ATOM     67  C   UNL A   1      44.567  27.531  34.480  1.00  0.00     0.057 A 
ATOM     68  C   UNL A   1      45.818  28.154  34.574  1.00  0.00     0.134 A 
ATOM     69  C   UNL A   1      44.399  26.316  35.159  1.00  0.00     0.134 A 
ATOM     70  F   UNL A   1      46.050  29.312  33.939  1.00  0.00    -0.206 F 
ATOM     71  C   UNL A   1      46.870  27.578  35.290  1.00  0.00     0.040 A 
ATOM     72  C   UNL A   1      45.434  25.746  35.903  1.00  0.00     0.040 A 
ATOM     73  F   UNL A   1      43.226  25.669  35.120  1.00  0.00    -0.206 F 
ATOM     74  C   UNL A   1      46.676  26.375  35.964  1.00  0.00     0.006 A 
ENDBRANCH  53  67
BRANCH  54  75
ATOM     75  C   UNL A   1      37.068  31.245  29.128  1.00  0.00     0.057 A 
ATOM     76  C   UNL A   1      37.062  32.570  28.674  1.00  0.00     0.134 A 
ATOM     77  C   UNL A   1      35.926  30.475  28.876  1.00  0.00     0.134 A 
ATOM     78  F   UNL A   1      38.111  33.372  28.914  1.00  0.00    -0.206 F 
ATOM     79  C   UNL A   1      35.957  33.114  28.015  1.00  0.00     0.040 A 
ATOM     80  C   UNL A   1      34.827  30.997  28.192  1.00  0.00     0.040 A 
ATOM     81  F   UNL A   1      35.862  29.203  29.295  1.00  0.00    -0.206 F 
ATOM     82  C   UNL A   1      34.837  32.324  27.767  1.00  0.00     0.006 A 
ENDBRANCH  54  75
BRANCH  66  83
ATOM     83  C   UNL A   1      39.086  32.071  35.737  1.00  0.00     0.057 A 
ATOM     84  C   UNL A   1      38.205  31.540  36.690  1.00  0.00     0.134 A 
ATOM     85  C   UNL A   1      39.445  33.419  35.879  1.00  0.00     0.134 A 
ATOM     86  F   UNL A   1      37.811  30.260  36.613  1.00  0.00    -0.206 F 
ATOM     87  C   UNL A   1      37.670  32.327  37.713  1.00  0.00     0.040 A 
ATOM     88  C   UNL A   1      38.943  34.207  36.918  1.00  0.00     0.040 A 
ATOM     89  F   UNL A   1      40.294  33.993  35.015  1.00  0.00    -0.206 F 
ATOM     90  C   UNL A   1      38.041  33.664  37.830  1.00  0.00     0.006 A 
ENDBRANCH  66  83
ENDBRANCH  40  41
ENDBRANCH  33  35
ENDBRANCH  32  33
ENDBRANCH  31  32
ENDBRANCH  30  31
ENDBRANCH  29  30
ENDBRANCH  28  29
ENDBRANCH   1  28
TORSDOF 21
ENDMDL
MODEL 2
REMARK VINA RESULT:     -10.4      1.546      2.176
REMARK SMILES [NH3+][C@@]1(C(=O)OCCOCCOCCOC(=O)c2ccc(-c3c4nc(c(-c5c(F)cccc5F)c5ccc([nH]5)c(-c5c(F)cccc5F)c5nc(c(-c6c(F)cccc6F)c6ccc3[nH]6)C=C5)C=C4)cc2)CCC[C@@H](Oc2ccccc2[N+](=O)[O-])C1
REMARK SMILES IDX 9 1 8 2 7 3 6 4 5 5 3 6 4 7 2 8 71 9 85 10 72 11 74 12 73 13
REMARK SMILES IDX 1 14 75 18 76 19 77 20 81 21 78 22 80 23 79 24 82 25 83 26
REMARK SMILES IDX 84 27 10 28 11 29 12 30 13 31 14 32 15 33 16 34 17 35 18 36
REMARK SMILES IDX 70 37 19 38 69 39 20 40 21 41 22 42 63 43 23 44 68 45 62 46
REMARK SMILES IDX 64 47 24 48 67 49 61 50 60 51 25 53 51 54 34 55 50 56 35 57
REMARK SMILES IDX 38 58 49 59 65 60 36 61 37 62 48 64 66 65 39 66 26 67 27 68
REMARK SMILES IDX 32 69 28 70 29 71 31 72 33 73 30 74 52 75 53 76 58 77 54 78
REMARK SMILES IDX 55 79 57 80 59 81 56 82 40 83 41 84 46 85 42 86 43 87 45 88
REMARK SMILES IDX 47 89 44 90
REMARK H PARENT 1 15 1 16 1 17 64 52 38 63
REMARK Flexibility Score: inf
ROOT
ATOM      1  C   UNL A   1      39.904  21.259  25.972  1.00  0.00     0.188 C 
ENDROOT
BRANCH   1   2
ATOM      2  O   UNL A   1      38.495  21.253  26.166  1.00  0.00    -0.376 OA
BRANCH   2   3
ATOM      3  C   UNL A   1      37.638  21.703  25.134  1.00  0.00     0.202 C 
BRANCH   3   4
ATOM      4  C   UNL A   1      36.224  22.137  25.530  1.00  0.00     0.261 C 
BRANCH   4   5
ATOM      5  O   UNL A   1      35.867  23.463  25.126  1.00  0.00    -0.459 OA
BRANCH   5   6
ATOM      6  C   UNL A   1      35.122  23.620  23.985  1.00  0.00     0.368 C 
ATOM      7  O   UNL A   1      35.559  23.556  22.845  1.00  0.00    -0.245 OA
BRANCH   6   8
ATOM      8  C   UNL A   1      33.624  23.885  24.358  1.00  0.00     0.196 C 
ATOM      9  C   UNL A   1      32.708  22.665  24.154  1.00  0.00     0.081 C 
ATOM     10  C   UNL A   1      33.141  25.027  23.445  1.00  0.00     0.126 C 
ATOM     11  C   UNL A   1      31.238  22.996  24.455  1.00  0.00     0.011 C 
ATOM     12  C   UNL A   1      31.661  25.406  23.580  1.00  0.00     0.180 C 
ATOM     13  C   UNL A   1      30.716  24.192  23.658  1.00  0.00     0.046 C 
BRANCH   8  14
ATOM     14  N   UNL A   1      33.539  24.258  25.782  1.00  0.00    -0.343 N 
ATOM     15  H   UNL A   1      32.735  24.867  25.928  1.00  0.00     0.345 HD
ATOM     16  H   UNL A   1      34.391  24.748  26.057  1.00  0.00     0.345 HD
ATOM     17  H   UNL A   1      33.434  23.415  26.349  1.00  0.00     0.345 HD
ENDBRANCH   8  14
BRANCH  12  18
ATOM     18  O   UNL A   1      31.367  26.521  24.454  1.00  0.00    -0.483 OA
BRANCH  18  19
ATOM     19  C   UNL A   1      30.555  27.519  24.005  1.00  0.00     0.197 A 
ATOM     20  C   UNL A   1      29.285  27.169  23.536  1.00  0.00     0.054 A 
ATOM     21  C   UNL A   1      30.950  28.863  23.918  1.00  0.00     0.310 A 
ATOM     22  C   UNL A   1      28.380  28.153  23.124  1.00  0.00     0.004 A 
ATOM     23  C   UNL A   1      30.038  29.859  23.518  1.00  0.00     0.090 A 
ATOM     24  C   UNL A   1      28.745  29.499  23.143  1.00  0.00     0.007 A 
BRANCH  21  25
ATOM     25  N   UNL A   1      32.266  29.300  24.371  1.00  0.00     0.066 N 
ATOM     26  O   UNL A   1      32.319  29.945  25.433  1.00  0.00    -0.258 OA
ATOM     27  O   UNL A   1      33.251  29.031  23.668  1.00  0.00    -0.258 OA
ENDBRANCH  21  25
ENDBRANCH  18  19
ENDBRANCH  12  18
ENDBRANCH   6   8
ENDBRANCH   5   6
ENDBRANCH   4   5
ENDBRANCH   3   4
ENDBRANCH   2   3
ENDBRANCH   1   2
BRANCH   1  28
ATOM     28  C   UNL A   1      40.755  20.016  26.299  1.00  0.00     0.188 C 
BRANCH  28  29
ATOM     29  O   UNL A   1      41.992  19.977  25.612  1.00  0.00    -0.376 OA
BRANCH  29  30
ATOM     30  C   UNL A   1      43.007  20.796  26.165  1.00  0.00     0.202 C 
BRANCH  30  31
ATOM     31  C   UNL A   1      43.813  21.567  25.111  1.00  0.00     0.261 C 
BRANCH  31  32
ATOM     32  O   UNL A   1      43.281  22.851  24.709  1.00  0.00    -0.460 OA
BRANCH  32  33
ATOM     33  C   UNL A   1      44.044  23.952  24.889  1.00  0.00     0.338 C 
ATOM     34  O   UNL A   1      45.027  24.263  24.235  1.00  0.00    -0.246 OA
BRANCH  33  35
ATOM     35  C   UNL A   1      43.376  24.854  25.872  1.00  0.00     0.060 A 
ATOM     36  C   UNL A   1      43.894  26.142  26.070  1.00  0.00     0.016 A 
ATOM     37  C   UNL A   1      42.240  24.456  26.583  1.00  0.00     0.016 A 
ATOM     38  C   UNL A   1      43.301  27.016  26.993  1.00  0.00     0.010 A 
ATOM     39  C   UNL A   1      41.658  25.327  27.522  1.00  0.00     0.010 A 
ATOM     40  C   UNL A   1      42.198  26.607  27.756  1.00  0.00    -0.014 A 
BRANCH  40  41
ATOM     41  C   UNL A   1      41.715  27.450  28.892  1.00  0.00     0.031 A 
ATOM     42  C   UNL A   1      42.434  27.380  30.219  1.00  0.00     0.074 A 
ATOM     43  C   UNL A   1      40.678  28.301  28.764  1.00  0.00     0.049 A 
ATOM     44  N   UNL A   1      42.191  28.018  31.337  1.00  0.00    -0.248 NA
ATOM     45  C   UNL A   1      43.584  26.467  30.286  1.00  0.00     0.031 C 
ATOM     46  C   UNL A   1      39.898  28.509  27.547  1.00  0.00     0.029 A 
ATOM     47  N   UNL A   1      40.099  29.149  29.681  1.00  0.00    -0.354 N 
ATOM     48  C   UNL A   1      43.154  27.585  32.241  1.00  0.00     0.074 A 
ATOM     49  C   UNL A   1      43.964  26.604  31.548  1.00  0.00     0.031 C 
ATOM     50  C   UNL A   1      38.940  29.422  27.794  1.00  0.00     0.029 A 
ATOM     51  C   UNL A   1      39.017  29.842  29.193  1.00  0.00     0.049 A 
ATOM     52  H   UNL A   1      40.430  29.250  30.603  1.00  0.00     0.167 HD
ATOM     53  C   UNL A   1      43.359  27.968  33.526  1.00  0.00     0.037 A 
ATOM     54  C   UNL A   1      38.174  30.702  29.803  1.00  0.00     0.037 A 
ATOM     55  C   UNL A   1      42.558  28.933  34.235  1.00  0.00     0.049 A 
ATOM     56  C   UNL A   1      38.375  31.056  31.257  1.00  0.00     0.074 A 
ATOM     57  C   UNL A   1      42.709  29.391  35.534  1.00  0.00     0.029 A 
ATOM     58  N   UNL A   1      41.447  29.579  33.715  1.00  0.00    -0.354 N 
ATOM     59  N   UNL A   1      39.311  30.665  32.087  1.00  0.00    -0.248 NA
ATOM     60  C   UNL A   1      37.399  31.983  31.854  1.00  0.00     0.031 C 
ATOM     61  C   UNL A   1      41.655  30.267  35.818  1.00  0.00     0.029 A 
ATOM     62  C   UNL A   1      40.887  30.408  34.676  1.00  0.00     0.049 A 
ATOM     63  H   UNL A   1      41.106  29.465  32.798  1.00  0.00     0.167 HD
ATOM     64  C   UNL A   1      39.054  31.317  33.290  1.00  0.00     0.074 A 
ATOM     65  C   UNL A   1      37.889  32.148  33.075  1.00  0.00     0.031 C 
ATOM     66  C   UNL A   1      39.723  31.234  34.466  1.00  0.00     0.037 A 
BRANCH  53  67
ATOM     67  C   UNL A   1      44.492  27.314  34.267  1.00  0.00     0.057 A 
ATOM     68  C   UNL A   1      45.774  27.876  34.311  1.00  0.00     0.134 A 
ATOM     69  C   UNL A   1      44.285  26.122  34.976  1.00  0.00     0.134 A 
ATOM     70  F   UNL A   1      46.044  29.009  33.646  1.00  0.00    -0.206 F 
ATOM     71  C   UNL A   1      46.817  27.263  35.009  1.00  0.00     0.040 A 
ATOM     72  C   UNL A   1      45.312  25.517  35.702  1.00  0.00     0.040 A 
ATOM     73  F   UNL A   1      43.080  25.534  34.984  1.00  0.00    -0.206 F 
ATOM     74  C   UNL A   1      46.585  26.084  35.713  1.00  0.00     0.006 A 
ENDBRANCH  53  67
BRANCH  54  75
ATOM     75  C   UNL A   1      37.033  31.293  29.052  1.00  0.00     0.057 A 
ATOM     76  C   UNL A   1      37.061  32.621  28.606  1.00  0.00     0.134 A 
ATOM     77  C   UNL A   1      35.863  30.560  28.812  1.00  0.00     0.134 A 
ATOM     78  F   UNL A   1      38.137  33.388  28.837  1.00  0.00    -0.206 F 
ATOM     79  C   UNL A   1      35.964  33.204  27.969  1.00  0.00     0.040 A 
ATOM     80  C   UNL A   1      34.771  31.121  28.148  1.00  0.00     0.040 A 
ATOM     81  F   UNL A   1      35.766  29.288  29.223  1.00  0.00    -0.206 F 
ATOM     82  C   UNL A   1      34.816  32.450  27.732  1.00  0.00     0.006 A 
ENDBRANCH  54  75
BRANCH  66  83
ATOM     83  C   UNL A   1      39.237  32.092  35.604  1.00  0.00     0.057 A 
ATOM     84  C   UNL A   1      39.634  33.428  35.755  1.00  0.00     0.134 A 
ATOM     85  C   UNL A   1      38.357  31.575  36.565  1.00  0.00     0.134 A 
ATOM     86  F   UNL A   1      40.482  33.989  34.879  1.00  0.00    -0.206 F 
ATOM     87  C   UNL A   1      39.209  34.202  36.838  1.00  0.00     0.040 A 
ATOM     88  C   UNL A   1      37.898  32.348  37.634  1.00  0.00     0.040 A 
ATOM     89  F   UNL A   1      37.921  30.309  36.480  1.00  0.00    -0.206 F 
ATOM     90  C   UNL A   1      38.336  33.662  37.780  1.00  0.00     0.006 A 
ENDBRANCH  66  83
ENDBRANCH  40  41
ENDBRANCH  33  35
ENDBRANCH  32  33
ENDBRANCH  31  32
ENDBRANCH  30  31
ENDBRANCH  29  30
ENDBRANCH  28  29
ENDBRANCH   1  28
TORSDOF 21
ENDMDL
MODEL 3
REMARK VINA RESULT:     -10.0      4.752     10.091
REMARK SMILES [NH3+][C@@]1(C(=O)OCCOCCOCCOC(=O)c2ccc(-c3c4nc(c(-c5c(F)cccc5F)c5ccc([nH]5)c(-c5c(F)cccc5F)c5nc(c(-c6c(F)cccc6F)c6ccc3[nH]6)C=C5)C=C4)cc2)CCC[C@@H](Oc2ccccc2[N+](=O)[O-])C1
REMARK SMILES IDX 9 1 8 2 7 3 6 4 5 5 3 6 4 7 2 8 71 9 85 10 72 11 74 12 73 13
REMARK SMILES IDX 1 14 75 18 76 19 77 20 81 21 78 22 80 23 79 24 82 25 83 26
REMARK SMILES IDX 84 27 10 28 11 29 12 30 13 31 14 32 15 33 16 34 17 35 18 36
REMARK SMILES IDX 70 37 19 38 69 39 20 40 21 41 22 42 63 43 23 44 68 45 62 46
REMARK SMILES IDX 64 47 24 48 67 49 61 50 60 51 25 53 51 54 34 55 50 56 35 57
REMARK SMILES IDX 38 58 49 59 65 60 36 61 37 62 48 64 66 65 39 66 26 67 27 68
REMARK SMILES IDX 32 69 28 70 29 71 31 72 33 73 30 74 52 75 53 76 58 77 54 78
REMARK SMILES IDX 55 79 57 80 59 81 56 82 40 83 41 84 46 85 42 86 43 87 45 88
REMARK SMILES IDX 47 89 44 90
REMARK H PARENT 1 15 1 16 1 17 64 52 38 63
REMARK Flexibility Score: inf
ROOT
ATOM      1  C   UNL A   1      33.625  33.519  28.337  1.00  0.00     0.188 C 
ENDROOT
BRANCH   1   2
ATOM      2  O   UNL A   1      32.790  32.797  27.442  1.00  0.00    -0.376 OA
BRANCH   2   3
ATOM      3  C   UNL A   1      32.939  31.396  27.310  1.00  0.00     0.202 C 
BRANCH   3   4
ATOM      4  C   UNL A   1      31.893  30.650  26.478  1.00  0.00     0.261 C 
BRANCH   4   5
ATOM      5  O   UNL A   1      32.306  29.362  26.007  1.00  0.00    -0.459 OA
BRANCH   5   6
ATOM      6  C   UNL A   1      32.730  29.247  24.707  1.00  0.00     0.368 C 
ATOM      7  O   UNL A   1      33.829  29.585  24.293  1.00  0.00    -0.245 OA
BRANCH   6   8
ATOM      8  C   UNL A   1      31.599  28.611  23.831  1.00  0.00     0.196 C 
ATOM      9  C   UNL A   1      30.266  29.378  23.883  1.00  0.00     0.081 C 
ATOM     10  C   UNL A   1      31.375  27.188  24.372  1.00  0.00     0.126 C 
ATOM     11  C   UNL A   1      29.167  28.673  23.073  1.00  0.00     0.011 C 
ATOM     12  C   UNL A   1      30.242  26.394  23.708  1.00  0.00     0.180 C 
ATOM     13  C   UNL A   1      28.958  27.215  23.486  1.00  0.00     0.046 C 
BRANCH   8  14
ATOM     14  N   UNL A   1      32.033  28.592  22.421  1.00  0.00    -0.343 N 
ATOM     15  H   UNL A   1      31.806  27.689  22.006  1.00  0.00     0.345 HD
ATOM     16  H   UNL A   1      33.041  28.744  22.374  1.00  0.00     0.345 HD
ATOM     17  H   UNL A   1      31.554  29.332  21.907  1.00  0.00     0.345 HD
ENDBRANCH   8  14
BRANCH  12  18
ATOM     18  O   UNL A   1      30.634  25.493  22.645  1.00  0.00    -0.483 OA
BRANCH  18  19
ATOM     19  C   UNL A   1      31.511  24.487  22.918  1.00  0.00     0.197 A 
ATOM     20  C   UNL A   1      31.154  23.555  23.895  1.00  0.00     0.054 A 
ATOM     21  C   UNL A   1      32.780  24.380  22.326  1.00  0.00     0.310 A 
ATOM     22  C   UNL A   1      31.981  22.461  24.175  1.00  0.00     0.004 A 
ATOM     23  C   UNL A   1      33.609  23.273  22.593  1.00  0.00     0.090 A 
ATOM     24  C   UNL A   1      33.193  22.304  23.504  1.00  0.00     0.007 A 
BRANCH  21  25
ATOM     25  N   UNL A   1      33.229  25.327  21.311  1.00  0.00     0.066 N 
ATOM     26  O   UNL A   1      33.800  26.359  21.706  1.00  0.00    -0.258 OA
ATOM     27  O   UNL A   1      32.997  25.069  20.121  1.00  0.00    -0.258 OA
ENDBRANCH  21  25
ENDBRANCH  18  19
ENDBRANCH  12  18
ENDBRANCH   6   8
ENDBRANCH   5   6
ENDBRANCH   4   5
ENDBRANCH   3   4
ENDBRANCH   2   3
ENDBRANCH   1   2
BRANCH   1  28
ATOM     28  C   UNL A   1      33.194  34.889  28.896  1.00  0.00     0.188 C 
BRANCH  28  29
ATOM     29  O   UNL A   1      33.166  34.944  30.309  1.00  0.00    -0.376 OA
BRANCH  29  30
ATOM     30  C   UNL A   1      34.302  35.543  30.906  1.00  0.00     0.202 C 
BRANCH  30  31
ATOM     31  C   UNL A   1      34.708  34.897  32.237  1.00  0.00     0.261 C 
BRANCH  31  32
ATOM     32  O   UNL A   1      35.749  33.894  32.172  1.00  0.00    -0.460 OA
BRANCH  32  33
ATOM     33  C   UNL A   1      35.390  32.600  32.014  1.00  0.00     0.338 C 
ATOM     34  O   UNL A   1      34.270  32.139  32.159  1.00  0.00    -0.246 OA
BRANCH  33  35
ATOM     35  C   UNL A   1      36.532  31.848  31.416  1.00  0.00     0.060 A 
ATOM     36  C   UNL A   1      37.437  31.201  32.270  1.00  0.00     0.016 A 
ATOM     37  C   UNL A   1      36.710  31.756  30.032  1.00  0.00     0.016 A 
ATOM     38  C   UNL A   1      38.529  30.492  31.748  1.00  0.00     0.010 A 
ATOM     39  C   UNL A   1      37.817  31.061  29.511  1.00  0.00     0.010 A 
ATOM     40  C   UNL A   1      38.753  30.444  30.364  1.00  0.00    -0.014 A 
BRANCH  40  41
ATOM     41  C   UNL A   1      40.033  29.888  29.828  1.00  0.00     0.031 A 
ATOM     42  C   UNL A   1      41.250  30.779  29.754  1.00  0.00     0.074 A 
ATOM     43  C   UNL A   1      40.149  28.602  29.439  1.00  0.00     0.049 A 
ATOM     44  N   UNL A   1      42.459  30.511  29.326  1.00  0.00    -0.248 NA
ATOM     45  C   UNL A   1      41.074  32.158  30.233  1.00  0.00     0.031 C 
ATOM     46  C   UNL A   1      39.082  27.606  29.474  1.00  0.00     0.029 A 
ATOM     47  N   UNL A   1      41.230  27.917  28.930  1.00  0.00    -0.354 N 
ATOM     48  C   UNL A   1      43.188  31.685  29.481  1.00  0.00     0.074 A 
ATOM     49  C   UNL A   1      42.274  32.675  30.012  1.00  0.00     0.031 C 
ATOM     50  C   UNL A   1      39.559  26.439  29.003  1.00  0.00     0.029 A 
ATOM     51  C   UNL A   1      40.956  26.611  28.604  1.00  0.00     0.049 A 
ATOM     52  H   UNL A   1      42.117  28.326  28.811  1.00  0.00     0.167 HD
ATOM     53  C   UNL A   1      44.497  31.923  29.219  1.00  0.00     0.037 A 
ATOM     54  C   UNL A   1      41.732  25.664  28.034  1.00  0.00     0.037 A 
ATOM     55  C   UNL A   1      45.418  30.954  28.681  1.00  0.00     0.049 A 
ATOM     56  C   UNL A   1      43.167  25.974  27.678  1.00  0.00     0.074 A 
ATOM     57  C   UNL A   1      46.766  31.109  28.401  1.00  0.00     0.029 A 
ATOM     58  N   UNL A   1      45.087  29.655  28.326  1.00  0.00    -0.354 N 
ATOM     59  N   UNL A   1      43.850  27.078  27.864  1.00  0.00    -0.248 NA
ATOM     60  C   UNL A   1      43.939  24.897  27.039  1.00  0.00     0.031 C 
ATOM     61  C   UNL A   1      47.236  29.925  27.822  1.00  0.00     0.029 A 
ATOM     62  C   UNL A   1      46.199  29.009  27.803  1.00  0.00     0.049 A 
ATOM     63  H   UNL A   1      44.196  29.252  28.429  1.00  0.00     0.167 HD
ATOM     64  C   UNL A   1      45.134  26.818  27.392  1.00  0.00     0.074 A 
ATOM     65  C   UNL A   1      45.141  25.445  26.935  1.00  0.00     0.031 C 
ATOM     66  C   UNL A   1      46.209  27.643  27.343  1.00  0.00     0.037 A 
BRANCH  53  67
ATOM     67  C   UNL A   1      45.011  33.310  29.486  1.00  0.00     0.057 A 
ATOM     68  C   UNL A   1      44.946  34.325  28.523  1.00  0.00     0.134 A 
ATOM     69  C   UNL A   1      45.548  33.642  30.738  1.00  0.00     0.134 A 
ATOM     70  F   UNL A   1      44.455  34.073  27.301  1.00  0.00    -0.206 F 
ATOM     71  C   UNL A   1      45.421  35.612  28.784  1.00  0.00     0.040 A 
ATOM     72  C   UNL A   1      45.998  34.933  31.020  1.00  0.00     0.040 A 
ATOM     73  F   UNL A   1      45.634  32.722  31.709  1.00  0.00    -0.206 F 
ATOM     74  C   UNL A   1      45.942  35.921  30.039  1.00  0.00     0.006 A 
ENDBRANCH  53  67
BRANCH  54  75
ATOM     75  C   UNL A   1      41.175  24.316  27.737  1.00  0.00     0.057 A 
ATOM     76  C   UNL A   1      41.565  23.188  28.470  1.00  0.00     0.134 A 
ATOM     77  C   UNL A   1      40.283  24.116  26.676  1.00  0.00     0.134 A 
ATOM     78  F   UNL A   1      42.446  23.306  29.475  1.00  0.00    -0.206 F 
ATOM     79  C   UNL A   1      41.105  21.909  28.147  1.00  0.00     0.040 A 
ATOM     80  C   UNL A   1      39.790  22.847  26.363  1.00  0.00     0.040 A 
ATOM     81  F   UNL A   1      39.879  25.152  25.927  1.00  0.00    -0.206 F 
ATOM     82  C   UNL A   1      40.209  21.738  27.094  1.00  0.00     0.006 A 
ENDBRANCH  54  75
BRANCH  66  83
ATOM     83  C   UNL A   1      47.497  27.074  26.809  1.00  0.00     0.057 A 
ATOM     84  C   UNL A   1      48.451  26.474  27.644  1.00  0.00     0.134 A 
ATOM     85  C   UNL A   1      47.788  27.125  25.439  1.00  0.00     0.134 A 
ATOM     86  F   UNL A   1      48.244  26.398  28.968  1.00  0.00    -0.206 F 
ATOM     87  C   UNL A   1      49.661  25.988  27.143  1.00  0.00     0.040 A 
ATOM     88  C   UNL A   1      48.980  26.611  24.922  1.00  0.00     0.040 A 
ATOM     89  F   UNL A   1      46.918  27.670  24.576  1.00  0.00    -0.206 F 
ATOM     90  C   UNL A   1      49.927  26.053  25.777  1.00  0.00     0.006 A 
ENDBRANCH  66  83
ENDBRANCH  40  41
ENDBRANCH  33  35
ENDBRANCH  32  33
ENDBRANCH  31  32
ENDBRANCH  30  31
ENDBRANCH  29  30
ENDBRANCH  28  29
ENDBRANCH   1  28
TORSDOF 21
ENDMDL
