MODEL 1
REMARK VINA RESULT:      -6.9      0.000      0.000
REMARK SMILES COc1cc([C@H]2CC(c3ccc(S(C)(=O)=O)cc3)=NN2c2ccc(C(=O)OCCOCCOCCOC(=O)c3ccc(-c4c5nc(c(-c6c(F)cccc6F)c6ccc([nH]6)c(-c6c(F)cccc6F)c6nc(c(-c7c(F)cccc7F)c7ccc4[nH]7)C=C6)C=C5)cc3)cc2)cc(OC)c1OC
REMARK SMILES IDX 31 1 30 2 29 3 28 4 27 5 25 6 26 7 24 8 21 9 22 10 94 11
REMARK SMILES IDX 23 12 93 13 20 14 6 15 7 16 8 17 19 18 5 19 3 20 4 21 99 22
REMARK SMILES IDX 96 23 95 24 2 25 1 26 100 27 101 28 97 29 98 30 9 31 10 32
REMARK SMILES IDX 18 33 11 34 17 35 12 36 13 37 14 38 15 39 16 40 32 41 33 42
REMARK SMILES IDX 34 43 35 44 36 45 37 46 38 47 39 48 40 49 92 50 41 51 91 52
REMARK SMILES IDX 42 53 43 54 44 55 85 56 45 57 90 58 84 59 86 60 46 61 89 62
REMARK SMILES IDX 83 63 82 64 47 66 73 67 56 68 72 69 57 70 60 71 71 72 87 73
REMARK SMILES IDX 58 74 59 75 70 77 88 78 61 79 48 80 49 81 54 82 50 83 51 84
REMARK SMILES IDX 53 85 55 86 52 87 74 88 75 89 80 90 76 91 77 92 79 93 81 94
REMARK SMILES IDX 78 95 62 96 63 97 68 98 64 99 65 100 67 101 69 102 66 103
REMARK H PARENT 86 65 60 76
REMARK Flexibility Score: inf
ROOT
ATOM      1  C   UNL A   1      45.850  31.302  39.694  1.00  0.00     0.188 C 
ENDROOT
BRANCH   1   2
ATOM      2  O   UNL A   1      46.523  31.740  38.523  1.00  0.00    -0.376 OA
BRANCH   2   3
ATOM      3  C   UNL A   1      45.792  31.940  37.320  1.00  0.00     0.202 C 
BRANCH   3   4
ATOM      4  C   UNL A   1      45.772  33.320  36.654  1.00  0.00     0.261 C 
BRANCH   4   5
ATOM      5  O   UNL A   1      45.654  33.283  35.224  1.00  0.00    -0.460 OA
BRANCH   5   6
ATOM      6  C   UNL A   1      44.428  33.593  34.736  1.00  0.00     0.338 C 
ATOM      7  O   UNL A   1      43.672  34.461  35.146  1.00  0.00    -0.246 OA
BRANCH   6   8
ATOM      8  C   UNL A   1      44.181  32.844  33.487  1.00  0.00     0.060 A 
ATOM      9  C   UNL A   1      43.868  31.454  31.066  1.00  0.00     0.060 A 
ATOM     10  C   UNL A   1      44.968  31.199  31.896  1.00  0.00     0.029 A 
ATOM     11  C   UNL A   1      42.891  32.360  31.508  1.00  0.00     0.029 A 
ATOM     12  C   UNL A   1      45.143  31.912  33.083  1.00  0.00     0.018 A 
ATOM     13  C   UNL A   1      43.032  33.043  32.720  1.00  0.00     0.018 A 
BRANCH   9  14
ATOM     14  N   UNL A   1      43.810  30.921  29.777  1.00  0.00    -0.257 N 
ATOM     15  C   UNL A   1      43.677  31.803  28.602  1.00  0.00     0.144 C 
ATOM     16  C   UNL A   1      44.063  30.873  27.444  1.00  0.00     0.091 C 
ATOM     17  C   UNL A   1      44.462  29.637  28.205  1.00  0.00     0.071 C 
ATOM     18  N   UNL A   1      44.344  29.700  29.495  1.00  0.00    -0.176 NA
BRANCH  15  19
ATOM     19  C   UNL A   1      44.535  33.061  28.729  1.00  0.00    -0.015 A 
ATOM     20  C   UNL A   1      46.732  34.129  28.580  1.00  0.00     0.164 A 
ATOM     21  C   UNL A   1      45.933  32.974  28.664  1.00  0.00     0.056 A 
ATOM     22  C   UNL A   1      46.155  35.414  28.543  1.00  0.00     0.203 A 
ATOM     23  C   UNL A   1      44.751  35.505  28.648  1.00  0.00     0.164 A 
ATOM     24  C   UNL A   1      43.968  34.341  28.744  1.00  0.00     0.056 A 
BRANCH  20  25
ATOM     25  O   UNL A   1      48.077  33.929  28.397  1.00  0.00    -0.493 OA
ATOM     26  C   UNL A   1      48.387  33.637  27.034  1.00  0.00     0.278 C 
ENDBRANCH  20  25
BRANCH  22  27
ATOM     27  O   UNL A   1      46.827  36.593  28.389  1.00  0.00    -0.490 OA
ATOM     28  C   UNL A   1      47.156  37.412  29.496  1.00  0.00     0.278 C 
ENDBRANCH  22  27
BRANCH  23  29
ATOM     29  O   UNL A   1      43.963  36.632  28.660  1.00  0.00    -0.493 OA
ATOM     30  C   UNL A   1      42.551  36.493  28.641  1.00  0.00     0.278 C 
ENDBRANCH  23  29
ENDBRANCH  15  19
BRANCH  17  31
ATOM     31  C   UNL A   1      44.873  28.414  27.492  1.00  0.00    -0.002 A 
ATOM     32  C   UNL A   1      45.751  28.539  26.408  1.00  0.00     0.011 A 
ATOM     33  C   UNL A   1      44.446  27.152  27.915  1.00  0.00     0.011 A 
ATOM     34  C   UNL A   1      46.231  27.396  25.761  1.00  0.00     0.021 A 
ATOM     35  C   UNL A   1      44.905  26.008  27.253  1.00  0.00     0.021 A 
ATOM     36  C   UNL A   1      45.800  26.136  26.184  1.00  0.00     0.067 A 
BRANCH  36  37
ATOM     37  S   UNL A   1      46.459  24.681  25.395  1.00  0.00     0.175 S 
ATOM     38  C   UNL A   1      45.033  23.753  24.898  1.00  0.00     0.163 C 
ATOM     39  O   UNL A   1      47.149  25.134  24.203  1.00  0.00    -0.224 OA
ATOM     40  O   UNL A   1      47.153  23.910  26.409  1.00  0.00    -0.224 OA
ENDBRANCH  36  37
ENDBRANCH  17  31
ENDBRANCH   9  14
ENDBRANCH   6   8
ENDBRANCH   5   6
ENDBRANCH   4   5
ENDBRANCH   3   4
ENDBRANCH   2   3
ENDBRANCH   1   2
BRANCH   1  41
ATOM     41  C   UNL A   1      45.587  29.801  39.938  1.00  0.00     0.188 C 
BRANCH  41  42
ATOM     42  O   UNL A   1      46.301  29.179  40.977  1.00  0.00    -0.376 OA
BRANCH  42  43
ATOM     43  C   UNL A   1      46.933  27.926  40.802  1.00  0.00     0.202 C 
BRANCH  43  44
ATOM     44  C   UNL A   1      47.375  27.296  39.468  1.00  0.00     0.261 C 
BRANCH  44  45
ATOM     45  O   UNL A   1      46.675  27.663  38.281  1.00  0.00    -0.460 OA
BRANCH  45  46
ATOM     46  C   UNL A   1      46.200  26.632  37.542  1.00  0.00     0.338 C 
ATOM     47  O   UNL A   1      46.398  25.442  37.707  1.00  0.00    -0.246 OA
BRANCH  46  48
ATOM     48  C   UNL A   1      45.259  27.171  36.546  1.00  0.00     0.060 A 
ATOM     49  C   UNL A   1      45.649  28.273  35.777  1.00  0.00     0.016 A 
ATOM     50  C   UNL A   1      43.987  26.612  36.402  1.00  0.00     0.016 A 
ATOM     51  C   UNL A   1      44.751  28.840  34.872  1.00  0.00     0.010 A 
ATOM     52  C   UNL A   1      43.084  27.193  35.509  1.00  0.00     0.010 A 
ATOM     53  C   UNL A   1      43.453  28.325  34.761  1.00  0.00    -0.014 A 
BRANCH  53  54
ATOM     54  C   UNL A   1      42.427  29.062  33.984  1.00  0.00     0.031 A 
ATOM     55  C   UNL A   1      41.737  30.233  34.628  1.00  0.00     0.074 A 
ATOM     56  C   UNL A   1      42.105  28.690  32.732  1.00  0.00     0.049 A 
ATOM     57  N   UNL A   1      40.767  30.980  34.168  1.00  0.00    -0.248 NA
ATOM     58  C   UNL A   1      42.202  30.609  35.974  1.00  0.00     0.031 C 
ATOM     59  C   UNL A   1      42.716  27.587  31.993  1.00  0.00     0.029 A 
ATOM     60  N   UNL A   1      41.163  29.196  31.871  1.00  0.00    -0.354 N 
ATOM     61  C   UNL A   1      40.494  31.901  35.172  1.00  0.00     0.074 A 
ATOM     62  C   UNL A   1      41.390  31.613  36.270  1.00  0.00     0.031 C 
ATOM     63  C   UNL A   1      42.113  27.482  30.795  1.00  0.00     0.029 A 
ATOM     64  C   UNL A   1      41.058  28.490  30.696  1.00  0.00     0.049 A 
ATOM     65  H   UNL A   1      40.616  29.989  32.074  1.00  0.00     0.167 HD
ATOM     66  C   UNL A   1      39.580  32.899  35.174  1.00  0.00     0.037 A 
ATOM     67  C   UNL A   1      40.189  28.626  29.677  1.00  0.00     0.037 A 
ATOM     68  C   UNL A   1      38.698  33.193  34.077  1.00  0.00     0.049 A 
ATOM     69  C   UNL A   1      39.152  29.718  29.725  1.00  0.00     0.074 A 
ATOM     70  C   UNL A   1      37.773  34.218  33.968  1.00  0.00     0.029 A 
ATOM     71  N   UNL A   1      38.621  32.457  32.905  1.00  0.00    -0.354 N 
ATOM     72  N   UNL A   1      38.940  30.620  30.652  1.00  0.00    -0.248 NA
ATOM     73  C   UNL A   1      38.232  29.813  28.581  1.00  0.00     0.031 C 
ATOM     74  C   UNL A   1      37.100  34.071  32.751  1.00  0.00     0.029 A 
ATOM     75  C   UNL A   1      37.643  32.987  32.081  1.00  0.00     0.049 A 
ATOM     76  H   UNL A   1      39.179  31.675  32.692  1.00  0.00     0.167 HD
ATOM     77  C   UNL A   1      37.890  31.405  30.191  1.00  0.00     0.074 A 
ATOM     78  C   UNL A   1      37.514  30.882  28.895  1.00  0.00     0.031 C 
ATOM     79  C   UNL A   1      37.289  32.464  30.786  1.00  0.00     0.037 A 
BRANCH  66  80
ATOM     80  C   UNL A   1      39.466  33.738  36.411  1.00  0.00     0.057 A 
ATOM     81  C   UNL A   1      40.064  34.999  36.509  1.00  0.00     0.134 A 
ATOM     82  C   UNL A   1      38.694  33.299  37.494  1.00  0.00     0.134 A 
ATOM     83  F   UNL A   1      40.827  35.471  35.512  1.00  0.00    -0.206 F 
ATOM     84  C   UNL A   1      39.904  35.793  37.647  1.00  0.00     0.040 A 
ATOM     85  C   UNL A   1      38.509  34.093  38.626  1.00  0.00     0.040 A 
ATOM     86  F   UNL A   1      38.093  32.099  37.460  1.00  0.00    -0.206 F 
ATOM     87  C   UNL A   1      39.116  35.344  38.705  1.00  0.00     0.006 A 
ENDBRANCH  66  80
BRANCH  67  88
ATOM     88  C   UNL A   1      40.228  27.684  28.528  1.00  0.00     0.057 A 
ATOM     89  C   UNL A   1      39.612  26.429  28.592  1.00  0.00     0.134 A 
ATOM     90  C   UNL A   1      40.933  27.997  27.359  1.00  0.00     0.134 A 
ATOM     91  F   UNL A   1      38.948  26.059  29.697  1.00  0.00    -0.206 F 
ATOM     92  C   UNL A   1      39.718  25.509  27.548  1.00  0.00     0.040 A 
ATOM     93  C   UNL A   1      41.022  27.097  26.296  1.00  0.00     0.040 A 
ATOM     94  F   UNL A   1      41.548  29.182  27.235  1.00  0.00    -0.206 F 
ATOM     95  C   UNL A   1      40.423  25.844  26.393  1.00  0.00     0.006 A 
ENDBRANCH  67  88
BRANCH  79  96
ATOM     96  C   UNL A   1      36.194  33.157  30.028  1.00  0.00     0.057 A 
ATOM     97  C   UNL A   1      34.842  32.957  30.332  1.00  0.00     0.134 A 
ATOM     98  C   UNL A   1      36.502  34.074  29.014  1.00  0.00     0.134 A 
ATOM     99  F   UNL A   1      34.481  32.085  31.285  1.00  0.00    -0.206 F 
ATOM    100  C   UNL A   1      33.833  33.628  29.639  1.00  0.00     0.040 A 
ATOM    101  C   UNL A   1      35.503  34.771  28.333  1.00  0.00     0.040 A 
ATOM    102  F   UNL A   1      37.778  34.321  28.682  1.00  0.00    -0.206 F 
ATOM    103  C   UNL A   1      34.163  34.545  28.641  1.00  0.00     0.006 A 
ENDBRANCH  79  96
ENDBRANCH  53  54
ENDBRANCH  46  48
ENDBRANCH  45  46
ENDBRANCH  44  45
ENDBRANCH  43  44
ENDBRANCH  42  43
ENDBRANCH  41  42
ENDBRANCH   1  41
TORSDOF 24
ENDMDL
MODEL 2
REMARK VINA RESULT:      -6.4      7.600     13.538
REMARK SMILES COc1cc([C@H]2CC(c3ccc(S(C)(=O)=O)cc3)=NN2c2ccc(C(=O)OCCOCCOCCOC(=O)c3ccc(-c4c5nc(c(-c6c(F)cccc6F)c6ccc([nH]6)c(-c6c(F)cccc6F)c6nc(c(-c7c(F)cccc7F)c7ccc4[nH]7)C=C6)C=C5)cc3)cc2)cc(OC)c1OC
REMARK SMILES IDX 31 1 30 2 29 3 28 4 27 5 25 6 26 7 24 8 21 9 22 10 94 11
REMARK SMILES IDX 23 12 93 13 20 14 6 15 7 16 8 17 19 18 5 19 3 20 4 21 99 22
REMARK SMILES IDX 96 23 95 24 2 25 1 26 100 27 101 28 97 29 98 30 9 31 10 32
REMARK SMILES IDX 18 33 11 34 17 35 12 36 13 37 14 38 15 39 16 40 32 41 33 42
REMARK SMILES IDX 34 43 35 44 36 45 37 46 38 47 39 48 40 49 92 50 41 51 91 52
REMARK SMILES IDX 42 53 43 54 44 55 85 56 45 57 90 58 84 59 86 60 46 61 89 62
REMARK SMILES IDX 83 63 82 64 47 66 73 67 56 68 72 69 57 70 60 71 71 72 87 73
REMARK SMILES IDX 58 74 59 75 70 77 88 78 61 79 48 80 49 81 54 82 50 83 51 84
REMARK SMILES IDX 53 85 55 86 52 87 74 88 75 89 80 90 76 91 77 92 79 93 81 94
REMARK SMILES IDX 78 95 62 96 63 97 68 98 64 99 65 100 67 101 69 102 66 103
REMARK H PARENT 86 65 60 76
REMARK Flexibility Score: inf
ROOT
ATOM      1  C   UNL A   1      36.199  33.733  30.173  1.00  0.00     0.188 C 
ENDROOT
BRANCH   1   2
ATOM      2  O   UNL A   1      34.926  33.946  29.581  1.00  0.00    -0.376 OA
BRANCH   2   3
ATOM      3  C   UNL A   1      34.106  32.834  29.248  1.00  0.00     0.202 C 
BRANCH   3   4
ATOM      4  C   UNL A   1      33.538  32.695  27.831  1.00  0.00     0.261 C 
BRANCH   4   5
ATOM      5  O   UNL A   1      33.058  31.380  27.514  1.00  0.00    -0.460 OA
BRANCH   5   6
ATOM      6  C   UNL A   1      34.012  30.490  27.144  1.00  0.00     0.338 C 
ATOM      7  O   UNL A   1      35.219  30.675  27.117  1.00  0.00    -0.246 OA
BRANCH   6   8
ATOM      8  C   UNL A   1      33.403  29.159  26.938  1.00  0.00     0.060 A 
ATOM      9  C   UNL A   1      32.307  26.632  26.392  1.00  0.00     0.060 A 
ATOM     10  C   UNL A   1      33.657  26.894  26.125  1.00  0.00     0.029 A 
ATOM     11  C   UNL A   1      31.537  27.632  27.006  1.00  0.00     0.029 A 
ATOM     12  C   UNL A   1      34.196  28.159  26.364  1.00  0.00     0.018 A 
ATOM     13  C   UNL A   1      32.082  28.888  27.297  1.00  0.00     0.018 A 
BRANCH   9  14
ATOM     14  N   UNL A   1      31.707  25.454  25.939  1.00  0.00    -0.257 N 
ATOM     15  C   UNL A   1      30.425  25.493  25.211  1.00  0.00     0.144 C 
ATOM     16  C   UNL A   1      30.365  24.099  24.572  1.00  0.00     0.091 C 
ATOM     17  C   UNL A   1      31.710  23.554  24.972  1.00  0.00     0.071 C 
ATOM     18  N   UNL A   1      32.447  24.336  25.700  1.00  0.00    -0.176 NA
BRANCH  15  19
ATOM     19  C   UNL A   1      30.360  26.656  24.223  1.00  0.00    -0.015 A 
ATOM     20  C   UNL A   1      29.043  28.380  23.091  1.00  0.00     0.164 A 
ATOM     21  C   UNL A   1      29.123  27.192  23.840  1.00  0.00     0.056 A 
ATOM     22  C   UNL A   1      30.204  29.083  22.713  1.00  0.00     0.203 A 
ATOM     23  C   UNL A   1      31.451  28.525  23.064  1.00  0.00     0.164 A 
ATOM     24  C   UNL A   1      31.513  27.329  23.802  1.00  0.00     0.056 A 
BRANCH  20  25
ATOM     25  O   UNL A   1      27.785  28.882  22.876  1.00  0.00    -0.493 OA
ATOM     26  C   UNL A   1      27.547  30.061  23.645  1.00  0.00     0.278 C 
ENDBRANCH  20  25
BRANCH  22  27
ATOM     27  O   UNL A   1      30.241  30.279  22.054  1.00  0.00    -0.490 OA
ATOM     28  C   UNL A   1      29.365  30.562  20.978  1.00  0.00     0.278 C 
ENDBRANCH  22  27
BRANCH  23  29
ATOM     29  O   UNL A   1      32.712  29.003  22.793  1.00  0.00    -0.493 OA
ATOM     30  C   UNL A   1      33.801  28.095  22.731  1.00  0.00     0.278 C 
ENDBRANCH  23  29
ENDBRANCH  15  19
BRANCH  17  31
ATOM     31  C   UNL A   1      32.100  22.178  24.618  1.00  0.00    -0.002 A 
ATOM     32  C   UNL A   1      32.524  21.321  25.642  1.00  0.00     0.011 A 
ATOM     33  C   UNL A   1      31.999  21.713  23.304  1.00  0.00     0.011 A 
ATOM     34  C   UNL A   1      32.818  19.985  25.359  1.00  0.00     0.021 A 
ATOM     35  C   UNL A   1      32.318  20.381  23.014  1.00  0.00     0.021 A 
ATOM     36  C   UNL A   1      32.720  19.523  24.044  1.00  0.00     0.067 A 
BRANCH  36  37
ATOM     37  S   UNL A   1      33.041  17.805  23.699  1.00  0.00     0.175 S 
ATOM     38  C   UNL A   1      34.764  17.589  24.053  1.00  0.00     0.163 C 
ATOM     39  O   UNL A   1      32.275  17.039  24.663  1.00  0.00    -0.224 OA
ATOM     40  O   UNL A   1      32.857  17.604  22.274  1.00  0.00    -0.224 OA
ENDBRANCH  36  37
ENDBRANCH  17  31
ENDBRANCH   9  14
ENDBRANCH   6   8
ENDBRANCH   5   6
ENDBRANCH   4   5
ENDBRANCH   3   4
ENDBRANCH   2   3
ENDBRANCH   1   2
BRANCH   1  41
ATOM     41  C   UNL A   1      37.449  33.510  29.296  1.00  0.00     0.188 C 
BRANCH  41  42
ATOM     42  O   UNL A   1      37.676  32.210  28.810  1.00  0.00    -0.376 OA
BRANCH  42  43
ATOM     43  C   UNL A   1      37.990  31.135  29.674  1.00  0.00     0.202 C 
BRANCH  43  44
ATOM     44  C   UNL A   1      37.005  30.346  30.557  1.00  0.00     0.261 C 
BRANCH  44  45
ATOM     45  O   UNL A   1      37.339  29.008  30.918  1.00  0.00    -0.460 OA
BRANCH  45  46
ATOM     46  C   UNL A   1      37.783  28.840  32.186  1.00  0.00     0.338 C 
ATOM     47  O   UNL A   1      37.123  28.624  33.186  1.00  0.00    -0.246 OA
BRANCH  46  48
ATOM     48  C   UNL A   1      39.256  28.820  32.163  1.00  0.00     0.060 A 
ATOM     49  C   UNL A   1      39.905  28.100  31.155  1.00  0.00     0.016 A 
ATOM     50  C   UNL A   1      39.985  29.479  33.155  1.00  0.00     0.016 A 
ATOM     51  C   UNL A   1      41.297  28.014  31.150  1.00  0.00     0.010 A 
ATOM     52  C   UNL A   1      41.378  29.377  33.159  1.00  0.00     0.010 A 
ATOM     53  C   UNL A   1      42.038  28.622  32.172  1.00  0.00    -0.014 A 
BRANCH  53  54
ATOM     54  C   UNL A   1      43.487  28.339  32.306  1.00  0.00     0.031 A 
ATOM     55  C   UNL A   1      44.460  29.170  31.516  1.00  0.00     0.074 A 
ATOM     56  C   UNL A   1      43.931  27.353  33.105  1.00  0.00     0.049 A 
ATOM     57  N   UNL A   1      45.761  29.061  31.423  1.00  0.00    -0.248 NA
ATOM     58  C   UNL A   1      43.889  30.270  30.721  1.00  0.00     0.031 C 
ATOM     59  C   UNL A   1      43.090  26.493  33.937  1.00  0.00     0.029 A 
ATOM     60  N   UNL A   1      45.207  26.900  33.331  1.00  0.00    -0.354 N 
ATOM     61  C   UNL A   1      46.159  30.064  30.549  1.00  0.00     0.074 A 
ATOM     62  C   UNL A   1      44.966  30.763  30.127  1.00  0.00     0.031 C 
ATOM     63  C   UNL A   1      43.873  25.595  34.562  1.00  0.00     0.029 A 
ATOM     64  C   UNL A   1      45.262  25.801  34.154  1.00  0.00     0.049 A 
ATOM     65  H   UNL A   1      46.007  27.321  32.940  1.00  0.00     0.167 HD
ATOM     66  C   UNL A   1      47.412  30.374  30.137  1.00  0.00     0.037 A 
ATOM     67  C   UNL A   1      46.311  25.033  34.509  1.00  0.00     0.037 A 
ATOM     68  C   UNL A   1      48.599  29.687  30.565  1.00  0.00     0.049 A 
ATOM     69  C   UNL A   1      47.687  25.375  34.001  1.00  0.00     0.074 A 
ATOM     70  C   UNL A   1      49.917  29.964  30.242  1.00  0.00     0.029 A 
ATOM     71  N   UNL A   1      48.616  28.580  31.399  1.00  0.00    -0.354 N 
ATOM     72  N   UNL A   1      48.063  26.361  33.222  1.00  0.00    -0.248 NA
ATOM     73  C   UNL A   1      48.790  24.499  34.424  1.00  0.00     0.031 C 
ATOM     74  C   UNL A   1      50.727  28.992  30.839  1.00  0.00     0.029 A 
ATOM     75  C   UNL A   1      49.917  28.143  31.576  1.00  0.00     0.049 A 
ATOM     76  H   UNL A   1      47.819  28.167  31.805  1.00  0.00     0.167 HD
ATOM     77  C   UNL A   1      49.441  26.240  33.088  1.00  0.00     0.074 A 
ATOM     78  C   UNL A   1      49.840  25.094  33.877  1.00  0.00     0.031 C 
ATOM     79  C   UNL A   1      50.301  27.009  32.377  1.00  0.00     0.037 A 
BRANCH  66  80
ATOM     80  C   UNL A   1      47.564  31.495  29.153  1.00  0.00     0.057 A 
ATOM     81  C   UNL A   1      47.785  32.815  29.561  1.00  0.00     0.134 A 
ATOM     82  C   UNL A   1      47.551  31.233  27.777  1.00  0.00     0.134 A 
ATOM     83  F   UNL A   1      47.796  33.133  30.864  1.00  0.00    -0.206 F 
ATOM     84  C   UNL A   1      47.981  33.839  28.633  1.00  0.00     0.040 A 
ATOM     85  C   UNL A   1      47.768  32.245  26.841  1.00  0.00     0.040 A 
ATOM     86  F   UNL A   1      47.347  29.987  27.322  1.00  0.00    -0.206 F 
ATOM     87  C   UNL A   1      47.982  33.553  27.269  1.00  0.00     0.006 A 
ENDBRANCH  66  80
BRANCH  67  88
ATOM     88  C   UNL A   1      46.107  23.838  35.368  1.00  0.00     0.057 A 
ATOM     89  C   UNL A   1      46.339  23.882  36.748  1.00  0.00     0.134 A 
ATOM     90  C   UNL A   1      45.729  22.607  34.818  1.00  0.00     0.134 A 
ATOM     91  F   UNL A   1      46.732  25.025  37.329  1.00  0.00    -0.206 F 
ATOM     92  C   UNL A   1      46.230  22.742  37.544  1.00  0.00     0.040 A 
ATOM     93  C   UNL A   1      45.589  21.465  35.607  1.00  0.00     0.040 A 
ATOM     94  F   UNL A   1      45.495  22.496  33.502  1.00  0.00    -0.206 F 
ATOM     95  C   UNL A   1      45.850  21.528  36.974  1.00  0.00     0.006 A 
ENDBRANCH  67  88
BRANCH  79  96
ATOM     96  C   UNL A   1      51.761  26.668  32.451  1.00  0.00     0.057 A 
ATOM     97  C   UNL A   1      52.375  25.832  31.511  1.00  0.00     0.134 A 
ATOM     98  C   UNL A   1      52.571  27.225  33.449  1.00  0.00     0.134 A 
ATOM     99  F   UNL A   1      51.652  25.258  30.536  1.00  0.00    -0.206 F 
ATOM    100  C   UNL A   1      53.739  25.544  31.573  1.00  0.00     0.040 A 
ATOM    101  C   UNL A   1      53.941  26.967  33.505  1.00  0.00     0.040 A 
ATOM    102  F   UNL A   1      52.048  28.044  34.374  1.00  0.00    -0.206 F 
ATOM    103  C   UNL A   1      54.528  26.119  32.569  1.00  0.00     0.006 A 
ENDBRANCH  79  96
ENDBRANCH  53  54
ENDBRANCH  46  48
ENDBRANCH  45  46
ENDBRANCH  44  45
ENDBRANCH  43  44
ENDBRANCH  42  43
ENDBRANCH  41  42
ENDBRANCH   1  41
TORSDOF 24
ENDMDL
MODEL 3
REMARK VINA RESULT:      -6.2      3.530      8.394
REMARK SMILES COc1cc([C@H]2CC(c3ccc(S(C)(=O)=O)cc3)=NN2c2ccc(C(=O)OCCOCCOCCOC(=O)c3ccc(-c4c5nc(c(-c6c(F)cccc6F)c6ccc([nH]6)c(-c6c(F)cccc6F)c6nc(c(-c7c(F)cccc7F)c7ccc4[nH]7)C=C6)C=C5)cc3)cc2)cc(OC)c1OC
REMARK SMILES IDX 31 1 30 2 29 3 28 4 27 5 25 6 26 7 24 8 21 9 22 10 94 11
REMARK SMILES IDX 23 12 93 13 20 14 6 15 7 16 8 17 19 18 5 19 3 20 4 21 99 22
REMARK SMILES IDX 96 23 95 24 2 25 1 26 100 27 101 28 97 29 98 30 9 31 10 32
REMARK SMILES IDX 18 33 11 34 17 35 12 36 13 37 14 38 15 39 16 40 32 41 33 42
REMARK SMILES IDX 34 43 35 44 36 45 37 46 38 47 39 48 40 49 92 50 41 51 91 52
REMARK SMILES IDX 42 53 43 54 44 55 85 56 45 57 90 58 84 59 86 60 46 61 89 62
REMARK SMILES IDX 83 63 82 64 47 66 73 67 56 68 72 69 57 70 60 71 71 72 87 73
REMARK SMILES IDX 58 74 59 75 70 77 88 78 61 79 48 80 49 81 54 82 50 83 51 84
REMARK SMILES IDX 53 85 55 86 52 87 74 88 75 89 80 90 76 91 77 92 79 93 81 94
REMARK SMILES IDX 78 95 62 96 63 97 68 98 64 99 65 100 67 101 69 102 66 103
REMARK H PARENT 86 65 60 76
REMARK Flexibility Score: inf
ROOT
ATOM      1  C   UNL A   1      48.750  26.720  28.064  1.00  0.00     0.188 C 
ENDROOT
BRANCH   1   2
ATOM      2  O   UNL A   1      49.199  27.402  29.225  1.00  0.00    -0.376 OA
BRANCH   2   3
ATOM      3  C   UNL A   1      48.473  28.522  29.713  1.00  0.00     0.202 C 
BRANCH   3   4
ATOM      4  C   UNL A   1      47.026  28.353  30.188  1.00  0.00     0.261 C 
BRANCH   4   5
ATOM      5  O   UNL A   1      46.063  28.259  29.127  1.00  0.00    -0.460 OA
BRANCH   5   6
ATOM      6  C   UNL A   1      46.015  29.327  28.293  1.00  0.00     0.338 C 
ATOM      7  O   UNL A   1      46.403  29.372  27.135  1.00  0.00    -0.246 OA
BRANCH   6   8
ATOM      8  C   UNL A   1      45.245  30.419  28.921  1.00  0.00     0.060 A 
ATOM      9  C   UNL A   1      43.838  32.446  30.263  1.00  0.00     0.060 A 
ATOM     10  C   UNL A   1      45.204  32.249  30.504  1.00  0.00     0.029 A 
ATOM     11  C   UNL A   1      43.209  31.660  29.284  1.00  0.00     0.029 A 
ATOM     12  C   UNL A   1      45.898  31.222  29.863  1.00  0.00     0.018 A 
ATOM     13  C   UNL A   1      43.908  30.661  28.600  1.00  0.00     0.018 A 
BRANCH   9  14
ATOM     14  N   UNL A   1      43.090  33.309  31.067  1.00  0.00    -0.257 N 
ATOM     15  C   UNL A   1      43.581  34.664  31.380  1.00  0.00     0.144 C 
ATOM     16  C   UNL A   1      42.318  35.363  31.901  1.00  0.00     0.091 C 
ATOM     17  C   UNL A   1      41.293  34.282  31.675  1.00  0.00     0.071 C 
ATOM     18  N   UNL A   1      41.740  33.169  31.183  1.00  0.00    -0.176 NA
BRANCH  15  19
ATOM     19  C   UNL A   1      44.232  35.332  30.171  1.00  0.00    -0.015 A 
ATOM     20  C   UNL A   1      46.249  35.822  28.874  1.00  0.00     0.164 A 
ATOM     21  C   UNL A   1      45.629  35.392  30.061  1.00  0.00     0.056 A 
ATOM     22  C   UNL A   1      45.489  36.193  27.747  1.00  0.00     0.203 A 
ATOM     23  C   UNL A   1      44.084  36.171  27.868  1.00  0.00     0.164 A 
ATOM     24  C   UNL A   1      43.480  35.750  29.067  1.00  0.00     0.056 A 
BRANCH  20  25
ATOM     25  O   UNL A   1      47.617  35.725  28.831  1.00  0.00    -0.493 OA
ATOM     26  C   UNL A   1      48.125  34.928  29.901  1.00  0.00     0.278 C 
ENDBRANCH  20  25
BRANCH  22  27
ATOM     27  O   UNL A   1      45.985  36.552  26.526  1.00  0.00    -0.490 OA
ATOM     28  C   UNL A   1      46.569  37.823  26.306  1.00  0.00     0.278 C 
ENDBRANCH  22  27
BRANCH  23  29
ATOM     29  O   UNL A   1      43.137  36.506  26.930  1.00  0.00    -0.493 OA
ATOM     30  C   UNL A   1      42.689  37.850  26.843  1.00  0.00     0.278 C 
ENDBRANCH  23  29
ENDBRANCH  15  19
BRANCH  17  31
ATOM     31  C   UNL A   1      39.891  34.479  32.084  1.00  0.00    -0.002 A 
ATOM     32  C   UNL A   1      38.900  34.459  31.094  1.00  0.00     0.011 A 
ATOM     33  C   UNL A   1      39.543  34.626  33.429  1.00  0.00     0.011 A 
ATOM     34  C   UNL A   1      37.552  34.554  31.451  1.00  0.00     0.021 A 
ATOM     35  C   UNL A   1      38.195  34.747  33.787  1.00  0.00     0.021 A 
ATOM     36  C   UNL A   1      37.207  34.705  32.797  1.00  0.00     0.067 A 
BRANCH  36  37
ATOM     37  S   UNL A   1      35.486  34.768  33.252  1.00  0.00     0.175 S 
ATOM     38  C   UNL A   1      34.637  33.975  31.913  1.00  0.00     0.163 C 
ATOM     39  O   UNL A   1      35.341  33.946  34.437  1.00  0.00    -0.224 OA
ATOM     40  O   UNL A   1      35.087  36.163  33.260  1.00  0.00    -0.224 OA
ENDBRANCH  36  37
ENDBRANCH  17  31
ENDBRANCH   9  14
ENDBRANCH   6   8
ENDBRANCH   5   6
ENDBRANCH   4   5
ENDBRANCH   3   4
ENDBRANCH   2   3
ENDBRANCH   1   2
BRANCH   1  41
ATOM     41  C   UNL A   1      48.630  25.181  28.050  1.00  0.00     0.188 C 
BRANCH  41  42
ATOM     42  O   UNL A   1      48.204  24.575  26.855  1.00  0.00    -0.376 OA
BRANCH  42  43
ATOM     43  C   UNL A   1      46.951  23.928  26.751  1.00  0.00     0.202 C 
BRANCH  43  44
ATOM     44  C   UNL A   1      46.240  23.502  25.452  1.00  0.00     0.261 C 
BRANCH  44  45
ATOM     45  O   UNL A   1      44.993  22.820  25.554  1.00  0.00    -0.460 OA
BRANCH  45  46
ATOM     46  C   UNL A   1      43.894  23.574  25.313  1.00  0.00     0.338 C 
ATOM     47  O   UNL A   1      43.139  23.510  24.360  1.00  0.00    -0.246 OA
BRANCH  46  48
ATOM     48  C   UNL A   1      43.654  24.433  26.485  1.00  0.00     0.060 A 
ATOM     49  C   UNL A   1      43.035  23.880  27.611  1.00  0.00     0.016 A 
ATOM     50  C   UNL A   1      44.005  25.784  26.453  1.00  0.00     0.016 A 
ATOM     51  C   UNL A   1      42.740  24.689  28.708  1.00  0.00     0.010 A 
ATOM     52  C   UNL A   1      43.693  26.596  27.546  1.00  0.00     0.010 A 
ATOM     53  C   UNL A   1      43.034  26.058  28.666  1.00  0.00    -0.014 A 
BRANCH  53  54
ATOM     54  C   UNL A   1      42.514  26.961  29.720  1.00  0.00     0.031 A 
ATOM     55  C   UNL A   1      43.178  26.953  31.069  1.00  0.00     0.074 A 
ATOM     56  C   UNL A   1      41.461  27.764  29.488  1.00  0.00     0.049 A 
ATOM     57  N   UNL A   1      42.856  27.604  32.158  1.00  0.00    -0.248 NA
ATOM     58  C   UNL A   1      44.364  26.092  31.211  1.00  0.00     0.031 C 
ATOM     59  C   UNL A   1      40.745  27.878  28.219  1.00  0.00     0.029 A 
ATOM     60  N   UNL A   1      40.800  28.627  30.328  1.00  0.00    -0.354 N 
ATOM     61  C   UNL A   1      43.786  27.219  33.114  1.00  0.00     0.074 A 
ATOM     62  C   UNL A   1      44.677  26.269  32.486  1.00  0.00     0.031 C 
ATOM     63  C   UNL A   1      39.725  28.741  28.371  1.00  0.00     0.029 A 
ATOM     64  C   UNL A   1      39.700  29.217  29.754  1.00  0.00     0.049 A 
ATOM     65  H   UNL A   1      41.086  28.805  31.253  1.00  0.00     0.167 HD
ATOM     66  C   UNL A   1      43.887  27.626  34.402  1.00  0.00     0.037 A 
ATOM     67  C   UNL A   1      38.766  30.024  30.294  1.00  0.00     0.037 A 
ATOM     68  C   UNL A   1      43.009  28.579  35.023  1.00  0.00     0.049 A 
ATOM     69  C   UNL A   1      38.879  30.425  31.742  1.00  0.00     0.074 A 
ATOM     70  C   UNL A   1      43.066  29.091  36.308  1.00  0.00     0.029 A 
ATOM     71  N   UNL A   1      41.908  29.156  34.410  1.00  0.00    -0.354 N 
ATOM     72  N   UNL A   1      39.795  30.103  32.623  1.00  0.00    -0.248 NA
ATOM     73  C   UNL A   1      37.828  31.307  32.272  1.00  0.00     0.031 C 
ATOM     74  C   UNL A   1      41.969  29.939  36.489  1.00  0.00     0.029 A 
ATOM     75  C   UNL A   1      41.259  29.994  35.301  1.00  0.00     0.049 A 
ATOM     76  H   UNL A   1      41.629  28.993  33.480  1.00  0.00     0.167 HD
ATOM     77  C   UNL A   1      39.449  30.764  33.796  1.00  0.00     0.074 A 
ATOM     78  C   UNL A   1      38.246  31.517  33.512  1.00  0.00     0.031 C 
ATOM     79  C   UNL A   1      40.071  30.750  35.000  1.00  0.00     0.037 A 
BRANCH  66  80
ATOM     80  C   UNL A   1      44.976  27.023  35.239  1.00  0.00     0.057 A 
ATOM     81  C   UNL A   1      46.170  27.703  35.504  1.00  0.00     0.134 A 
ATOM     82  C   UNL A   1      44.794  25.770  35.838  1.00  0.00     0.134 A 
ATOM     83  F   UNL A   1      46.409  28.901  34.949  1.00  0.00    -0.206 F 
ATOM     84  C   UNL A   1      47.151  27.153  36.330  1.00  0.00     0.040 A 
ATOM     85  C   UNL A   1      45.758  25.221  36.684  1.00  0.00     0.040 A 
ATOM     86  F   UNL A   1      43.670  25.070  35.626  1.00  0.00    -0.206 F 
ATOM     87  C   UNL A   1      46.942  25.913  36.931  1.00  0.00     0.006 A 
ENDBRANCH  66  80
BRANCH  67  88
ATOM     88  C   UNL A   1      37.614  30.487  29.478  1.00  0.00     0.057 A 
ATOM     89  C   UNL A   1      37.647  31.708  28.795  1.00  0.00     0.134 A 
ATOM     90  C   UNL A   1      36.430  29.743  29.410  1.00  0.00     0.134 A 
ATOM     91  F   UNL A   1      38.743  32.480  28.847  1.00  0.00    -0.206 F 
ATOM     92  C   UNL A   1      36.537  32.186  28.096  1.00  0.00     0.040 A 
ATOM     93  C   UNL A   1      35.322  30.195  28.691  1.00  0.00     0.040 A 
ATOM     94  F   UNL A   1      36.331  28.565  30.044  1.00  0.00    -0.206 F 
ATOM     95  C   UNL A   1      35.370  31.426  28.041  1.00  0.00     0.006 A 
ENDBRANCH  67  88
BRANCH  79  96
ATOM     96  C   UNL A   1      39.491  31.604  36.090  1.00  0.00     0.057 A 
ATOM     97  C   UNL A   1      38.359  31.213  36.815  1.00  0.00     0.134 A 
ATOM     98  C   UNL A   1      40.106  32.811  36.450  1.00  0.00     0.134 A 
ATOM     99  F   UNL A   1      37.718  30.074  36.513  1.00  0.00    -0.206 F 
ATOM    100  C   UNL A   1      37.845  32.002  37.845  1.00  0.00     0.040 A 
ATOM    101  C   UNL A   1      39.618  33.595  37.496  1.00  0.00     0.040 A 
ATOM    102  F   UNL A   1      41.202  33.238  35.803  1.00  0.00    -0.206 F 
ATOM    103  C   UNL A   1      38.481  33.194  38.194  1.00  0.00     0.006 A 
ENDBRANCH  79  96
ENDBRANCH  53  54
ENDBRANCH  46  48
ENDBRANCH  45  46
ENDBRANCH  44  45
ENDBRANCH  43  44
ENDBRANCH  42  43
ENDBRANCH  41  42
ENDBRANCH   1  41
TORSDOF 24
ENDMDL
