MODEL 1
REMARK VINA RESULT:      -9.9      0.000      0.000
REMARK SMILES Nc1c(C(=O)NCC(=O)OCCOCCOCCOC(=O)c2ccc(-c3c4nc(c(-c5c(F)cccc5F)c5ccc([nH]5)c(-c5c(F)cccc5F)c5nc(c(-c6c(F)cccc6F)c6ccc3[nH]6)C=C5)C=C4)cc2)cnn1-c1ccccc1
REMARK SMILES IDX 14 1 13 2 12 3 11 4 10 5 8 6 9 7 7 8 6 9 4 10 5 11 3 13 2 14
REMARK SMILES IDX 78 15 76 16 77 17 1 18 79 21 80 22 84 23 81 24 83 25 82 26
REMARK SMILES IDX 15 27 16 28 17 29 18 30 19 31 20 32 21 33 22 34 23 35 75 36
REMARK SMILES IDX 24 37 74 38 25 39 26 40 27 41 68 42 28 43 73 44 67 45 69 46
REMARK SMILES IDX 29 47 72 48 66 49 65 50 30 52 56 53 39 54 55 55 40 56 43 57
REMARK SMILES IDX 54 58 70 59 41 60 42 61 53 63 71 64 44 65 31 66 32 67 37 68
REMARK SMILES IDX 33 69 34 70 36 71 38 72 35 73 57 74 58 75 63 76 59 77 60 78
REMARK SMILES IDX 62 79 64 80 61 81 45 82 46 83 51 84 47 85 48 86 50 87 52 88
REMARK SMILES IDX 49 89
REMARK H PARENT 6 12 1 19 1 20 69 51 43 62
REMARK Flexibility Score: inf
ROOT
ATOM      1  C   UNL A   1      34.302  33.281  29.074  1.00  0.00     0.188 C 
ENDROOT
BRANCH   1   2
ATOM      2  O   UNL A   1      33.569  34.233  29.805  1.00  0.00    -0.376 OA
BRANCH   2   3
ATOM      3  C   UNL A   1      33.153  35.426  29.154  1.00  0.00     0.202 C 
BRANCH   3   4
ATOM      4  C   UNL A   1      33.433  36.826  29.745  1.00  0.00     0.261 C 
BRANCH   4   5
ATOM      5  O   UNL A   1      32.776  37.100  30.996  1.00  0.00    -0.462 OA
BRANCH   5   6
ATOM      6  C   UNL A   1      33.577  37.360  32.069  1.00  0.00     0.325 C 
ATOM      7  O   UNL A   1      33.586  38.416  32.690  1.00  0.00    -0.250 OA
BRANCH   6   8
ATOM      8  C   UNL A   1      34.294  36.105  32.587  1.00  0.00     0.239 C 
BRANCH   8   9
ATOM      9  N   UNL A   1      33.472  34.930  32.798  1.00  0.00    -0.341 N 
ATOM     10  C   UNL A   1      33.764  33.679  33.252  1.00  0.00     0.257 C 
ATOM     11  O   UNL A   1      32.811  32.909  33.393  1.00  0.00    -0.269 OA
ATOM     12  H   UNL A   1      32.523  35.060  32.571  1.00  0.00     0.164 HD
BRANCH  10  13
ATOM     13  C   UNL A   1      35.122  33.285  33.570  1.00  0.00     0.102 A 
ATOM     14  C   UNL A   1      35.813  32.291  32.889  1.00  0.00     0.140 A 
ATOM     15  N   UNL A   1      37.066  32.201  33.481  1.00  0.00    -0.217 N 
ATOM     16  C   UNL A   1      36.052  33.720  34.537  1.00  0.00     0.151 A 
ATOM     17  N   UNL A   1      37.165  32.991  34.575  1.00  0.00    -0.174 NA
BRANCH  14  18
ATOM     18  N   UNL A   1      35.386  31.486  31.885  1.00  0.00    -0.383 N 
ATOM     19  H   UNL A   1      34.856  30.681  32.090  1.00  0.00     0.158 HD
ATOM     20  H   UNL A   1      35.606  31.704  30.951  1.00  0.00     0.158 HD
ENDBRANCH  14  18
BRANCH  15  21
ATOM     21  C   UNL A   1      38.192  31.470  33.053  1.00  0.00     0.067 A 
ATOM     22  C   UNL A   1      39.145  32.105  32.251  1.00  0.00     0.028 A 
ATOM     23  C   UNL A   1      38.310  30.115  33.375  1.00  0.00     0.028 A 
ATOM     24  C   UNL A   1      40.248  31.385  31.802  1.00  0.00     0.002 A 
ATOM     25  C   UNL A   1      39.393  29.390  32.881  1.00  0.00     0.002 A 
ATOM     26  C   UNL A   1      40.365  30.028  32.107  1.00  0.00     0.000 A 
ENDBRANCH  15  21
ENDBRANCH  10  13
ENDBRANCH   8   9
ENDBRANCH   6   8
ENDBRANCH   5   6
ENDBRANCH   4   5
ENDBRANCH   3   4
ENDBRANCH   2   3
ENDBRANCH   1   2
BRANCH   1  27
ATOM     27  C   UNL A   1      33.786  32.811  27.712  1.00  0.00     0.188 C 
BRANCH  27  28
ATOM     28  O   UNL A   1      33.154  31.565  27.493  1.00  0.00    -0.376 OA
BRANCH  28  29
ATOM     29  C   UNL A   1      33.720  30.284  27.760  1.00  0.00     0.202 C 
BRANCH  29  30
ATOM     30  C   UNL A   1      35.217  29.963  27.774  1.00  0.00     0.261 C 
BRANCH  30  31
ATOM     31  O   UNL A   1      35.810  29.994  29.044  1.00  0.00    -0.460 OA
BRANCH  31  32
ATOM     32  C   UNL A   1      37.056  30.507  29.046  1.00  0.00     0.338 C 
ATOM     33  O   UNL A   1      37.412  31.617  29.411  1.00  0.00    -0.246 OA
BRANCH  32  34
ATOM     34  C   UNL A   1      37.952  29.454  28.566  1.00  0.00     0.060 A 
ATOM     35  C   UNL A   1      38.257  28.426  29.456  1.00  0.00     0.016 A 
ATOM     36  C   UNL A   1      38.629  29.636  27.349  1.00  0.00     0.016 A 
ATOM     37  C   UNL A   1      39.455  27.783  29.288  1.00  0.00     0.010 A 
ATOM     38  C   UNL A   1      39.833  29.017  27.196  1.00  0.00     0.010 A 
ATOM     39  C   UNL A   1      40.271  28.206  28.238  1.00  0.00    -0.014 A 
BRANCH  39  40
ATOM     40  C   UNL A   1      41.665  27.850  28.284  1.00  0.00     0.031 A 
ATOM     41  C   UNL A   1      41.945  26.554  27.651  1.00  0.00     0.074 A 
ATOM     42  C   UNL A   1      42.561  28.732  28.768  1.00  0.00     0.049 A 
ATOM     43  N   UNL A   1      42.357  25.470  28.217  1.00  0.00    -0.248 NA
ATOM     44  C   UNL A   1      41.531  26.387  26.248  1.00  0.00     0.031 C 
ATOM     45  C   UNL A   1      42.336  30.136  29.140  1.00  0.00     0.029 A 
ATOM     46  N   UNL A   1      43.901  28.591  28.918  1.00  0.00    -0.354 N 
ATOM     47  C   UNL A   1      42.483  24.554  27.180  1.00  0.00     0.074 A 
ATOM     48  C   UNL A   1      41.744  25.084  26.070  1.00  0.00     0.031 C 
ATOM     49  C   UNL A   1      43.528  30.765  29.241  1.00  0.00     0.029 A 
ATOM     50  C   UNL A   1      44.588  29.789  29.063  1.00  0.00     0.049 A 
ATOM     51  H   UNL A   1      44.349  27.714  28.923  1.00  0.00     0.167 HD
ATOM     52  C   UNL A   1      43.462  23.612  27.215  1.00  0.00     0.037 A 
ATOM     53  C   UNL A   1      45.928  29.946  28.934  1.00  0.00     0.037 A 
ATOM     54  C   UNL A   1      43.930  23.404  28.565  1.00  0.00     0.049 A 
ATOM     55  C   UNL A   1      46.542  28.598  29.050  1.00  0.00     0.074 A 
ATOM     56  C   UNL A   1      43.336  23.016  29.751  1.00  0.00     0.029 A 
ATOM     57  N   UNL A   1      45.135  23.964  28.912  1.00  0.00    -0.354 N 
ATOM     58  N   UNL A   1      46.567  27.900  30.153  1.00  0.00    -0.248 NA
ATOM     59  C   UNL A   1      46.717  27.828  27.826  1.00  0.00     0.031 C 
ATOM     60  C   UNL A   1      44.007  23.760  30.766  1.00  0.00     0.029 A 
ATOM     61  C   UNL A   1      45.003  24.523  30.155  1.00  0.00     0.049 A 
ATOM     62  H   UNL A   1      45.952  23.962  28.363  1.00  0.00     0.167 HD
ATOM     63  C   UNL A   1      46.334  26.591  29.752  1.00  0.00     0.074 A 
ATOM     64  C   UNL A   1      46.528  26.596  28.304  1.00  0.00     0.031 C 
ATOM     65  C   UNL A   1      45.718  25.702  30.587  1.00  0.00     0.037 A 
BRANCH  52  66
ATOM     66  C   UNL A   1      44.286  23.236  26.004  1.00  0.00     0.057 A 
ATOM     67  C   UNL A   1      44.387  21.877  25.664  1.00  0.00     0.134 A 
ATOM     68  C   UNL A   1      45.215  24.082  25.355  1.00  0.00     0.134 A 
ATOM     69  F   UNL A   1      43.561  20.970  26.205  1.00  0.00    -0.206 F 
ATOM     70  C   UNL A   1      45.399  21.385  24.833  1.00  0.00     0.040 A 
ATOM     71  C   UNL A   1      46.195  23.607  24.483  1.00  0.00     0.040 A 
ATOM     72  F   UNL A   1      45.301  25.395  25.592  1.00  0.00    -0.206 F 
ATOM     73  C   UNL A   1      46.317  22.249  24.250  1.00  0.00     0.006 A 
ENDBRANCH  52  66
BRANCH  53  74
ATOM     74  C   UNL A   1      46.663  31.104  28.374  1.00  0.00     0.057 A 
ATOM     75  C   UNL A   1      46.512  31.471  27.029  1.00  0.00     0.134 A 
ATOM     76  C   UNL A   1      47.318  32.038  29.196  1.00  0.00     0.134 A 
ATOM     77  F   UNL A   1      45.864  30.668  26.175  1.00  0.00    -0.206 F 
ATOM     78  C   UNL A   1      46.964  32.703  26.537  1.00  0.00     0.040 A 
ATOM     79  C   UNL A   1      47.784  33.267  28.716  1.00  0.00     0.040 A 
ATOM     80  F   UNL A   1      47.450  31.833  30.514  1.00  0.00    -0.206 F 
ATOM     81  C   UNL A   1      47.594  33.610  27.385  1.00  0.00     0.006 A 
ENDBRANCH  53  74
BRANCH  65  82
ATOM     82  C   UNL A   1      45.557  26.096  32.029  1.00  0.00     0.057 A 
ATOM     83  C   UNL A   1      44.404  26.700  32.553  1.00  0.00     0.134 A 
ATOM     84  C   UNL A   1      46.542  25.711  32.944  1.00  0.00     0.134 A 
ATOM     85  F   UNL A   1      43.368  27.013  31.766  1.00  0.00    -0.206 F 
ATOM     86  C   UNL A   1      44.259  26.946  33.922  1.00  0.00     0.040 A 
ATOM     87  C   UNL A   1      46.395  25.919  34.317  1.00  0.00     0.040 A 
ATOM     88  F   UNL A   1      47.647  25.076  32.520  1.00  0.00    -0.206 F 
ATOM     89  C   UNL A   1      45.254  26.547  34.810  1.00  0.00     0.006 A 
ENDBRANCH  65  82
ENDBRANCH  39  40
ENDBRANCH  32  34
ENDBRANCH  31  32
ENDBRANCH  30  31
ENDBRANCH  29  30
ENDBRANCH  28  29
ENDBRANCH  27  28
ENDBRANCH   1  27
TORSDOF 21
ENDMDL
MODEL 2
REMARK VINA RESULT:      -9.6      5.165      9.795
REMARK SMILES Nc1c(C(=O)NCC(=O)OCCOCCOCCOC(=O)c2ccc(-c3c4nc(c(-c5c(F)cccc5F)c5ccc([nH]5)c(-c5c(F)cccc5F)c5nc(c(-c6c(F)cccc6F)c6ccc3[nH]6)C=C5)C=C4)cc2)cnn1-c1ccccc1
REMARK SMILES IDX 14 1 13 2 12 3 11 4 10 5 8 6 9 7 7 8 6 9 4 10 5 11 3 13 2 14
REMARK SMILES IDX 78 15 76 16 77 17 1 18 79 21 80 22 84 23 81 24 83 25 82 26
REMARK SMILES IDX 15 27 16 28 17 29 18 30 19 31 20 32 21 33 22 34 23 35 75 36
REMARK SMILES IDX 24 37 74 38 25 39 26 40 27 41 68 42 28 43 73 44 67 45 69 46
REMARK SMILES IDX 29 47 72 48 66 49 65 50 30 52 56 53 39 54 55 55 40 56 43 57
REMARK SMILES IDX 54 58 70 59 41 60 42 61 53 63 71 64 44 65 31 66 32 67 37 68
REMARK SMILES IDX 33 69 34 70 36 71 38 72 35 73 57 74 58 75 63 76 59 77 60 78
REMARK SMILES IDX 62 79 64 80 61 81 45 82 46 83 51 84 47 85 48 86 50 87 52 88
REMARK SMILES IDX 49 89
REMARK H PARENT 6 12 1 19 1 20 69 51 43 62
REMARK Flexibility Score: inf
ROOT
ATOM      1  C   UNL A   1      38.806  23.174  26.027  1.00  0.00     0.188 C 
ENDROOT
BRANCH   1   2
ATOM      2  O   UNL A   1      37.463  23.519  26.268  1.00  0.00    -0.376 OA
BRANCH   2   3
ATOM      3  C   UNL A   1      36.524  23.397  25.209  1.00  0.00     0.202 C 
BRANCH   3   4
ATOM      4  C   UNL A   1      35.824  22.060  24.881  1.00  0.00     0.261 C 
BRANCH   4   5
ATOM      5  O   UNL A   1      35.236  21.387  26.010  1.00  0.00    -0.462 OA
BRANCH   5   6
ATOM      6  C   UNL A   1      33.878  21.454  26.128  1.00  0.00     0.325 C 
ATOM      7  O   UNL A   1      33.111  20.541  25.845  1.00  0.00    -0.250 OA
BRANCH   6   8
ATOM      8  C   UNL A   1      33.413  22.700  26.893  1.00  0.00     0.239 C 
BRANCH   8   9
ATOM      9  N   UNL A   1      32.061  22.674  27.414  1.00  0.00    -0.341 N 
ATOM     10  C   UNL A   1      30.881  23.143  26.921  1.00  0.00     0.257 C 
ATOM     11  O   UNL A   1      29.870  22.894  27.582  1.00  0.00    -0.269 OA
ATOM     12  H   UNL A   1      31.979  22.235  28.292  1.00  0.00     0.164 HD
BRANCH  10  13
ATOM     13  C   UNL A   1      30.818  23.877  25.672  1.00  0.00     0.102 A 
ATOM     14  C   UNL A   1      30.545  25.237  25.595  1.00  0.00     0.140 A 
ATOM     15  N   UNL A   1      30.567  25.570  24.246  1.00  0.00    -0.217 N 
ATOM     16  C   UNL A   1      30.990  23.504  24.324  1.00  0.00     0.151 A 
ATOM     17  N   UNL A   1      30.714  24.479  23.460  1.00  0.00    -0.174 NA
BRANCH  14  18
ATOM     18  N   UNL A   1      30.241  26.108  26.589  1.00  0.00    -0.383 N 
ATOM     19  H   UNL A   1      30.065  27.054  26.378  1.00  0.00     0.158 HD
ATOM     20  H   UNL A   1      30.196  25.796  27.521  1.00  0.00     0.158 HD
ENDBRANCH  14  18
BRANCH  15  21
ATOM     21  C   UNL A   1      30.519  26.847  23.654  1.00  0.00     0.067 A 
ATOM     22  C   UNL A   1      29.274  27.435  23.411  1.00  0.00     0.028 A 
ATOM     23  C   UNL A   1      31.702  27.479  23.258  1.00  0.00     0.028 A 
ATOM     24  C   UNL A   1      29.216  28.685  22.805  1.00  0.00     0.002 A 
ATOM     25  C   UNL A   1      31.631  28.709  22.607  1.00  0.00     0.002 A 
ATOM     26  C   UNL A   1      30.391  29.315  22.393  1.00  0.00     0.000 A 
ENDBRANCH  15  21
ENDBRANCH  10  13
ENDBRANCH   8   9
ENDBRANCH   6   8
ENDBRANCH   5   6
ENDBRANCH   4   5
ENDBRANCH   3   4
ENDBRANCH   2   3
ENDBRANCH   1   2
BRANCH   1  27
ATOM     27  C   UNL A   1      39.260  21.724  26.217  1.00  0.00     0.188 C 
BRANCH  27  28
ATOM     28  O   UNL A   1      40.610  21.309  26.185  1.00  0.00    -0.376 OA
BRANCH  28  29
ATOM     29  C   UNL A   1      41.140  20.144  26.816  1.00  0.00     0.202 C 
BRANCH  29  30
ATOM     30  C   UNL A   1      42.180  19.202  26.204  1.00  0.00     0.261 C 
BRANCH  30  31
ATOM     31  O   UNL A   1      42.712  19.634  24.981  1.00  0.00    -0.460 OA
BRANCH  31  32
ATOM     32  C   UNL A   1      44.059  19.654  24.955  1.00  0.00     0.338 C 
ATOM     33  O   UNL A   1      44.824  18.704  24.889  1.00  0.00    -0.246 OA
BRANCH  32  34
ATOM     34  C   UNL A   1      44.466  21.060  24.970  1.00  0.00     0.060 A 
ATOM     35  C   UNL A   1      45.648  21.370  25.640  1.00  0.00     0.016 A 
ATOM     36  C   UNL A   1      43.564  22.037  24.523  1.00  0.00     0.016 A 
ATOM     37  C   UNL A   1      45.765  22.633  26.157  1.00  0.00     0.010 A 
ATOM     38  C   UNL A   1      43.665  23.285  25.059  1.00  0.00     0.010 A 
ATOM     39  C   UNL A   1      44.694  23.508  25.968  1.00  0.00    -0.014 A 
BRANCH  39  40
ATOM     40  C   UNL A   1      44.610  24.663  26.822  1.00  0.00     0.031 A 
ATOM     41  C   UNL A   1      45.784  25.541  26.715  1.00  0.00     0.074 A 
ATOM     42  C   UNL A   1      43.481  24.893  27.520  1.00  0.00     0.049 A 
ATOM     43  N   UNL A   1      46.670  25.791  27.618  1.00  0.00    -0.248 NA
ATOM     44  C   UNL A   1      46.120  26.053  25.375  1.00  0.00     0.031 C 
ATOM     45  C   UNL A   1      42.198  24.183  27.422  1.00  0.00     0.029 A 
ATOM     46  N   UNL A   1      43.204  25.897  28.388  1.00  0.00    -0.354 N 
ATOM     47  C   UNL A   1      47.543  26.691  27.020  1.00  0.00     0.074 A 
ATOM     48  C   UNL A   1      47.303  26.619  25.607  1.00  0.00     0.031 C 
ATOM     49  C   UNL A   1      41.234  24.922  28.015  1.00  0.00     0.029 A 
ATOM     50  C   UNL A   1      41.849  26.082  28.632  1.00  0.00     0.049 A 
ATOM     51  H   UNL A   1      43.904  26.448  28.809  1.00  0.00     0.167 HD
ATOM     52  C   UNL A   1      48.142  27.658  27.762  1.00  0.00     0.037 A 
ATOM     53  C   UNL A   1      41.299  27.178  29.211  1.00  0.00     0.037 A 
ATOM     54  C   UNL A   1      48.148  27.306  29.162  1.00  0.00     0.049 A 
ATOM     55  C   UNL A   1      42.393  27.904  29.907  1.00  0.00     0.074 A 
ATOM     56  C   UNL A   1      48.653  26.250  29.896  1.00  0.00     0.029 A 
ATOM     57  N   UNL A   1      47.237  27.931  29.978  1.00  0.00    -0.354 N 
ATOM     58  N   UNL A   1      43.009  27.455  30.966  1.00  0.00    -0.248 NA
ATOM     59  C   UNL A   1      43.119  28.916  29.151  1.00  0.00     0.031 C 
ATOM     60  C   UNL A   1      47.704  26.030  30.938  1.00  0.00     0.029 A 
ATOM     61  C   UNL A   1      46.698  26.990  30.814  1.00  0.00     0.049 A 
ATOM     62  H   UNL A   1      47.012  28.889  29.965  1.00  0.00     0.167 HD
ATOM     63  C   UNL A   1      44.341  27.798  30.777  1.00  0.00     0.074 A 
ATOM     64  C   UNL A   1      44.332  28.775  29.692  1.00  0.00     0.031 C 
ATOM     65  C   UNL A   1      45.343  27.039  31.313  1.00  0.00     0.037 A 
BRANCH  52  66
ATOM     66  C   UNL A   1      48.296  29.085  27.284  1.00  0.00     0.057 A 
ATOM     67  C   UNL A   1      49.558  29.693  27.399  1.00  0.00     0.134 A 
ATOM     68  C   UNL A   1      47.230  29.974  27.015  1.00  0.00     0.134 A 
ATOM     69  F   UNL A   1      50.653  28.960  27.649  1.00  0.00    -0.206 F 
ATOM     70  C   UNL A   1      49.728  31.081  27.359  1.00  0.00     0.040 A 
ATOM     71  C   UNL A   1      47.399  31.356  26.921  1.00  0.00     0.040 A 
ATOM     72  F   UNL A   1      45.955  29.584  26.923  1.00  0.00    -0.206 F 
ATOM     73  C   UNL A   1      48.644  31.919  27.134  1.00  0.00     0.006 A 
ENDBRANCH  52  66
BRANCH  53  74
ATOM     74  C   UNL A   1      39.995  27.812  28.910  1.00  0.00     0.057 A 
ATOM     75  C   UNL A   1      39.010  27.940  29.899  1.00  0.00     0.134 A 
ATOM     76  C   UNL A   1      39.778  28.546  27.730  1.00  0.00     0.134 A 
ATOM     77  F   UNL A   1      39.146  27.314  31.077  1.00  0.00    -0.206 F 
ATOM     78  C   UNL A   1      37.890  28.767  29.736  1.00  0.00     0.040 A 
ATOM     79  C   UNL A   1      38.660  29.367  27.548  1.00  0.00     0.040 A 
ATOM     80  F   UNL A   1      40.689  28.565  26.745  1.00  0.00    -0.206 F 
ATOM     81  C   UNL A   1      37.718  29.491  28.560  1.00  0.00     0.006 A 
ENDBRANCH  53  74
BRANCH  65  82
ATOM     82  C   UNL A   1      44.962  26.000  32.330  1.00  0.00     0.057 A 
ATOM     83  C   UNL A   1      44.592  24.685  32.009  1.00  0.00     0.134 A 
ATOM     84  C   UNL A   1      45.125  26.298  33.687  1.00  0.00     0.134 A 
ATOM     85  F   UNL A   1      44.508  24.282  30.735  1.00  0.00    -0.206 F 
ATOM     86  C   UNL A   1      44.355  23.724  32.997  1.00  0.00     0.040 A 
ATOM     87  C   UNL A   1      44.926  25.338  34.682  1.00  0.00     0.040 A 
ATOM     88  F   UNL A   1      45.533  27.520  34.066  1.00  0.00    -0.206 F 
ATOM     89  C   UNL A   1      44.530  24.048  34.338  1.00  0.00     0.006 A 
ENDBRANCH  65  82
ENDBRANCH  39  40
ENDBRANCH  32  34
ENDBRANCH  31  32
ENDBRANCH  30  31
ENDBRANCH  29  30
ENDBRANCH  28  29
ENDBRANCH  27  28
ENDBRANCH   1  27
TORSDOF 21
ENDMDL
MODEL 3
REMARK VINA RESULT:      -9.5      5.765     10.382
REMARK SMILES Nc1c(C(=O)NCC(=O)OCCOCCOCCOC(=O)c2ccc(-c3c4nc(c(-c5c(F)cccc5F)c5ccc([nH]5)c(-c5c(F)cccc5F)c5nc(c(-c6c(F)cccc6F)c6ccc3[nH]6)C=C5)C=C4)cc2)cnn1-c1ccccc1
REMARK SMILES IDX 14 1 13 2 12 3 11 4 10 5 8 6 9 7 7 8 6 9 4 10 5 11 3 13 2 14
REMARK SMILES IDX 78 15 76 16 77 17 1 18 79 21 80 22 84 23 81 24 83 25 82 26
REMARK SMILES IDX 15 27 16 28 17 29 18 30 19 31 20 32 21 33 22 34 23 35 75 36
REMARK SMILES IDX 24 37 74 38 25 39 26 40 27 41 68 42 28 43 73 44 67 45 69 46
REMARK SMILES IDX 29 47 72 48 66 49 65 50 30 52 56 53 39 54 55 55 40 56 43 57
REMARK SMILES IDX 54 58 70 59 41 60 42 61 53 63 71 64 44 65 31 66 32 67 37 68
REMARK SMILES IDX 33 69 34 70 36 71 38 72 35 73 57 74 58 75 63 76 59 77 60 78
REMARK SMILES IDX 62 79 64 80 61 81 45 82 46 83 51 84 47 85 48 86 50 87 52 88
REMARK SMILES IDX 49 89
REMARK H PARENT 6 12 1 19 1 20 69 51 43 62
REMARK Flexibility Score: inf
ROOT
ATOM      1  C   UNL A   1      39.643  22.163  26.132  1.00  0.00     0.188 C 
ENDROOT
BRANCH   1   2
ATOM      2  O   UNL A   1      38.637  21.478  25.426  1.00  0.00    -0.376 OA
BRANCH   2   3
ATOM      3  C   UNL A   1      37.282  21.857  25.620  1.00  0.00     0.202 C 
BRANCH   3   4
ATOM      4  C   UNL A   1      36.331  22.147  24.438  1.00  0.00     0.261 C 
BRANCH   4   5
ATOM      5  O   UNL A   1      36.220  23.536  24.074  1.00  0.00    -0.462 OA
BRANCH   5   6
ATOM      6  C   UNL A   1      35.021  24.142  24.314  1.00  0.00     0.325 C 
ATOM      7  O   UNL A   1      34.222  24.469  23.444  1.00  0.00    -0.250 OA
BRANCH   6   8
ATOM      8  C   UNL A   1      34.652  24.149  25.803  1.00  0.00     0.239 C 
BRANCH   8   9
ATOM      9  N   UNL A   1      33.238  24.147  26.121  1.00  0.00    -0.341 N 
ATOM     10  C   UNL A   1      32.252  23.232  25.903  1.00  0.00     0.257 C 
ATOM     11  O   UNL A   1      31.142  23.497  26.370  1.00  0.00    -0.269 OA
ATOM     12  H   UNL A   1      32.931  24.961  26.582  1.00  0.00     0.164 HD
BRANCH  10  13
ATOM     13  C   UNL A   1      32.504  22.002  25.178  1.00  0.00     0.102 A 
ATOM     14  C   UNL A   1      32.996  20.848  25.773  1.00  0.00     0.140 A 
ATOM     15  N   UNL A   1      33.106  19.897  24.766  1.00  0.00    -0.217 N 
ATOM     16  C   UNL A   1      32.353  21.630  23.826  1.00  0.00     0.151 A 
ATOM     17  N   UNL A   1      32.831  20.419  23.548  1.00  0.00    -0.174 NA
BRANCH  14  18
ATOM     18  N   UNL A   1      33.378  20.642  27.058  1.00  0.00    -0.383 N 
ATOM     19  H   UNL A   1      34.199  20.134  27.253  1.00  0.00     0.158 HD
ATOM     20  H   UNL A   1      32.835  21.000  27.797  1.00  0.00     0.158 HD
ENDBRANCH  14  18
BRANCH  15  21
ATOM     21  C   UNL A   1      33.392  18.523  24.879  1.00  0.00     0.067 A 
ATOM     22  C   UNL A   1      32.578  17.727  25.691  1.00  0.00     0.028 A 
ATOM     23  C   UNL A   1      34.514  17.986  24.240  1.00  0.00     0.028 A 
ATOM     24  C   UNL A   1      32.867  16.373  25.829  1.00  0.00     0.002 A 
ATOM     25  C   UNL A   1      34.824  16.640  24.424  1.00  0.00     0.002 A 
ATOM     26  C   UNL A   1      33.994  15.834  25.206  1.00  0.00     0.000 A 
ENDBRANCH  15  21
ENDBRANCH  10  13
ENDBRANCH   8   9
ENDBRANCH   6   8
ENDBRANCH   5   6
ENDBRANCH   4   5
ENDBRANCH   3   4
ENDBRANCH   2   3
ENDBRANCH   1   2
BRANCH   1  27
ATOM     27  C   UNL A   1      40.449  21.427  27.206  1.00  0.00     0.188 C 
BRANCH  27  28
ATOM     28  O   UNL A   1      40.796  20.059  27.134  1.00  0.00    -0.376 OA
BRANCH  28  29
ATOM     29  C   UNL A   1      42.119  19.530  27.184  1.00  0.00     0.202 C 
BRANCH  29  30
ATOM     30  C   UNL A   1      42.938  19.076  25.972  1.00  0.00     0.261 C 
BRANCH  30  31
ATOM     31  O   UNL A   1      43.148  20.069  25.004  1.00  0.00    -0.460 OA
BRANCH  31  32
ATOM     32  C   UNL A   1      44.431  20.172  24.607  1.00  0.00     0.338 C 
ATOM     33  O   UNL A   1      45.174  19.281  24.223  1.00  0.00    -0.246 OA
BRANCH  32  34
ATOM     34  C   UNL A   1      44.784  21.591  24.667  1.00  0.00     0.060 A 
ATOM     35  C   UNL A   1      45.940  21.928  25.369  1.00  0.00     0.016 A 
ATOM     36  C   UNL A   1      43.854  22.546  24.227  1.00  0.00     0.016 A 
ATOM     37  C   UNL A   1      45.999  23.180  25.921  1.00  0.00     0.010 A 
ATOM     38  C   UNL A   1      43.897  23.782  24.797  1.00  0.00     0.010 A 
ATOM     39  C   UNL A   1      44.899  24.019  25.733  1.00  0.00    -0.014 A 
BRANCH  39  40
ATOM     40  C   UNL A   1      44.754  25.147  26.615  1.00  0.00     0.031 A 
ATOM     41  C   UNL A   1      45.865  26.103  26.508  1.00  0.00     0.074 A 
ATOM     42  C   UNL A   1      43.626  25.285  27.337  1.00  0.00     0.049 A 
ATOM     43  N   UNL A   1      46.749  26.392  27.401  1.00  0.00    -0.248 NA
ATOM     44  C   UNL A   1      46.142  26.666  25.175  1.00  0.00     0.031 C 
ATOM     45  C   UNL A   1      42.392  24.493  27.245  1.00  0.00     0.029 A 
ATOM     46  N   UNL A   1      43.299  26.249  28.233  1.00  0.00    -0.354 N 
ATOM     47  C   UNL A   1      47.549  27.362  26.810  1.00  0.00     0.074 A 
ATOM     48  C   UNL A   1      47.288  27.305  25.399  1.00  0.00     0.031 C 
ATOM     49  C   UNL A   1      41.391  25.152  27.871  1.00  0.00     0.029 A 
ATOM     50  C   UNL A   1      41.940  26.338  28.504  1.00  0.00     0.049 A 
ATOM     51  H   UNL A   1      43.968  26.836  28.654  1.00  0.00     0.167 HD
ATOM     52  C   UNL A   1      48.096  28.350  27.563  1.00  0.00     0.037 A 
ATOM     53  C   UNL A   1      41.328  27.381  29.118  1.00  0.00     0.037 A 
ATOM     54  C   UNL A   1      48.152  27.968  28.954  1.00  0.00     0.049 A 
ATOM     55  C   UNL A   1      42.385  28.163  29.812  1.00  0.00     0.074 A 
ATOM     56  C   UNL A   1      48.740  26.932  29.655  1.00  0.00     0.029 A 
ATOM     57  N   UNL A   1      47.217  28.513  29.800  1.00  0.00    -0.354 N 
ATOM     58  N   UNL A   1      43.049  27.733  30.850  1.00  0.00    -0.248 NA
ATOM     59  C   UNL A   1      43.027  29.238  29.068  1.00  0.00     0.031 C 
ATOM     60  C   UNL A   1      47.827  26.627  30.708  1.00  0.00     0.029 A 
ATOM     61  C   UNL A   1      46.758  27.519  30.624  1.00  0.00     0.049 A 
ATOM     62  H   UNL A   1      46.928  29.454  29.813  1.00  0.00     0.167 HD
ATOM     63  C   UNL A   1      44.352  28.169  30.646  1.00  0.00     0.074 A 
ATOM     64  C   UNL A   1      44.257  29.167  29.584  1.00  0.00     0.031 C 
ATOM     65  C   UNL A   1      45.411  27.467  31.147  1.00  0.00     0.037 A 
BRANCH  52  66
ATOM     66  C   UNL A   1      48.146  29.794  27.116  1.00  0.00     0.057 A 
ATOM     67  C   UNL A   1      49.362  30.487  27.237  1.00  0.00     0.134 A 
ATOM     68  C   UNL A   1      47.018  30.612  26.873  1.00  0.00     0.134 A 
ATOM     69  F   UNL A   1      50.508  29.828  27.465  1.00  0.00    -0.206 F 
ATOM     70  C   UNL A   1      49.434  31.884  27.227  1.00  0.00     0.040 A 
ATOM     71  C   UNL A   1      47.089  32.004  26.808  1.00  0.00     0.040 A 
ATOM     72  F   UNL A   1      45.773  30.134  26.780  1.00  0.00    -0.206 F 
ATOM     73  C   UNL A   1      48.292  32.648  27.026  1.00  0.00     0.006 A 
ENDBRANCH  52  66
BRANCH  53  74
ATOM     74  C   UNL A   1      39.980  27.933  28.854  1.00  0.00     0.057 A 
ATOM     75  C   UNL A   1      39.011  27.983  29.867  1.00  0.00     0.134 A 
ATOM     76  C   UNL A   1      39.690  28.666  27.690  1.00  0.00     0.134 A 
ATOM     77  F   UNL A   1      39.214  27.352  31.032  1.00  0.00    -0.206 F 
ATOM     78  C   UNL A   1      37.837  28.738  29.739  1.00  0.00     0.040 A 
ATOM     79  C   UNL A   1      38.517  29.415  27.545  1.00  0.00     0.040 A 
ATOM     80  F   UNL A   1      40.575  28.758  26.687  1.00  0.00    -0.206 F 
ATOM     81  C   UNL A   1      37.592  29.465  28.578  1.00  0.00     0.006 A 
ENDBRANCH  53  74
BRANCH  65  82
ATOM     82  C   UNL A   1      45.120  26.382  32.146  1.00  0.00     0.057 A 
ATOM     83  C   UNL A   1      44.940  26.607  33.519  1.00  0.00     0.134 A 
ATOM     84  C   UNL A   1      44.863  25.090  31.677  1.00  0.00     0.134 A 
ATOM     85  F   UNL A   1      45.068  27.832  34.042  1.00  0.00    -0.206 F 
ATOM     86  C   UNL A   1      44.561  25.581  34.390  1.00  0.00     0.040 A 
ATOM     87  C   UNL A   1      44.449  24.065  32.530  1.00  0.00     0.040 A 
ATOM     88  F   UNL A   1      44.959  24.815  30.366  1.00  0.00    -0.206 F 
ATOM     89  C   UNL A   1      44.307  24.306  33.894  1.00  0.00     0.006 A 
ENDBRANCH  65  82
ENDBRANCH  39  40
ENDBRANCH  32  34
ENDBRANCH  31  32
ENDBRANCH  30  31
ENDBRANCH  29  30
ENDBRANCH  28  29
ENDBRANCH  27  28
ENDBRANCH   1  27
TORSDOF 21
ENDMDL
