MODEL 1
REMARK VINA RESULT:     -10.2      0.000      0.000
REMARK SMILES CCC1CN(c2cccc(F)c2C(=O)OCCOCCOCCOC(=O)c2ccc(-c3c4nc(c(-c5c(F)cccc5F)c5ccc([nH]5)c(-c5c(F)cccc5F)c5nc(c(-c6c(F)cccc6F)c6ccc3[nH]6)C=C5)C=C4)cc2)C1
REMARK SMILES IDX 19 1 18 2 17 3 16 4 15 5 13 6 14 7 12 8 6 9 7 10 8 11 10 12
REMARK SMILES IDX 9 13 11 14 5 15 3 16 4 17 81 18 2 19 1 20 20 21 21 22 22 23
REMARK SMILES IDX 23 24 24 25 25 26 26 27 27 28 28 29 80 30 29 31 79 32 30 33
REMARK SMILES IDX 31 34 32 35 73 36 33 37 78 38 72 39 74 40 34 41 77 42 71 43
REMARK SMILES IDX 70 44 35 46 61 47 44 48 60 49 45 50 48 51 59 52 75 53 46 54
REMARK SMILES IDX 47 55 58 57 76 58 49 59 36 60 37 61 42 62 38 63 39 64 41 65
REMARK SMILES IDX 43 66 40 67 62 68 63 69 68 70 64 71 65 72 67 73 69 74 66 75
REMARK SMILES IDX 50 76 51 77 56 78 52 79 53 80 55 81 57 82 54 83
REMARK H PARENT 74 45 48 56
REMARK Flexibility Score: inf
ROOT
ATOM      1  C   UNL A   1      39.995  21.655  26.575  1.00  0.00     0.188 C 
ENDROOT
BRANCH   1   2
ATOM      2  O   UNL A   1      38.825  22.107  25.920  1.00  0.00    -0.376 OA
BRANCH   2   3
ATOM      3  C   UNL A   1      38.428  23.441  26.207  1.00  0.00     0.202 C 
BRANCH   3   4
ATOM      4  C   UNL A   1      36.990  23.791  25.801  1.00  0.00     0.261 C 
BRANCH   4   5
ATOM      5  O   UNL A   1      36.170  22.651  25.496  1.00  0.00    -0.460 OA
BRANCH   5   6
ATOM      6  C   UNL A   1      35.445  22.666  24.348  1.00  0.00     0.343 C 
ATOM      7  O   UNL A   1      35.892  22.762  23.226  1.00  0.00    -0.246 OA
BRANCH   6   8
ATOM      8  C   UNL A   1      34.025  22.402  24.700  1.00  0.00     0.119 A 
ATOM      9  C   UNL A   1      33.103  23.446  24.901  1.00  0.00     0.054 A 
ATOM     10  C   UNL A   1      31.780  23.114  25.255  1.00  0.00     0.027 A 
ATOM     11  C   UNL A   1      31.362  21.787  25.360  1.00  0.00     0.005 A 
ATOM     12  C   UNL A   1      33.598  21.073  24.832  1.00  0.00     0.139 A 
ATOM     13  C   UNL A   1      32.274  20.764  25.139  1.00  0.00     0.040 A 
ATOM     14  F   UNL A   1      34.450  20.053  24.654  1.00  0.00    -0.206 F 
BRANCH   9  15
ATOM     15  N   UNL A   1      33.353  24.796  24.634  1.00  0.00    -0.370 N 
ATOM     16  C   UNL A   1      33.837  26.729  24.218  1.00  0.00     0.028 C 
ATOM     17  C   UNL A   1      33.922  25.813  25.435  1.00  0.00     0.122 C 
ATOM     18  C   UNL A   1      32.843  25.691  23.649  1.00  0.00     0.122 C 
BRANCH  16  19
ATOM     19  C   UNL A   1      33.448  28.165  24.548  1.00  0.00     0.004 C 
ATOM     20  C   UNL A   1      33.437  29.061  23.306  1.00  0.00     0.004 C 
ENDBRANCH  16  19
ENDBRANCH   9  15
ENDBRANCH   6   8
ENDBRANCH   5   6
ENDBRANCH   4   5
ENDBRANCH   3   4
ENDBRANCH   2   3
ENDBRANCH   1   2
BRANCH   1  21
ATOM     21  C   UNL A   1      40.434  20.227  26.209  1.00  0.00     0.188 C 
BRANCH  21  22
ATOM     22  O   UNL A   1      41.722  19.983  25.664  1.00  0.00    -0.376 OA
BRANCH  22  23
ATOM     23  C   UNL A   1      42.830  20.706  26.169  1.00  0.00     0.202 C 
BRANCH  23  24
ATOM     24  C   UNL A   1      43.645  21.562  25.186  1.00  0.00     0.261 C 
BRANCH  24  25
ATOM     25  O   UNL A   1      43.050  22.806  24.762  1.00  0.00    -0.460 OA
BRANCH  25  26
ATOM     26  C   UNL A   1      43.803  23.918  24.963  1.00  0.00     0.338 C 
ATOM     27  O   UNL A   1      44.864  24.189  24.428  1.00  0.00    -0.246 OA
BRANCH  26  28
ATOM     28  C   UNL A   1      43.115  24.878  25.864  1.00  0.00     0.060 A 
ATOM     29  C   UNL A   1      43.584  26.198  25.923  1.00  0.00     0.016 A 
ATOM     30  C   UNL A   1      42.108  24.465  26.738  1.00  0.00     0.016 A 
ATOM     31  C   UNL A   1      43.083  27.092  26.879  1.00  0.00     0.010 A 
ATOM     32  C   UNL A   1      41.616  25.359  27.705  1.00  0.00     0.010 A 
ATOM     33  C   UNL A   1      42.122  26.669  27.808  1.00  0.00    -0.014 A 
BRANCH  33  34
ATOM     34  C   UNL A   1      41.728  27.537  28.960  1.00  0.00     0.031 A 
ATOM     35  C   UNL A   1      42.464  27.430  30.253  1.00  0.00     0.074 A 
ATOM     36  C   UNL A   1      40.732  28.438  28.877  1.00  0.00     0.049 A 
ATOM     37  N   UNL A   1      42.233  28.057  31.376  1.00  0.00    -0.248 NA
ATOM     38  C   UNL A   1      43.620  26.525  30.282  1.00  0.00     0.031 C 
ATOM     39  C   UNL A   1      40.029  28.728  27.650  1.00  0.00     0.029 A 
ATOM     40  N   UNL A   1      40.127  29.259  29.800  1.00  0.00    -0.354 N 
ATOM     41  C   UNL A   1      43.232  27.649  32.241  1.00  0.00     0.074 A 
ATOM     42  C   UNL A   1      44.039  26.677  31.530  1.00  0.00     0.031 C 
ATOM     43  C   UNL A   1      39.045  29.610  27.881  1.00  0.00     0.029 A 
ATOM     44  C   UNL A   1      39.039  29.940  29.298  1.00  0.00     0.049 A 
ATOM     45  H   UNL A   1      40.441  29.352  30.728  1.00  0.00     0.167 HD
ATOM     46  C   UNL A   1      43.465  28.072  33.503  1.00  0.00     0.037 A 
ATOM     47  C   UNL A   1      38.124  30.728  29.894  1.00  0.00     0.037 A 
ATOM     48  C   UNL A   1      42.649  29.023  34.212  1.00  0.00     0.049 A 
ATOM     49  C   UNL A   1      38.301  31.052  31.347  1.00  0.00     0.074 A 
ATOM     50  C   UNL A   1      42.817  29.503  35.498  1.00  0.00     0.029 A 
ATOM     51  N   UNL A   1      41.505  29.629  33.708  1.00  0.00    -0.354 N 
ATOM     52  N   UNL A   1      39.258  30.667  32.153  1.00  0.00    -0.248 NA
ATOM     53  C   UNL A   1      37.307  31.937  31.969  1.00  0.00     0.031 C 
ATOM     54  C   UNL A   1      41.744  30.347  35.797  1.00  0.00     0.029 A 
ATOM     55  C   UNL A   1      40.938  30.446  34.675  1.00  0.00     0.049 A 
ATOM     56  H   UNL A   1      41.149  29.496  32.800  1.00  0.00     0.167 HD
ATOM     57  C   UNL A   1      39.012  31.294  33.363  1.00  0.00     0.074 A 
ATOM     58  C   UNL A   1      37.809  32.083  33.188  1.00  0.00     0.031 C 
ATOM     59  C   UNL A   1      39.737  31.228  34.505  1.00  0.00     0.037 A 
BRANCH  46  60
ATOM     60  C   UNL A   1      44.650  27.486  34.204  1.00  0.00     0.057 A 
ATOM     61  C   UNL A   1      44.524  26.311  34.952  1.00  0.00     0.134 A 
ATOM     62  C   UNL A   1      45.907  28.103  34.166  1.00  0.00     0.134 A 
ATOM     63  F   UNL A   1      43.346  25.671  35.023  1.00  0.00    -0.206 F 
ATOM     64  C   UNL A   1      45.605  25.775  35.651  1.00  0.00     0.040 A 
ATOM     65  C   UNL A   1      47.002  27.563  34.840  1.00  0.00     0.040 A 
ATOM     66  F   UNL A   1      46.095  29.222  33.448  1.00  0.00    -0.206 F 
ATOM     67  C   UNL A   1      46.849  26.401  35.594  1.00  0.00     0.006 A 
ENDBRANCH  46  60
BRANCH  47  68
ATOM     68  C   UNL A   1      36.974  31.264  29.117  1.00  0.00     0.057 A 
ATOM     69  C   UNL A   1      36.965  32.588  28.656  1.00  0.00     0.134 A 
ATOM     70  C   UNL A   1      35.854  30.479  28.828  1.00  0.00     0.134 A 
ATOM     71  F   UNL A   1      38.006  33.397  28.898  1.00  0.00    -0.206 F 
ATOM     72  C   UNL A   1      35.878  33.115  27.951  1.00  0.00     0.040 A 
ATOM     73  C   UNL A   1      34.769  30.984  28.106  1.00  0.00     0.040 A 
ATOM     74  F   UNL A   1      35.807  29.198  29.223  1.00  0.00    -0.206 F 
ATOM     75  C   UNL A   1      34.777  32.309  27.672  1.00  0.00     0.006 A 
ENDBRANCH  47  68
BRANCH  59  76
ATOM     76  C   UNL A   1      39.272  32.055  35.666  1.00  0.00     0.057 A 
ATOM     77  C   UNL A   1      38.365  31.528  36.595  1.00  0.00     0.134 A 
ATOM     78  C   UNL A   1      39.663  33.390  35.828  1.00  0.00     0.134 A 
ATOM     79  F   UNL A   1      37.947  30.257  36.495  1.00  0.00    -0.206 F 
ATOM     80  C   UNL A   1      37.847  32.306  37.630  1.00  0.00     0.040 A 
ATOM     81  C   UNL A   1      39.175  34.169  36.878  1.00  0.00     0.040 A 
ATOM     82  F   UNL A   1      40.542  33.948  34.983  1.00  0.00    -0.206 F 
ATOM     83  C   UNL A   1      38.254  33.630  37.775  1.00  0.00     0.006 A 
ENDBRANCH  59  76
ENDBRANCH  33  34
ENDBRANCH  26  28
ENDBRANCH  25  26
ENDBRANCH  24  25
ENDBRANCH  23  24
ENDBRANCH  22  23
ENDBRANCH  21  22
ENDBRANCH   1  21
TORSDOF 19
ENDMDL
MODEL 2
REMARK VINA RESULT:     -10.2      1.148      2.896
REMARK SMILES CCC1CN(c2cccc(F)c2C(=O)OCCOCCOCCOC(=O)c2ccc(-c3c4nc(c(-c5c(F)cccc5F)c5ccc([nH]5)c(-c5c(F)cccc5F)c5nc(c(-c6c(F)cccc6F)c6ccc3[nH]6)C=C5)C=C4)cc2)C1
REMARK SMILES IDX 19 1 18 2 17 3 16 4 15 5 13 6 14 7 12 8 6 9 7 10 8 11 10 12
REMARK SMILES IDX 9 13 11 14 5 15 3 16 4 17 81 18 2 19 1 20 20 21 21 22 22 23
REMARK SMILES IDX 23 24 24 25 25 26 26 27 27 28 28 29 80 30 29 31 79 32 30 33
REMARK SMILES IDX 31 34 32 35 73 36 33 37 78 38 72 39 74 40 34 41 77 42 71 43
REMARK SMILES IDX 70 44 35 46 61 47 44 48 60 49 45 50 48 51 59 52 75 53 46 54
REMARK SMILES IDX 47 55 58 57 76 58 49 59 36 60 37 61 42 62 38 63 39 64 41 65
REMARK SMILES IDX 43 66 40 67 62 68 63 69 68 70 64 71 65 72 67 73 69 74 66 75
REMARK SMILES IDX 50 76 51 77 56 78 52 79 53 80 55 81 57 82 54 83
REMARK H PARENT 74 45 48 56
REMARK Flexibility Score: inf
ROOT
ATOM      1  C   UNL A   1      39.623  21.404  26.268  1.00  0.00     0.188 C 
ENDROOT
BRANCH   1   2
ATOM      2  O   UNL A   1      38.533  21.718  25.421  1.00  0.00    -0.376 OA
BRANCH   2   3
ATOM      3  C   UNL A   1      37.864  22.941  25.697  1.00  0.00     0.202 C 
BRANCH   3   4
ATOM      4  C   UNL A   1      36.339  22.894  25.541  1.00  0.00     0.261 C 
BRANCH   4   5
ATOM      5  O   UNL A   1      35.793  23.973  24.764  1.00  0.00    -0.460 OA
BRANCH   5   6
ATOM      6  C   UNL A   1      34.762  23.705  23.921  1.00  0.00     0.343 C 
ATOM      7  O   UNL A   1      34.862  23.302  22.783  1.00  0.00    -0.246 OA
BRANCH   6   8
ATOM      8  C   UNL A   1      33.496  23.855  24.685  1.00  0.00     0.119 A 
ATOM      9  C   UNL A   1      32.653  22.760  24.949  1.00  0.00     0.054 A 
ATOM     10  C   UNL A   1      31.458  22.988  25.660  1.00  0.00     0.027 A 
ATOM     11  C   UNL A   1      31.124  24.254  26.142  1.00  0.00     0.005 A 
ATOM     12  C   UNL A   1      33.137  25.126  25.154  1.00  0.00     0.139 A 
ATOM     13  C   UNL A   1      31.974  25.325  25.895  1.00  0.00     0.040 A 
ATOM     14  F   UNL A   1      33.913  26.194  24.916  1.00  0.00    -0.206 F 
BRANCH   9  15
ATOM     15  N   UNL A   1      32.974  21.423  24.690  1.00  0.00    -0.370 N 
ATOM     16  C   UNL A   1      33.527  19.520  24.227  1.00  0.00     0.028 C 
ATOM     17  C   UNL A   1      32.544  20.544  23.669  1.00  0.00     0.122 C 
ATOM     18  C   UNL A   1      33.542  20.397  25.500  1.00  0.00     0.122 C 
BRANCH  16  19
ATOM     19  C   UNL A   1      33.009  18.086  24.207  1.00  0.00     0.004 C 
ATOM     20  C   UNL A   1      34.111  17.076  23.872  1.00  0.00     0.004 C 
ENDBRANCH  16  19
ENDBRANCH   9  15
ENDBRANCH   6   8
ENDBRANCH   5   6
ENDBRANCH   4   5
ENDBRANCH   3   4
ENDBRANCH   2   3
ENDBRANCH   1   2
BRANCH   1  21
ATOM     21  C   UNL A   1      40.170  19.974  26.122  1.00  0.00     0.188 C 
BRANCH  21  22
ATOM     22  O   UNL A   1      41.557  19.746  25.928  1.00  0.00    -0.376 OA
BRANCH  22  23
ATOM     23  C   UNL A   1      42.488  20.656  26.485  1.00  0.00     0.202 C 
BRANCH  23  24
ATOM     24  C   UNL A   1      43.318  21.522  25.525  1.00  0.00     0.261 C 
BRANCH  24  25
ATOM     25  O   UNL A   1      42.676  22.700  24.994  1.00  0.00    -0.460 OA
BRANCH  25  26
ATOM     26  C   UNL A   1      43.403  23.845  25.051  1.00  0.00     0.338 C 
ATOM     27  O   UNL A   1      44.409  24.105  24.413  1.00  0.00    -0.246 OA
BRANCH  26  28
ATOM     28  C   UNL A   1      42.756  24.850  25.932  1.00  0.00     0.060 A 
ATOM     29  C   UNL A   1      43.326  26.128  26.026  1.00  0.00     0.016 A 
ATOM     30  C   UNL A   1      41.682  24.512  26.759  1.00  0.00     0.016 A 
ATOM     31  C   UNL A   1      42.856  27.052  26.969  1.00  0.00     0.010 A 
ATOM     32  C   UNL A   1      41.222  25.435  27.714  1.00  0.00     0.010 A 
ATOM     33  C   UNL A   1      41.826  26.700  27.853  1.00  0.00    -0.014 A 
BRANCH  33  34
ATOM     34  C   UNL A   1      41.453  27.588  28.996  1.00  0.00     0.031 A 
ATOM     35  C   UNL A   1      42.198  27.488  30.285  1.00  0.00     0.074 A 
ATOM     36  C   UNL A   1      40.468  28.501  28.910  1.00  0.00     0.049 A 
ATOM     37  N   UNL A   1      41.985  28.133  31.401  1.00  0.00    -0.248 NA
ATOM     38  C   UNL A   1      43.342  26.568  30.315  1.00  0.00     0.031 C 
ATOM     39  C   UNL A   1      39.760  28.785  27.685  1.00  0.00     0.029 A 
ATOM     40  N   UNL A   1      39.882  29.342  29.826  1.00  0.00    -0.354 N 
ATOM     41  C   UNL A   1      42.987  27.723  32.262  1.00  0.00     0.074 A 
ATOM     42  C   UNL A   1      43.774  26.731  31.558  1.00  0.00     0.031 C 
ATOM     43  C   UNL A   1      38.789  29.682  27.912  1.00  0.00     0.029 A 
ATOM     44  C   UNL A   1      38.800  30.031  29.325  1.00  0.00     0.049 A 
ATOM     45  H   UNL A   1      40.205  29.443  30.751  1.00  0.00     0.167 HD
ATOM     46  C   UNL A   1      43.236  28.159  33.517  1.00  0.00     0.037 A 
ATOM     47  C   UNL A   1      37.900  30.839  29.918  1.00  0.00     0.037 A 
ATOM     48  C   UNL A   1      42.438  29.131  34.220  1.00  0.00     0.049 A 
ATOM     49  C   UNL A   1      38.094  31.180  31.365  1.00  0.00     0.074 A 
ATOM     50  C   UNL A   1      42.624  29.625  35.499  1.00  0.00     0.029 A 
ATOM     51  N   UNL A   1      41.298  29.745  33.718  1.00  0.00    -0.354 N 
ATOM     52  N   UNL A   1      39.052  30.792  32.168  1.00  0.00    -0.248 NA
ATOM     53  C   UNL A   1      37.116  32.086  31.983  1.00  0.00     0.031 C 
ATOM     54  C   UNL A   1      41.564  30.486  35.795  1.00  0.00     0.029 A 
ATOM     55  C   UNL A   1      40.750  30.582  34.678  1.00  0.00     0.049 A 
ATOM     56  H   UNL A   1      40.933  29.605  32.814  1.00  0.00     0.167 HD
ATOM     57  C   UNL A   1      38.825  31.439  33.371  1.00  0.00     0.074 A 
ATOM     58  C   UNL A   1      37.631  32.242  33.196  1.00  0.00     0.031 C 
ATOM     59  C   UNL A   1      39.558  31.378  34.508  1.00  0.00     0.037 A 
BRANCH  46  60
ATOM     60  C   UNL A   1      44.418  27.567  34.216  1.00  0.00     0.057 A 
ATOM     61  C   UNL A   1      45.653  28.223  34.205  1.00  0.00     0.134 A 
ATOM     62  C   UNL A   1      44.343  26.330  34.869  1.00  0.00     0.134 A 
ATOM     63  F   UNL A   1      45.787  29.413  33.599  1.00  0.00    -0.206 F 
ATOM     64  C   UNL A   1      46.778  27.665  34.810  1.00  0.00     0.040 A 
ATOM     65  C   UNL A   1      45.455  25.772  35.500  1.00  0.00     0.040 A 
ATOM     66  F   UNL A   1      43.180  25.662  34.931  1.00  0.00    -0.206 F 
ATOM     67  C   UNL A   1      46.680  26.436  35.462  1.00  0.00     0.006 A 
ENDBRANCH  46  60
BRANCH  47  68
ATOM     68  C   UNL A   1      36.751  31.381  29.143  1.00  0.00     0.057 A 
ATOM     69  C   UNL A   1      35.646  30.578  28.827  1.00  0.00     0.134 A 
ATOM     70  C   UNL A   1      36.733  32.702  28.686  1.00  0.00     0.134 A 
ATOM     71  F   UNL A   1      35.598  29.301  29.233  1.00  0.00    -0.206 F 
ATOM     72  C   UNL A   1      34.574  31.065  28.073  1.00  0.00     0.040 A 
ATOM     73  C   UNL A   1      35.660  33.210  27.949  1.00  0.00     0.040 A 
ATOM     74  F   UNL A   1      37.750  33.528  28.970  1.00  0.00    -0.206 F 
ATOM     75  C   UNL A   1      34.579  32.388  27.634  1.00  0.00     0.006 A 
ENDBRANCH  47  68
BRANCH  59  76
ATOM     76  C   UNL A   1      39.114  32.226  35.662  1.00  0.00     0.057 A 
ATOM     77  C   UNL A   1      39.566  33.546  35.788  1.00  0.00     0.134 A 
ATOM     78  C   UNL A   1      38.298  31.720  36.682  1.00  0.00     0.134 A 
ATOM     79  F   UNL A   1      40.353  34.091  34.848  1.00  0.00    -0.206 F 
ATOM     80  C   UNL A   1      39.241  34.325  36.899  1.00  0.00     0.040 A 
ATOM     81  C   UNL A   1      37.942  32.500  37.783  1.00  0.00     0.040 A 
ATOM     82  F   UNL A   1      37.818  30.470  36.611  1.00  0.00    -0.206 F 
ATOM     83  C   UNL A   1      38.424  33.804  37.899  1.00  0.00     0.006 A 
ENDBRANCH  59  76
ENDBRANCH  33  34
ENDBRANCH  26  28
ENDBRANCH  25  26
ENDBRANCH  24  25
ENDBRANCH  23  24
ENDBRANCH  22  23
ENDBRANCH  21  22
ENDBRANCH   1  21
TORSDOF 19
ENDMDL
MODEL 3
REMARK VINA RESULT:      -9.8      4.896      9.780
REMARK SMILES CCC1CN(c2cccc(F)c2C(=O)OCCOCCOCCOC(=O)c2ccc(-c3c4nc(c(-c5c(F)cccc5F)c5ccc([nH]5)c(-c5c(F)cccc5F)c5nc(c(-c6c(F)cccc6F)c6ccc3[nH]6)C=C5)C=C4)cc2)C1
REMARK SMILES IDX 19 1 18 2 17 3 16 4 15 5 13 6 14 7 12 8 6 9 7 10 8 11 10 12
REMARK SMILES IDX 9 13 11 14 5 15 3 16 4 17 81 18 2 19 1 20 20 21 21 22 22 23
REMARK SMILES IDX 23 24 24 25 25 26 26 27 27 28 28 29 80 30 29 31 79 32 30 33
REMARK SMILES IDX 31 34 32 35 73 36 33 37 78 38 72 39 74 40 34 41 77 42 71 43
REMARK SMILES IDX 70 44 35 46 61 47 44 48 60 49 45 50 48 51 59 52 75 53 46 54
REMARK SMILES IDX 47 55 58 57 76 58 49 59 36 60 37 61 42 62 38 63 39 64 41 65
REMARK SMILES IDX 43 66 40 67 62 68 63 69 68 70 64 71 65 72 67 73 69 74 66 75
REMARK SMILES IDX 50 76 51 77 56 78 52 79 53 80 55 81 57 82 54 83
REMARK H PARENT 74 45 48 56
REMARK Flexibility Score: inf
ROOT
ATOM      1  C   UNL A   1      34.439  32.058  27.923  1.00  0.00     0.188 C 
ENDROOT
BRANCH   1   2
ATOM      2  O   UNL A   1      33.482  31.165  27.385  1.00  0.00    -0.376 OA
BRANCH   2   3
ATOM      3  C   UNL A   1      33.972  29.889  26.995  1.00  0.00     0.202 C 
BRANCH   3   4
ATOM      4  C   UNL A   1      32.914  28.780  26.933  1.00  0.00     0.261 C 
BRANCH   4   5
ATOM      5  O   UNL A   1      32.385  28.544  25.617  1.00  0.00    -0.460 OA
BRANCH   5   6
ATOM      6  C   UNL A   1      31.640  27.428  25.412  1.00  0.00     0.343 C 
ATOM      7  O   UNL A   1      30.750  27.026  26.129  1.00  0.00    -0.246 OA
BRANCH   6   8
ATOM      8  C   UNL A   1      32.010  26.867  24.086  1.00  0.00     0.119 A 
ATOM      9  C   UNL A   1      31.211  27.068  22.945  1.00  0.00     0.054 A 
ATOM     10  C   UNL A   1      31.619  26.485  21.729  1.00  0.00     0.027 A 
ATOM     11  C   UNL A   1      32.810  25.765  21.626  1.00  0.00     0.005 A 
ATOM     12  C   UNL A   1      33.192  26.122  23.974  1.00  0.00     0.139 A 
ATOM     13  C   UNL A   1      33.602  25.591  22.753  1.00  0.00     0.040 A 
ATOM     14  F   UNL A   1      33.976  25.906  25.040  1.00  0.00    -0.206 F 
BRANCH   9  15
ATOM     15  N   UNL A   1      30.109  27.927  22.882  1.00  0.00    -0.370 N 
ATOM     16  C   UNL A   1      28.520  29.180  22.662  1.00  0.00     0.028 C 
ATOM     17  C   UNL A   1      30.030  29.336  22.809  1.00  0.00     0.122 C 
ATOM     18  C   UNL A   1      28.731  27.747  23.201  1.00  0.00     0.122 C 
BRANCH  16  19
ATOM     19  C   UNL A   1      27.711  30.239  23.402  1.00  0.00     0.004 C 
ATOM     20  C   UNL A   1      28.391  31.611  23.374  1.00  0.00     0.004 C 
ENDBRANCH  16  19
ENDBRANCH   9  15
ENDBRANCH   6   8
ENDBRANCH   5   6
ENDBRANCH   4   5
ENDBRANCH   3   4
ENDBRANCH   2   3
ENDBRANCH   1   2
BRANCH   1  21
ATOM     21  C   UNL A   1      33.960  33.512  28.074  1.00  0.00     0.188 C 
BRANCH  21  22
ATOM     22  O   UNL A   1      33.480  33.989  29.321  1.00  0.00    -0.376 OA
BRANCH  22  23
ATOM     23  C   UNL A   1      34.407  34.485  30.270  1.00  0.00     0.202 C 
BRANCH  23  24
ATOM     24  C   UNL A   1      34.362  33.911  31.695  1.00  0.00     0.261 C 
BRANCH  24  25
ATOM     25  O   UNL A   1      34.677  32.510  31.841  1.00  0.00    -0.460 OA
BRANCH  25  26
ATOM     26  C   UNL A   1      35.716  32.222  32.665  1.00  0.00     0.338 C 
ATOM     27  O   UNL A   1      35.793  32.466  33.857  1.00  0.00    -0.246 OA
BRANCH  26  28
ATOM     28  C   UNL A   1      36.761  31.437  31.959  1.00  0.00     0.060 A 
ATOM     29  C   UNL A   1      37.767  30.821  32.719  1.00  0.00     0.016 A 
ATOM     30  C   UNL A   1      36.836  31.409  30.565  1.00  0.00     0.016 A 
ATOM     31  C   UNL A   1      38.866  30.218  32.092  1.00  0.00     0.010 A 
ATOM     32  C   UNL A   1      37.946  30.816  29.940  1.00  0.00     0.010 A 
ATOM     33  C   UNL A   1      38.988  30.245  30.696  1.00  0.00    -0.014 A 
BRANCH  33  34
ATOM     34  C   UNL A   1      40.244  29.795  30.022  1.00  0.00     0.031 A 
ATOM     35  C   UNL A   1      41.354  30.767  29.800  1.00  0.00     0.074 A 
ATOM     36  C   UNL A   1      40.430  28.526  29.613  1.00  0.00     0.049 A 
ATOM     37  N   UNL A   1      42.493  30.577  29.188  1.00  0.00    -0.248 NA
ATOM     38  C   UNL A   1      41.174  32.113  30.358  1.00  0.00     0.031 C 
ATOM     39  C   UNL A   1      39.490  27.465  29.883  1.00  0.00     0.029 A 
ATOM     40  N   UNL A   1      41.426  27.905  28.898  1.00  0.00    -0.354 N 
ATOM     41  C   UNL A   1      43.183  31.769  29.311  1.00  0.00     0.074 A 
ATOM     42  C   UNL A   1      42.313  32.694  30.009  1.00  0.00     0.031 C 
ATOM     43  C   UNL A   1      39.898  26.329  29.298  1.00  0.00     0.029 A 
ATOM     44  C   UNL A   1      41.141  26.593  28.589  1.00  0.00     0.049 A 
ATOM     45  H   UNL A   1      42.260  28.353  28.632  1.00  0.00     0.167 HD
ATOM     46  C   UNL A   1      44.440  32.049  28.901  1.00  0.00     0.037 A 
ATOM     47  C   UNL A   1      41.783  25.696  27.815  1.00  0.00     0.037 A 
ATOM     48  C   UNL A   1      45.293  31.133  28.190  1.00  0.00     0.049 A 
ATOM     49  C   UNL A   1      43.104  26.083  27.222  1.00  0.00     0.074 A 
ATOM     50  C   UNL A   1      46.583  31.343  27.737  1.00  0.00     0.029 A 
ATOM     51  N   UNL A   1      44.945  29.842  27.815  1.00  0.00    -0.354 N 
ATOM     52  N   UNL A   1      43.752  27.213  27.355  1.00  0.00    -0.248 NA
ATOM     53  C   UNL A   1      43.800  25.080  26.405  1.00  0.00     0.031 C 
ATOM     54  C   UNL A   1      46.992  30.207  27.032  1.00  0.00     0.029 A 
ATOM     55  C   UNL A   1      45.983  29.260  27.102  1.00  0.00     0.049 A 
ATOM     56  H   UNL A   1      44.088  29.405  28.025  1.00  0.00     0.167 HD
ATOM     57  C   UNL A   1      44.951  27.045  26.681  1.00  0.00     0.074 A 
ATOM     58  C   UNL A   1      44.938  25.704  26.133  1.00  0.00     0.031 C 
ATOM     59  C   UNL A   1      45.971  27.927  26.550  1.00  0.00     0.037 A 
BRANCH  46  60
ATOM     60  C   UNL A   1      44.957  33.421  29.200  1.00  0.00     0.057 A 
ATOM     61  C   UNL A   1      44.796  34.459  28.276  1.00  0.00     0.134 A 
ATOM     62  C   UNL A   1      45.645  33.706  30.386  1.00  0.00     0.134 A 
ATOM     63  F   UNL A   1      44.143  34.249  27.123  1.00  0.00    -0.206 F 
ATOM     64  C   UNL A   1      45.312  35.731  28.515  1.00  0.00     0.040 A 
ATOM     65  C   UNL A   1      46.144  34.981  30.649  1.00  0.00     0.040 A 
ATOM     66  F   UNL A   1      45.813  32.757  31.321  1.00  0.00    -0.206 F 
ATOM     67  C   UNL A   1      45.987  35.996  29.706  1.00  0.00     0.006 A 
ENDBRANCH  46  60
BRANCH  47  68
ATOM     68  C   UNL A   1      41.190  24.354  27.570  1.00  0.00     0.057 A 
ATOM     69  C   UNL A   1      40.119  24.184  26.681  1.00  0.00     0.134 A 
ATOM     70  C   UNL A   1      41.662  23.212  28.226  1.00  0.00     0.134 A 
ATOM     71  F   UNL A   1      39.615  25.236  26.020  1.00  0.00    -0.206 F 
ATOM     72  C   UNL A   1      39.531  22.935  26.466  1.00  0.00     0.040 A 
ATOM     73  C   UNL A   1      41.099  21.953  28.006  1.00  0.00     0.040 A 
ATOM     74  F   UNL A   1      42.697  23.302  29.075  1.00  0.00    -0.206 F 
ATOM     75  C   UNL A   1      40.025  21.813  27.128  1.00  0.00     0.006 A 
ENDBRANCH  47  68
BRANCH  59  76
ATOM     76  C   UNL A   1      47.187  27.468  25.804  1.00  0.00     0.057 A 
ATOM     77  C   UNL A   1      47.260  27.604  24.412  1.00  0.00     0.134 A 
ATOM     78  C   UNL A   1      48.255  26.831  26.449  1.00  0.00     0.134 A 
ATOM     79  F   UNL A   1      46.270  28.203  23.732  1.00  0.00    -0.206 F 
ATOM     80  C   UNL A   1      48.340  27.103  23.685  1.00  0.00     0.040 A 
ATOM     81  C   UNL A   1      49.355  26.352  25.736  1.00  0.00     0.040 A 
ATOM     82  F   UNL A   1      48.254  26.685  27.783  1.00  0.00    -0.206 F 
ATOM     83  C   UNL A   1      49.393  26.477  24.348  1.00  0.00     0.006 A 
ENDBRANCH  59  76
ENDBRANCH  33  34
ENDBRANCH  26  28
ENDBRANCH  25  26
ENDBRANCH  24  25
ENDBRANCH  23  24
ENDBRANCH  22  23
ENDBRANCH  21  22
ENDBRANCH   1  21
TORSDOF 19
ENDMDL
