MODEL 1
REMARK VINA RESULT:     -12.3      0.000      0.000
REMARK SMILES O=C(OCCOCCOCCOC(=O)c1ccc(-c2c3nc(c(-c4c(F)cccc4F)c4ccc([nH]4)c(-c4c(F)cccc4F)c4nc(c(-c5c(F)cccc5F)c5ccc2[nH]5)C=C4)C=C3)cc1)C1=Cc2cc(Cl)cc(-c3ccc(CO)cc3)c2O[C@@H]1C(F)(F)F
REMARK SMILES IDX 7 1 6 2 5 3 4 4 3 5 2 6 1 7 69 8 70 9 87 10 71 11 86 12
REMARK SMILES IDX 72 13 85 14 73 15 76 16 74 17 75 18 88 19 89 20 90 21 91 22
REMARK SMILES IDX 77 23 78 24 84 25 79 26 83 27 80 28 81 29 82 30 8 32 9 33
REMARK SMILES IDX 10 34 11 35 12 36 13 37 14 38 15 39 16 40 68 41 17 42 67 43
REMARK SMILES IDX 18 44 19 45 20 46 61 47 21 48 66 49 60 50 62 51 22 52 65 53
REMARK SMILES IDX 59 54 58 55 23 57 49 58 32 59 48 60 33 61 36 62 47 63 63 64
REMARK SMILES IDX 34 65 35 66 46 68 64 69 37 70 24 71 25 72 30 73 26 74 27 75
REMARK SMILES IDX 29 76 31 77 28 78 50 79 51 80 56 81 52 82 53 83 55 84 57 85
REMARK SMILES IDX 54 86 38 87 39 88 44 89 40 90 41 91 43 92 45 93 42 94
REMARK H PARENT 82 31 62 56 36 67
REMARK Flexibility Score: inf
ROOT
ATOM      1  C   UNL A   1      34.453  21.229  26.038  1.00  0.00     0.188 C 
ENDROOT
BRANCH   1   2
ATOM      2  O   UNL A   1      33.641  21.457  27.301  1.00  0.00    -0.376 OA
BRANCH   2   3
ATOM      3  C   UNL A   1      32.766  22.926  27.760  1.00  0.00     0.202 C 
BRANCH   3   4
ATOM      4  C   UNL A   1      31.042  23.647  26.649  1.00  0.00     0.261 C 
BRANCH   4   5
ATOM      5  O   UNL A   1      31.056  24.235  25.241  1.00  0.00    -0.460 OA
BRANCH   5   6
ATOM      6  C   UNL A   1      31.436  23.332  24.326  1.00  0.00     0.338 C 
ATOM      7  O   UNL A   1      31.607  22.147  24.471  1.00  0.00    -0.246 OA
BRANCH   6   8
ATOM      8  C   UNL A   1      32.033  24.274  23.391  1.00  0.00     0.087 C 
ATOM      9  C   UNL A   1      31.142  25.254  22.811  1.00  0.00     0.027 C 
ATOM     10  C   UNL A   1      33.484  24.687  24.564  1.00  0.00     0.316 C 
ATOM     11  C   UNL A   1      31.033  26.957  23.337  1.00  0.00     0.019 A 
ATOM     12  O   UNL A   1      33.301  26.516  25.280  1.00  0.00    -0.475 OA
ATOM     13  C   UNL A   1      29.976  27.681  22.851  1.00  0.00     0.032 A 
ATOM     14  C   UNL A   1      32.018  27.631  24.594  1.00  0.00     0.135 A 
ATOM     15  C   UNL A   1      29.817  28.952  23.404  1.00  0.00     0.042 A 
ATOM     16  C   UNL A   1      31.826  28.938  25.028  1.00  0.00     0.026 A 
ATOM     17  Cl  UNL A   1      28.453  29.883  22.882  1.00  0.00    -0.084 Cl
ATOM     18  C   UNL A   1      30.689  29.539  24.394  1.00  0.00     0.033 A 
BRANCH  10  19
ATOM     19  C   UNL A   1      34.578  23.958  23.435  1.00  0.00     0.430 C 
ATOM     20  F   UNL A   1      34.399  22.729  22.942  1.00  0.00    -0.167 F 
ATOM     21  F   UNL A   1      34.642  24.782  22.350  1.00  0.00    -0.167 F 
ATOM     22  F   UNL A   1      35.866  23.925  23.903  1.00  0.00    -0.167 F 
ENDBRANCH  10  19
BRANCH  16  23
ATOM     23  C   UNL A   1      32.575  29.812  25.929  1.00  0.00    -0.015 A 
ATOM     24  C   UNL A   1      33.829  29.459  26.429  1.00  0.00     0.009 A 
ATOM     25  C   UNL A   1      31.946  30.938  26.505  1.00  0.00     0.009 A 
ATOM     26  C   UNL A   1      34.499  30.287  27.344  1.00  0.00     0.007 A 
ATOM     27  C   UNL A   1      32.625  31.786  27.394  1.00  0.00     0.007 A 
ATOM     28  C   UNL A   1      33.939  31.499  27.765  1.00  0.00    -0.023 A 
BRANCH  28  29
ATOM     29  C   UNL A   1      34.749  32.483  28.570  1.00  0.00     0.191 C 
BRANCH  29  30
ATOM     30  O   UNL A   1      34.048  32.913  29.724  1.00  0.00    -0.392 OA
ATOM     31  H   UNL A   1      33.629  33.771  29.547  1.00  0.00     0.211 HD
ENDBRANCH  29  30
ENDBRANCH  28  29
ENDBRANCH  16  23
ENDBRANCH   6   8
ENDBRANCH   5   6
ENDBRANCH   4   5
ENDBRANCH   3   4
ENDBRANCH   2   3
ENDBRANCH   1   2
BRANCH   1  32
ATOM     32  C   UNL A   1      35.964  21.461  25.908  1.00  0.00     0.188 C 
BRANCH  32  33
ATOM     33  O   UNL A   1      36.655  20.961  24.804  1.00  0.00    -0.376 OA
BRANCH  33  34
ATOM     34  C   UNL A   1      37.095  19.629  24.929  1.00  0.00     0.202 C 
BRANCH  34  35
ATOM     35  C   UNL A   1      38.540  19.305  25.295  1.00  0.00     0.261 C 
BRANCH  35  36
ATOM     36  O   UNL A   1      39.379  20.452  25.438  1.00  0.00    -0.460 OA
BRANCH  36  37
ATOM     37  C   UNL A   1      40.337  20.347  26.385  1.00  0.00     0.338 C 
ATOM     38  O   UNL A   1      41.035  19.383  26.644  1.00  0.00    -0.246 OA
BRANCH  37  39
ATOM     39  C   UNL A   1      40.561  21.682  26.952  1.00  0.00     0.060 A 
ATOM     40  C   UNL A   1      39.894  22.779  26.390  1.00  0.00     0.016 A 
ATOM     41  C   UNL A   1      41.485  21.846  27.983  1.00  0.00     0.016 A 
ATOM     42  C   UNL A   1      40.166  24.059  26.844  1.00  0.00     0.010 A 
ATOM     43  C   UNL A   1      41.804  23.135  28.399  1.00  0.00     0.010 A 
ATOM     44  C   UNL A   1      41.179  24.237  27.791  1.00  0.00    -0.014 A 
BRANCH  44  45
ATOM     45  C   UNL A   1      41.799  25.571  27.867  1.00  0.00     0.031 A 
ATOM     46  C   UNL A   1      41.047  26.631  28.623  1.00  0.00     0.074 A 
ATOM     47  C   UNL A   1      43.017  25.801  27.358  1.00  0.00     0.049 A 
ATOM     48  N   UNL A   1      41.383  27.867  28.879  1.00  0.00    -0.248 NA
ATOM     49  C   UNL A   1      39.735  26.239  29.170  1.00  0.00     0.031 C 
ATOM     50  C   UNL A   1      43.848  24.815  26.672  1.00  0.00     0.029 A 
ATOM     51  N   UNL A   1      43.766  26.945  27.356  1.00  0.00    -0.354 N 
ATOM     52  C   UNL A   1      40.326  28.396  29.607  1.00  0.00     0.074 A 
ATOM     53  C   UNL A   1      39.322  27.365  29.724  1.00  0.00     0.031 C 
ATOM     54  C   UNL A   1      45.001  25.403  26.307  1.00  0.00     0.029 A 
ATOM     55  C   UNL A   1      44.970  26.807  26.712  1.00  0.00     0.049 A 
ATOM     56  H   UNL A   1      43.472  27.785  27.774  1.00  0.00     0.167 HD
ATOM     57  C   UNL A   1      40.209  29.635  30.137  1.00  0.00     0.037 A 
ATOM     58  C   UNL A   1      45.923  27.727  26.475  1.00  0.00     0.037 A 
ATOM     59  C   UNL A   1      41.211  30.654  29.993  1.00  0.00     0.049 A 
ATOM     60  C   UNL A   1      45.724  29.128  26.995  1.00  0.00     0.074 A 
ATOM     61  C   UNL A   1      41.206  31.944  30.489  1.00  0.00     0.029 A 
ATOM     62  N   UNL A   1      42.391  30.501  29.278  1.00  0.00    -0.354 N 
ATOM     63  N   UNL A   1      44.737  29.621  27.706  1.00  0.00    -0.248 NA
ATOM     64  C   UNL A   1      46.781  30.100  26.686  1.00  0.00     0.031 C 
ATOM     65  C   UNL A   1      42.343  32.597  30.006  1.00  0.00     0.029 A 
ATOM     66  C   UNL A   1      43.105  31.687  29.288  1.00  0.00     0.049 A 
ATOM     67  H   UNL A   1      42.678  29.672  28.832  1.00  0.00     0.167 HD
ATOM     68  C   UNL A   1      45.076  30.943  27.969  1.00  0.00     0.074 A 
ATOM     69  C   UNL A   1      46.366  31.168  27.349  1.00  0.00     0.031 C 
ATOM     70  C   UNL A   1      44.391  31.885  28.666  1.00  0.00     0.037 A 
BRANCH  57  71
ATOM     71  C   UNL A   1      38.931  29.961  30.856  1.00  0.00     0.057 A 
ATOM     72  C   UNL A   1      38.774  29.771  32.235  1.00  0.00     0.134 A 
ATOM     73  C   UNL A   1      37.835  30.472  30.148  1.00  0.00     0.134 A 
ATOM     74  F   UNL A   1      39.775  29.265  32.972  1.00  0.00    -0.206 F 
ATOM     75  C   UNL A   1      37.565  30.046  32.878  1.00  0.00     0.040 A 
ATOM     76  C   UNL A   1      36.634  30.784  30.785  1.00  0.00     0.040 A 
ATOM     77  F   UNL A   1      37.914  30.674  28.824  1.00  0.00    -0.206 F 
ATOM     78  C   UNL A   1      36.493  30.563  32.152  1.00  0.00     0.006 A 
ENDBRANCH  57  71
BRANCH  58  79
ATOM     79  C   UNL A   1      47.146  27.360  25.717  1.00  0.00     0.057 A 
ATOM     80  C   UNL A   1      47.240  27.581  24.338  1.00  0.00     0.134 A 
ATOM     81  C   UNL A   1      48.238  26.750  26.345  1.00  0.00     0.134 A 
ATOM     82  F   UNL A   1      46.220  28.146  23.673  1.00  0.00    -0.206 F 
ATOM     83  C   UNL A   1      48.360  27.182  23.606  1.00  0.00     0.040 A 
ATOM     84  C   UNL A   1      49.377  26.374  25.632  1.00  0.00     0.040 A 
ATOM     85  F   UNL A   1      48.216  26.512  27.665  1.00  0.00    -0.206 F 
ATOM     86  C   UNL A   1      49.435  26.580  24.255  1.00  0.00     0.006 A 
ENDBRANCH  58  79
BRANCH  70  87
ATOM     87  C   UNL A   1      45.053  33.224  28.849  1.00  0.00     0.057 A 
ATOM     88  C   UNL A   1      44.825  34.300  27.982  1.00  0.00     0.134 A 
ATOM     89  C   UNL A   1      45.916  33.442  29.933  1.00  0.00     0.134 A 
ATOM     90  F   UNL A   1      44.015  34.162  26.922  1.00  0.00    -0.206 F 
ATOM     91  C   UNL A   1      45.470  35.527  28.157  1.00  0.00     0.040 A 
ATOM     92  C   UNL A   1      46.531  34.675  30.142  1.00  0.00     0.040 A 
ATOM     93  F   UNL A   1      46.165  32.462  30.815  1.00  0.00    -0.206 F 
ATOM     94  C   UNL A   1      46.320  35.718  29.244  1.00  0.00     0.006 A 
ENDBRANCH  70  87
ENDBRANCH  44  45
ENDBRANCH  37  39
ENDBRANCH  36  37
ENDBRANCH  35  36
ENDBRANCH  34  35
ENDBRANCH  33  34
ENDBRANCH  32  33
ENDBRANCH   1  32
TORSDOF 21
ENDMDL
MODEL 2
REMARK VINA RESULT:     -12.2      0.419      5.913
REMARK SMILES O=C(OCCOCCOCCOC(=O)c1ccc(-c2c3nc(c(-c4c(F)cccc4F)c4ccc([nH]4)c(-c4c(F)cccc4F)c4nc(c(-c5c(F)cccc5F)c5ccc2[nH]5)C=C4)C=C3)cc1)C1=Cc2cc(Cl)cc(-c3ccc(CO)cc3)c2O[C@@H]1C(F)(F)F
REMARK SMILES IDX 7 1 6 2 5 3 4 4 3 5 2 6 1 7 69 8 70 9 87 10 71 11 86 12
REMARK SMILES IDX 72 13 85 14 73 15 76 16 74 17 75 18 88 19 89 20 90 21 91 22
REMARK SMILES IDX 77 23 78 24 84 25 79 26 83 27 80 28 81 29 82 30 8 32 9 33
REMARK SMILES IDX 10 34 11 35 12 36 13 37 14 38 15 39 16 40 68 41 17 42 67 43
REMARK SMILES IDX 18 44 19 45 20 46 61 47 21 48 66 49 60 50 62 51 22 52 65 53
REMARK SMILES IDX 59 54 58 55 23 57 49 58 32 59 48 60 33 61 36 62 47 63 63 64
REMARK SMILES IDX 34 65 35 66 46 68 64 69 37 70 24 71 25 72 30 73 26 74 27 75
REMARK SMILES IDX 29 76 31 77 28 78 50 79 51 80 56 81 52 82 53 83 55 84 57 85
REMARK SMILES IDX 54 86 38 87 39 88 44 89 40 90 41 91 43 92 45 93 42 94
REMARK H PARENT 82 31 62 56 36 67
REMARK Flexibility Score: inf
ROOT
ATOM      1  C   UNL A   1      34.718  21.321  26.065  1.00  0.00     0.188 C 
ENDROOT
BRANCH   1   2
ATOM      2  O   UNL A   1      33.974  21.419  27.386  1.00  0.00    -0.376 OA
BRANCH   2   3
ATOM      3  C   UNL A   1      32.903  22.725  27.916  1.00  0.00     0.202 C 
BRANCH   3   4
ATOM      4  C   UNL A   1      31.185  23.366  26.748  1.00  0.00     0.261 C 
BRANCH   4   5
ATOM      5  O   UNL A   1      31.218  23.942  25.335  1.00  0.00    -0.460 OA
BRANCH   5   6
ATOM      6  C   UNL A   1      31.624  23.035  24.435  1.00  0.00     0.338 C 
ATOM      7  O   UNL A   1      31.856  21.863  24.607  1.00  0.00    -0.246 OA
BRANCH   6   8
ATOM      8  C   UNL A   1      32.156  23.980  23.465  1.00  0.00     0.087 C 
ATOM      9  C   UNL A   1      31.209  24.907  22.886  1.00  0.00     0.027 C 
ATOM     10  C   UNL A   1      33.616  24.483  24.592  1.00  0.00     0.316 C 
ATOM     11  C   UNL A   1      31.038  26.614  23.378  1.00  0.00     0.019 A 
ATOM     12  O   UNL A   1      33.369  26.318  25.273  1.00  0.00    -0.475 OA
ATOM     13  C   UNL A   1      29.938  27.280  22.902  1.00  0.00     0.032 A 
ATOM     14  C   UNL A   1      32.022  27.360  24.594  1.00  0.00     0.135 A 
ATOM     15  C   UNL A   1      29.736  28.556  23.431  1.00  0.00     0.042 A 
ATOM     16  C   UNL A   1      31.783  28.667  25.004  1.00  0.00     0.026 A 
ATOM     17  Cl  UNL A   1      28.321  29.414  22.922  1.00  0.00    -0.084 Cl
ATOM     18  C   UNL A   1      30.605  29.203  24.385  1.00  0.00     0.033 A 
BRANCH  10  19
ATOM     19  C   UNL A   1      34.713  23.776  23.453  1.00  0.00     0.430 C 
ATOM     20  F   UNL A   1      34.598  22.518  23.020  1.00  0.00    -0.167 F 
ATOM     21  F   UNL A   1      34.683  24.554  22.332  1.00  0.00    -0.167 F 
ATOM     22  F   UNL A   1      36.017  23.849  23.871  1.00  0.00    -0.167 F 
ENDBRANCH  10  19
BRANCH  16  23
ATOM     23  C   UNL A   1      32.513  29.594  25.867  1.00  0.00    -0.015 A 
ATOM     24  C   UNL A   1      33.764  29.278  26.400  1.00  0.00     0.009 A 
ATOM     25  C   UNL A   1      31.868  30.742  26.377  1.00  0.00     0.009 A 
ATOM     26  C   UNL A   1      34.416  30.158  27.277  1.00  0.00     0.007 A 
ATOM     27  C   UNL A   1      32.529  31.642  27.228  1.00  0.00     0.007 A 
ATOM     28  C   UNL A   1      33.841  31.386  27.628  1.00  0.00    -0.023 A 
BRANCH  28  29
ATOM     29  C   UNL A   1      34.633  32.417  28.390  1.00  0.00     0.191 C 
BRANCH  29  30
ATOM     30  O   UNL A   1      34.008  33.689  28.348  1.00  0.00    -0.392 OA
ATOM     31  H   UNL A   1      33.662  33.908  29.227  1.00  0.00     0.211 HD
ENDBRANCH  29  30
ENDBRANCH  28  29
ENDBRANCH  16  23
ENDBRANCH   6   8
ENDBRANCH   5   6
ENDBRANCH   4   5
ENDBRANCH   3   4
ENDBRANCH   2   3
ENDBRANCH   1   2
BRANCH   1  32
ATOM     32  C   UNL A   1      36.241  21.405  25.904  1.00  0.00     0.188 C 
BRANCH  32  33
ATOM     33  O   UNL A   1      36.855  20.869  24.772  1.00  0.00    -0.376 OA
BRANCH  33  34
ATOM     34  C   UNL A   1      37.361  19.564  24.930  1.00  0.00     0.202 C 
BRANCH  34  35
ATOM     35  C   UNL A   1      38.814  19.323  25.327  1.00  0.00     0.261 C 
BRANCH  35  36
ATOM     36  O   UNL A   1      39.585  20.516  25.481  1.00  0.00    -0.460 OA
BRANCH  36  37
ATOM     37  C   UNL A   1      40.586  20.440  26.385  1.00  0.00     0.338 C 
ATOM     38  O   UNL A   1      41.396  19.542  26.536  1.00  0.00    -0.246 OA
BRANCH  37  39
ATOM     39  C   UNL A   1      40.684  21.738  27.062  1.00  0.00     0.060 A 
ATOM     40  C   UNL A   1      39.925  22.814  26.581  1.00  0.00     0.016 A 
ATOM     41  C   UNL A   1      41.582  21.899  28.117  1.00  0.00     0.016 A 
ATOM     42  C   UNL A   1      40.077  24.071  27.142  1.00  0.00     0.010 A 
ATOM     43  C   UNL A   1      41.779  23.172  28.641  1.00  0.00     0.010 A 
ATOM     44  C   UNL A   1      41.062  24.260  28.115  1.00  0.00    -0.014 A 
BRANCH  44  45
ATOM     45  C   UNL A   1      41.558  25.634  28.309  1.00  0.00     0.031 A 
ATOM     46  C   UNL A   1      42.903  25.964  27.722  1.00  0.00     0.074 A 
ATOM     47  C   UNL A   1      40.804  26.566  28.906  1.00  0.00     0.049 A 
ATOM     48  N   UNL A   1      43.549  27.098  27.709  1.00  0.00    -0.248 NA
ATOM     49  C   UNL A   1      43.614  24.858  27.053  1.00  0.00     0.031 C 
ATOM     50  C   UNL A   1      39.461  26.355  29.441  1.00  0.00     0.029 A 
ATOM     51  N   UNL A   1      41.068  27.887  29.149  1.00  0.00    -0.354 N 
ATOM     52  C   UNL A   1      44.738  26.840  27.040  1.00  0.00     0.074 A 
ATOM     53  C   UNL A   1      44.745  25.440  26.693  1.00  0.00     0.031 C 
ATOM     54  C   UNL A   1      39.017  27.514  29.958  1.00  0.00     0.029 A 
ATOM     55  C   UNL A   1      40.055  28.532  29.812  1.00  0.00     0.049 A 
ATOM     56  H   UNL A   1      41.903  28.330  28.876  1.00  0.00     0.167 HD
ATOM     57  C   UNL A   1      45.734  27.704  26.737  1.00  0.00     0.037 A 
ATOM     58  C   UNL A   1      39.996  29.801  30.255  1.00  0.00     0.037 A 
ATOM     59  C   UNL A   1      45.718  29.092  27.108  1.00  0.00     0.049 A 
ATOM     60  C   UNL A   1      41.163  30.718  29.988  1.00  0.00     0.074 A 
ATOM     61  C   UNL A   1      46.668  30.063  26.853  1.00  0.00     0.029 A 
ATOM     62  N   UNL A   1      44.705  29.699  27.837  1.00  0.00    -0.354 N 
ATOM     63  N   UNL A   1      42.275  30.481  29.332  1.00  0.00    -0.248 NA
ATOM     64  C   UNL A   1      41.059  32.085  30.515  1.00  0.00     0.031 C 
ATOM     65  C   UNL A   1      46.268  31.237  27.498  1.00  0.00     0.029 A 
ATOM     66  C   UNL A   1      45.025  31.024  28.075  1.00  0.00     0.049 A 
ATOM     67  H   UNL A   1      43.881  29.253  28.140  1.00  0.00     0.167 HD
ATOM     68  C   UNL A   1      42.981  31.679  29.327  1.00  0.00     0.074 A 
ATOM     69  C   UNL A   1      42.162  32.641  30.036  1.00  0.00     0.031 C 
ATOM     70  C   UNL A   1      44.190  31.964  28.781  1.00  0.00     0.037 A 
BRANCH  57  71
ATOM     71  C   UNL A   1      46.938  27.149  26.031  1.00  0.00     0.057 A 
ATOM     72  C   UNL A   1      47.990  26.522  26.712  1.00  0.00     0.134 A 
ATOM     73  C   UNL A   1      47.044  27.248  24.637  1.00  0.00     0.134 A 
ATOM     74  F   UNL A   1      47.964  26.411  28.050  1.00  0.00    -0.206 F 
ATOM     75  C   UNL A   1      49.116  26.046  26.039  1.00  0.00     0.040 A 
ATOM     76  C   UNL A   1      48.148  26.743  23.949  1.00  0.00     0.040 A 
ATOM     77  F   UNL A   1      46.076  27.839  23.920  1.00  0.00    -0.206 F 
ATOM     78  C   UNL A   1      49.193  26.148  24.652  1.00  0.00     0.006 A 
ENDBRANCH  57  71
BRANCH  58  79
ATOM     79  C   UNL A   1      38.800  30.283  30.990  1.00  0.00     0.057 A 
ATOM     80  C   UNL A   1      38.707  30.168  32.382  1.00  0.00     0.134 A 
ATOM     81  C   UNL A   1      37.706  30.840  30.317  1.00  0.00     0.134 A 
ATOM     82  F   UNL A   1      39.714  29.626  33.084  1.00  0.00    -0.206 F 
ATOM     83  C   UNL A   1      37.560  30.560  33.075  1.00  0.00     0.040 A 
ATOM     84  C   UNL A   1      36.565  31.265  31.000  1.00  0.00     0.040 A 
ATOM     85  F   UNL A   1      37.730  30.983  28.983  1.00  0.00    -0.206 F 
ATOM     86  C   UNL A   1      36.485  31.115  32.383  1.00  0.00     0.006 A 
ENDBRANCH  58  79
BRANCH  70  87
ATOM     87  C   UNL A   1      44.669  33.388  28.873  1.00  0.00     0.057 A 
ATOM     88  C   UNL A   1      45.475  33.843  29.923  1.00  0.00     0.134 A 
ATOM     89  C   UNL A   1      44.334  34.311  27.871  1.00  0.00     0.134 A 
ATOM     90  F   UNL A   1      45.831  33.016  30.918  1.00  0.00    -0.206 F 
ATOM     91  C   UNL A   1      45.888  35.175  30.001  1.00  0.00     0.040 A 
ATOM     92  C   UNL A   1      44.777  35.632  27.916  1.00  0.00     0.040 A 
ATOM     93  F   UNL A   1      43.581  33.940  26.825  1.00  0.00    -0.206 F 
ATOM     94  C   UNL A   1      45.544  36.072  28.991  1.00  0.00     0.006 A 
ENDBRANCH  70  87
ENDBRANCH  44  45
ENDBRANCH  37  39
ENDBRANCH  36  37
ENDBRANCH  35  36
ENDBRANCH  34  35
ENDBRANCH  33  34
ENDBRANCH  32  33
ENDBRANCH   1  32
TORSDOF 21
ENDMDL
MODEL 3
REMARK VINA RESULT:     -12.0      5.359      8.451
REMARK SMILES O=C(OCCOCCOCCOC(=O)c1ccc(-c2c3nc(c(-c4c(F)cccc4F)c4ccc([nH]4)c(-c4c(F)cccc4F)c4nc(c(-c5c(F)cccc5F)c5ccc2[nH]5)C=C4)C=C3)cc1)C1=Cc2cc(Cl)cc(-c3ccc(CO)cc3)c2O[C@@H]1C(F)(F)F
REMARK SMILES IDX 7 1 6 2 5 3 4 4 3 5 2 6 1 7 69 8 70 9 87 10 71 11 86 12
REMARK SMILES IDX 72 13 85 14 73 15 76 16 74 17 75 18 88 19 89 20 90 21 91 22
REMARK SMILES IDX 77 23 78 24 84 25 79 26 83 27 80 28 81 29 82 30 8 32 9 33
REMARK SMILES IDX 10 34 11 35 12 36 13 37 14 38 15 39 16 40 68 41 17 42 67 43
REMARK SMILES IDX 18 44 19 45 20 46 61 47 21 48 66 49 60 50 62 51 22 52 65 53
REMARK SMILES IDX 59 54 58 55 23 57 49 58 32 59 48 60 33 61 36 62 47 63 63 64
REMARK SMILES IDX 34 65 35 66 46 68 64 69 37 70 24 71 25 72 30 73 26 74 27 75
REMARK SMILES IDX 29 76 31 77 28 78 50 79 51 80 56 81 52 82 53 83 55 84 57 85
REMARK SMILES IDX 54 86 38 87 39 88 44 89 40 90 41 91 43 92 45 93 42 94
REMARK H PARENT 82 31 62 56 36 67
REMARK Flexibility Score: inf
ROOT
ATOM      1  C   UNL A   1      42.026  20.453  27.128  1.00  0.00     0.188 C 
ENDROOT
BRANCH   1   2
ATOM      2  O   UNL A   1      40.753  21.209  27.468  1.00  0.00    -0.376 OA
BRANCH   2   3
ATOM      3  C   UNL A   1      40.381  22.900  27.100  1.00  0.00     0.202 C 
BRANCH   3   4
ATOM      4  C   UNL A   1      41.146  24.545  28.297  1.00  0.00     0.261 C 
BRANCH   4   5
ATOM      5  O   UNL A   1      40.361  25.773  28.752  1.00  0.00    -0.460 OA
BRANCH   5   6
ATOM      6  C   UNL A   1      41.168  26.803  29.044  1.00  0.00     0.338 C 
ATOM      7  O   UNL A   1      42.041  26.856  29.875  1.00  0.00    -0.246 OA
BRANCH   6   8
ATOM      8  C   UNL A   1      40.331  27.846  28.472  1.00  0.00     0.087 C 
ATOM      9  C   UNL A   1      39.272  28.355  29.316  1.00  0.00     0.027 C 
ATOM     10  C   UNL A   1      41.828  28.872  27.873  1.00  0.00     0.316 C 
ATOM     11  C   UNL A   1      39.345  29.902  30.204  1.00  0.00     0.019 A 
ATOM     12  O   UNL A   1      42.019  30.516  28.945  1.00  0.00    -0.475 OA
ATOM     13  C   UNL A   1      38.367  30.116  31.141  1.00  0.00     0.032 A 
ATOM     14  C   UNL A   1      40.694  30.987  30.122  1.00  0.00     0.135 A 
ATOM     15  C   UNL A   1      38.538  31.250  31.936  1.00  0.00     0.042 A 
ATOM     16  C   UNL A   1      40.738  32.133  30.907  1.00  0.00     0.026 A 
ATOM     17  Cl  UNL A   1      37.374  31.529  33.186  1.00  0.00    -0.084 Cl
ATOM     18  C   UNL A   1      39.624  32.194  31.808  1.00  0.00     0.033 A 
BRANCH  10  19
ATOM     19  C   UNL A   1      41.353  28.570  26.234  1.00  0.00     0.430 C 
ATOM     20  F   UNL A   1      41.080  27.347  25.771  1.00  0.00    -0.167 F 
ATOM     21  F   UNL A   1      40.231  29.310  26.000  1.00  0.00    -0.167 F 
ATOM     22  F   UNL A   1      42.263  29.054  25.330  1.00  0.00    -0.167 F 
ENDBRANCH  10  19
BRANCH  16  23
ATOM     23  C   UNL A   1      41.637  33.285  30.946  1.00  0.00    -0.015 A 
ATOM     24  C   UNL A   1      42.031  33.876  32.147  1.00  0.00     0.009 A 
ATOM     25  C   UNL A   1      41.947  33.979  29.755  1.00  0.00     0.009 A 
ATOM     26  C   UNL A   1      42.843  35.021  32.154  1.00  0.00     0.007 A 
ATOM     27  C   UNL A   1      42.787  35.104  29.756  1.00  0.00     0.007 A 
ATOM     28  C   UNL A   1      43.299  35.590  30.959  1.00  0.00    -0.023 A 
BRANCH  28  29
ATOM     29  C   UNL A   1      44.341  36.679  30.973  1.00  0.00     0.191 C 
BRANCH  29  30
ATOM     30  O   UNL A   1      43.772  37.941  31.281  1.00  0.00    -0.392 OA
ATOM     31  H   UNL A   1      42.836  37.943  31.026  1.00  0.00     0.211 HD
ENDBRANCH  29  30
ENDBRANCH  28  29
ENDBRANCH  16  23
ENDBRANCH   6   8
ENDBRANCH   5   6
ENDBRANCH   4   5
ENDBRANCH   3   4
ENDBRANCH   2   3
ENDBRANCH   1   2
BRANCH   1  32
ATOM     32  C   UNL A   1      42.097  19.194  26.254  1.00  0.00     0.188 C 
BRANCH  32  33
ATOM     33  O   UNL A   1      42.708  19.246  25.001  1.00  0.00    -0.376 OA
BRANCH  33  34
ATOM     34  C   UNL A   1      44.087  18.963  24.997  1.00  0.00     0.202 C 
BRANCH  34  35
ATOM     35  C   UNL A   1      45.097  19.959  24.434  1.00  0.00     0.261 C 
BRANCH  35  36
ATOM     36  O   UNL A   1      45.068  21.241  25.064  1.00  0.00    -0.460 OA
BRANCH  36  37
ATOM     37  C   UNL A   1      44.687  22.263  24.268  1.00  0.00     0.338 C 
ATOM     38  O   UNL A   1      44.153  22.204  23.174  1.00  0.00    -0.246 OA
BRANCH  37  39
ATOM     39  C   UNL A   1      44.838  23.509  25.027  1.00  0.00     0.060 A 
ATOM     40  C   UNL A   1      46.098  23.843  25.541  1.00  0.00     0.016 A 
ATOM     41  C   UNL A   1      43.717  24.298  25.287  1.00  0.00     0.016 A 
ATOM     42  C   UNL A   1      46.242  24.963  26.344  1.00  0.00     0.010 A 
ATOM     43  C   UNL A   1      43.848  25.388  26.141  1.00  0.00     0.010 A 
ATOM     44  C   UNL A   1      45.101  25.683  26.705  1.00  0.00    -0.014 A 
BRANCH  44  45
ATOM     45  C   UNL A   1      45.185  26.505  27.925  1.00  0.00     0.031 A 
ATOM     46  C   UNL A   1      45.327  27.990  27.740  1.00  0.00     0.074 A 
ATOM     47  C   UNL A   1      45.054  25.958  29.141  1.00  0.00     0.049 A 
ATOM     48  N   UNL A   1      45.377  28.939  28.636  1.00  0.00    -0.248 NA
ATOM     49  C   UNL A   1      45.418  28.470  26.349  1.00  0.00     0.031 C 
ATOM     50  C   UNL A   1      44.843  24.538  29.413  1.00  0.00     0.029 A 
ATOM     51  N   UNL A   1      45.070  26.547  30.376  1.00  0.00    -0.354 N 
ATOM     52  C   UNL A   1      45.513  30.120  27.918  1.00  0.00     0.074 A 
ATOM     53  C   UNL A   1      45.572  29.772  26.518  1.00  0.00     0.031 C 
ATOM     54  C   UNL A   1      44.753  24.363  30.743  1.00  0.00     0.029 A 
ATOM     55  C   UNL A   1      44.928  25.653  31.407  1.00  0.00     0.049 A 
ATOM     56  H   UNL A   1      45.174  27.515  30.512  1.00  0.00     0.167 HD
ATOM     57  C   UNL A   1      45.576  31.386  28.390  1.00  0.00     0.037 A 
ATOM     58  C   UNL A   1      44.951  25.870  32.735  1.00  0.00     0.037 A 
ATOM     59  C   UNL A   1      45.534  31.712  29.789  1.00  0.00     0.049 A 
ATOM     60  C   UNL A   1      45.119  27.282  33.237  1.00  0.00     0.074 A 
ATOM     61  C   UNL A   1      45.585  32.957  30.385  1.00  0.00     0.029 A 
ATOM     62  N   UNL A   1      45.454  30.777  30.811  1.00  0.00    -0.354 N 
ATOM     63  N   UNL A   1      45.220  28.401  32.558  1.00  0.00    -0.248 NA
ATOM     64  C   UNL A   1      45.164  27.461  34.694  1.00  0.00     0.031 C 
ATOM     65  C   UNL A   1      45.619  32.771  31.770  1.00  0.00     0.029 A 
ATOM     66  C   UNL A   1      45.494  31.416  32.038  1.00  0.00     0.049 A 
ATOM     67  H   UNL A   1      45.380  29.803  30.683  1.00  0.00     0.167 HD
ATOM     68  C   UNL A   1      45.293  29.418  33.503  1.00  0.00     0.074 A 
ATOM     69  C   UNL A   1      45.213  28.781  34.801  1.00  0.00     0.031 C 
ATOM     70  C   UNL A   1      45.408  30.758  33.318  1.00  0.00     0.037 A 
BRANCH  57  71
ATOM     71  C   UNL A   1      45.760  32.488  27.387  1.00  0.00     0.057 A 
ATOM     72  C   UNL A   1      47.023  32.982  27.033  1.00  0.00     0.134 A 
ATOM     73  C   UNL A   1      44.645  33.068  26.765  1.00  0.00     0.134 A 
ATOM     74  F   UNL A   1      48.132  32.488  27.605  1.00  0.00    -0.206 F 
ATOM     75  C   UNL A   1      47.169  34.033  26.125  1.00  0.00     0.040 A 
ATOM     76  C   UNL A   1      44.781  34.094  25.829  1.00  0.00     0.040 A 
ATOM     77  F   UNL A   1      43.406  32.648  27.059  1.00  0.00    -0.206 F 
ATOM     78  C   UNL A   1      46.045  34.586  25.514  1.00  0.00     0.006 A 
ENDBRANCH  57  71
BRANCH  58  79
ATOM     79  C   UNL A   1      44.811  24.735  33.683  1.00  0.00     0.057 A 
ATOM     80  C   UNL A   1      45.904  23.923  34.010  1.00  0.00     0.134 A 
ATOM     81  C   UNL A   1      43.576  24.414  34.258  1.00  0.00     0.134 A 
ATOM     82  F   UNL A   1      47.111  24.168  33.477  1.00  0.00    -0.206 F 
ATOM     83  C   UNL A   1      45.768  22.816  34.849  1.00  0.00     0.040 A 
ATOM     84  C   UNL A   1      43.432  23.329  35.124  1.00  0.00     0.040 A 
ATOM     85  F   UNL A   1      42.489  25.152  33.989  1.00  0.00    -0.206 F 
ATOM     86  C   UNL A   1      44.529  22.519  35.413  1.00  0.00     0.006 A 
ENDBRANCH  58  79
BRANCH  70  87
ATOM     87  C   UNL A   1      45.388  31.627  34.547  1.00  0.00     0.057 A 
ATOM     88  C   UNL A   1      44.198  32.113  35.104  1.00  0.00     0.134 A 
ATOM     89  C   UNL A   1      46.586  31.958  35.196  1.00  0.00     0.134 A 
ATOM     90  F   UNL A   1      43.016  31.839  34.533  1.00  0.00    -0.206 F 
ATOM     91  C   UNL A   1      44.205  32.938  36.231  1.00  0.00     0.040 A 
ATOM     92  C   UNL A   1      46.601  32.745  36.347  1.00  0.00     0.040 A 
ATOM     93  F   UNL A   1      47.762  31.511  34.730  1.00  0.00    -0.206 F 
ATOM     94  C   UNL A   1      45.409  33.250  36.860  1.00  0.00     0.006 A 
ENDBRANCH  70  87
ENDBRANCH  44  45
ENDBRANCH  37  39
ENDBRANCH  36  37
ENDBRANCH  35  36
ENDBRANCH  34  35
ENDBRANCH  33  34
ENDBRANCH  32  33
ENDBRANCH   1  32
TORSDOF 21
ENDMDL
