MODEL 1
REMARK VINA RESULT:      -9.7      0.000      0.000
REMARK SMILES O=C(OCCOCCOCCOC(=O)[C@H]1C[C@](O)(c2ccc(Cl)cc2)[C@@H](c2ccc(Cl)cc2)O1)c1ccc(-c2c3nc(c(-c4c(F)cccc4F)c4ccc([nH]4)c(-c4c(F)cccc4F)c4nc(c(-c5c(F)cccc5F)c5ccc2[nH]5)C=C4)C=C3)cc1
REMARK SMILES IDX 7 1 6 2 5 3 4 4 3 5 2 6 1 7 35 8 36 9 88 10 37 11 87 12
REMARK SMILES IDX 38 13 39 14 40 15 81 16 41 17 86 18 80 19 82 20 42 21 85 22
REMARK SMILES IDX 79 23 78 24 43 26 69 27 52 28 68 29 53 30 56 31 67 32 83 33
REMARK SMILES IDX 54 34 55 35 66 37 84 38 57 39 44 40 45 41 50 42 46 43 47 44
REMARK SMILES IDX 49 45 51 46 48 47 70 48 71 49 76 50 72 51 73 52 75 53 77 54
REMARK SMILES IDX 74 55 58 56 59 57 64 58 60 59 61 60 63 61 65 62 62 63 8 64
REMARK SMILES IDX 9 65 10 66 11 67 12 68 13 69 14 70 15 71 16 72 34 73 17 74
REMARK SMILES IDX 26 75 19 76 20 77 25 78 21 79 24 80 22 81 23 82 18 83 27 85
REMARK SMILES IDX 28 86 33 87 29 88 32 89 30 90 31 91
REMARK H PARENT 82 25 56 36 18 84
REMARK Flexibility Score: inf
ROOT
ATOM      1  C   UNL A   1      46.289  20.076  24.587  1.00  0.00     0.188 C 
ENDROOT
BRANCH   1   2
ATOM      2  O   UNL A   1      46.357  21.278  25.359  1.00  0.00    -0.376 OA
BRANCH   2   3
ATOM      3  C   UNL A   1      46.186  22.503  24.648  1.00  0.00     0.202 C 
BRANCH   3   4
ATOM      4  C   UNL A   1      46.307  23.827  25.418  1.00  0.00     0.261 C 
BRANCH   4   5
ATOM      5  O   UNL A   1      46.455  24.991  24.603  1.00  0.00    -0.460 OA
BRANCH   5   6
ATOM      6  C   UNL A   1      46.682  26.273  24.959  1.00  0.00     0.338 C 
ATOM      7  O   UNL A   1      47.583  26.867  24.367  1.00  0.00    -0.246 OA
BRANCH   6   8
ATOM      8  C   UNL A   1      45.996  27.005  26.082  1.00  0.00     0.060 A 
ATOM      9  C   UNL A   1      44.683  27.490  26.128  1.00  0.00     0.016 A 
ATOM     10  C   UNL A   1      46.766  27.158  27.249  1.00  0.00     0.016 A 
ATOM     11  C   UNL A   1      44.161  28.114  27.288  1.00  0.00     0.010 A 
ATOM     12  C   UNL A   1      46.248  27.753  28.403  1.00  0.00     0.010 A 
ATOM     13  C   UNL A   1      44.936  28.245  28.442  1.00  0.00    -0.014 A 
BRANCH  13  14
ATOM     14  C   UNL A   1      44.551  29.060  29.635  1.00  0.00     0.031 A 
ATOM     15  C   UNL A   1      44.197  28.308  30.860  1.00  0.00     0.074 A 
ATOM     16  C   UNL A   1      44.456  30.404  29.658  1.00  0.00     0.049 A 
ATOM     17  N   UNL A   1      43.676  28.756  31.963  1.00  0.00    -0.248 NA
ATOM     18  C   UNL A   1      44.501  26.868  30.853  1.00  0.00     0.031 C 
ATOM     19  C   UNL A   1      44.991  31.235  28.617  1.00  0.00     0.029 A 
ATOM     20  N   UNL A   1      43.896  31.324  30.515  1.00  0.00    -0.354 N 
ATOM     21  C   UNL A   1      43.643  27.665  32.806  1.00  0.00     0.074 A 
ATOM     22  C   UNL A   1      44.077  26.511  32.051  1.00  0.00     0.031 C 
ATOM     23  C   UNL A   1      44.676  32.526  28.812  1.00  0.00     0.029 A 
ATOM     24  C   UNL A   1      43.841  32.606  29.986  1.00  0.00     0.049 A 
ATOM     25  H   UNL A   1      43.568  31.094  31.415  1.00  0.00     0.167 HD
ATOM     26  C   UNL A   1      43.338  27.663  34.118  1.00  0.00     0.037 A 
ATOM     27  C   UNL A   1      43.151  33.701  30.366  1.00  0.00     0.037 A 
ATOM     28  C   UNL A   1      42.861  28.829  34.806  1.00  0.00     0.049 A 
ATOM     29  C   UNL A   1      42.496  33.601  31.702  1.00  0.00     0.074 A 
ATOM     30  C   UNL A   1      42.485  28.961  36.126  1.00  0.00     0.029 A 
ATOM     31  N   UNL A   1      42.663  30.069  34.201  1.00  0.00    -0.354 N 
ATOM     32  N   UNL A   1      42.462  32.562  32.499  1.00  0.00    -0.248 NA
ATOM     33  C   UNL A   1      41.874  34.812  32.240  1.00  0.00     0.031 C 
ATOM     34  C   UNL A   1      41.998  30.262  36.302  1.00  0.00     0.029 A 
ATOM     35  C   UNL A   1      42.128  30.963  35.110  1.00  0.00     0.049 A 
ATOM     36  H   UNL A   1      42.876  30.279  33.263  1.00  0.00     0.167 HD
ATOM     37  C   UNL A   1      41.911  33.010  33.679  1.00  0.00     0.074 A 
ATOM     38  C   UNL A   1      41.556  34.405  33.464  1.00  0.00     0.031 C 
ATOM     39  C   UNL A   1      41.779  32.342  34.849  1.00  0.00     0.037 A 
BRANCH  26  40
ATOM     40  C   UNL A   1      43.481  26.338  34.796  1.00  0.00     0.057 A 
ATOM     41  C   UNL A   1      44.744  25.785  35.065  1.00  0.00     0.134 A 
ATOM     42  C   UNL A   1      42.361  25.528  34.999  1.00  0.00     0.134 A 
ATOM     43  F   UNL A   1      45.862  26.495  34.839  1.00  0.00    -0.206 F 
ATOM     44  C   UNL A   1      44.889  24.450  35.446  1.00  0.00     0.040 A 
ATOM     45  C   UNL A   1      42.492  24.202  35.409  1.00  0.00     0.040 A 
ATOM     46  F   UNL A   1      41.130  25.992  34.740  1.00  0.00    -0.206 F 
ATOM     47  C   UNL A   1      43.758  23.653  35.612  1.00  0.00     0.006 A 
ENDBRANCH  26  40
BRANCH  27  48
ATOM     48  C   UNL A   1      43.070  34.945  29.537  1.00  0.00     0.057 A 
ATOM     49  C   UNL A   1      44.141  35.836  29.424  1.00  0.00     0.134 A 
ATOM     50  C   UNL A   1      41.899  35.299  28.850  1.00  0.00     0.134 A 
ATOM     51  F   UNL A   1      45.274  35.614  30.104  1.00  0.00    -0.206 F 
ATOM     52  C   UNL A   1      44.060  36.998  28.640  1.00  0.00     0.040 A 
ATOM     53  C   UNL A   1      41.816  36.429  28.027  1.00  0.00     0.040 A 
ATOM     54  F   UNL A   1      40.781  34.588  29.005  1.00  0.00    -0.206 F 
ATOM     55  C   UNL A   1      42.903  37.286  27.920  1.00  0.00     0.006 A 
ENDBRANCH  27  48
BRANCH  39  56
ATOM     56  C   UNL A   1      41.290  33.142  36.010  1.00  0.00     0.057 A 
ATOM     57  C   UNL A   1      42.157  33.883  36.817  1.00  0.00     0.134 A 
ATOM     58  C   UNL A   1      39.915  33.231  36.258  1.00  0.00     0.134 A 
ATOM     59  F   UNL A   1      43.485  33.807  36.639  1.00  0.00    -0.206 F 
ATOM     60  C   UNL A   1      41.669  34.700  37.834  1.00  0.00     0.040 A 
ATOM     61  C   UNL A   1      39.415  34.067  37.251  1.00  0.00     0.040 A 
ATOM     62  F   UNL A   1      39.041  32.533  35.517  1.00  0.00    -0.206 F 
ATOM     63  C   UNL A   1      40.293  34.806  38.041  1.00  0.00     0.006 A 
ENDBRANCH  39  56
ENDBRANCH  13  14
ENDBRANCH   6   8
ENDBRANCH   5   6
ENDBRANCH   4   5
ENDBRANCH   3   4
ENDBRANCH   2   3
ENDBRANCH   1   2
BRANCH   1  64
ATOM     64  C   UNL A   1      46.083  18.818  25.445  1.00  0.00     0.188 C 
BRANCH  64  65
ATOM     65  O   UNL A   1      44.750  18.313  25.464  1.00  0.00    -0.376 OA
BRANCH  65  66
ATOM     66  C   UNL A   1      43.769  19.135  24.838  1.00  0.00     0.202 C 
BRANCH  66  67
ATOM     67  C   UNL A   1      42.748  19.789  25.781  1.00  0.00     0.261 C 
BRANCH  67  68
ATOM     68  O   UNL A   1      43.226  20.967  26.444  1.00  0.00    -0.461 OA
BRANCH  68  69
ATOM     69  C   UNL A   1      42.759  22.169  26.022  1.00  0.00     0.335 C 
ATOM     70  O   UNL A   1      42.639  22.509  24.848  1.00  0.00    -0.249 OA
BRANCH  69  71
ATOM     71  C   UNL A   1      42.393  23.079  27.200  1.00  0.00     0.232 C 
ATOM     72  C   UNL A   1      42.515  24.556  26.870  1.00  0.00     0.087 C 
ATOM     73  O   UNL A   1      41.106  22.827  27.747  1.00  0.00    -0.355 OA
ATOM     74  C   UNL A   1      41.092  25.100  26.813  1.00  0.00     0.123 C 
ATOM     75  C   UNL A   1      40.216  23.897  27.393  1.00  0.00     0.186 C 
BRANCH  74  76
ATOM     76  C   UNL A   1      41.064  26.490  27.499  1.00  0.00    -0.013 A 
ATOM     77  C   UNL A   1      40.808  27.662  26.747  1.00  0.00     0.008 A 
ATOM     78  C   UNL A   1      41.299  26.683  28.864  1.00  0.00     0.008 A 
ATOM     79  C   UNL A   1      40.622  28.919  27.349  1.00  0.00     0.021 A 
ATOM     80  C   UNL A   1      41.056  27.928  29.472  1.00  0.00     0.021 A 
ATOM     81  C   UNL A   1      40.695  29.034  28.724  1.00  0.00     0.041 A 
ATOM     82  Cl  UNL A   1      40.340  30.525  29.503  1.00  0.00    -0.084 Cl
ENDBRANCH  74  76
BRANCH  74  83
ATOM     83  O   UNL A   1      40.783  25.328  25.433  1.00  0.00    -0.382 OA
ATOM     84  H   UNL A   1      40.855  26.276  25.238  1.00  0.00     0.212 HD
ENDBRANCH  74  83
BRANCH  75  85
ATOM     85  C   UNL A   1      39.041  23.268  26.610  1.00  0.00    -0.016 A 
ATOM     86  C   UNL A   1      39.087  21.974  26.093  1.00  0.00     0.008 A 
ATOM     87  C   UNL A   1      37.827  23.960  26.406  1.00  0.00     0.008 A 
ATOM     88  C   UNL A   1      38.014  21.395  25.403  1.00  0.00     0.021 A 
ATOM     89  C   UNL A   1      36.780  23.425  25.632  1.00  0.00     0.021 A 
ATOM     90  C   UNL A   1      36.877  22.134  25.137  1.00  0.00     0.041 A 
ATOM     91  Cl  UNL A   1      35.612  21.447  24.200  1.00  0.00    -0.084 Cl
ENDBRANCH  75  85
ENDBRANCH  69  71
ENDBRANCH  68  69
ENDBRANCH  67  68
ENDBRANCH  66  67
ENDBRANCH  65  66
ENDBRANCH  64  65
ENDBRANCH   1  64
TORSDOF 20
ENDMDL
MODEL 2
REMARK VINA RESULT:      -9.7      3.614      7.306
REMARK SMILES O=C(OCCOCCOCCOC(=O)[C@H]1C[C@](O)(c2ccc(Cl)cc2)[C@@H](c2ccc(Cl)cc2)O1)c1ccc(-c2c3nc(c(-c4c(F)cccc4F)c4ccc([nH]4)c(-c4c(F)cccc4F)c4nc(c(-c5c(F)cccc5F)c5ccc2[nH]5)C=C4)C=C3)cc1
REMARK SMILES IDX 7 1 6 2 5 3 4 4 3 5 2 6 1 7 35 8 36 9 88 10 37 11 87 12
REMARK SMILES IDX 38 13 39 14 40 15 81 16 41 17 86 18 80 19 82 20 42 21 85 22
REMARK SMILES IDX 79 23 78 24 43 26 69 27 52 28 68 29 53 30 56 31 67 32 83 33
REMARK SMILES IDX 54 34 55 35 66 37 84 38 57 39 44 40 45 41 50 42 46 43 47 44
REMARK SMILES IDX 49 45 51 46 48 47 70 48 71 49 76 50 72 51 73 52 75 53 77 54
REMARK SMILES IDX 74 55 58 56 59 57 64 58 60 59 61 60 63 61 65 62 62 63 8 64
REMARK SMILES IDX 9 65 10 66 11 67 12 68 13 69 14 70 15 71 16 72 34 73 17 74
REMARK SMILES IDX 26 75 19 76 20 77 25 78 21 79 24 80 22 81 23 82 18 83 27 85
REMARK SMILES IDX 28 86 33 87 29 88 32 89 30 90 31 91
REMARK H PARENT 82 25 56 36 18 84
REMARK Flexibility Score: inf
ROOT
ATOM      1  C   UNL A   1      42.282  19.792  26.746  1.00  0.00     0.188 C 
ENDROOT
BRANCH   1   2
ATOM      2  O   UNL A   1      42.769  20.078  25.433  1.00  0.00    -0.376 OA
BRANCH   2   3
ATOM      3  C   UNL A   1      44.028  20.744  25.350  1.00  0.00     0.202 C 
BRANCH   3   4
ATOM      4  C   UNL A   1      44.067  22.185  24.819  1.00  0.00     0.261 C 
BRANCH   4   5
ATOM      5  O   UNL A   1      44.068  23.201  25.823  1.00  0.00    -0.460 OA
BRANCH   5   6
ATOM      6  C   UNL A   1      44.035  24.544  25.694  1.00  0.00     0.338 C 
ATOM      7  O   UNL A   1      44.500  25.019  24.657  1.00  0.00    -0.246 OA
BRANCH   6   8
ATOM      8  C   UNL A   1      43.569  25.515  26.747  1.00  0.00     0.060 A 
ATOM      9  C   UNL A   1      44.065  26.794  27.027  1.00  0.00     0.016 A 
ATOM     10  C   UNL A   1      42.454  25.092  27.492  1.00  0.00     0.016 A 
ATOM     11  C   UNL A   1      43.478  27.617  28.021  1.00  0.00     0.010 A 
ATOM     12  C   UNL A   1      41.858  25.910  28.457  1.00  0.00     0.010 A 
ATOM     13  C   UNL A   1      42.362  27.187  28.741  1.00  0.00    -0.014 A 
BRANCH  13  14
ATOM     14  C   UNL A   1      41.802  27.888  29.937  1.00  0.00     0.031 A 
ATOM     15  C   UNL A   1      40.686  28.828  29.686  1.00  0.00     0.074 A 
ATOM     16  C   UNL A   1      42.266  27.765  31.196  1.00  0.00     0.049 A 
ATOM     17  N   UNL A   1      40.140  29.674  30.507  1.00  0.00    -0.248 NA
ATOM     18  C   UNL A   1      40.085  28.785  28.344  1.00  0.00     0.031 C 
ATOM     19  C   UNL A   1      43.175  26.725  31.588  1.00  0.00     0.029 A 
ATOM     20  N   UNL A   1      42.097  28.469  32.367  1.00  0.00    -0.354 N 
ATOM     21  C   UNL A   1      39.091  30.224  29.802  1.00  0.00     0.074 A 
ATOM     22  C   UNL A   1      39.153  29.712  28.451  1.00  0.00     0.031 C 
ATOM     23  C   UNL A   1      43.574  26.879  32.861  1.00  0.00     0.029 A 
ATOM     24  C   UNL A   1      42.986  28.096  33.366  1.00  0.00     0.049 A 
ATOM     25  H   UNL A   1      41.414  29.169  32.483  1.00  0.00     0.167 HD
ATOM     26  C   UNL A   1      38.127  31.035  30.281  1.00  0.00     0.037 A 
ATOM     27  C   UNL A   1      43.331  28.694  34.525  1.00  0.00     0.037 A 
ATOM     28  C   UNL A   1      38.145  31.555  31.618  1.00  0.00     0.049 A 
ATOM     29  C   UNL A   1      42.469  29.844  34.922  1.00  0.00     0.074 A 
ATOM     30  C   UNL A   1      37.250  32.411  32.224  1.00  0.00     0.029 A 
ATOM     31  N   UNL A   1      39.145  31.286  32.551  1.00  0.00    -0.354 N 
ATOM     32  N   UNL A   1      41.476  30.368  34.247  1.00  0.00    -0.248 NA
ATOM     33  C   UNL A   1      42.690  30.426  36.246  1.00  0.00     0.031 C 
ATOM     34  C   UNL A   1      37.744  32.710  33.500  1.00  0.00     0.029 A 
ATOM     35  C   UNL A   1      38.914  31.993  33.715  1.00  0.00     0.049 A 
ATOM     36  H   UNL A   1      39.905  30.677  32.402  1.00  0.00     0.167 HD
ATOM     37  C   UNL A   1      40.879  31.273  35.096  1.00  0.00     0.074 A 
ATOM     38  C   UNL A   1      41.673  31.278  36.316  1.00  0.00     0.031 C 
ATOM     39  C   UNL A   1      39.739  31.977  34.904  1.00  0.00     0.037 A 
BRANCH  26  40
ATOM     40  C   UNL A   1      37.062  31.397  29.296  1.00  0.00     0.057 A 
ATOM     41  C   UNL A   1      37.016  32.669  28.702  1.00  0.00     0.134 A 
ATOM     42  C   UNL A   1      35.973  30.546  29.095  1.00  0.00     0.134 A 
ATOM     43  F   UNL A   1      38.007  33.552  28.902  1.00  0.00    -0.206 F 
ATOM     44  C   UNL A   1      35.891  33.103  27.999  1.00  0.00     0.040 A 
ATOM     45  C   UNL A   1      34.856  30.959  28.368  1.00  0.00     0.040 A 
ATOM     46  F   UNL A   1      35.949  29.327  29.654  1.00  0.00    -0.206 F 
ATOM     47  C   UNL A   1      34.804  32.247  27.837  1.00  0.00     0.006 A 
ENDBRANCH  26  40
BRANCH  27  48
ATOM     48  C   UNL A   1      44.468  28.227  35.379  1.00  0.00     0.057 A 
ATOM     49  C   UNL A   1      45.776  28.686  35.195  1.00  0.00     0.134 A 
ATOM     50  C   UNL A   1      44.287  27.276  36.395  1.00  0.00     0.134 A 
ATOM     51  F   UNL A   1      46.053  29.541  34.202  1.00  0.00    -0.206 F 
ATOM     52  C   UNL A   1      46.836  28.248  36.003  1.00  0.00     0.040 A 
ATOM     53  C   UNL A   1      45.324  26.863  37.241  1.00  0.00     0.040 A 
ATOM     54  F   UNL A   1      43.106  26.676  36.559  1.00  0.00    -0.206 F 
ATOM     55  C   UNL A   1      46.609  27.351  37.045  1.00  0.00     0.006 A 
ENDBRANCH  27  48
BRANCH  39  56
ATOM     56  C   UNL A   1      39.246  32.761  36.074  1.00  0.00     0.057 A 
ATOM     57  C   UNL A   1      38.356  32.221  37.005  1.00  0.00     0.134 A 
ATOM     58  C   UNL A   1      39.748  34.048  36.305  1.00  0.00     0.134 A 
ATOM     59  F   UNL A   1      37.823  31.005  36.813  1.00  0.00    -0.206 F 
ATOM     60  C   UNL A   1      37.986  32.936  38.142  1.00  0.00     0.040 A 
ATOM     61  C   UNL A   1      39.408  34.758  37.451  1.00  0.00     0.040 A 
ATOM     62  F   UNL A   1      40.598  34.614  35.436  1.00  0.00    -0.206 F 
ATOM     63  C   UNL A   1      38.527  34.200  38.375  1.00  0.00     0.006 A 
ENDBRANCH  39  56
ENDBRANCH  13  14
ENDBRANCH   6   8
ENDBRANCH   5   6
ENDBRANCH   4   5
ENDBRANCH   3   4
ENDBRANCH   2   3
ENDBRANCH   1   2
BRANCH   1  64
ATOM     64  C   UNL A   1      41.804  21.042  27.500  1.00  0.00     0.188 C 
BRANCH  64  65
ATOM     65  O   UNL A   1      40.407  21.311  27.400  1.00  0.00    -0.376 OA
BRANCH  65  66
ATOM     66  C   UNL A   1      39.995  22.000  26.223  1.00  0.00     0.202 C 
BRANCH  66  67
ATOM     67  C   UNL A   1      38.939  23.095  26.429  1.00  0.00     0.261 C 
BRANCH  67  68
ATOM     68  O   UNL A   1      37.584  22.635  26.340  1.00  0.00    -0.461 OA
BRANCH  68  69
ATOM     69  C   UNL A   1      36.801  23.144  25.356  1.00  0.00     0.335 C 
ATOM     70  O   UNL A   1      37.115  23.220  24.170  1.00  0.00    -0.249 OA
BRANCH  69  71
ATOM     71  C   UNL A   1      35.452  23.627  25.898  1.00  0.00     0.232 C 
ATOM     72  C   UNL A   1      34.683  24.482  24.906  1.00  0.00     0.087 C 
ATOM     73  O   UNL A   1      34.609  22.582  26.366  1.00  0.00    -0.355 OA
ATOM     74  C   UNL A   1      33.496  23.642  24.449  1.00  0.00     0.123 C 
ATOM     75  C   UNL A   1      33.520  22.397  25.448  1.00  0.00     0.186 C 
BRANCH  74  76
ATOM     76  C   UNL A   1      32.245  24.555  24.364  1.00  0.00    -0.013 A 
ATOM     77  C   UNL A   1      31.864  25.147  23.136  1.00  0.00     0.008 A 
ATOM     78  C   UNL A   1      31.439  24.863  25.465  1.00  0.00     0.008 A 
ATOM     79  C   UNL A   1      30.657  25.853  22.983  1.00  0.00     0.021 A 
ATOM     80  C   UNL A   1      30.206  25.519  25.299  1.00  0.00     0.021 A 
ATOM     81  C   UNL A   1      29.804  25.990  24.061  1.00  0.00     0.041 A 
ATOM     82  Cl  UNL A   1      28.262  26.727  23.877  1.00  0.00    -0.084 Cl
ENDBRANCH  74  76
BRANCH  74  83
ATOM     83  O   UNL A   1      33.772  23.218  23.108  1.00  0.00    -0.382 OA
ATOM     84  H   UNL A   1      32.937  23.069  22.638  1.00  0.00     0.212 HD
ENDBRANCH  74  83
BRANCH  75  85
ATOM     85  C   UNL A   1      33.587  20.933  24.955  1.00  0.00    -0.016 A 
ATOM     86  C   UNL A   1      34.742  20.159  25.051  1.00  0.00     0.008 A 
ATOM     87  C   UNL A   1      32.460  20.278  24.413  1.00  0.00     0.008 A 
ATOM     88  C   UNL A   1      34.797  18.825  24.625  1.00  0.00     0.021 A 
ATOM     89  C   UNL A   1      32.530  18.971  23.895  1.00  0.00     0.021 A 
ATOM     90  C   UNL A   1      33.704  18.244  24.011  1.00  0.00     0.041 A 
ATOM     91  Cl  UNL A   1      33.818  16.643  23.400  1.00  0.00    -0.084 Cl
ENDBRANCH  75  85
ENDBRANCH  69  71
ENDBRANCH  68  69
ENDBRANCH  67  68
ENDBRANCH  66  67
ENDBRANCH  65  66
ENDBRANCH  64  65
ENDBRANCH   1  64
TORSDOF 20
ENDMDL
MODEL 3
REMARK VINA RESULT:      -9.5      4.151      6.473
REMARK SMILES O=C(OCCOCCOCCOC(=O)[C@H]1C[C@](O)(c2ccc(Cl)cc2)[C@@H](c2ccc(Cl)cc2)O1)c1ccc(-c2c3nc(c(-c4c(F)cccc4F)c4ccc([nH]4)c(-c4c(F)cccc4F)c4nc(c(-c5c(F)cccc5F)c5ccc2[nH]5)C=C4)C=C3)cc1
REMARK SMILES IDX 7 1 6 2 5 3 4 4 3 5 2 6 1 7 35 8 36 9 88 10 37 11 87 12
REMARK SMILES IDX 38 13 39 14 40 15 81 16 41 17 86 18 80 19 82 20 42 21 85 22
REMARK SMILES IDX 79 23 78 24 43 26 69 27 52 28 68 29 53 30 56 31 67 32 83 33
REMARK SMILES IDX 54 34 55 35 66 37 84 38 57 39 44 40 45 41 50 42 46 43 47 44
REMARK SMILES IDX 49 45 51 46 48 47 70 48 71 49 76 50 72 51 73 52 75 53 77 54
REMARK SMILES IDX 74 55 58 56 59 57 64 58 60 59 61 60 63 61 65 62 62 63 8 64
REMARK SMILES IDX 9 65 10 66 11 67 12 68 13 69 14 70 15 71 16 72 34 73 17 74
REMARK SMILES IDX 26 75 19 76 20 77 25 78 21 79 24 80 22 81 23 82 18 83 27 85
REMARK SMILES IDX 28 86 33 87 29 88 32 89 30 90 31 91
REMARK H PARENT 82 25 56 36 18 84
REMARK Flexibility Score: inf
ROOT
ATOM      1  C   UNL A   1      38.722  20.146  25.052  1.00  0.00     0.188 C 
ENDROOT
BRANCH   1   2
ATOM      2  O   UNL A   1      39.566  20.574  26.124  1.00  0.00    -0.376 OA
BRANCH   2   3
ATOM      3  C   UNL A   1      40.814  19.898  26.262  1.00  0.00     0.202 C 
BRANCH   3   4
ATOM      4  C   UNL A   1      42.112  20.688  26.033  1.00  0.00     0.261 C 
BRANCH   4   5
ATOM      5  O   UNL A   1      41.952  21.932  25.350  1.00  0.00    -0.460 OA
BRANCH   5   6
ATOM      6  C   UNL A   1      42.749  23.021  25.339  1.00  0.00     0.338 C 
ATOM      7  O   UNL A   1      43.760  22.968  24.637  1.00  0.00    -0.246 OA
BRANCH   6   8
ATOM      8  C   UNL A   1      42.560  24.255  26.182  1.00  0.00     0.060 A 
ATOM      9  C   UNL A   1      43.237  25.477  26.094  1.00  0.00     0.016 A 
ATOM     10  C   UNL A   1      41.527  24.171  27.133  1.00  0.00     0.016 A 
ATOM     11  C   UNL A   1      42.904  26.572  26.930  1.00  0.00     0.010 A 
ATOM     12  C   UNL A   1      41.180  25.256  27.944  1.00  0.00     0.010 A 
ATOM     13  C   UNL A   1      41.865  26.476  27.859  1.00  0.00    -0.014 A 
BRANCH  13  14
ATOM     14  C   UNL A   1      41.575  27.494  28.915  1.00  0.00     0.031 A 
ATOM     15  C   UNL A   1      42.337  27.367  30.178  1.00  0.00     0.074 A 
ATOM     16  C   UNL A   1      40.651  28.470  28.818  1.00  0.00     0.049 A 
ATOM     17  N   UNL A   1      42.161  28.005  31.297  1.00  0.00    -0.248 NA
ATOM     18  C   UNL A   1      43.464  26.421  30.169  1.00  0.00     0.031 C 
ATOM     19  C   UNL A   1      40.029  28.827  27.575  1.00  0.00     0.029 A 
ATOM     20  N   UNL A   1      40.044  29.324  29.711  1.00  0.00    -0.354 N 
ATOM     21  C   UNL A   1      43.192  27.583  32.109  1.00  0.00     0.074 A 
ATOM     22  C   UNL A   1      43.912  26.546  31.404  1.00  0.00     0.031 C 
ATOM     23  C   UNL A   1      39.069  29.747  27.756  1.00  0.00     0.029 A 
ATOM     24  C   UNL A   1      38.960  30.003  29.171  1.00  0.00     0.049 A 
ATOM     25  H   UNL A   1      40.350  29.442  30.639  1.00  0.00     0.167 HD
ATOM     26  C   UNL A   1      43.533  28.082  33.313  1.00  0.00     0.037 A 
ATOM     27  C   UNL A   1      37.961  30.698  29.753  1.00  0.00     0.037 A 
ATOM     28  C   UNL A   1      42.751  29.076  33.991  1.00  0.00     0.049 A 
ATOM     29  C   UNL A   1      38.151  30.979  31.205  1.00  0.00     0.074 A 
ATOM     30  C   UNL A   1      42.962  29.647  35.228  1.00  0.00     0.029 A 
ATOM     31  N   UNL A   1      41.571  29.622  33.487  1.00  0.00    -0.354 N 
ATOM     32  N   UNL A   1      39.129  30.572  31.976  1.00  0.00    -0.248 NA
ATOM     33  C   UNL A   1      37.184  31.868  31.851  1.00  0.00     0.031 C 
ATOM     34  C   UNL A   1      41.876  30.489  35.499  1.00  0.00     0.029 A 
ATOM     35  C   UNL A   1      41.018  30.493  34.407  1.00  0.00     0.049 A 
ATOM     36  H   UNL A   1      41.188  29.418  32.603  1.00  0.00     0.167 HD
ATOM     37  C   UNL A   1      38.966  31.234  33.173  1.00  0.00     0.074 A 
ATOM     38  C   UNL A   1      37.744  32.015  33.047  1.00  0.00     0.031 C 
ATOM     39  C   UNL A   1      39.792  31.243  34.245  1.00  0.00     0.037 A 
BRANCH  26  40
ATOM     40  C   UNL A   1      44.762  27.483  33.918  1.00  0.00     0.057 A 
ATOM     41  C   UNL A   1      46.036  28.026  33.679  1.00  0.00     0.134 A 
ATOM     42  C   UNL A   1      44.693  26.251  34.574  1.00  0.00     0.134 A 
ATOM     43  F   UNL A   1      46.170  29.180  33.007  1.00  0.00    -0.206 F 
ATOM     44  C   UNL A   1      47.198  27.329  34.013  1.00  0.00     0.040 A 
ATOM     45  C   UNL A   1      45.848  25.560  34.939  1.00  0.00     0.040 A 
ATOM     46  F   UNL A   1      43.507  25.672  34.812  1.00  0.00    -0.206 F 
ATOM     47  C   UNL A   1      47.104  26.088  34.638  1.00  0.00     0.006 A 
ENDBRANCH  26  40
BRANCH  27  48
ATOM     48  C   UNL A   1      36.763  31.191  29.003  1.00  0.00     0.057 A 
ATOM     49  C   UNL A   1      35.718  30.342  28.626  1.00  0.00     0.134 A 
ATOM     50  C   UNL A   1      36.638  32.532  28.610  1.00  0.00     0.134 A 
ATOM     51  F   UNL A   1      35.788  29.032  28.897  1.00  0.00    -0.206 F 
ATOM     52  C   UNL A   1      34.595  30.812  27.927  1.00  0.00     0.040 A 
ATOM     53  C   UNL A   1      35.504  33.028  27.954  1.00  0.00     0.040 A 
ATOM     54  F   UNL A   1      37.642  33.391  28.801  1.00  0.00    -0.206 F 
ATOM     55  C   UNL A   1      34.474  32.163  27.609  1.00  0.00     0.006 A 
ENDBRANCH  27  48
BRANCH  39  56
ATOM     56  C   UNL A   1      39.432  32.187  35.343  1.00  0.00     0.057 A 
ATOM     57  C   UNL A   1      39.864  33.516  35.348  1.00  0.00     0.134 A 
ATOM     58  C   UNL A   1      38.566  31.767  36.360  1.00  0.00     0.134 A 
ATOM     59  F   UNL A   1      40.719  33.958  34.413  1.00  0.00    -0.206 F 
ATOM     60  C   UNL A   1      39.436  34.405  36.331  1.00  0.00     0.040 A 
ATOM     61  C   UNL A   1      38.109  32.654  37.329  1.00  0.00     0.040 A 
ATOM     62  F   UNL A   1      38.130  30.499  36.404  1.00  0.00    -0.206 F 
ATOM     63  C   UNL A   1      38.542  33.978  37.314  1.00  0.00     0.006 A 
ENDBRANCH  39  56
ENDBRANCH  13  14
ENDBRANCH   6   8
ENDBRANCH   5   6
ENDBRANCH   4   5
ENDBRANCH   3   4
ENDBRANCH   2   3
ENDBRANCH   1   2
BRANCH   1  64
ATOM     64  C   UNL A   1      37.299  20.719  25.138  1.00  0.00     0.188 C 
BRANCH  64  65
ATOM     65  O   UNL A   1      37.018  21.776  24.223  1.00  0.00    -0.376 OA
BRANCH  65  66
ATOM     66  C   UNL A   1      37.402  23.080  24.651  1.00  0.00     0.202 C 
BRANCH  66  67
ATOM     67  C   UNL A   1      36.505  23.719  25.722  1.00  0.00     0.261 C 
BRANCH  67  68
ATOM     68  O   UNL A   1      35.126  23.337  25.642  1.00  0.00    -0.461 OA
BRANCH  68  69
ATOM     69  C   UNL A   1      34.390  23.365  26.782  1.00  0.00     0.335 C 
ATOM     70  O   UNL A   1      34.750  22.917  27.868  1.00  0.00    -0.249 OA
BRANCH  69  71
ATOM     71  C   UNL A   1      33.027  24.028  26.560  1.00  0.00     0.232 C 
ATOM     72  C   UNL A   1      33.075  25.163  25.552  1.00  0.00     0.087 C 
ATOM     73  O   UNL A   1      31.995  23.122  26.193  1.00  0.00    -0.355 OA
ATOM     74  C   UNL A   1      32.340  24.666  24.313  1.00  0.00     0.123 C 
ATOM     75  C   UNL A   1      31.664  23.306  24.808  1.00  0.00     0.186 C 
BRANCH  74  76
ATOM     76  C   UNL A   1      31.463  25.819  23.759  1.00  0.00    -0.013 A 
ATOM     77  C   UNL A   1      30.064  25.831  23.973  1.00  0.00     0.008 A 
ATOM     78  C   UNL A   1      31.974  26.888  23.015  1.00  0.00     0.008 A 
ATOM     79  C   UNL A   1      29.257  26.928  23.623  1.00  0.00     0.021 A 
ATOM     80  C   UNL A   1      31.178  28.009  22.717  1.00  0.00     0.021 A 
ATOM     81  C   UNL A   1      29.834  28.041  23.041  1.00  0.00     0.041 A 
ATOM     82  Cl  UNL A   1      28.903  29.452  22.725  1.00  0.00    -0.084 Cl
ENDBRANCH  74  76
BRANCH  74  83
ATOM     83  O   UNL A   1      33.331  24.402  23.313  1.00  0.00    -0.382 OA
ATOM     84  H   UNL A   1      33.078  23.613  22.808  1.00  0.00     0.212 HD
ENDBRANCH  74  83
BRANCH  75  85
ATOM     85  C   UNL A   1      31.901  21.951  24.101  1.00  0.00    -0.016 A 
ATOM     86  C   UNL A   1      31.738  21.780  22.727  1.00  0.00     0.008 A 
ATOM     87  C   UNL A   1      32.340  20.810  24.807  1.00  0.00     0.008 A 
ATOM     88  C   UNL A   1      31.975  20.559  22.083  1.00  0.00     0.021 A 
ATOM     89  C   UNL A   1      32.488  19.556  24.186  1.00  0.00     0.021 A 
ATOM     90  C   UNL A   1      32.310  19.438  22.817  1.00  0.00     0.041 A 
ATOM     91  Cl  UNL A   1      32.496  17.924  22.027  1.00  0.00    -0.084 Cl
ENDBRANCH  75  85
ENDBRANCH  69  71
ENDBRANCH  68  69
ENDBRANCH  67  68
ENDBRANCH  66  67
ENDBRANCH  65  66
ENDBRANCH  64  65
ENDBRANCH   1  64
TORSDOF 20
ENDMDL
