MODEL 1
REMARK VINA RESULT:     -11.0      0.000      0.000
REMARK SMILES CCc1ccc2c(c1)C=C(C(=O)OCCOCCOCCOC(=O)c1ccc(-c3c4nc(c(-c5c(F)cccc5F)c5ccc([nH]5)c(-c5c(F)cccc5F)c5nc(c(-c6c(F)cccc6F)c6ccc3[nH]6)C=C5)C=C4)cc1)[C@H](C(F)(F)F)O2
REMARK SMILES IDX 18 1 17 2 16 3 15 4 14 5 13 6 11 7 12 8 10 9 3 10 4 11 8 12
REMARK SMILES IDX 5 13 7 14 6 15 9 16 84 17 79 18 2 19 1 20 80 21 81 22 82 23
REMARK SMILES IDX 83 24 19 25 20 26 21 27 22 28 23 29 24 30 25 31 26 32 78 33
REMARK SMILES IDX 27 34 77 35 28 36 29 37 30 38 71 39 31 40 76 41 70 42 72 43
REMARK SMILES IDX 32 44 75 45 69 46 68 47 33 49 59 50 42 51 58 52 43 53 46 54
REMARK SMILES IDX 57 55 73 56 44 57 45 58 56 60 74 61 47 62 34 63 35 64 40 65
REMARK SMILES IDX 36 66 37 67 39 68 41 69 38 70 60 71 61 72 66 73 62 74 63 75
REMARK SMILES IDX 65 76 67 77 64 78 48 79 49 80 54 81 50 82 51 83 53 84 55 85
REMARK SMILES IDX 52 86
REMARK H PARENT 72 48 46 59
REMARK Flexibility Score: inf
ROOT
ATOM      1  C   UNL A   1      40.578  21.290  27.423  1.00  0.00     0.188 C 
ENDROOT
BRANCH   1   2
ATOM      2  C   UNL A   1      39.782  21.483  26.116  1.00  0.00     0.188 C 
BRANCH   2   3
ATOM      3  O   UNL A   1      38.574  22.196  26.312  1.00  0.00    -0.376 OA
BRANCH   3   4
ATOM      4  C   UNL A   1      37.683  22.295  25.216  1.00  0.00     0.202 C 
BRANCH   4   5
ATOM      5  C   UNL A   1      36.617  23.394  25.285  1.00  0.00     0.261 C 
BRANCH   5   6
ATOM      6  O   UNL A   1      35.688  23.282  26.375  1.00  0.00    -0.460 OA
BRANCH   6   7
ATOM      7  C   UNL A   1      34.371  23.382  26.095  1.00  0.00     0.338 C 
ATOM      8  O   UNL A   1      33.619  24.260  26.480  1.00  0.00    -0.246 OA
BRANCH   7   9
ATOM      9  C   UNL A   1      33.986  22.305  25.157  1.00  0.00     0.087 C 
ATOM     10  C   UNL A   1      33.165  17.656  24.083  1.00  0.00    -0.047 A 
ATOM     11  C   UNL A   1      32.437  18.071  22.959  1.00  0.00     0.007 A 
ATOM     12  C   UNL A   1      33.732  18.631  24.923  1.00  0.00     0.015 A 
ATOM     13  C   UNL A   1      32.293  19.427  22.666  1.00  0.00     0.047 A 
ATOM     14  C   UNL A   1      33.572  19.994  24.645  1.00  0.00     0.018 A 
ATOM     15  C   UNL A   1      32.867  20.381  23.500  1.00  0.00     0.128 A 
ATOM     16  C   UNL A   1      34.025  21.027  25.575  1.00  0.00     0.027 C 
ATOM     17  O   UNL A   1      32.637  21.695  23.187  1.00  0.00    -0.475 OA
ATOM     18  C   UNL A   1      33.603  22.634  23.732  1.00  0.00     0.316 C 
BRANCH  10  19
ATOM     19  C   UNL A   1      33.265  16.188  24.431  1.00  0.00     0.032 C 
ATOM     20  C   UNL A   1      34.520  15.827  25.215  1.00  0.00     0.009 C 
ENDBRANCH  10  19
BRANCH  18  21
ATOM     21  C   UNL A   1      33.109  24.058  23.432  1.00  0.00     0.430 C 
ATOM     22  F   UNL A   1      32.743  24.186  22.132  1.00  0.00    -0.167 F 
ATOM     23  F   UNL A   1      31.992  24.332  24.155  1.00  0.00    -0.167 F 
ATOM     24  F   UNL A   1      34.017  25.009  23.724  1.00  0.00    -0.167 F 
ENDBRANCH  18  21
ENDBRANCH   7   9
ENDBRANCH   6   7
ENDBRANCH   5   6
ENDBRANCH   4   5
ENDBRANCH   3   4
ENDBRANCH   2   3
ENDBRANCH   1   2
BRANCH   1  25
ATOM     25  O   UNL A   1      41.963  20.968  27.361  1.00  0.00    -0.376 OA
BRANCH  25  26
ATOM     26  C   UNL A   1      42.524  20.536  26.129  1.00  0.00     0.202 C 
BRANCH  26  27
ATOM     27  C   UNL A   1      43.447  21.507  25.385  1.00  0.00     0.261 C 
BRANCH  27  28
ATOM     28  O   UNL A   1      42.805  22.726  24.973  1.00  0.00    -0.460 OA
BRANCH  28  29
ATOM     29  C   UNL A   1      43.581  23.837  25.030  1.00  0.00     0.338 C 
ATOM     30  O   UNL A   1      44.541  24.110  24.332  1.00  0.00    -0.246 OA
BRANCH  29  31
ATOM     31  C   UNL A   1      42.996  24.799  25.983  1.00  0.00     0.060 A 
ATOM     32  C   UNL A   1      43.556  26.081  26.057  1.00  0.00     0.016 A 
ATOM     33  C   UNL A   1      41.956  24.430  26.838  1.00  0.00     0.016 A 
ATOM     34  C   UNL A   1      43.081  27.000  26.991  1.00  0.00     0.010 A 
ATOM     35  C   UNL A   1      41.498  25.344  27.793  1.00  0.00     0.010 A 
ATOM     36  C   UNL A   1      42.069  26.625  27.885  1.00  0.00    -0.014 A 
BRANCH  36  37
ATOM     37  C   UNL A   1      41.682  27.531  28.992  1.00  0.00     0.031 A 
ATOM     38  C   UNL A   1      42.423  27.454  30.296  1.00  0.00     0.074 A 
ATOM     39  C   UNL A   1      40.674  28.408  28.841  1.00  0.00     0.049 A 
ATOM     40  N   UNL A   1      42.200  28.093  31.416  1.00  0.00    -0.248 NA
ATOM     41  C   UNL A   1      43.572  26.536  30.343  1.00  0.00     0.031 C 
ATOM     42  C   UNL A   1      39.908  28.612  27.613  1.00  0.00     0.029 A 
ATOM     43  N   UNL A   1      40.114  29.280  29.740  1.00  0.00    -0.354 N 
ATOM     44  C   UNL A   1      43.179  27.657  32.300  1.00  0.00     0.074 A 
ATOM     45  C   UNL A   1      43.984  26.683  31.595  1.00  0.00     0.031 C 
ATOM     46  C   UNL A   1      38.958  29.534  27.844  1.00  0.00     0.029 A 
ATOM     47  C   UNL A   1      39.030  29.958  29.241  1.00  0.00     0.049 A 
ATOM     48  H   UNL A   1      40.456  29.406  30.655  1.00  0.00     0.167 HD
ATOM     49  C   UNL A   1      43.388  28.036  33.584  1.00  0.00     0.037 A 
ATOM     50  C   UNL A   1      38.176  30.801  29.853  1.00  0.00     0.037 A 
ATOM     51  C   UNL A   1      42.579  28.993  34.292  1.00  0.00     0.049 A 
ATOM     52  C   UNL A   1      38.369  31.130  31.309  1.00  0.00     0.074 A 
ATOM     53  C   UNL A   1      42.728  29.455  35.589  1.00  0.00     0.029 A 
ATOM     54  N   UNL A   1      41.462  29.623  33.768  1.00  0.00    -0.354 N 
ATOM     55  N   UNL A   1      39.309  30.731  32.131  1.00  0.00    -0.248 NA
ATOM     56  C   UNL A   1      37.374  32.022  31.925  1.00  0.00     0.031 C 
ATOM     57  C   UNL A   1      41.671  30.330  35.864  1.00  0.00     0.029 A 
ATOM     58  C   UNL A   1      40.891  30.446  34.725  1.00  0.00     0.049 A 
ATOM     59  H   UNL A   1      41.124  29.504  32.851  1.00  0.00     0.167 HD
ATOM     60  C   UNL A   1      39.033  31.338  33.350  1.00  0.00     0.074 A 
ATOM     61  C   UNL A   1      37.844  32.141  33.159  1.00  0.00     0.031 C 
ATOM     62  C   UNL A   1      39.705  31.238  34.523  1.00  0.00     0.037 A 
BRANCH  49  63
ATOM     63  C   UNL A   1      44.526  27.390  34.314  1.00  0.00     0.057 A 
ATOM     64  C   UNL A   1      45.803  27.964  34.344  1.00  0.00     0.134 A 
ATOM     65  C   UNL A   1      44.334  26.197  35.021  1.00  0.00     0.134 A 
ATOM     66  F   UNL A   1      46.054  29.099  33.675  1.00  0.00    -0.206 F 
ATOM     67  C   UNL A   1      46.855  27.364  35.039  1.00  0.00     0.040 A 
ATOM     68  C   UNL A   1      45.372  25.599  35.736  1.00  0.00     0.040 A 
ATOM     69  F   UNL A   1      43.134  25.599  35.033  1.00  0.00    -0.206 F 
ATOM     70  C   UNL A   1      46.639  26.181  35.742  1.00  0.00     0.006 A 
ENDBRANCH  49  63
BRANCH  50  71
ATOM     71  C   UNL A   1      37.032  31.373  29.101  1.00  0.00     0.057 A 
ATOM     72  C   UNL A   1      37.037  32.705  28.675  1.00  0.00     0.134 A 
ATOM     73  C   UNL A   1      35.894  30.608  28.817  1.00  0.00     0.134 A 
ATOM     74  F   UNL A   1      38.086  33.496  28.946  1.00  0.00    -0.206 F 
ATOM     75  C   UNL A   1      35.946  33.261  28.005  1.00  0.00     0.040 A 
ATOM     76  C   UNL A   1      34.806  31.143  28.127  1.00  0.00     0.040 A 
ATOM     77  F   UNL A   1      35.827  29.325  29.204  1.00  0.00    -0.206 F 
ATOM     78  C   UNL A   1      34.829  32.477  27.725  1.00  0.00     0.006 A 
ENDBRANCH  50  71
BRANCH  62  79
ATOM     79  C   UNL A   1      39.183  32.030  35.685  1.00  0.00     0.057 A 
ATOM     80  C   UNL A   1      39.542  33.369  35.884  1.00  0.00     0.134 A 
ATOM     81  C   UNL A   1      38.281  31.460  36.593  1.00  0.00     0.134 A 
ATOM     82  F   UNL A   1      40.411  33.970  35.058  1.00  0.00    -0.206 F 
ATOM     83  C   UNL A   1      39.036  34.108  36.955  1.00  0.00     0.040 A 
ATOM     84  C   UNL A   1      37.751  32.195  37.654  1.00  0.00     0.040 A 
ATOM     85  F   UNL A   1      37.891  30.184  36.455  1.00  0.00    -0.206 F 
ATOM     86  C   UNL A   1      38.133  33.523  37.840  1.00  0.00     0.006 A 
ENDBRANCH  62  79
ENDBRANCH  36  37
ENDBRANCH  29  31
ENDBRANCH  28  29
ENDBRANCH  27  28
ENDBRANCH  26  27
ENDBRANCH  25  26
ENDBRANCH   1  25
TORSDOF 19
ENDMDL
MODEL 2
REMARK VINA RESULT:     -11.0      4.668      9.679
REMARK SMILES CCc1ccc2c(c1)C=C(C(=O)OCCOCCOCCOC(=O)c1ccc(-c3c4nc(c(-c5c(F)cccc5F)c5ccc([nH]5)c(-c5c(F)cccc5F)c5nc(c(-c6c(F)cccc6F)c6ccc3[nH]6)C=C5)C=C4)cc1)[C@H](C(F)(F)F)O2
REMARK SMILES IDX 18 1 17 2 16 3 15 4 14 5 13 6 11 7 12 8 10 9 3 10 4 11 8 12
REMARK SMILES IDX 5 13 7 14 6 15 9 16 84 17 79 18 2 19 1 20 80 21 81 22 82 23
REMARK SMILES IDX 83 24 19 25 20 26 21 27 22 28 23 29 24 30 25 31 26 32 78 33
REMARK SMILES IDX 27 34 77 35 28 36 29 37 30 38 71 39 31 40 76 41 70 42 72 43
REMARK SMILES IDX 32 44 75 45 69 46 68 47 33 49 59 50 42 51 58 52 43 53 46 54
REMARK SMILES IDX 57 55 73 56 44 57 45 58 56 60 74 61 47 62 34 63 35 64 40 65
REMARK SMILES IDX 36 66 37 67 39 68 41 69 38 70 60 71 61 72 66 73 62 74 63 75
REMARK SMILES IDX 65 76 67 77 64 78 48 79 49 80 54 81 50 82 51 83 53 84 55 85
REMARK SMILES IDX 52 86
REMARK H PARENT 72 48 46 59
REMARK Flexibility Score: inf
ROOT
ATOM      1  C   UNL A   1      35.116  34.253  28.692  1.00  0.00     0.188 C 
ENDROOT
BRANCH   1   2
ATOM      2  C   UNL A   1      35.126  32.905  27.941  1.00  0.00     0.188 C 
BRANCH   2   3
ATOM      3  O   UNL A   1      34.201  31.975  28.474  1.00  0.00    -0.376 OA
BRANCH   3   4
ATOM      4  C   UNL A   1      34.125  30.699  27.865  1.00  0.00     0.202 C 
BRANCH   4   5
ATOM      5  C   UNL A   1      32.939  30.449  26.925  1.00  0.00     0.261 C 
BRANCH   5   6
ATOM      6  O   UNL A   1      33.086  29.332  26.034  1.00  0.00    -0.460 OA
BRANCH   6   7
ATOM      7  C   UNL A   1      32.460  28.180  26.356  1.00  0.00     0.338 C 
ATOM      8  O   UNL A   1      31.639  28.034  27.245  1.00  0.00    -0.246 OA
BRANCH   7   9
ATOM      9  C   UNL A   1      32.849  27.125  25.395  1.00  0.00     0.087 C 
ATOM     10  C   UNL A   1      35.433  23.232  24.127  1.00  0.00    -0.047 A 
ATOM     11  C   UNL A   1      34.509  22.986  23.101  1.00  0.00     0.007 A 
ATOM     12  C   UNL A   1      35.233  24.341  24.968  1.00  0.00     0.015 A 
ATOM     13  C   UNL A   1      33.422  23.837  22.903  1.00  0.00     0.047 A 
ATOM     14  C   UNL A   1      34.131  25.187  24.787  1.00  0.00     0.018 A 
ATOM     15  C   UNL A   1      33.242  24.936  23.736  1.00  0.00     0.128 A 
ATOM     16  C   UNL A   1      33.820  26.259  25.732  1.00  0.00     0.027 C 
ATOM     17  O   UNL A   1      32.121  25.696  23.524  1.00  0.00    -0.475 OA
ATOM     18  C   UNL A   1      32.196  27.056  24.033  1.00  0.00     0.316 C 
BRANCH  10  19
ATOM     19  C   UNL A   1      36.573  22.272  24.378  1.00  0.00     0.032 C 
ATOM     20  C   UNL A   1      36.237  21.164  25.368  1.00  0.00     0.009 C 
ENDBRANCH  10  19
BRANCH  18  21
ATOM     21  C   UNL A   1      30.815  27.707  23.864  1.00  0.00     0.430 C 
ATOM     22  F   UNL A   1      30.887  29.053  24.016  1.00  0.00    -0.167 F 
ATOM     23  F   UNL A   1      30.350  27.506  22.604  1.00  0.00    -0.167 F 
ATOM     24  F   UNL A   1      29.890  27.222  24.714  1.00  0.00    -0.167 F 
ENDBRANCH  18  21
ENDBRANCH   7   9
ENDBRANCH   6   7
ENDBRANCH   5   6
ENDBRANCH   4   5
ENDBRANCH   3   4
ENDBRANCH   2   3
ENDBRANCH   1   2
BRANCH   1  25
ATOM     25  O   UNL A   1      35.417  34.285  30.083  1.00  0.00    -0.376 OA
BRANCH  25  26
ATOM     26  C   UNL A   1      34.370  34.507  31.018  1.00  0.00     0.202 C 
BRANCH  26  27
ATOM     27  C   UNL A   1      34.035  33.377  31.997  1.00  0.00     0.261 C 
BRANCH  27  28
ATOM     28  O   UNL A   1      34.814  32.183  31.803  1.00  0.00    -0.460 OA
BRANCH  28  29
ATOM     29  C   UNL A   1      35.888  32.053  32.621  1.00  0.00     0.338 C 
ATOM     30  O   UNL A   1      35.960  32.331  33.805  1.00  0.00    -0.246 OA
BRANCH  29  31
ATOM     31  C   UNL A   1      36.971  31.351  31.906  1.00  0.00     0.060 A 
ATOM     32  C   UNL A   1      37.942  30.684  32.665  1.00  0.00     0.016 A 
ATOM     33  C   UNL A   1      37.068  31.397  30.514  1.00  0.00     0.016 A 
ATOM     34  C   UNL A   1      39.020  30.065  32.034  1.00  0.00     0.010 A 
ATOM     35  C   UNL A   1      38.164  30.798  29.884  1.00  0.00     0.010 A 
ATOM     36  C   UNL A   1      39.153  30.146  30.641  1.00  0.00    -0.014 A 
BRANCH  36  37
ATOM     37  C   UNL A   1      40.382  29.647  29.982  1.00  0.00     0.031 A 
ATOM     38  C   UNL A   1      41.535  30.585  29.771  1.00  0.00     0.074 A 
ATOM     39  C   UNL A   1      40.468  28.371  29.567  1.00  0.00     0.049 A 
ATOM     40  N   UNL A   1      42.668  30.382  29.148  1.00  0.00    -0.248 NA
ATOM     41  C   UNL A   1      41.393  31.934  30.341  1.00  0.00     0.031 C 
ATOM     42  C   UNL A   1      39.439  27.350  29.753  1.00  0.00     0.029 A 
ATOM     43  N   UNL A   1      41.468  27.724  28.885  1.00  0.00    -0.354 N 
ATOM     44  C   UNL A   1      43.375  31.573  29.251  1.00  0.00     0.074 A 
ATOM     45  C   UNL A   1      42.535  32.502  29.976  1.00  0.00     0.031 C 
ATOM     46  C   UNL A   1      39.851  26.208  29.176  1.00  0.00     0.029 A 
ATOM     47  C   UNL A   1      41.155  26.429  28.553  1.00  0.00     0.049 A 
ATOM     48  H   UNL A   1      42.326  28.148  28.656  1.00  0.00     0.167 HD
ATOM     49  C   UNL A   1      44.612  31.865  28.784  1.00  0.00     0.037 A 
ATOM     50  C   UNL A   1      41.832  25.537  27.805  1.00  0.00     0.037 A 
ATOM     51  C   UNL A   1      45.442  30.947  28.049  1.00  0.00     0.049 A 
ATOM     52  C   UNL A   1      43.162  25.918  27.211  1.00  0.00     0.074 A 
ATOM     53  C   UNL A   1      46.720  31.147  27.555  1.00  0.00     0.029 A 
ATOM     54  N   UNL A   1      45.072  29.661  27.692  1.00  0.00    -0.354 N 
ATOM     55  N   UNL A   1      43.832  27.038  27.332  1.00  0.00    -0.248 NA
ATOM     56  C   UNL A   1      43.825  24.911  26.369  1.00  0.00     0.031 C 
ATOM     57  C   UNL A   1      47.102  29.997  26.856  1.00  0.00     0.029 A 
ATOM     58  C   UNL A   1      46.082  29.066  26.954  1.00  0.00     0.049 A 
ATOM     59  H   UNL A   1      44.216  29.233  27.928  1.00  0.00     0.167 HD
ATOM     60  C   UNL A   1      45.002  26.864  26.603  1.00  0.00     0.074 A 
ATOM     61  C   UNL A   1      44.955  25.526  26.051  1.00  0.00     0.031 C 
ATOM     62  C   UNL A   1      46.022  27.734  26.408  1.00  0.00     0.037 A 
BRANCH  49  63
ATOM     63  C   UNL A   1      45.132  33.248  29.034  1.00  0.00     0.057 A 
ATOM     64  C   UNL A   1      45.825  33.574  30.206  1.00  0.00     0.134 A 
ATOM     65  C   UNL A   1      44.965  34.256  28.077  1.00  0.00     0.134 A 
ATOM     66  F   UNL A   1      46.005  32.656  31.168  1.00  0.00    -0.206 F 
ATOM     67  C   UNL A   1      46.319  34.861  30.426  1.00  0.00     0.040 A 
ATOM     68  C   UNL A   1      45.472  35.540  28.276  1.00  0.00     0.040 A 
ATOM     69  F   UNL A   1      44.312  34.006  26.932  1.00  0.00    -0.206 F 
ATOM     70  C   UNL A   1      46.148  35.847  29.456  1.00  0.00     0.006 A 
ENDBRANCH  49  63
BRANCH  50  71
ATOM     71  C   UNL A   1      41.250  24.198  27.540  1.00  0.00     0.057 A 
ATOM     72  C   UNL A   1      40.199  24.031  26.632  1.00  0.00     0.134 A 
ATOM     73  C   UNL A   1      41.712  23.059  28.210  1.00  0.00     0.134 A 
ATOM     74  F   UNL A   1      39.693  25.090  25.984  1.00  0.00    -0.206 F 
ATOM     75  C   UNL A   1      39.619  22.781  26.410  1.00  0.00     0.040 A 
ATOM     76  C   UNL A   1      41.158  21.800  27.981  1.00  0.00     0.040 A 
ATOM     77  F   UNL A   1      42.714  23.156  29.098  1.00  0.00    -0.206 F 
ATOM     78  C   UNL A   1      40.103  21.660  27.082  1.00  0.00     0.006 A 
ENDBRANCH  50  71
BRANCH  62  79
ATOM     79  C   UNL A   1      47.181  27.262  25.579  1.00  0.00     0.057 A 
ATOM     80  C   UNL A   1      48.227  26.517  26.135  1.00  0.00     0.134 A 
ATOM     81  C   UNL A   1      47.230  27.523  24.204  1.00  0.00     0.134 A 
ATOM     82  F   UNL A   1      48.246  26.245  27.449  1.00  0.00    -0.206 F 
ATOM     83  C   UNL A   1      49.292  26.062  25.356  1.00  0.00     0.040 A 
ATOM     84  C   UNL A   1      48.278  27.054  23.410  1.00  0.00     0.040 A 
ATOM     85  F   UNL A   1      46.255  28.225  23.608  1.00  0.00    -0.206 F 
ATOM     86  C   UNL A   1      49.316  26.325  23.987  1.00  0.00     0.006 A 
ENDBRANCH  62  79
ENDBRANCH  36  37
ENDBRANCH  29  31
ENDBRANCH  28  29
ENDBRANCH  27  28
ENDBRANCH  26  27
ENDBRANCH  25  26
ENDBRANCH   1  25
TORSDOF 19
ENDMDL
MODEL 3
REMARK VINA RESULT:     -10.9      1.848      3.779
REMARK SMILES CCc1ccc2c(c1)C=C(C(=O)OCCOCCOCCOC(=O)c1ccc(-c3c4nc(c(-c5c(F)cccc5F)c5ccc([nH]5)c(-c5c(F)cccc5F)c5nc(c(-c6c(F)cccc6F)c6ccc3[nH]6)C=C5)C=C4)cc1)[C@H](C(F)(F)F)O2
REMARK SMILES IDX 18 1 17 2 16 3 15 4 14 5 13 6 11 7 12 8 10 9 3 10 4 11 8 12
REMARK SMILES IDX 5 13 7 14 6 15 9 16 84 17 79 18 2 19 1 20 80 21 81 22 82 23
REMARK SMILES IDX 83 24 19 25 20 26 21 27 22 28 23 29 24 30 25 31 26 32 78 33
REMARK SMILES IDX 27 34 77 35 28 36 29 37 30 38 71 39 31 40 76 41 70 42 72 43
REMARK SMILES IDX 32 44 75 45 69 46 68 47 33 49 59 50 42 51 58 52 43 53 46 54
REMARK SMILES IDX 57 55 73 56 44 57 45 58 56 60 74 61 47 62 34 63 35 64 40 65
REMARK SMILES IDX 36 66 37 67 39 68 41 69 38 70 60 71 61 72 66 73 62 74 63 75
REMARK SMILES IDX 65 76 67 77 64 78 48 79 49 80 54 81 50 82 51 83 53 84 55 85
REMARK SMILES IDX 52 86
REMARK H PARENT 72 48 46 59
REMARK Flexibility Score: inf
ROOT
ATOM      1  C   UNL A   1      40.839  21.138  27.532  1.00  0.00     0.188 C 
ENDROOT
BRANCH   1   2
ATOM      2  C   UNL A   1      40.013  21.982  26.539  1.00  0.00     0.188 C 
BRANCH   2   3
ATOM      3  O   UNL A   1      39.531  23.184  27.111  1.00  0.00    -0.376 OA
BRANCH   3   4
ATOM      4  C   UNL A   1      38.406  23.796  26.508  1.00  0.00     0.202 C 
BRANCH   4   5
ATOM      5  C   UNL A   1      37.646  22.971  25.462  1.00  0.00     0.261 C 
BRANCH   5   6
ATOM      6  O   UNL A   1      36.437  23.569  24.967  1.00  0.00    -0.460 OA
BRANCH   6   7
ATOM      7  C   UNL A   1      35.261  23.074  25.410  1.00  0.00     0.338 C 
ATOM      8  O   UNL A   1      35.098  22.005  25.971  1.00  0.00    -0.246 OA
BRANCH   7   9
ATOM      9  C   UNL A   1      34.196  24.078  25.198  1.00  0.00     0.087 C 
ATOM     10  C   UNL A   1      32.023  28.289  26.191  1.00  0.00    -0.047 A 
ATOM     11  C   UNL A   1      31.359  28.208  24.958  1.00  0.00     0.007 A 
ATOM     12  C   UNL A   1      32.913  27.262  26.552  1.00  0.00     0.015 A 
ATOM     13  C   UNL A   1      31.563  27.117  24.112  1.00  0.00     0.047 A 
ATOM     14  C   UNL A   1      33.137  26.176  25.696  1.00  0.00     0.018 A 
ATOM     15  C   UNL A   1      32.439  26.104  24.486  1.00  0.00     0.128 A 
ATOM     16  C   UNL A   1      34.162  25.172  25.979  1.00  0.00     0.027 C 
ATOM     17  O   UNL A   1      32.637  25.093  23.582  1.00  0.00    -0.475 OA
ATOM     18  C   UNL A   1      33.130  23.849  24.150  1.00  0.00     0.316 C 
BRANCH  10  19
ATOM     19  C   UNL A   1      31.849  29.503  27.076  1.00  0.00     0.032 C 
ATOM     20  C   UNL A   1      31.837  30.822  26.314  1.00  0.00     0.009 C 
ENDBRANCH  10  19
BRANCH  18  21
ATOM     21  C   UNL A   1      33.453  22.890  22.995  1.00  0.00     0.430 C 
ATOM     22  F   UNL A   1      34.715  23.081  22.537  1.00  0.00    -0.167 F 
ATOM     23  F   UNL A   1      33.412  21.602  23.426  1.00  0.00    -0.167 F 
ATOM     24  F   UNL A   1      32.595  22.992  21.961  1.00  0.00    -0.167 F 
ENDBRANCH  18  21
ENDBRANCH   7   9
ENDBRANCH   6   7
ENDBRANCH   5   6
ENDBRANCH   4   5
ENDBRANCH   3   4
ENDBRANCH   2   3
ENDBRANCH   1   2
BRANCH   1  25
ATOM     25  O   UNL A   1      42.232  20.953  27.308  1.00  0.00    -0.376 OA
BRANCH  25  26
ATOM     26  C   UNL A   1      42.702  20.731  25.985  1.00  0.00     0.202 C 
BRANCH  26  27
ATOM     27  C   UNL A   1      43.544  21.832  25.332  1.00  0.00     0.261 C 
BRANCH  27  28
ATOM     28  O   UNL A   1      42.915  23.126  25.328  1.00  0.00    -0.460 OA
BRANCH  28  29
ATOM     29  C   UNL A   1      43.764  24.183  25.338  1.00  0.00     0.338 C 
ATOM     30  O   UNL A   1      44.568  24.500  24.479  1.00  0.00    -0.246 OA
BRANCH  29  31
ATOM     31  C   UNL A   1      43.473  25.039  26.504  1.00  0.00     0.060 A 
ATOM     32  C   UNL A   1      42.493  24.613  27.410  1.00  0.00     0.016 A 
ATOM     33  C   UNL A   1      44.108  26.271  26.673  1.00  0.00     0.016 A 
ATOM     34  C   UNL A   1      42.137  25.423  28.488  1.00  0.00     0.010 A 
ATOM     35  C   UNL A   1      43.731  27.093  27.740  1.00  0.00     0.010 A 
ATOM     36  C   UNL A   1      42.733  26.681  28.641  1.00  0.00    -0.014 A 
BRANCH  36  37
ATOM     37  C   UNL A   1      42.237  27.617  29.676  1.00  0.00     0.031 A 
ATOM     38  C   UNL A   1      42.921  27.664  31.013  1.00  0.00     0.074 A 
ATOM     39  C   UNL A   1      41.181  28.413  29.432  1.00  0.00     0.049 A 
ATOM     40  N   UNL A   1      42.605  28.347  32.083  1.00  0.00    -0.248 NA
ATOM     41  C   UNL A   1      44.125  26.832  31.160  1.00  0.00     0.031 C 
ATOM     42  C   UNL A   1      40.460  28.496  28.163  1.00  0.00     0.029 A 
ATOM     43  N   UNL A   1      40.522  29.292  30.255  1.00  0.00    -0.354 N 
ATOM     44  C   UNL A   1      43.568  28.029  33.031  1.00  0.00     0.074 A 
ATOM     45  C   UNL A   1      44.468  27.076  32.418  1.00  0.00     0.031 C 
ATOM     46  C   UNL A   1      39.441  29.361  28.300  1.00  0.00     0.029 A 
ATOM     47  C   UNL A   1      39.420  29.866  29.672  1.00  0.00     0.049 A 
ATOM     48  H   UNL A   1      40.813  29.492  31.174  1.00  0.00     0.167 HD
ATOM     49  C   UNL A   1      43.693  28.492  34.298  1.00  0.00     0.037 A 
ATOM     50  C   UNL A   1      38.485  30.680  30.197  1.00  0.00     0.037 A 
ATOM     51  C   UNL A   1      42.790  29.428  34.915  1.00  0.00     0.049 A 
ATOM     52  C   UNL A   1      38.588  31.101  31.639  1.00  0.00     0.074 A 
ATOM     53  C   UNL A   1      42.848  29.970  36.188  1.00  0.00     0.029 A 
ATOM     54  N   UNL A   1      41.659  29.949  34.309  1.00  0.00    -0.354 N 
ATOM     55  N   UNL A   1      39.514  30.814  32.521  1.00  0.00    -0.248 NA
ATOM     56  C   UNL A   1      37.509  31.956  32.159  1.00  0.00     0.031 C 
ATOM     57  C   UNL A   1      41.724  30.784  36.367  1.00  0.00     0.029 A 
ATOM     58  C   UNL A   1      40.991  30.783  35.192  1.00  0.00     0.049 A 
ATOM     59  H   UNL A   1      41.372  29.757  33.386  1.00  0.00     0.167 HD
ATOM     60  C   UNL A   1      39.143  31.467  33.691  1.00  0.00     0.074 A 
ATOM     61  C   UNL A   1      37.913  32.174  33.402  1.00  0.00     0.031 C 
ATOM     62  C   UNL A   1      39.766  31.478  34.894  1.00  0.00     0.037 A 
BRANCH  49  63
ATOM     63  C   UNL A   1      44.837  27.967  35.112  1.00  0.00     0.057 A 
ATOM     64  C   UNL A   1      44.719  26.805  35.885  1.00  0.00     0.134 A 
ATOM     65  C   UNL A   1      46.078  28.615  35.097  1.00  0.00     0.134 A 
ATOM     66  F   UNL A   1      43.552  26.148  35.952  1.00  0.00    -0.206 F 
ATOM     67  C   UNL A   1      45.794  26.315  36.629  1.00  0.00     0.040 A 
ATOM     68  C   UNL A   1      47.165  28.121  35.820  1.00  0.00     0.040 A 
ATOM     69  F   UNL A   1      46.255  29.730  34.374  1.00  0.00    -0.206 F 
ATOM     70  C   UNL A   1      47.023  26.971  36.593  1.00  0.00     0.006 A 
ENDBRANCH  49  63
BRANCH  50  71
ATOM     71  C   UNL A   1      37.341  31.129  29.366  1.00  0.00     0.057 A 
ATOM     72  C   UNL A   1      36.270  30.274  29.084  1.00  0.00     0.134 A 
ATOM     73  C   UNL A   1      37.305  32.414  28.812  1.00  0.00     0.134 A 
ATOM     74  F   UNL A   1      36.264  29.020  29.561  1.00  0.00    -0.206 F 
ATOM     75  C   UNL A   1      35.211  30.676  28.268  1.00  0.00     0.040 A 
ATOM     76  C   UNL A   1      36.242  32.837  28.013  1.00  0.00     0.040 A 
ATOM     77  F   UNL A   1      38.305  33.278  29.041  1.00  0.00    -0.206 F 
ATOM     78  C   UNL A   1      35.193  31.963  27.735  1.00  0.00     0.006 A 
ENDBRANCH  50  71
BRANCH  62  79
ATOM     79  C   UNL A   1      39.139  32.295  35.985  1.00  0.00     0.057 A 
ATOM     80  C   UNL A   1      38.227  31.738  36.890  1.00  0.00     0.134 A 
ATOM     81  C   UNL A   1      39.481  33.643  36.157  1.00  0.00     0.134 A 
ATOM     82  F   UNL A   1      37.848  30.457  36.773  1.00  0.00    -0.206 F 
ATOM     83  C   UNL A   1      37.663  32.498  37.917  1.00  0.00     0.040 A 
ATOM     84  C   UNL A   1      38.941  34.406  37.193  1.00  0.00     0.040 A 
ATOM     85  F   UNL A   1      40.354  34.235  35.328  1.00  0.00    -0.206 F 
ATOM     86  C   UNL A   1      38.025  33.835  38.075  1.00  0.00     0.006 A 
ENDBRANCH  62  79
ENDBRANCH  36  37
ENDBRANCH  29  31
ENDBRANCH  28  29
ENDBRANCH  27  28
ENDBRANCH  26  27
ENDBRANCH  25  26
ENDBRANCH   1  25
TORSDOF 19
ENDMDL
