MODEL 1
REMARK VINA RESULT:     -10.2      0.000      0.000
REMARK SMILES C[C@@H](C(=O)OCCOCCOCCOC(=O)c1ccc(-c2c3nc(c(-c4c(F)cccc4F)c4ccc([nH]4)c(-c4c(F)cccc4F)c4nc(c(-c5c(F)cccc5F)c5ccc2[nH]5)C=C4)C=C3)cc1)c1ccc(=O)n(C(F)F)c1
REMARK SMILES IDX 9 1 8 2 7 3 6 4 5 5 3 6 4 7 2 8 1 9 71 10 72 11 80 12 73 13
REMARK SMILES IDX 76 14 74 15 75 16 77 17 78 18 79 19 10 20 11 21 12 22 13 23
REMARK SMILES IDX 14 24 15 25 16 26 17 27 18 28 70 29 19 30 69 31 20 32 21 33
REMARK SMILES IDX 22 34 63 35 23 36 68 37 62 38 64 39 24 40 67 41 61 42 60 43
REMARK SMILES IDX 25 45 51 46 34 47 50 48 35 49 38 50 49 51 65 52 36 53 37 54
REMARK SMILES IDX 48 56 66 57 39 58 26 59 27 60 32 61 28 62 29 63 31 64 33 65
REMARK SMILES IDX 30 66 52 67 53 68 58 69 54 70 55 71 57 72 59 73 56 74 40 75
REMARK SMILES IDX 41 76 46 77 42 78 43 79 45 80 47 81 44 82
REMARK H PARENT 64 44 38 55
REMARK Flexibility Score: inf
ROOT
ATOM      1  C   UNL A   1      33.052  35.624  29.196  1.00  0.00     0.188 C 
ENDROOT
BRANCH   1   2
ATOM      2  O   UNL A   1      32.752  34.287  28.855  1.00  0.00    -0.376 OA
BRANCH   2   3
ATOM      3  C   UNL A   1      33.818  33.409  28.518  1.00  0.00     0.202 C 
BRANCH   3   4
ATOM      4  C   UNL A   1      33.589  32.153  27.657  1.00  0.00     0.261 C 
BRANCH   4   5
ATOM      5  O   UNL A   1      34.194  30.935  28.138  1.00  0.00    -0.463 OA
BRANCH   5   6
ATOM      6  C   UNL A   1      34.335  29.932  27.229  1.00  0.00     0.313 C 
ATOM      7  O   UNL A   1      35.408  29.388  26.980  1.00  0.00    -0.252 OA
BRANCH   6   8
ATOM      8  C   UNL A   1      33.020  29.475  26.561  1.00  0.00     0.127 C 
ATOM      9  C   UNL A   1      31.977  28.811  27.471  1.00  0.00     0.025 C 
BRANCH   8  10
ATOM     10  C   UNL A   1      33.261  28.623  25.313  1.00  0.00    -0.017 A 
ATOM     11  C   UNL A   1      33.083  29.270  24.021  1.00  0.00     0.012 A 
ATOM     12  C   UNL A   1      33.624  27.328  25.310  1.00  0.00     0.099 A 
ATOM     13  C   UNL A   1      33.293  28.611  22.874  1.00  0.00     0.072 A 
ATOM     14  N   UNL A   1      33.775  26.608  24.142  1.00  0.00    -0.258 N 
ATOM     15  C   UNL A   1      33.694  27.182  22.888  1.00  0.00     0.254 A 
ATOM     16  O   UNL A   1      33.902  26.619  21.819  1.00  0.00    -0.269 OA
BRANCH  14  17
ATOM     17  C   UNL A   1      34.056  25.203  24.192  1.00  0.00     0.451 C 
ATOM     18  F   UNL A   1      34.640  24.885  25.369  1.00  0.00    -0.185 F 
ATOM     19  F   UNL A   1      32.927  24.470  24.053  1.00  0.00    -0.185 F 
ENDBRANCH  14  17
ENDBRANCH   8  10
ENDBRANCH   6   8
ENDBRANCH   5   6
ENDBRANCH   4   5
ENDBRANCH   3   4
ENDBRANCH   2   3
ENDBRANCH   1   2
BRANCH   1  20
ATOM     20  C   UNL A   1      32.786  36.128  30.622  1.00  0.00     0.188 C 
BRANCH  20  21
ATOM     21  O   UNL A   1      32.672  35.189  31.658  1.00  0.00    -0.376 OA
BRANCH  21  22
ATOM     22  C   UNL A   1      33.824  34.715  32.333  1.00  0.00     0.202 C 
BRANCH  22  23
ATOM     23  C   UNL A   1      34.044  33.280  32.853  1.00  0.00     0.261 C 
BRANCH  23  24
ATOM     24  O   UNL A   1      35.055  32.470  32.246  1.00  0.00    -0.460 OA
BRANCH  24  25
ATOM     25  C   UNL A   1      36.160  32.244  33.001  1.00  0.00     0.338 C 
ATOM     26  O   UNL A   1      36.286  32.427  34.195  1.00  0.00    -0.246 OA
BRANCH  25  27
ATOM     27  C   UNL A   1      37.159  31.541  32.166  1.00  0.00     0.060 A 
ATOM     28  C   UNL A   1      38.117  30.732  32.792  1.00  0.00     0.016 A 
ATOM     29  C   UNL A   1      37.172  31.705  30.779  1.00  0.00     0.016 A 
ATOM     30  C   UNL A   1      39.104  30.104  32.028  1.00  0.00     0.010 A 
ATOM     31  C   UNL A   1      38.179  31.096  30.020  1.00  0.00     0.010 A 
ATOM     32  C   UNL A   1      39.163  30.310  30.639  1.00  0.00    -0.014 A 
BRANCH  32  33
ATOM     33  C   UNL A   1      40.349  29.840  29.877  1.00  0.00     0.031 A 
ATOM     34  C   UNL A   1      41.542  30.745  29.772  1.00  0.00     0.074 A 
ATOM     35  C   UNL A   1      40.382  28.628  29.297  1.00  0.00     0.049 A 
ATOM     36  N   UNL A   1      42.680  30.548  29.158  1.00  0.00    -0.248 NA
ATOM     37  C   UNL A   1      41.416  32.067  30.404  1.00  0.00     0.031 C 
ATOM     38  C   UNL A   1      39.277  27.679  29.285  1.00  0.00     0.029 A 
ATOM     39  N   UNL A   1      41.402  27.961  28.660  1.00  0.00    -0.354 N 
ATOM     40  C   UNL A   1      43.382  31.739  29.276  1.00  0.00     0.074 A 
ATOM     41  C   UNL A   1      42.553  32.645  30.042  1.00  0.00     0.031 C 
ATOM     42  C   UNL A   1      39.719  26.502  28.809  1.00  0.00     0.029 A 
ATOM     43  C   UNL A   1      41.109  26.645  28.382  1.00  0.00     0.049 A 
ATOM     44  H   UNL A   1      42.259  28.384  28.424  1.00  0.00     0.167 HD
ATOM     45  C   UNL A   1      44.590  32.058  28.754  1.00  0.00     0.037 A 
ATOM     46  C   UNL A   1      41.876  25.674  27.844  1.00  0.00     0.037 A 
ATOM     47  C   UNL A   1      45.404  31.154  27.983  1.00  0.00     0.049 A 
ATOM     48  C   UNL A   1      43.249  26.036  27.331  1.00  0.00     0.074 A 
ATOM     49  C   UNL A   1      46.631  31.396  27.389  1.00  0.00     0.029 A 
ATOM     50  N   UNL A   1      45.076  29.837  27.700  1.00  0.00    -0.354 N 
ATOM     51  N   UNL A   1      43.895  27.174  27.420  1.00  0.00    -0.248 NA
ATOM     52  C   UNL A   1      43.975  24.995  26.586  1.00  0.00     0.031 C 
ATOM     53  C   UNL A   1      47.021  30.240  26.704  1.00  0.00     0.029 A 
ATOM     54  C   UNL A   1      46.069  29.259  26.925  1.00  0.00     0.049 A 
ATOM     55  H   UNL A   1      44.258  29.381  28.003  1.00  0.00     0.167 HD
ATOM     56  C   UNL A   1      45.088  26.991  26.731  1.00  0.00     0.074 A 
ATOM     57  C   UNL A   1      45.103  25.618  26.275  1.00  0.00     0.031 C 
ATOM     58  C   UNL A   1      46.069  27.891  26.472  1.00  0.00     0.037 A 
BRANCH  45  59
ATOM     59  C   UNL A   1      45.061  33.471  28.935  1.00  0.00     0.057 A 
ATOM     60  C   UNL A   1      44.708  34.498  28.050  1.00  0.00     0.134 A 
ATOM     61  C   UNL A   1      45.878  33.806  30.023  1.00  0.00     0.134 A 
ATOM     62  F   UNL A   1      43.947  34.239  26.976  1.00  0.00    -0.206 F 
ATOM     63  C   UNL A   1      45.172  35.802  28.228  1.00  0.00     0.040 A 
ATOM     64  C   UNL A   1      46.324  35.111  30.227  1.00  0.00     0.040 A 
ATOM     65  F   UNL A   1      46.255  32.869  30.907  1.00  0.00    -0.206 F 
ATOM     66  C   UNL A   1      45.977  36.113  29.323  1.00  0.00     0.006 A 
ENDBRANCH  45  59
BRANCH  46  67
ATOM     67  C   UNL A   1      41.374  24.275  27.712  1.00  0.00     0.057 A 
ATOM     68  C   UNL A   1      41.896  23.242  28.504  1.00  0.00     0.134 A 
ATOM     69  C   UNL A   1      40.403  23.921  26.768  1.00  0.00     0.134 A 
ATOM     70  F   UNL A   1      42.861  23.496  29.400  1.00  0.00    -0.206 F 
ATOM     71  C   UNL A   1      41.485  21.915  28.350  1.00  0.00     0.040 A 
ATOM     72  C   UNL A   1      39.953  22.605  26.631  1.00  0.00     0.040 A 
ATOM     73  F   UNL A   1      39.871  24.849  25.959  1.00  0.00    -0.206 F 
ATOM     74  C   UNL A   1      40.502  21.596  27.417  1.00  0.00     0.006 A 
ENDBRANCH  46  67
BRANCH  58  75
ATOM     75  C   UNL A   1      47.242  27.417  25.660  1.00  0.00     0.057 A 
ATOM     76  C   UNL A   1      47.309  27.612  24.273  1.00  0.00     0.134 A 
ATOM     77  C   UNL A   1      48.338  26.801  26.278  1.00  0.00     0.134 A 
ATOM     78  F   UNL A   1      46.292  28.189  23.616  1.00  0.00    -0.206 F 
ATOM     79  C   UNL A   1      48.411  27.186  23.529  1.00  0.00     0.040 A 
ATOM     80  C   UNL A   1      49.456  26.396  25.548  1.00  0.00     0.040 A 
ATOM     81  F   UNL A   1      48.346  26.595  27.604  1.00  0.00    -0.206 F 
ATOM     82  C   UNL A   1      49.492  26.582  24.168  1.00  0.00     0.006 A 
ENDBRANCH  58  75
ENDBRANCH  32  33
ENDBRANCH  25  27
ENDBRANCH  24  25
ENDBRANCH  23  24
ENDBRANCH  22  23
ENDBRANCH  21  22
ENDBRANCH  20  21
ENDBRANCH   1  20
TORSDOF 19
ENDMDL
MODEL 2
REMARK VINA RESULT:     -10.1      4.492      8.550
REMARK SMILES C[C@@H](C(=O)OCCOCCOCCOC(=O)c1ccc(-c2c3nc(c(-c4c(F)cccc4F)c4ccc([nH]4)c(-c4c(F)cccc4F)c4nc(c(-c5c(F)cccc5F)c5ccc2[nH]5)C=C4)C=C3)cc1)c1ccc(=O)n(C(F)F)c1
REMARK SMILES IDX 9 1 8 2 7 3 6 4 5 5 3 6 4 7 2 8 1 9 71 10 72 11 80 12 73 13
REMARK SMILES IDX 76 14 74 15 75 16 77 17 78 18 79 19 10 20 11 21 12 22 13 23
REMARK SMILES IDX 14 24 15 25 16 26 17 27 18 28 70 29 19 30 69 31 20 32 21 33
REMARK SMILES IDX 22 34 63 35 23 36 68 37 62 38 64 39 24 40 67 41 61 42 60 43
REMARK SMILES IDX 25 45 51 46 34 47 50 48 35 49 38 50 49 51 65 52 36 53 37 54
REMARK SMILES IDX 48 56 66 57 39 58 26 59 27 60 32 61 28 62 29 63 31 64 33 65
REMARK SMILES IDX 30 66 52 67 53 68 58 69 54 70 55 71 57 72 59 73 56 74 40 75
REMARK SMILES IDX 41 76 46 77 42 78 43 79 45 80 47 81 44 82
REMARK H PARENT 64 44 38 55
REMARK Flexibility Score: inf
ROOT
ATOM      1  C   UNL A   1      32.672  26.041  25.759  1.00  0.00     0.188 C 
ENDROOT
BRANCH   1   2
ATOM      2  O   UNL A   1      33.611  26.869  25.105  1.00  0.00    -0.376 OA
BRANCH   2   3
ATOM      3  C   UNL A   1      33.875  26.652  23.726  1.00  0.00     0.202 C 
BRANCH   3   4
ATOM      4  C   UNL A   1      33.288  27.568  22.636  1.00  0.00     0.261 C 
BRANCH   4   5
ATOM      5  O   UNL A   1      32.158  28.375  23.028  1.00  0.00    -0.463 OA
BRANCH   5   6
ATOM      6  C   UNL A   1      30.938  27.959  22.592  1.00  0.00     0.313 C 
ATOM      7  O   UNL A   1      30.781  27.206  21.633  1.00  0.00    -0.252 OA
BRANCH   6   8
ATOM      8  C   UNL A   1      29.745  28.460  23.434  1.00  0.00     0.127 C 
ATOM      9  C   UNL A   1      28.513  27.545  23.498  1.00  0.00     0.025 C 
BRANCH   8  10
ATOM     10  C   UNL A   1      29.333  29.889  23.074  1.00  0.00    -0.017 A 
ATOM     11  C   UNL A   1      29.474  30.902  24.110  1.00  0.00     0.012 A 
ATOM     12  C   UNL A   1      28.851  30.286  21.883  1.00  0.00     0.099 A 
ATOM     13  C   UNL A   1      29.160  32.184  23.881  1.00  0.00     0.072 A 
ATOM     14  N   UNL A   1      28.451  31.586  21.647  1.00  0.00    -0.258 N 
ATOM     15  C   UNL A   1      28.631  32.607  22.560  1.00  0.00     0.254 A 
ATOM     16  O   UNL A   1      28.378  33.792  22.380  1.00  0.00    -0.269 OA
BRANCH  14  17
ATOM     17  C   UNL A   1      27.843  31.938  20.397  1.00  0.00     0.451 C 
ATOM     18  F   UNL A   1      28.733  32.583  19.610  1.00  0.00    -0.185 F 
ATOM     19  F   UNL A   1      27.395  30.842  19.742  1.00  0.00    -0.185 F 
ENDBRANCH  14  17
ENDBRANCH   8  10
ENDBRANCH   6   8
ENDBRANCH   5   6
ENDBRANCH   4   5
ENDBRANCH   3   4
ENDBRANCH   2   3
ENDBRANCH   1   2
BRANCH   1  20
ATOM     20  C   UNL A   1      31.414  26.656  26.386  1.00  0.00     0.188 C 
BRANCH  20  21
ATOM     21  O   UNL A   1      31.551  27.428  27.551  1.00  0.00    -0.376 OA
BRANCH  21  22
ATOM     22  C   UNL A   1      31.454  28.840  27.497  1.00  0.00     0.202 C 
BRANCH  22  23
ATOM     23  C   UNL A   1      31.773  29.725  26.275  1.00  0.00     0.261 C 
BRANCH  23  24
ATOM     24  O   UNL A   1      33.096  30.245  26.121  1.00  0.00    -0.460 OA
BRANCH  24  25
ATOM     25  C   UNL A   1      33.429  31.263  26.955  1.00  0.00     0.338 C 
ATOM     26  O   UNL A   1      32.749  32.225  27.249  1.00  0.00    -0.246 OA
BRANCH  25  27
ATOM     27  C   UNL A   1      34.707  30.923  27.619  1.00  0.00     0.060 A 
ATOM     28  C   UNL A   1      35.012  29.576  27.853  1.00  0.00     0.016 A 
ATOM     29  C   UNL A   1      35.583  31.928  28.039  1.00  0.00     0.016 A 
ATOM     30  C   UNL A   1      36.186  29.235  28.529  1.00  0.00     0.010 A 
ATOM     31  C   UNL A   1      36.745  31.583  28.740  1.00  0.00     0.010 A 
ATOM     32  C   UNL A   1      37.044  30.239  29.008  1.00  0.00    -0.014 A 
BRANCH  32  33
ATOM     33  C   UNL A   1      38.153  29.878  29.929  1.00  0.00     0.031 A 
ATOM     34  C   UNL A   1      39.315  29.098  29.386  1.00  0.00     0.074 A 
ATOM     35  C   UNL A   1      38.146  30.245  31.222  1.00  0.00     0.049 A 
ATOM     36  N   UNL A   1      40.388  28.672  30.003  1.00  0.00    -0.248 NA
ATOM     37  C   UNL A   1      39.234  28.706  27.971  1.00  0.00     0.031 C 
ATOM     38  C   UNL A   1      37.060  30.959  31.880  1.00  0.00     0.029 A 
ATOM     39  N   UNL A   1      39.106  30.122  32.200  1.00  0.00    -0.354 N 
ATOM     40  C   UNL A   1      41.079  27.911  29.071  1.00  0.00     0.074 A 
ATOM     41  C   UNL A   1      40.318  27.955  27.840  1.00  0.00     0.031 C 
ATOM     42  C   UNL A   1      37.469  31.344  33.102  1.00  0.00     0.029 A 
ATOM     43  C   UNL A   1      38.806  30.811  33.354  1.00  0.00     0.049 A 
ATOM     44  H   UNL A   1      39.927  29.592  32.086  1.00  0.00     0.167 HD
ATOM     45  C   UNL A   1      42.222  27.206  29.244  1.00  0.00     0.037 A 
ATOM     46  C   UNL A   1      39.529  30.985  34.480  1.00  0.00     0.037 A 
ATOM     47  C   UNL A   1      42.967  27.159  30.475  1.00  0.00     0.049 A 
ATOM     48  C   UNL A   1      40.837  30.244  34.623  1.00  0.00     0.074 A 
ATOM     49  C   UNL A   1      44.124  26.449  30.754  1.00  0.00     0.029 A 
ATOM     50  N   UNL A   1      42.632  27.847  31.632  1.00  0.00    -0.354 N 
ATOM     51  N   UNL A   1      41.470  29.501  33.747  1.00  0.00    -0.248 NA
ATOM     52  C   UNL A   1      41.499  30.313  35.936  1.00  0.00     0.031 C 
ATOM     53  C   UNL A   1      44.459  26.669  32.094  1.00  0.00     0.029 A 
ATOM     54  C   UNL A   1      43.550  27.565  32.631  1.00  0.00     0.049 A 
ATOM     55  H   UNL A   1      41.857  28.446  31.728  1.00  0.00     0.167 HD
ATOM     56  C   UNL A   1      42.589  29.005  34.404  1.00  0.00     0.074 A 
ATOM     57  C   UNL A   1      42.579  29.572  35.736  1.00  0.00     0.031 C 
ATOM     58  C   UNL A   1      43.525  28.132  33.956  1.00  0.00     0.037 A 
BRANCH  45  59
ATOM     59  C   UNL A   1      42.687  26.366  28.091  1.00  0.00     0.057 A 
ATOM     60  C   UNL A   1      43.642  26.817  27.172  1.00  0.00     0.134 A 
ATOM     61  C   UNL A   1      42.170  25.076  27.907  1.00  0.00     0.134 A 
ATOM     62  F   UNL A   1      44.159  28.050  27.278  1.00  0.00    -0.206 F 
ATOM     63  C   UNL A   1      44.047  26.025  26.096  1.00  0.00     0.040 A 
ATOM     64  C   UNL A   1      42.589  24.264  26.853  1.00  0.00     0.040 A 
ATOM     65  F   UNL A   1      41.250  24.583  28.750  1.00  0.00    -0.206 F 
ATOM     66  C   UNL A   1      43.526  24.742  25.939  1.00  0.00     0.006 A 
ENDBRANCH  45  59
BRANCH  46  67
ATOM     67  C   UNL A   1      39.038  31.855  35.587  1.00  0.00     0.057 A 
ATOM     68  C   UNL A   1      39.420  33.202  35.673  1.00  0.00     0.134 A 
ATOM     69  C   UNL A   1      38.221  31.362  36.612  1.00  0.00     0.134 A 
ATOM     70  F   UNL A   1      40.238  33.733  34.753  1.00  0.00    -0.206 F 
ATOM     71  C   UNL A   1      39.023  34.015  36.738  1.00  0.00     0.040 A 
ATOM     72  C   UNL A   1      37.783  32.175  37.661  1.00  0.00     0.040 A 
ATOM     73  F   UNL A   1      37.831  30.079  36.612  1.00  0.00    -0.206 F 
ATOM     74  C   UNL A   1      38.192  33.503  37.731  1.00  0.00     0.006 A 
ENDBRANCH  46  67
BRANCH  58  75
ATOM     75  C   UNL A   1      44.616  27.738  34.911  1.00  0.00     0.057 A 
ATOM     76  C   UNL A   1      44.505  26.612  35.738  1.00  0.00     0.134 A 
ATOM     77  C   UNL A   1      45.810  28.467  34.973  1.00  0.00     0.134 A 
ATOM     78  F   UNL A   1      43.385  25.872  35.735  1.00  0.00    -0.206 F 
ATOM     79  C   UNL A   1      45.530  26.241  36.610  1.00  0.00     0.040 A 
ATOM     80  C   UNL A   1      46.854  28.090  35.820  1.00  0.00     0.040 A 
ATOM     81  F   UNL A   1      45.989  29.549  34.200  1.00  0.00    -0.206 F 
ATOM     82  C   UNL A   1      46.712  26.978  36.648  1.00  0.00     0.006 A 
ENDBRANCH  58  75
ENDBRANCH  32  33
ENDBRANCH  25  27
ENDBRANCH  24  25
ENDBRANCH  23  24
ENDBRANCH  22  23
ENDBRANCH  21  22
ENDBRANCH  20  21
ENDBRANCH   1  20
TORSDOF 19
ENDMDL
MODEL 3
REMARK VINA RESULT:     -10.1      5.413     10.648
REMARK SMILES C[C@@H](C(=O)OCCOCCOCCOC(=O)c1ccc(-c2c3nc(c(-c4c(F)cccc4F)c4ccc([nH]4)c(-c4c(F)cccc4F)c4nc(c(-c5c(F)cccc5F)c5ccc2[nH]5)C=C4)C=C3)cc1)c1ccc(=O)n(C(F)F)c1
REMARK SMILES IDX 9 1 8 2 7 3 6 4 5 5 3 6 4 7 2 8 1 9 71 10 72 11 80 12 73 13
REMARK SMILES IDX 76 14 74 15 75 16 77 17 78 18 79 19 10 20 11 21 12 22 13 23
REMARK SMILES IDX 14 24 15 25 16 26 17 27 18 28 70 29 19 30 69 31 20 32 21 33
REMARK SMILES IDX 22 34 63 35 23 36 68 37 62 38 64 39 24 40 67 41 61 42 60 43
REMARK SMILES IDX 25 45 51 46 34 47 50 48 35 49 38 50 49 51 65 52 36 53 37 54
REMARK SMILES IDX 48 56 66 57 39 58 26 59 27 60 32 61 28 62 29 63 31 64 33 65
REMARK SMILES IDX 30 66 52 67 53 68 58 69 54 70 55 71 57 72 59 73 56 74 40 75
REMARK SMILES IDX 41 76 46 77 42 78 43 79 45 80 47 81 44 82
REMARK H PARENT 64 44 38 55
REMARK Flexibility Score: inf
ROOT
ATOM      1  C   UNL A   1      40.141  21.803  26.131  1.00  0.00     0.188 C 
ENDROOT
BRANCH   1   2
ATOM      2  O   UNL A   1      38.755  22.052  26.242  1.00  0.00    -0.376 OA
BRANCH   2   3
ATOM      3  C   UNL A   1      37.870  21.435  25.318  1.00  0.00     0.202 C 
BRANCH   3   4
ATOM      4  C   UNL A   1      36.819  22.249  24.540  1.00  0.00     0.261 C 
BRANCH   4   5
ATOM      5  O   UNL A   1      35.808  22.904  25.334  1.00  0.00    -0.463 OA
BRANCH   5   6
ATOM      6  C   UNL A   1      34.545  22.897  24.829  1.00  0.00     0.313 C 
ATOM      7  O   UNL A   1      34.196  23.576  23.866  1.00  0.00    -0.252 OA
BRANCH   6   8
ATOM      8  C   UNL A   1      33.576  21.917  25.524  1.00  0.00     0.127 C 
ATOM      9  C   UNL A   1      33.954  21.459  26.940  1.00  0.00     0.025 C 
BRANCH   8  10
ATOM     10  C   UNL A   1      33.231  20.711  24.646  1.00  0.00    -0.017 A 
ATOM     11  C   UNL A   1      32.483  20.970  23.425  1.00  0.00     0.012 A 
ATOM     12  C   UNL A   1      33.563  19.435  24.909  1.00  0.00     0.099 A 
ATOM     13  C   UNL A   1      32.154  19.981  22.584  1.00  0.00     0.072 A 
ATOM     14  N   UNL A   1      33.172  18.391  24.095  1.00  0.00    -0.258 N 
ATOM     15  C   UNL A   1      32.529  18.578  22.887  1.00  0.00     0.254 A 
ATOM     16  O   UNL A   1      32.233  17.703  22.080  1.00  0.00    -0.269 OA
BRANCH  14  17
ATOM     17  C   UNL A   1      33.455  17.037  24.472  1.00  0.00     0.451 C 
ATOM     18  F   UNL A   1      34.783  16.797  24.393  1.00  0.00    -0.185 F 
ATOM     19  F   UNL A   1      33.039  16.780  25.733  1.00  0.00    -0.185 F 
ENDBRANCH  14  17
ENDBRANCH   8  10
ENDBRANCH   6   8
ENDBRANCH   5   6
ENDBRANCH   4   5
ENDBRANCH   3   4
ENDBRANCH   2   3
ENDBRANCH   1   2
BRANCH   1  20
ATOM     20  C   UNL A   1      40.682  20.380  26.333  1.00  0.00     0.188 C 
BRANCH  20  21
ATOM     21  O   UNL A   1      41.941  20.057  25.805  1.00  0.00    -0.376 OA
BRANCH  21  22
ATOM     22  C   UNL A   1      43.080  20.837  26.123  1.00  0.00     0.202 C 
BRANCH  22  23
ATOM     23  C   UNL A   1      43.767  21.859  25.195  1.00  0.00     0.261 C 
BRANCH  23  24
ATOM     24  O   UNL A   1      43.132  23.118  24.958  1.00  0.00    -0.460 OA
BRANCH  24  25
ATOM     25  C   UNL A   1      43.894  24.216  25.196  1.00  0.00     0.338 C 
ATOM     26  O   UNL A   1      44.910  24.545  24.618  1.00  0.00    -0.246 OA
BRANCH  25  27
ATOM     27  C   UNL A   1      43.180  25.078  26.164  1.00  0.00     0.060 A 
ATOM     28  C   UNL A   1      43.487  26.444  26.210  1.00  0.00     0.016 A 
ATOM     29  C   UNL A   1      42.239  24.536  27.043  1.00  0.00     0.016 A 
ATOM     30  C   UNL A   1      42.866  27.266  27.153  1.00  0.00     0.010 A 
ATOM     31  C   UNL A   1      41.639  25.357  28.005  1.00  0.00     0.010 A 
ATOM     32  C   UNL A   1      41.963  26.721  28.081  1.00  0.00    -0.014 A 
BRANCH  32  33
ATOM     33  C   UNL A   1      41.498  27.547  29.226  1.00  0.00     0.031 A 
ATOM     34  C   UNL A   1      42.332  27.583  30.474  1.00  0.00     0.074 A 
ATOM     35  C   UNL A   1      40.366  28.269  29.163  1.00  0.00     0.049 A 
ATOM     36  N   UNL A   1      42.122  28.228  31.592  1.00  0.00    -0.248 NA
ATOM     37  C   UNL A   1      43.538  26.741  30.478  1.00  0.00     0.031 C 
ATOM     38  C   UNL A   1      39.448  28.283  28.032  1.00  0.00     0.029 A 
ATOM     39  N   UNL A   1      39.826  29.177  30.044  1.00  0.00    -0.354 N 
ATOM     40  C   UNL A   1      43.133  27.825  32.453  1.00  0.00     0.074 A 
ATOM     41  C   UNL A   1      43.970  26.899  31.720  1.00  0.00     0.031 C 
ATOM     42  C   UNL A   1      38.543  29.261  28.218  1.00  0.00     0.029 A 
ATOM     43  C   UNL A   1      38.753  29.871  29.529  1.00  0.00     0.049 A 
ATOM     44  H   UNL A   1      40.172  29.318  30.955  1.00  0.00     0.167 HD
ATOM     45  C   UNL A   1      43.317  28.165  33.751  1.00  0.00     0.037 A 
ATOM     46  C   UNL A   1      38.027  30.877  30.060  1.00  0.00     0.037 A 
ATOM     47  C   UNL A   1      42.473  29.079  34.477  1.00  0.00     0.049 A 
ATOM     48  C   UNL A   1      38.296  31.290  31.487  1.00  0.00     0.074 A 
ATOM     49  C   UNL A   1      42.564  29.465  35.804  1.00  0.00     0.029 A 
ATOM     50  N   UNL A   1      41.384  29.750  33.940  1.00  0.00    -0.354 N 
ATOM     51  N   UNL A   1      39.236  30.882  32.306  1.00  0.00    -0.248 NA
ATOM     52  C   UNL A   1      37.363  32.257  32.086  1.00  0.00     0.031 C 
ATOM     53  C   UNL A   1      41.500  30.330  36.082  1.00  0.00     0.029 A 
ATOM     54  C   UNL A   1      40.785  30.533  34.914  1.00  0.00     0.049 A 
ATOM     55  H   UNL A   1      41.081  29.678  33.006  1.00  0.00     0.167 HD
ATOM     56  C   UNL A   1      38.998  31.526  33.514  1.00  0.00     0.074 A 
ATOM     57  C   UNL A   1      37.857  32.393  33.308  1.00  0.00     0.031 C 
ATOM     58  C   UNL A   1      39.645  31.388  34.697  1.00  0.00     0.037 A 
BRANCH  45  59
ATOM     59  C   UNL A   1      44.431  27.480  34.486  1.00  0.00     0.057 A 
ATOM     60  C   UNL A   1      45.711  28.035  34.592  1.00  0.00     0.134 A 
ATOM     61  C   UNL A   1      44.208  26.241  35.104  1.00  0.00     0.134 A 
ATOM     62  F   UNL A   1      45.996  29.207  34.004  1.00  0.00    -0.206 F 
ATOM     63  C   UNL A   1      46.738  27.372  35.266  1.00  0.00     0.040 A 
ATOM     64  C   UNL A   1      45.218  25.583  35.805  1.00  0.00     0.040 A 
ATOM     65  F   UNL A   1      43.004  25.652  35.038  1.00  0.00    -0.206 F 
ATOM     66  C   UNL A   1      46.491  26.145  35.881  1.00  0.00     0.006 A 
ENDBRANCH  45  59
BRANCH  46  67
ATOM     67  C   UNL A   1      36.949  31.549  29.279  1.00  0.00     0.057 A 
ATOM     68  C   UNL A   1      35.742  30.892  28.997  1.00  0.00     0.134 A 
ATOM     69  C   UNL A   1      37.106  32.837  28.752  1.00  0.00     0.134 A 
ATOM     70  F   UNL A   1      35.537  29.639  29.430  1.00  0.00    -0.206 F 
ATOM     71  C   UNL A   1      34.747  31.481  28.212  1.00  0.00     0.040 A 
ATOM     72  C   UNL A   1      36.103  33.453  28.001  1.00  0.00     0.040 A 
ATOM     73  F   UNL A   1      38.241  33.522  28.960  1.00  0.00    -0.206 F 
ATOM     74  C   UNL A   1      34.923  32.771  27.720  1.00  0.00     0.006 A 
ENDBRANCH  46  67
BRANCH  58  75
ATOM     75  C   UNL A   1      39.138  32.194  35.860  1.00  0.00     0.057 A 
ATOM     76  C   UNL A   1      39.533  33.523  36.067  1.00  0.00     0.134 A 
ATOM     77  C   UNL A   1      38.210  31.650  36.757  1.00  0.00     0.134 A 
ATOM     78  F   UNL A   1      40.424  34.105  35.251  1.00  0.00    -0.206 F 
ATOM     79  C   UNL A   1      39.043  34.272  37.139  1.00  0.00     0.040 A 
ATOM     80  C   UNL A   1      37.692  32.397  37.815  1.00  0.00     0.040 A 
ATOM     81  F   UNL A   1      37.779  30.388  36.609  1.00  0.00    -0.206 F 
ATOM     82  C   UNL A   1      38.114  33.710  38.013  1.00  0.00     0.006 A 
ENDBRANCH  58  75
ENDBRANCH  32  33
ENDBRANCH  25  27
ENDBRANCH  24  25
ENDBRANCH  23  24
ENDBRANCH  22  23
ENDBRANCH  21  22
ENDBRANCH  20  21
ENDBRANCH   1  20
TORSDOF 19
ENDMDL
