MODEL 1
REMARK VINA RESULT:     -10.0      0.000      0.000
REMARK SMILES COCC[C@H]([NH3+])C(=O)N1CC(n2cc(C(=O)OCCOCCOCCOC(=O)c3ccc(-c4c5nc(c(-c6c(F)cccc6F)c6ccc([nH]6)c(-c6c(F)cccc6F)c6nc(c(-c7c(F)cccc7F)c7ccc4[nH]7)C=C6)C=C5)cc3)nn2)C1
REMARK SMILES IDX 20 1 19 2 18 3 17 4 15 5 16 6 14 7 12 8 13 9 84 10 83 11
REMARK SMILES IDX 11 12 7 13 8 14 9 15 10 16 85 17 5 18 4 19 3 20 2 21 1 22
REMARK SMILES IDX 6 23 21 27 22 28 23 29 24 30 25 31 26 32 27 33 28 34 29 35
REMARK SMILES IDX 30 36 82 37 31 38 81 39 32 40 33 41 34 42 75 43 35 44 80 45
REMARK SMILES IDX 74 46 76 47 36 48 79 49 73 50 72 51 37 53 63 54 46 55 62 56
REMARK SMILES IDX 47 57 50 58 61 59 77 60 48 61 49 62 60 64 78 65 51 66 38 67
REMARK SMILES IDX 39 68 44 69 40 70 41 71 43 72 45 73 42 74 64 75 65 76 70 77
REMARK SMILES IDX 66 78 67 79 69 80 71 81 68 82 52 83 53 84 58 85 54 86 55 87
REMARK SMILES IDX 57 88 59 89 56 90
REMARK H PARENT 6 24 6 25 6 26 76 52 50 63
REMARK Flexibility Score: inf
ROOT
ATOM      1  O   UNL A   1      35.231  32.143  27.642  1.00  0.00    -0.376 OA
ENDROOT
BRANCH   1   2
ATOM      2  C   UNL A   1      34.986  30.754  27.458  1.00  0.00     0.202 C 
BRANCH   2   3
ATOM      3  C   UNL A   1      33.562  30.180  27.326  1.00  0.00     0.261 C 
BRANCH   3   4
ATOM      4  O   UNL A   1      33.109  29.965  25.982  1.00  0.00    -0.458 OA
BRANCH   4   5
ATOM      5  C   UNL A   1      31.807  30.282  25.720  1.00  0.00     0.360 C 
ATOM      6  O   UNL A   1      31.267  31.325  26.084  1.00  0.00    -0.244 OA
BRANCH   5   7
ATOM      7  C   UNL A   1      31.154  29.305  24.862  1.00  0.00     0.190 A 
ATOM      8  N   UNL A   1      30.493  27.522  23.817  1.00  0.00    -0.245 N 
ATOM      9  C   UNL A   1      31.271  27.927  24.864  1.00  0.00     0.147 A 
ATOM     10  N   UNL A   1      29.934  28.570  23.194  1.00  0.00    -0.066 NA
ATOM     11  N   UNL A   1      30.334  29.668  23.818  1.00  0.00    -0.123 NA
BRANCH   8  12
ATOM     12  C   UNL A   1      30.216  26.149  23.522  1.00  0.00     0.148 C 
ATOM     13  C   UNL A   1      31.983  23.232  23.737  1.00  0.00     0.280 C 
ATOM     14  O   UNL A   1      31.677  22.426  24.622  1.00  0.00    -0.268 OA
ATOM     15  N   UNL A   1      31.341  24.433  23.636  1.00  0.00    -0.333 N 
ATOM     16  C   UNL A   1      30.519  25.123  24.623  1.00  0.00     0.149 C 
ATOM     17  C   UNL A   1      31.400  25.556  22.731  1.00  0.00     0.149 C 
BRANCH  13  18
ATOM     18  C   UNL A   1      33.189  22.931  22.812  1.00  0.00     0.273 C 
BRANCH  18  19
ATOM     19  C   UNL A   1      34.436  23.738  23.220  1.00  0.00     0.104 C 
BRANCH  19  20
ATOM     20  C   UNL A   1      35.364  23.086  24.249  1.00  0.00     0.166 C 
BRANCH  20  21
ATOM     21  O   UNL A   1      36.562  22.572  23.662  1.00  0.00    -0.384 OA
ATOM     22  C   UNL A   1      37.260  21.643  24.487  1.00  0.00     0.194 C 
ENDBRANCH  20  21
ENDBRANCH  19  20
ENDBRANCH  18  19
BRANCH  18  23
ATOM     23  N   UNL A   1      32.885  23.069  21.372  1.00  0.00    -0.347 N 
ATOM     24  H   UNL A   1      31.877  23.152  21.244  1.00  0.00     0.345 HD
ATOM     25  H   UNL A   1      33.224  22.247  20.873  1.00  0.00     0.345 HD
ATOM     26  H   UNL A   1      33.345  23.903  21.007  1.00  0.00     0.345 HD
ENDBRANCH  18  23
ENDBRANCH  13  18
ENDBRANCH   8  12
ENDBRANCH   5   7
ENDBRANCH   4   5
ENDBRANCH   3   4
ENDBRANCH   2   3
ENDBRANCH   1   2
BRANCH   1  27
ATOM     27  C   UNL A   1      34.154  33.053  27.797  1.00  0.00     0.188 C 
BRANCH  27  28
ATOM     28  C   UNL A   1      33.779  33.587  29.194  1.00  0.00     0.188 C 
BRANCH  28  29
ATOM     29  O   UNL A   1      32.785  34.586  29.220  1.00  0.00    -0.376 OA
BRANCH  29  30
ATOM     30  C   UNL A   1      33.101  35.960  29.395  1.00  0.00     0.202 C 
BRANCH  30  31
ATOM     31  C   UNL A   1      32.871  36.765  30.676  1.00  0.00     0.261 C 
BRANCH  31  32
ATOM     32  O   UNL A   1      33.646  36.418  31.804  1.00  0.00    -0.460 OA
BRANCH  32  33
ATOM     33  C   UNL A   1      33.214  35.312  32.442  1.00  0.00     0.338 C 
ATOM     34  O   UNL A   1      32.057  34.984  32.645  1.00  0.00    -0.246 OA
BRANCH  33  35
ATOM     35  C   UNL A   1      34.376  34.580  32.945  1.00  0.00     0.060 A 
ATOM     36  C   UNL A   1      35.570  35.291  33.060  1.00  0.00     0.016 A 
ATOM     37  C   UNL A   1      34.326  33.179  33.000  1.00  0.00     0.016 A 
ATOM     38  C   UNL A   1      36.749  34.583  33.021  1.00  0.00     0.010 A 
ATOM     39  C   UNL A   1      35.504  32.474  32.944  1.00  0.00     0.010 A 
ATOM     40  C   UNL A   1      36.694  33.192  32.865  1.00  0.00    -0.014 A 
BRANCH  40  41
ATOM     41  C   UNL A   1      37.941  32.499  32.632  1.00  0.00     0.031 A 
ATOM     42  C   UNL A   1      38.827  32.478  33.805  1.00  0.00     0.074 A 
ATOM     43  C   UNL A   1      38.219  31.890  31.465  1.00  0.00     0.049 A 
ATOM     44  N   UNL A   1      39.947  33.100  33.950  1.00  0.00    -0.248 NA
ATOM     45  C   UNL A   1      38.345  31.801  35.018  1.00  0.00     0.031 C 
ATOM     46  C   UNL A   1      37.287  31.615  30.366  1.00  0.00     0.029 A 
ATOM     47  N   UNL A   1      39.377  31.301  31.050  1.00  0.00    -0.354 N 
ATOM     48  C   UNL A   1      40.423  32.707  35.193  1.00  0.00     0.074 A 
ATOM     49  C   UNL A   1      39.327  32.073  35.876  1.00  0.00     0.031 C 
ATOM     50  C   UNL A   1      37.856  30.734  29.513  1.00  0.00     0.029 A 
ATOM     51  C   UNL A   1      39.230  30.503  29.926  1.00  0.00     0.049 A 
ATOM     52  H   UNL A   1      40.239  31.431  31.508  1.00  0.00     0.167 HD
ATOM     53  C   UNL A   1      41.759  32.658  35.429  1.00  0.00     0.037 A 
ATOM     54  C   UNL A   1      40.160  29.679  29.391  1.00  0.00     0.037 A 
ATOM     55  C   UNL A   1      42.501  33.372  34.423  1.00  0.00     0.049 A 
ATOM     56  C   UNL A   1      41.495  30.117  29.854  1.00  0.00     0.074 A 
ATOM     57  C   UNL A   1      42.817  34.682  34.146  1.00  0.00     0.029 A 
ATOM     58  N   UNL A   1      42.753  32.640  33.294  1.00  0.00    -0.354 N 
ATOM     59  N   UNL A   1      42.061  31.227  29.472  1.00  0.00    -0.248 NA
ATOM     60  C   UNL A   1      42.108  29.472  31.012  1.00  0.00     0.031 C 
ATOM     61  C   UNL A   1      43.153  34.731  32.760  1.00  0.00     0.029 A 
ATOM     62  C   UNL A   1      43.038  33.449  32.228  1.00  0.00     0.049 A 
ATOM     63  H   UNL A   1      42.732  31.657  33.255  1.00  0.00     0.167 HD
ATOM     64  C   UNL A   1      42.795  31.628  30.569  1.00  0.00     0.074 A 
ATOM     65  C   UNL A   1      42.944  30.440  31.396  1.00  0.00     0.031 C 
ATOM     66  C   UNL A   1      42.924  32.949  30.878  1.00  0.00     0.037 A 
BRANCH  53  67
ATOM     67  C   UNL A   1      42.427  31.584  36.252  1.00  0.00     0.057 A 
ATOM     68  C   UNL A   1      43.306  31.964  37.280  1.00  0.00     0.134 A 
ATOM     69  C   UNL A   1      42.494  30.227  35.875  1.00  0.00     0.134 A 
ATOM     70  F   UNL A   1      43.354  33.236  37.707  1.00  0.00    -0.206 F 
ATOM     71  C   UNL A   1      44.224  31.073  37.848  1.00  0.00     0.040 A 
ATOM     72  C   UNL A   1      43.368  29.316  36.474  1.00  0.00     0.040 A 
ATOM     73  F   UNL A   1      41.803  29.733  34.840  1.00  0.00    -0.206 F 
ATOM     74  C   UNL A   1      44.259  29.745  37.443  1.00  0.00     0.006 A 
ENDBRANCH  53  67
BRANCH  54  75
ATOM     75  C   UNL A   1      39.963  28.421  28.643  1.00  0.00     0.057 A 
ATOM     76  C   UNL A   1      40.472  28.256  27.349  1.00  0.00     0.134 A 
ATOM     77  C   UNL A   1      39.502  27.260  29.286  1.00  0.00     0.134 A 
ATOM     78  F   UNL A   1      40.964  29.303  26.671  1.00  0.00    -0.206 F 
ATOM     79  C   UNL A   1      40.548  26.999  26.737  1.00  0.00     0.040 A 
ATOM     80  C   UNL A   1      39.566  26.000  28.684  1.00  0.00     0.040 A 
ATOM     81  F   UNL A   1      39.060  27.300  30.551  1.00  0.00    -0.206 F 
ATOM     82  C   UNL A   1      40.105  25.865  27.410  1.00  0.00     0.006 A 
ENDBRANCH  54  75
BRANCH  66  83
ATOM     83  C   UNL A   1      42.740  33.928  29.763  1.00  0.00     0.057 A 
ATOM     84  C   UNL A   1      43.724  34.235  28.815  1.00  0.00     0.134 A 
ATOM     85  C   UNL A   1      41.494  34.546  29.617  1.00  0.00     0.134 A 
ATOM     86  F   UNL A   1      44.922  33.635  28.839  1.00  0.00    -0.206 F 
ATOM     87  C   UNL A   1      43.488  35.156  27.789  1.00  0.00     0.040 A 
ATOM     88  C   UNL A   1      41.235  35.441  28.579  1.00  0.00     0.040 A 
ATOM     89  F   UNL A   1      40.496  34.265  30.469  1.00  0.00    -0.206 F 
ATOM     90  C   UNL A   1      42.238  35.758  27.668  1.00  0.00     0.006 A 
ENDBRANCH  66  83
ENDBRANCH  40  41
ENDBRANCH  33  35
ENDBRANCH  32  33
ENDBRANCH  31  32
ENDBRANCH  30  31
ENDBRANCH  29  30
ENDBRANCH  28  29
ENDBRANCH  27  28
ENDBRANCH   1  27
TORSDOF 23
ENDMDL
MODEL 2
REMARK VINA RESULT:      -9.4      4.026      8.174
REMARK SMILES COCC[C@H]([NH3+])C(=O)N1CC(n2cc(C(=O)OCCOCCOCCOC(=O)c3ccc(-c4c5nc(c(-c6c(F)cccc6F)c6ccc([nH]6)c(-c6c(F)cccc6F)c6nc(c(-c7c(F)cccc7F)c7ccc4[nH]7)C=C6)C=C5)cc3)nn2)C1
REMARK SMILES IDX 20 1 19 2 18 3 17 4 15 5 16 6 14 7 12 8 13 9 84 10 83 11
REMARK SMILES IDX 11 12 7 13 8 14 9 15 10 16 85 17 5 18 4 19 3 20 2 21 1 22
REMARK SMILES IDX 6 23 21 27 22 28 23 29 24 30 25 31 26 32 27 33 28 34 29 35
REMARK SMILES IDX 30 36 82 37 31 38 81 39 32 40 33 41 34 42 75 43 35 44 80 45
REMARK SMILES IDX 74 46 76 47 36 48 79 49 73 50 72 51 37 53 63 54 46 55 62 56
REMARK SMILES IDX 47 57 50 58 61 59 77 60 48 61 49 62 60 64 78 65 51 66 38 67
REMARK SMILES IDX 39 68 44 69 40 70 41 71 43 72 45 73 42 74 64 75 65 76 70 77
REMARK SMILES IDX 66 78 67 79 69 80 71 81 68 82 52 83 53 84 58 85 54 86 55 87
REMARK SMILES IDX 57 88 59 89 56 90
REMARK H PARENT 6 24 6 25 6 26 76 52 50 63
REMARK Flexibility Score: inf
ROOT
ATOM      1  O   UNL A   1      31.935  33.509  27.281  1.00  0.00    -0.376 OA
ENDROOT
BRANCH   1   2
ATOM      2  C   UNL A   1      31.728  32.339  26.499  1.00  0.00     0.202 C 
BRANCH   2   3
ATOM      3  C   UNL A   1      32.202  30.947  26.960  1.00  0.00     0.261 C 
BRANCH   3   4
ATOM      4  O   UNL A   1      31.510  29.838  26.373  1.00  0.00    -0.458 OA
BRANCH   4   5
ATOM      5  C   UNL A   1      32.276  28.923  25.708  1.00  0.00     0.360 C 
ATOM      6  O   UNL A   1      33.421  29.141  25.318  1.00  0.00    -0.244 OA
BRANCH   5   7
ATOM      7  C   UNL A   1      31.636  27.620  25.611  1.00  0.00     0.190 A 
ATOM      8  N   UNL A   1      31.108  25.516  25.691  1.00  0.00    -0.245 N 
ATOM      9  C   UNL A   1      32.042  26.408  26.138  1.00  0.00     0.147 A 
ATOM     10  N   UNL A   1      30.185  26.122  24.930  1.00  0.00    -0.066 NA
ATOM     11  N   UNL A   1      30.498  27.409  24.867  1.00  0.00    -0.123 NA
BRANCH   8  12
ATOM     12  C   UNL A   1      31.063  24.146  26.101  1.00  0.00     0.148 C 
ATOM     13  C   UNL A   1      33.302  21.565  26.143  1.00  0.00     0.280 C 
ATOM     14  O   UNL A   1      33.751  21.197  27.234  1.00  0.00    -0.268 OA
ATOM     15  N   UNL A   1      32.440  22.622  26.065  1.00  0.00    -0.333 N 
ATOM     16  C   UNL A   1      32.170  23.663  27.049  1.00  0.00     0.149 C 
ATOM     17  C   UNL A   1      31.705  23.271  25.006  1.00  0.00     0.149 C 
BRANCH  13  18
ATOM     18  C   UNL A   1      33.815  20.901  24.841  1.00  0.00     0.273 C 
BRANCH  18  19
ATOM     19  C   UNL A   1      32.656  20.353  23.986  1.00  0.00     0.104 C 
BRANCH  19  20
ATOM     20  C   UNL A   1      32.423  18.840  24.044  1.00  0.00     0.166 C 
BRANCH  20  21
ATOM     21  O   UNL A   1      32.255  18.360  25.380  1.00  0.00    -0.384 OA
ATOM     22  C   UNL A   1      32.680  17.014  25.570  1.00  0.00     0.194 C 
ENDBRANCH  20  21
ENDBRANCH  19  20
ENDBRANCH  18  19
BRANCH  18  23
ATOM     23  N   UNL A   1      34.869  19.889  25.061  1.00  0.00    -0.347 N 
ATOM     24  H   UNL A   1      35.779  20.350  25.103  1.00  0.00     0.345 HD
ATOM     25  H   UNL A   1      34.863  19.219  24.293  1.00  0.00     0.345 HD
ATOM     26  H   UNL A   1      34.694  19.402  25.940  1.00  0.00     0.345 HD
ENDBRANCH  18  23
ENDBRANCH  13  18
ENDBRANCH   8  12
ENDBRANCH   5   7
ENDBRANCH   4   5
ENDBRANCH   3   4
ENDBRANCH   2   3
ENDBRANCH   1   2
BRANCH   1  27
ATOM     27  C   UNL A   1      33.006  33.579  28.208  1.00  0.00     0.188 C 
BRANCH  27  28
ATOM     28  C   UNL A   1      34.433  33.911  27.727  1.00  0.00     0.188 C 
BRANCH  28  29
ATOM     29  O   UNL A   1      35.348  34.278  28.734  1.00  0.00    -0.376 OA
BRANCH  29  30
ATOM     30  C   UNL A   1      35.432  33.580  29.969  1.00  0.00     0.202 C 
BRANCH  30  31
ATOM     31  C   UNL A   1      36.448  32.484  30.298  1.00  0.00     0.261 C 
BRANCH  31  32
ATOM     32  O   UNL A   1      36.434  31.327  29.490  1.00  0.00    -0.460 OA
BRANCH  32  33
ATOM     33  C   UNL A   1      36.540  30.177  30.185  1.00  0.00     0.338 C 
ATOM     34  O   UNL A   1      35.958  29.882  31.215  1.00  0.00    -0.246 OA
BRANCH  33  35
ATOM     35  C   UNL A   1      37.552  29.337  29.544  1.00  0.00     0.060 A 
ATOM     36  C   UNL A   1      38.112  28.320  30.318  1.00  0.00     0.016 A 
ATOM     37  C   UNL A   1      38.118  29.757  28.331  1.00  0.00     0.016 A 
ATOM     38  C   UNL A   1      39.364  27.865  29.977  1.00  0.00     0.010 A 
ATOM     39  C   UNL A   1      39.375  29.313  28.001  1.00  0.00     0.010 A 
ATOM     40  C   UNL A   1      40.014  28.442  28.878  1.00  0.00    -0.014 A 
BRANCH  40  41
ATOM     41  C   UNL A   1      41.398  28.085  28.661  1.00  0.00     0.031 A 
ATOM     42  C   UNL A   1      41.569  26.801  27.965  1.00  0.00     0.074 A 
ATOM     43  C   UNL A   1      42.413  28.891  29.019  1.00  0.00     0.049 A 
ATOM     44  N   UNL A   1      42.036  25.702  28.454  1.00  0.00    -0.248 NA
ATOM     45  C   UNL A   1      41.025  26.680  26.605  1.00  0.00     0.031 C 
ATOM     46  C   UNL A   1      42.324  30.293  29.441  1.00  0.00     0.029 A 
ATOM     47  N   UNL A   1      43.757  28.656  28.990  1.00  0.00    -0.354 N 
ATOM     48  C   UNL A   1      42.056  24.811  27.391  1.00  0.00     0.074 A 
ATOM     49  C   UNL A   1      41.257  25.393  26.345  1.00  0.00     0.031 C 
ATOM     50  C   UNL A   1      43.560  30.841  29.422  1.00  0.00     0.029 A 
ATOM     51  C   UNL A   1      44.530  29.798  29.131  1.00  0.00     0.049 A 
ATOM     52  H   UNL A   1      44.142  27.756  28.878  1.00  0.00     0.167 HD
ATOM     53  C   UNL A   1      42.982  23.819  27.348  1.00  0.00     0.037 A 
ATOM     54  C   UNL A   1      45.872  29.891  28.983  1.00  0.00     0.037 A 
ATOM     55  C   UNL A   1      43.613  23.629  28.627  1.00  0.00     0.049 A 
ATOM     56  C   UNL A   1      46.456  28.542  29.149  1.00  0.00     0.074 A 
ATOM     57  C   UNL A   1      43.313  23.002  29.814  1.00  0.00     0.029 A 
ATOM     58  N   UNL A   1      44.655  24.484  28.866  1.00  0.00    -0.354 N 
ATOM     59  N   UNL A   1      46.487  27.906  30.285  1.00  0.00    -0.248 NA
ATOM     60  C   UNL A   1      46.740  27.726  27.971  1.00  0.00     0.031 C 
ATOM     61  C   UNL A   1      44.137  23.607  30.809  1.00  0.00     0.029 A 
ATOM     62  C   UNL A   1      44.922  24.585  30.204  1.00  0.00     0.049 A 
ATOM     63  H   UNL A   1      45.148  24.965  28.163  1.00  0.00     0.167 HD
ATOM     64  C   UNL A   1      46.366  26.577  29.935  1.00  0.00     0.074 A 
ATOM     65  C   UNL A   1      46.717  26.511  28.524  1.00  0.00     0.031 C 
ATOM     66  C   UNL A   1      45.668  25.709  30.719  1.00  0.00     0.037 A 
BRANCH  53  67
ATOM     67  C   UNL A   1      43.668  23.366  26.082  1.00  0.00     0.057 A 
ATOM     68  C   UNL A   1      43.643  22.002  25.748  1.00  0.00     0.134 A 
ATOM     69  C   UNL A   1      44.604  24.143  25.370  1.00  0.00     0.134 A 
ATOM     70  F   UNL A   1      42.813  21.155  26.377  1.00  0.00    -0.206 F 
ATOM     71  C   UNL A   1      44.525  21.443  24.816  1.00  0.00     0.040 A 
ATOM     72  C   UNL A   1      45.451  23.606  24.397  1.00  0.00     0.040 A 
ATOM     73  F   UNL A   1      44.828  25.434  25.648  1.00  0.00    -0.206 F 
ATOM     74  C   UNL A   1      45.436  22.245  24.139  1.00  0.00     0.006 A 
ENDBRANCH  53  67
BRANCH  54  75
ATOM     75  C   UNL A   1      46.676  31.043  28.529  1.00  0.00     0.057 A 
ATOM     76  C   UNL A   1      47.725  31.551  29.307  1.00  0.00     0.134 A 
ATOM     77  C   UNL A   1      46.605  31.499  27.203  1.00  0.00     0.134 A 
ATOM     78  F   UNL A   1      47.891  31.147  30.574  1.00  0.00    -0.206 F 
ATOM     79  C   UNL A   1      48.670  32.441  28.785  1.00  0.00     0.040 A 
ATOM     80  C   UNL A   1      47.538  32.394  26.671  1.00  0.00     0.040 A 
ATOM     81  F   UNL A   1      45.680  31.022  26.356  1.00  0.00    -0.206 F 
ATOM     82  C   UNL A   1      48.585  32.856  27.459  1.00  0.00     0.006 A 
ENDBRANCH  54  75
BRANCH  66  83
ATOM     83  C   UNL A   1      45.518  26.068  32.163  1.00  0.00     0.057 A 
ATOM     84  C   UNL A   1      44.393  26.704  32.703  1.00  0.00     0.134 A 
ATOM     85  C   UNL A   1      46.537  25.705  33.049  1.00  0.00     0.134 A 
ATOM     86  F   UNL A   1      43.341  27.021  31.936  1.00  0.00    -0.206 F 
ATOM     87  C   UNL A   1      44.309  27.006  34.066  1.00  0.00     0.040 A 
ATOM     88  C   UNL A   1      46.451  25.971  34.416  1.00  0.00     0.040 A 
ATOM     89  F   UNL A   1      47.624  25.058  32.602  1.00  0.00    -0.206 F 
ATOM     90  C   UNL A   1      45.339  26.635  34.926  1.00  0.00     0.006 A 
ENDBRANCH  66  83
ENDBRANCH  40  41
ENDBRANCH  33  35
ENDBRANCH  32  33
ENDBRANCH  31  32
ENDBRANCH  30  31
ENDBRANCH  29  30
ENDBRANCH  28  29
ENDBRANCH  27  28
ENDBRANCH   1  27
TORSDOF 23
ENDMDL
MODEL 3
REMARK VINA RESULT:      -9.2      1.804      2.634
REMARK SMILES COCC[C@H]([NH3+])C(=O)N1CC(n2cc(C(=O)OCCOCCOCCOC(=O)c3ccc(-c4c5nc(c(-c6c(F)cccc6F)c6ccc([nH]6)c(-c6c(F)cccc6F)c6nc(c(-c7c(F)cccc7F)c7ccc4[nH]7)C=C6)C=C5)cc3)nn2)C1
REMARK SMILES IDX 20 1 19 2 18 3 17 4 15 5 16 6 14 7 12 8 13 9 84 10 83 11
REMARK SMILES IDX 11 12 7 13 8 14 9 15 10 16 85 17 5 18 4 19 3 20 2 21 1 22
REMARK SMILES IDX 6 23 21 27 22 28 23 29 24 30 25 31 26 32 27 33 28 34 29 35
REMARK SMILES IDX 30 36 82 37 31 38 81 39 32 40 33 41 34 42 75 43 35 44 80 45
REMARK SMILES IDX 74 46 76 47 36 48 79 49 73 50 72 51 37 53 63 54 46 55 62 56
REMARK SMILES IDX 47 57 50 58 61 59 77 60 48 61 49 62 60 64 78 65 51 66 38 67
REMARK SMILES IDX 39 68 44 69 40 70 41 71 43 72 45 73 42 74 64 75 65 76 70 77
REMARK SMILES IDX 66 78 67 79 69 80 71 81 68 82 52 83 53 84 58 85 54 86 55 87
REMARK SMILES IDX 57 88 59 89 56 90
REMARK H PARENT 6 24 6 25 6 26 76 52 50 63
REMARK Flexibility Score: inf
ROOT
ATOM      1  O   UNL A   1      34.524  34.608  29.610  1.00  0.00    -0.376 OA
ENDROOT
BRANCH   1   2
ATOM      2  C   UNL A   1      34.894  33.580  28.700  1.00  0.00     0.202 C 
BRANCH   2   3
ATOM      3  C   UNL A   1      34.129  32.244  28.613  1.00  0.00     0.261 C 
BRANCH   3   4
ATOM      4  O   UNL A   1      34.029  31.679  27.299  1.00  0.00    -0.458 OA
BRANCH   4   5
ATOM      5  C   UNL A   1      32.813  31.169  26.945  1.00  0.00     0.360 C 
ATOM      6  O   UNL A   1      31.776  31.828  26.909  1.00  0.00    -0.244 OA
BRANCH   5   7
ATOM      7  C   UNL A   1      32.893  29.786  26.502  1.00  0.00     0.190 A 
ATOM      8  N   UNL A   1      32.511  27.727  25.929  1.00  0.00    -0.245 N 
ATOM      9  C   UNL A   1      31.870  28.888  26.257  1.00  0.00     0.147 A 
ATOM     10  N   UNL A   1      33.843  27.880  25.974  1.00  0.00    -0.066 NA
ATOM     11  N   UNL A   1      34.092  29.133  26.328  1.00  0.00    -0.123 NA
BRANCH   8  12
ATOM     12  C   UNL A   1      31.835  26.552  25.471  1.00  0.00     0.148 C 
ATOM     13  C   UNL A   1      31.510  23.352  26.625  1.00  0.00     0.280 C 
ATOM     14  O   UNL A   1      30.420  23.005  27.091  1.00  0.00    -0.268 OA
ATOM     15  N   UNL A   1      31.708  24.632  26.193  1.00  0.00    -0.333 N 
ATOM     16  C   UNL A   1      30.929  25.830  26.478  1.00  0.00     0.149 C 
ATOM     17  C   UNL A   1      32.795  25.349  25.569  1.00  0.00     0.149 C 
BRANCH  13  18
ATOM     18  C   UNL A   1      32.701  22.361  26.643  1.00  0.00     0.273 C 
BRANCH  18  19
ATOM     19  C   UNL A   1      32.547  21.264  25.572  1.00  0.00     0.104 C 
BRANCH  19  20
ATOM     20  C   UNL A   1      32.255  21.740  24.146  1.00  0.00     0.166 C 
BRANCH  20  21
ATOM     21  O   UNL A   1      33.265  22.619  23.641  1.00  0.00    -0.384 OA
ATOM     22  C   UNL A   1      33.126  22.928  22.258  1.00  0.00     0.194 C 
ENDBRANCH  20  21
ENDBRANCH  19  20
ENDBRANCH  18  19
BRANCH  18  23
ATOM     23  N   UNL A   1      32.987  21.795  27.979  1.00  0.00    -0.347 N 
ATOM     24  H   UNL A   1      33.263  20.818  27.882  1.00  0.00     0.345 HD
ATOM     25  H   UNL A   1      32.152  21.857  28.560  1.00  0.00     0.345 HD
ATOM     26  H   UNL A   1      33.745  22.322  28.414  1.00  0.00     0.345 HD
ENDBRANCH  18  23
ENDBRANCH  13  18
ENDBRANCH   8  12
ENDBRANCH   5   7
ENDBRANCH   4   5
ENDBRANCH   3   4
ENDBRANCH   2   3
ENDBRANCH   1   2
BRANCH   1  27
ATOM     27  C   UNL A   1      33.498  35.531  29.279  1.00  0.00     0.188 C 
BRANCH  27  28
ATOM     28  C   UNL A   1      32.602  36.129  30.382  1.00  0.00     0.188 C 
BRANCH  28  29
ATOM     29  O   UNL A   1      32.907  37.449  30.771  1.00  0.00    -0.376 OA
BRANCH  29  30
ATOM     30  C   UNL A   1      33.644  37.737  31.950  1.00  0.00     0.202 C 
BRANCH  30  31
ATOM     31  C   UNL A   1      33.749  36.822  33.173  1.00  0.00     0.261 C 
BRANCH  31  32
ATOM     32  O   UNL A   1      34.878  35.978  33.253  1.00  0.00    -0.460 OA
BRANCH  32  33
ATOM     33  C   UNL A   1      34.589  34.669  33.109  1.00  0.00     0.338 C 
ATOM     34  O   UNL A   1      33.505  34.180  32.838  1.00  0.00    -0.246 OA
BRANCH  33  35
ATOM     35  C   UNL A   1      35.787  33.890  33.418  1.00  0.00     0.060 A 
ATOM     36  C   UNL A   1      37.011  34.554  33.337  1.00  0.00     0.016 A 
ATOM     37  C   UNL A   1      35.693  32.492  33.484  1.00  0.00     0.016 A 
ATOM     38  C   UNL A   1      38.140  33.802  33.108  1.00  0.00     0.010 A 
ATOM     39  C   UNL A   1      36.818  31.743  33.239  1.00  0.00     0.010 A 
ATOM     40  C   UNL A   1      38.006  32.414  32.966  1.00  0.00    -0.014 A 
BRANCH  40  41
ATOM     41  C   UNL A   1      39.171  31.675  32.535  1.00  0.00     0.031 A 
ATOM     42  C   UNL A   1      40.159  31.463  33.603  1.00  0.00     0.074 A 
ATOM     43  C   UNL A   1      39.293  31.188  31.287  1.00  0.00     0.049 A 
ATOM     44  N   UNL A   1      41.331  31.993  33.700  1.00  0.00    -0.248 NA
ATOM     45  C   UNL A   1      39.743  30.684  34.778  1.00  0.00     0.031 C 
ATOM     46  C   UNL A   1      38.244  31.100  30.265  1.00  0.00     0.029 A 
ATOM     47  N   UNL A   1      40.360  30.578  30.696  1.00  0.00    -0.354 N 
ATOM     48  C   UNL A   1      41.890  31.430  34.839  1.00  0.00     0.074 A 
ATOM     49  C   UNL A   1      40.819  30.793  35.557  1.00  0.00     0.031 C 
ATOM     50  C   UNL A   1      38.664  30.288  29.268  1.00  0.00     0.029 A 
ATOM     51  C   UNL A   1      40.050  29.925  29.513  1.00  0.00     0.049 A 
ATOM     52  H   UNL A   1      41.269  30.600  31.076  1.00  0.00     0.167 HD
ATOM     53  C   UNL A   1      43.235  31.270  34.932  1.00  0.00     0.037 A 
ATOM     54  C   UNL A   1      40.862  29.110  28.801  1.00  0.00     0.037 A 
ATOM     55  C   UNL A   1      43.931  32.046  33.939  1.00  0.00     0.049 A 
ATOM     56  C   UNL A   1      42.264  29.406  29.170  1.00  0.00     0.074 A 
ATOM     57  C   UNL A   1      44.316  33.356  33.775  1.00  0.00     0.029 A 
ATOM     58  N   UNL A   1      44.021  31.434  32.718  1.00  0.00    -0.354 N 
ATOM     59  N   UNL A   1      42.872  30.515  28.856  1.00  0.00    -0.248 NA
ATOM     60  C   UNL A   1      42.932  28.596  30.185  1.00  0.00     0.031 C 
ATOM     61  C   UNL A   1      44.524  33.542  32.375  1.00  0.00     0.029 A 
ATOM     62  C   UNL A   1      44.265  32.340  31.723  1.00  0.00     0.049 A 
ATOM     63  H   UNL A   1      43.923  30.465  32.576  1.00  0.00     0.167 HD
ATOM     64  C   UNL A   1      43.734  30.740  29.910  1.00  0.00     0.074 A 
ATOM     65  C   UNL A   1      43.870  29.458  30.585  1.00  0.00     0.031 C 
ATOM     66  C   UNL A   1      43.988  32.006  30.344  1.00  0.00     0.037 A 
BRANCH  53  67
ATOM     67  C   UNL A   1      43.896  30.068  35.563  1.00  0.00     0.057 A 
ATOM     68  C   UNL A   1      43.609  28.791  35.054  1.00  0.00     0.134 A 
ATOM     69  C   UNL A   1      44.529  30.086  36.823  1.00  0.00     0.134 A 
ATOM     70  F   UNL A   1      42.984  28.645  33.875  1.00  0.00    -0.206 F 
ATOM     71  C   UNL A   1      43.881  27.621  35.772  1.00  0.00     0.040 A 
ATOM     72  C   UNL A   1      44.855  28.922  37.524  1.00  0.00     0.040 A 
ATOM     73  F   UNL A   1      44.768  31.221  37.492  1.00  0.00    -0.206 F 
ATOM     74  C   UNL A   1      44.502  27.684  37.013  1.00  0.00     0.006 A 
ENDBRANCH  53  67
BRANCH  54  75
ATOM     75  C   UNL A   1      40.504  27.961  27.946  1.00  0.00     0.057 A 
ATOM     76  C   UNL A   1      41.037  27.816  26.658  1.00  0.00     0.134 A 
ATOM     77  C   UNL A   1      39.838  26.843  28.475  1.00  0.00     0.134 A 
ATOM     78  F   UNL A   1      41.717  28.820  26.086  1.00  0.00    -0.206 F 
ATOM     79  C   UNL A   1      40.941  26.615  25.947  1.00  0.00     0.040 A 
ATOM     80  C   UNL A   1      39.729  25.639  27.773  1.00  0.00     0.040 A 
ATOM     81  F   UNL A   1      39.351  26.856  29.725  1.00  0.00    -0.206 F 
ATOM     82  C   UNL A   1      40.296  25.517  26.510  1.00  0.00     0.006 A 
ENDBRANCH  54  75
BRANCH  66  83
ATOM     83  C   UNL A   1      43.774  33.116  29.366  1.00  0.00     0.057 A 
ATOM     84  C   UNL A   1      42.682  33.993  29.397  1.00  0.00     0.134 A 
ATOM     85  C   UNL A   1      44.745  33.336  28.384  1.00  0.00     0.134 A 
ATOM     86  F   UNL A   1      41.744  33.898  30.349  1.00  0.00    -0.206 F 
ATOM     87  C   UNL A   1      42.543  35.019  28.458  1.00  0.00     0.040 A 
ATOM     88  C   UNL A   1      44.635  34.376  27.462  1.00  0.00     0.040 A 
ATOM     89  F   UNL A   1      45.836  32.556  28.325  1.00  0.00    -0.206 F 
ATOM     90  C   UNL A   1      43.524  35.214  27.489  1.00  0.00     0.006 A 
ENDBRANCH  66  83
ENDBRANCH  40  41
ENDBRANCH  33  35
ENDBRANCH  32  33
ENDBRANCH  31  32
ENDBRANCH  30  31
ENDBRANCH  29  30
ENDBRANCH  28  29
ENDBRANCH  27  28
ENDBRANCH   1  27
TORSDOF 23
ENDMDL
