MODEL 1
REMARK VINA RESULT:     -11.3      0.000      0.000
REMARK SMILES Cc1ccc(-c2c[nH]c(=O)cc2C(=O)OCCOCCOCCOC(=O)c2ccc(-c3c4nc(c(-c5c(F)cccc5F)c5ccc([nH]5)c(-c5c(F)cccc5F)c5nc(c(-c6c(F)cccc6F)c6ccc3[nH]6)C=C5)C=C4)cc2)cc1Cl
REMARK SMILES IDX 20 1 19 2 18 3 17 4 16 5 15 6 13 7 14 8 12 9 6 10 7 11 8 12
REMARK SMILES IDX 11 13 9 14 10 16 5 17 1 18 2 19 3 20 82 21 4 22 81 23 83 24
REMARK SMILES IDX 21 25 22 26 23 27 24 28 25 29 26 30 27 31 28 32 80 33 29 34
REMARK SMILES IDX 79 35 30 36 31 37 32 38 73 39 33 40 78 41 72 42 74 43 34 44
REMARK SMILES IDX 77 45 71 46 70 47 35 49 61 50 44 51 60 52 45 53 48 54 59 55
REMARK SMILES IDX 75 56 46 57 47 58 58 60 76 61 49 62 36 63 37 64 42 65 38 66
REMARK SMILES IDX 39 67 41 68 43 69 40 70 62 71 63 72 68 73 64 74 65 75 67 76
REMARK SMILES IDX 69 77 66 78 50 79 51 80 56 81 52 82 53 83 55 84 57 85 54 86
REMARK H PARENT 8 15 74 48 48 59
REMARK Flexibility Score: inf
ROOT
ATOM      1  C   UNL A   1      42.201  19.510  26.477  1.00  0.00     0.188 C 
ENDROOT
BRANCH   1   2
ATOM      2  C   UNL A   1      40.930  20.279  26.892  1.00  0.00     0.188 C 
BRANCH   2   3
ATOM      3  O   UNL A   1      40.516  21.227  25.929  1.00  0.00    -0.376 OA
BRANCH   3   4
ATOM      4  C   UNL A   1      39.233  21.791  26.125  1.00  0.00     0.202 C 
BRANCH   4   5
ATOM      5  C   UNL A   1      38.079  21.222  25.283  1.00  0.00     0.261 C 
BRANCH   5   6
ATOM      6  O   UNL A   1      36.760  21.699  25.605  1.00  0.00    -0.460 OA
BRANCH   6   7
ATOM      7  C   UNL A   1      35.936  22.088  24.599  1.00  0.00     0.339 C 
ATOM      8  O   UNL A   1      36.291  22.592  23.547  1.00  0.00    -0.246 OA
BRANCH   7   9
ATOM      9  C   UNL A   1      34.521  21.727  24.939  1.00  0.00     0.074 A 
ATOM     10  C   UNL A   1      33.474  22.751  25.077  1.00  0.00     0.013 A 
ATOM     11  C   UNL A   1      32.229  22.355  25.404  1.00  0.00     0.095 A 
ATOM     12  N   UNL A   1      31.938  21.025  25.574  1.00  0.00    -0.328 N 
ATOM     13  C   UNL A   1      34.226  20.421  25.073  1.00  0.00     0.087 A 
ATOM     14  C   UNL A   1      32.842  20.009  25.403  1.00  0.00     0.248 A 
ATOM     15  H   UNL A   1      31.019  20.785  25.835  1.00  0.00     0.169 HD
ATOM     16  O   UNL A   1      32.542  18.828  25.515  1.00  0.00    -0.270 OA
BRANCH  10  17
ATOM     17  C   UNL A   1      33.668  24.166  24.714  1.00  0.00    -0.015 A 
ATOM     18  C   UNL A   1      33.743  28.435  24.039  1.00  0.00     0.046 C 
ATOM     19  C   UNL A   1      33.737  26.944  24.235  1.00  0.00    -0.032 A 
ATOM     20  C   UNL A   1      33.994  26.434  25.513  1.00  0.00     0.005 A 
ATOM     21  C   UNL A   1      33.495  26.039  23.190  1.00  0.00     0.044 A 
ATOM     22  C   UNL A   1      34.025  25.058  25.727  1.00  0.00     0.009 A 
ATOM     23  C   UNL A   1      33.439  24.658  23.429  1.00  0.00     0.029 A 
ATOM     24  Cl  UNL A   1      33.268  26.588  21.568  1.00  0.00    -0.084 Cl
ENDBRANCH  10  17
ENDBRANCH   7   9
ENDBRANCH   6   7
ENDBRANCH   5   6
ENDBRANCH   4   5
ENDBRANCH   3   4
ENDBRANCH   2   3
ENDBRANCH   1   2
BRANCH   1  25
ATOM     25  O   UNL A   1      42.732  19.630  25.167  1.00  0.00    -0.376 OA
BRANCH  25  26
ATOM     26  C   UNL A   1      44.080  20.031  24.995  1.00  0.00     0.202 C 
BRANCH  26  27
ATOM     27  C   UNL A   1      44.486  21.446  25.437  1.00  0.00     0.261 C 
BRANCH  27  28
ATOM     28  O   UNL A   1      43.510  22.484  25.233  1.00  0.00    -0.460 OA
BRANCH  28  29
ATOM     29  C   UNL A   1      44.013  23.731  25.071  1.00  0.00     0.338 C 
ATOM     30  O   UNL A   1      44.862  24.081  24.262  1.00  0.00    -0.246 OA
BRANCH  29  31
ATOM     31  C   UNL A   1      43.286  24.698  25.927  1.00  0.00     0.060 A 
ATOM     32  C   UNL A   1      43.827  25.982  26.083  1.00  0.00     0.016 A 
ATOM     33  C   UNL A   1      42.134  24.340  26.631  1.00  0.00     0.016 A 
ATOM     34  C   UNL A   1      43.247  26.897  26.967  1.00  0.00     0.010 A 
ATOM     35  C   UNL A   1      41.565  25.252  27.534  1.00  0.00     0.010 A 
ATOM     36  C   UNL A   1      42.137  26.525  27.735  1.00  0.00    -0.014 A 
BRANCH  36  37
ATOM     37  C   UNL A   1      41.692  27.376  28.876  1.00  0.00     0.031 A 
ATOM     38  C   UNL A   1      42.377  27.225  30.201  1.00  0.00     0.074 A 
ATOM     39  C   UNL A   1      40.726  28.305  28.758  1.00  0.00     0.049 A 
ATOM     40  N   UNL A   1      42.148  27.857  31.323  1.00  0.00    -0.248 NA
ATOM     41  C   UNL A   1      43.490  26.266  30.257  1.00  0.00     0.031 C 
ATOM     42  C   UNL A   1      40.085  28.678  27.513  1.00  0.00     0.029 A 
ATOM     43  N   UNL A   1      40.101  29.092  29.695  1.00  0.00    -0.354 N 
ATOM     44  C   UNL A   1      43.119  27.414  32.204  1.00  0.00     0.074 A 
ATOM     45  C   UNL A   1      43.893  26.403  31.512  1.00  0.00     0.031 C 
ATOM     46  C   UNL A   1      39.087  29.543  27.757  1.00  0.00     0.029 A 
ATOM     47  C   UNL A   1      39.033  29.797  29.190  1.00  0.00     0.049 A 
ATOM     48  H   UNL A   1      40.390  29.148  30.635  1.00  0.00     0.167 HD
ATOM     49  C   UNL A   1      43.370  27.839  33.465  1.00  0.00     0.037 A 
ATOM     50  C   UNL A   1      38.107  30.558  29.804  1.00  0.00     0.037 A 
ATOM     51  C   UNL A   1      42.578  28.816  34.167  1.00  0.00     0.049 A 
ATOM     52  C   UNL A   1      38.272  30.860  31.264  1.00  0.00     0.074 A 
ATOM     53  C   UNL A   1      42.754  29.305  35.450  1.00  0.00     0.029 A 
ATOM     54  N   UNL A   1      41.445  29.434  33.658  1.00  0.00    -0.354 N 
ATOM     55  N   UNL A   1      39.217  30.463  32.081  1.00  0.00    -0.248 NA
ATOM     56  C   UNL A   1      37.281  31.754  31.876  1.00  0.00     0.031 C 
ATOM     57  C   UNL A   1      41.691  30.169  35.740  1.00  0.00     0.029 A 
ATOM     58  C   UNL A   1      40.889  30.271  34.615  1.00  0.00     0.049 A 
ATOM     59  H   UNL A   1      41.089  29.300  32.749  1.00  0.00     0.167 HD
ATOM     60  C   UNL A   1      38.977  31.114  33.283  1.00  0.00     0.074 A 
ATOM     61  C   UNL A   1      37.786  31.916  33.092  1.00  0.00     0.031 C 
ATOM     62  C   UNL A   1      39.702  31.069  34.426  1.00  0.00     0.037 A 
BRANCH  49  63
ATOM     63  C   UNL A   1      44.541  27.217  34.163  1.00  0.00     0.057 A 
ATOM     64  C   UNL A   1      44.414  26.034  34.906  1.00  0.00     0.134 A 
ATOM     65  C   UNL A   1      45.807  27.809  34.100  1.00  0.00     0.134 A 
ATOM     66  F   UNL A   1      43.224  25.427  35.022  1.00  0.00    -0.206 F 
ATOM     67  C   UNL A   1      45.499  25.483  35.590  1.00  0.00     0.040 A 
ATOM     68  C   UNL A   1      46.905  27.253  34.755  1.00  0.00     0.040 A 
ATOM     69  F   UNL A   1      45.996  28.942  33.405  1.00  0.00    -0.206 F 
ATOM     70  C   UNL A   1      46.751  26.091  35.511  1.00  0.00     0.006 A 
ENDBRANCH  49  63
BRANCH  50  71
ATOM     71  C   UNL A   1      36.957  31.103  29.037  1.00  0.00     0.057 A 
ATOM     72  C   UNL A   1      36.884  32.453  28.682  1.00  0.00     0.134 A 
ATOM     73  C   UNL A   1      35.885  30.281  28.664  1.00  0.00     0.134 A 
ATOM     74  F   UNL A   1      37.870  33.295  29.025  1.00  0.00    -0.206 F 
ATOM     75  C   UNL A   1      35.778  32.974  28.007  1.00  0.00     0.040 A 
ATOM     76  C   UNL A   1      34.782  30.783  27.972  1.00  0.00     0.040 A 
ATOM     77  F   UNL A   1      35.895  28.974  28.971  1.00  0.00    -0.206 F 
ATOM     78  C   UNL A   1      34.723  32.137  27.649  1.00  0.00     0.006 A 
ENDBRANCH  50  71
BRANCH  62  79
ATOM     79  C   UNL A   1      39.261  31.961  35.552  1.00  0.00     0.057 A 
ATOM     80  C   UNL A   1      38.380  31.527  36.551  1.00  0.00     0.134 A 
ATOM     81  C   UNL A   1      39.741  33.275  35.641  1.00  0.00     0.134 A 
ATOM     82  F   UNL A   1      37.871  30.287  36.516  1.00  0.00    -0.206 F 
ATOM     83  C   UNL A   1      37.970  32.376  37.580  1.00  0.00     0.040 A 
ATOM     84  C   UNL A   1      39.363  34.123  36.683  1.00  0.00     0.040 A 
ATOM     85  F   UNL A   1      40.591  33.755  34.722  1.00  0.00    -0.206 F 
ATOM     86  C   UNL A   1      38.467  33.676  37.652  1.00  0.00     0.006 A 
ENDBRANCH  62  79
ENDBRANCH  36  37
ENDBRANCH  29  31
ENDBRANCH  28  29
ENDBRANCH  27  28
ENDBRANCH  26  27
ENDBRANCH  25  26
ENDBRANCH   1  25
TORSDOF 18
ENDMDL
MODEL 2
REMARK VINA RESULT:     -11.2      0.972      1.717
REMARK SMILES Cc1ccc(-c2c[nH]c(=O)cc2C(=O)OCCOCCOCCOC(=O)c2ccc(-c3c4nc(c(-c5c(F)cccc5F)c5ccc([nH]5)c(-c5c(F)cccc5F)c5nc(c(-c6c(F)cccc6F)c6ccc3[nH]6)C=C5)C=C4)cc2)cc1Cl
REMARK SMILES IDX 20 1 19 2 18 3 17 4 16 5 15 6 13 7 14 8 12 9 6 10 7 11 8 12
REMARK SMILES IDX 11 13 9 14 10 16 5 17 1 18 2 19 3 20 82 21 4 22 81 23 83 24
REMARK SMILES IDX 21 25 22 26 23 27 24 28 25 29 26 30 27 31 28 32 80 33 29 34
REMARK SMILES IDX 79 35 30 36 31 37 32 38 73 39 33 40 78 41 72 42 74 43 34 44
REMARK SMILES IDX 77 45 71 46 70 47 35 49 61 50 44 51 60 52 45 53 48 54 59 55
REMARK SMILES IDX 75 56 46 57 47 58 58 60 76 61 49 62 36 63 37 64 42 65 38 66
REMARK SMILES IDX 39 67 41 68 43 69 40 70 62 71 63 72 68 73 64 74 65 75 67 76
REMARK SMILES IDX 69 77 66 78 50 79 51 80 56 81 52 82 53 83 55 84 57 85 54 86
REMARK H PARENT 8 15 74 48 48 59
REMARK Flexibility Score: inf
ROOT
ATOM      1  C   UNL A   1      40.390  21.127  26.636  1.00  0.00     0.188 C 
ENDROOT
BRANCH   1   2
ATOM      2  C   UNL A   1      39.132  21.846  26.108  1.00  0.00     0.188 C 
BRANCH   2   3
ATOM      3  O   UNL A   1      38.815  23.016  26.836  1.00  0.00    -0.376 OA
BRANCH   3   4
ATOM      4  C   UNL A   1      38.069  23.996  26.140  1.00  0.00     0.202 C 
BRANCH   4   5
ATOM      5  C   UNL A   1      37.082  23.500  25.069  1.00  0.00     0.261 C 
BRANCH   5   6
ATOM      6  O   UNL A   1      35.715  23.923  25.217  1.00  0.00    -0.460 OA
BRANCH   6   7
ATOM      7  C   UNL A   1      34.839  23.690  24.207  1.00  0.00     0.339 C 
ATOM      8  O   UNL A   1      35.047  23.906  23.025  1.00  0.00    -0.246 OA
BRANCH   7   9
ATOM      9  C   UNL A   1      33.601  23.043  24.752  1.00  0.00     0.074 A 
ATOM     10  C   UNL A   1      32.518  23.833  25.358  1.00  0.00     0.013 A 
ATOM     11  C   UNL A   1      31.445  23.182  25.845  1.00  0.00     0.095 A 
ATOM     12  N   UNL A   1      31.350  21.816  25.751  1.00  0.00    -0.328 N 
ATOM     13  C   UNL A   1      33.491  21.707  24.632  1.00  0.00     0.087 A 
ATOM     14  C   UNL A   1      32.287  21.017  25.148  1.00  0.00     0.248 A 
ATOM     15  H   UNL A   1      30.558  21.383  26.142  1.00  0.00     0.169 HD
ATOM     16  O   UNL A   1      32.153  19.806  25.037  1.00  0.00    -0.270 OA
BRANCH  10  17
ATOM     17  C   UNL A   1      32.463  25.305  25.311  1.00  0.00    -0.015 A 
ATOM     18  C   UNL A   1      31.799  29.568  25.569  1.00  0.00     0.046 C 
ATOM     19  C   UNL A   1      32.050  28.092  25.441  1.00  0.00    -0.032 A 
ATOM     20  C   UNL A   1      32.415  27.370  26.584  1.00  0.00     0.005 A 
ATOM     21  C   UNL A   1      31.944  27.404  24.221  1.00  0.00     0.044 A 
ATOM     22  C   UNL A   1      32.683  26.007  26.497  1.00  0.00     0.009 A 
ATOM     23  C   UNL A   1      32.128  26.015  24.158  1.00  0.00     0.029 A 
ATOM     24  Cl  UNL A   1      31.594  28.241  22.751  1.00  0.00    -0.084 Cl
ENDBRANCH  10  17
ENDBRANCH   7   9
ENDBRANCH   6   7
ENDBRANCH   5   6
ENDBRANCH   4   5
ENDBRANCH   3   4
ENDBRANCH   2   3
ENDBRANCH   1   2
BRANCH   1  25
ATOM     25  O   UNL A   1      41.382  20.640  25.746  1.00  0.00    -0.376 OA
BRANCH  25  26
ATOM     26  C   UNL A   1      42.740  20.645  26.146  1.00  0.00     0.202 C 
BRANCH  26  27
ATOM     27  C   UNL A   1      43.697  21.648  25.481  1.00  0.00     0.261 C 
BRANCH  27  28
ATOM     28  O   UNL A   1      43.088  22.782  24.838  1.00  0.00    -0.460 OA
BRANCH  28  29
ATOM     29  C   UNL A   1      43.783  23.941  24.924  1.00  0.00     0.338 C 
ATOM     30  O   UNL A   1      44.791  24.241  24.297  1.00  0.00    -0.246 OA
BRANCH  29  31
ATOM     31  C   UNL A   1      43.076  24.905  25.799  1.00  0.00     0.060 A 
ATOM     32  C   UNL A   1      43.651  26.169  25.994  1.00  0.00     0.016 A 
ATOM     33  C   UNL A   1      41.909  24.562  26.485  1.00  0.00     0.016 A 
ATOM     34  C   UNL A   1      43.089  27.076  26.898  1.00  0.00     0.010 A 
ATOM     35  C   UNL A   1      41.357  25.465  27.407  1.00  0.00     0.010 A 
ATOM     36  C   UNL A   1      41.962  26.715  27.646  1.00  0.00    -0.014 A 
BRANCH  36  37
ATOM     37  C   UNL A   1      41.531  27.548  28.806  1.00  0.00     0.031 A 
ATOM     38  C   UNL A   1      42.244  27.389  30.115  1.00  0.00     0.074 A 
ATOM     39  C   UNL A   1      40.554  28.468  28.718  1.00  0.00     0.049 A 
ATOM     40  N   UNL A   1      42.030  28.006  31.249  1.00  0.00    -0.248 NA
ATOM     41  C   UNL A   1      43.368  26.441  30.138  1.00  0.00     0.031 C 
ATOM     42  C   UNL A   1      39.884  28.850  27.490  1.00  0.00     0.029 A 
ATOM     43  N   UNL A   1      39.939  29.238  29.676  1.00  0.00    -0.354 N 
ATOM     44  C   UNL A   1      43.023  27.562  32.106  1.00  0.00     0.074 A 
ATOM     45  C   UNL A   1      43.793  26.567  31.387  1.00  0.00     0.031 C 
ATOM     46  C   UNL A   1      38.883  29.700  27.764  1.00  0.00     0.029 A 
ATOM     47  C   UNL A   1      38.854  29.937  29.201  1.00  0.00     0.049 A 
ATOM     48  H   UNL A   1      40.246  29.286  30.611  1.00  0.00     0.167 HD
ATOM     49  C   UNL A   1      43.294  27.975  33.367  1.00  0.00     0.037 A 
ATOM     50  C   UNL A   1      37.933  30.681  29.841  1.00  0.00     0.037 A 
ATOM     51  C   UNL A   1      42.506  28.935  34.096  1.00  0.00     0.049 A 
ATOM     52  C   UNL A   1      38.123  30.967  31.302  1.00  0.00     0.074 A 
ATOM     53  C   UNL A   1      42.702  29.411  35.381  1.00  0.00     0.029 A 
ATOM     54  N   UNL A   1      41.357  29.547  33.616  1.00  0.00    -0.354 N 
ATOM     55  N   UNL A   1      39.088  30.571  32.095  1.00  0.00    -0.248 NA
ATOM     56  C   UNL A   1      37.135  31.844  31.944  1.00  0.00     0.031 C 
ATOM     57  C   UNL A   1      41.636  30.260  35.701  1.00  0.00     0.029 A 
ATOM     58  C   UNL A   1      40.811  30.366  34.594  1.00  0.00     0.049 A 
ATOM     59  H   UNL A   1      40.985  29.421  32.713  1.00  0.00     0.167 HD
ATOM     60  C   UNL A   1      38.865  31.205  33.309  1.00  0.00     0.074 A 
ATOM     61  C   UNL A   1      37.663  31.997  33.151  1.00  0.00     0.031 C 
ATOM     62  C   UNL A   1      39.613  31.154  34.438  1.00  0.00     0.037 A 
BRANCH  49  63
ATOM     63  C   UNL A   1      44.485  27.357  34.034  1.00  0.00     0.057 A 
ATOM     64  C   UNL A   1      45.764  27.922  33.932  1.00  0.00     0.134 A 
ATOM     65  C   UNL A   1      44.355  26.179  34.779  1.00  0.00     0.134 A 
ATOM     66  F   UNL A   1      45.960  29.040  33.217  1.00  0.00    -0.206 F 
ATOM     67  C   UNL A   1      46.877  27.318  34.519  1.00  0.00     0.040 A 
ATOM     68  C   UNL A   1      45.454  25.581  35.394  1.00  0.00     0.040 A 
ATOM     69  F   UNL A   1      43.158  25.588  34.915  1.00  0.00    -0.206 F 
ATOM     70  C   UNL A   1      46.722  26.145  35.257  1.00  0.00     0.006 A 
ENDBRANCH  49  63
BRANCH  50  71
ATOM     71  C   UNL A   1      36.762  31.223  29.103  1.00  0.00     0.057 A 
ATOM     72  C   UNL A   1      35.685  30.411  28.737  1.00  0.00     0.134 A 
ATOM     73  C   UNL A   1      36.712  32.570  28.723  1.00  0.00     0.134 A 
ATOM     74  F   UNL A   1      35.682  29.109  29.057  1.00  0.00    -0.206 F 
ATOM     75  C   UNL A   1      34.610  30.910  27.997  1.00  0.00     0.040 A 
ATOM     76  C   UNL A   1      35.635  33.088  28.000  1.00  0.00     0.040 A 
ATOM     77  F   UNL A   1      37.713  33.404  29.046  1.00  0.00    -0.206 F 
ATOM     78  C   UNL A   1      34.584  32.254  27.628  1.00  0.00     0.006 A 
ENDBRANCH  50  71
BRANCH  62  79
ATOM     79  C   UNL A   1      39.184  32.029  35.583  1.00  0.00     0.057 A 
ATOM     80  C   UNL A   1      38.302  31.584  36.575  1.00  0.00     0.134 A 
ATOM     81  C   UNL A   1      39.679  33.335  35.696  1.00  0.00     0.134 A 
ATOM     82  F   UNL A   1      37.779  30.351  36.517  1.00  0.00    -0.206 F 
ATOM     83  C   UNL A   1      37.904  32.417  37.622  1.00  0.00     0.040 A 
ATOM     84  C   UNL A   1      39.314  34.166  36.757  1.00  0.00     0.040 A 
ATOM     85  F   UNL A   1      40.532  33.824  34.784  1.00  0.00    -0.206 F 
ATOM     86  C   UNL A   1      38.416  33.710  37.719  1.00  0.00     0.006 A 
ENDBRANCH  62  79
ENDBRANCH  36  37
ENDBRANCH  29  31
ENDBRANCH  28  29
ENDBRANCH  27  28
ENDBRANCH  26  27
ENDBRANCH  25  26
ENDBRANCH   1  25
TORSDOF 18
ENDMDL
MODEL 3
REMARK VINA RESULT:     -11.2      1.648      3.150
REMARK SMILES Cc1ccc(-c2c[nH]c(=O)cc2C(=O)OCCOCCOCCOC(=O)c2ccc(-c3c4nc(c(-c5c(F)cccc5F)c5ccc([nH]5)c(-c5c(F)cccc5F)c5nc(c(-c6c(F)cccc6F)c6ccc3[nH]6)C=C5)C=C4)cc2)cc1Cl
REMARK SMILES IDX 20 1 19 2 18 3 17 4 16 5 15 6 13 7 14 8 12 9 6 10 7 11 8 12
REMARK SMILES IDX 11 13 9 14 10 16 5 17 1 18 2 19 3 20 82 21 4 22 81 23 83 24
REMARK SMILES IDX 21 25 22 26 23 27 24 28 25 29 26 30 27 31 28 32 80 33 29 34
REMARK SMILES IDX 79 35 30 36 31 37 32 38 73 39 33 40 78 41 72 42 74 43 34 44
REMARK SMILES IDX 77 45 71 46 70 47 35 49 61 50 44 51 60 52 45 53 48 54 59 55
REMARK SMILES IDX 75 56 46 57 47 58 58 60 76 61 49 62 36 63 37 64 42 65 38 66
REMARK SMILES IDX 39 67 41 68 43 69 40 70 62 71 63 72 68 73 64 74 65 75 67 76
REMARK SMILES IDX 69 77 66 78 50 79 51 80 56 81 52 82 53 83 55 84 57 85 54 86
REMARK H PARENT 8 15 74 48 48 59
REMARK Flexibility Score: inf
ROOT
ATOM      1  C   UNL A   1      40.240  21.711  26.744  1.00  0.00     0.188 C 
ENDROOT
BRANCH   1   2
ATOM      2  C   UNL A   1      38.902  22.288  26.236  1.00  0.00     0.188 C 
BRANCH   2   3
ATOM      3  O   UNL A   1      38.240  21.432  25.327  1.00  0.00    -0.376 OA
BRANCH   3   4
ATOM      4  C   UNL A   1      37.133  21.990  24.644  1.00  0.00     0.202 C 
BRANCH   4   5
ATOM      5  C   UNL A   1      35.938  22.448  25.497  1.00  0.00     0.261 C 
BRANCH   5   6
ATOM      6  O   UNL A   1      35.536  23.822  25.344  1.00  0.00    -0.460 OA
BRANCH   6   7
ATOM      7  C   UNL A   1      34.610  24.137  24.404  1.00  0.00     0.339 C 
ATOM      8  O   UNL A   1      34.804  24.161  23.199  1.00  0.00    -0.246 OA
BRANCH   7   9
ATOM      9  C   UNL A   1      33.283  24.371  25.060  1.00  0.00     0.074 A 
ATOM     10  C   UNL A   1      32.195  23.384  24.978  1.00  0.00     0.013 A 
ATOM     11  C   UNL A   1      31.023  23.671  25.576  1.00  0.00     0.095 A 
ATOM     12  N   UNL A   1      30.858  24.843  26.270  1.00  0.00    -0.328 N 
ATOM     13  C   UNL A   1      33.130  25.504  25.769  1.00  0.00     0.087 A 
ATOM     14  C   UNL A   1      31.841  25.783  26.442  1.00  0.00     0.248 A 
ATOM     15  H   UNL A   1      29.976  25.020  26.670  1.00  0.00     0.169 HD
ATOM     16  O   UNL A   1      31.679  26.798  27.108  1.00  0.00    -0.270 OA
BRANCH  10  17
ATOM     17  C   UNL A   1      32.368  22.029  24.426  1.00  0.00    -0.015 A 
ATOM     18  C   UNL A   1      32.261  18.104  22.618  1.00  0.00     0.046 C 
ATOM     19  C   UNL A   1      32.331  19.456  23.272  1.00  0.00    -0.032 A 
ATOM     20  C   UNL A   1      32.161  20.597  22.478  1.00  0.00     0.005 A 
ATOM     21  C   UNL A   1      32.570  19.626  24.645  1.00  0.00     0.044 A 
ATOM     22  C   UNL A   1      32.248  21.865  23.044  1.00  0.00     0.009 A 
ATOM     23  C   UNL A   1      32.567  20.904  25.225  1.00  0.00     0.029 A 
ATOM     24  Cl  UNL A   1      32.886  18.273  25.671  1.00  0.00    -0.084 Cl
ENDBRANCH  10  17
ENDBRANCH   7   9
ENDBRANCH   6   7
ENDBRANCH   5   6
ENDBRANCH   4   5
ENDBRANCH   3   4
ENDBRANCH   2   3
ENDBRANCH   1   2
BRANCH   1  25
ATOM     25  O   UNL A   1      41.111  21.008  25.872  1.00  0.00    -0.376 OA
BRANCH  25  26
ATOM     26  C   UNL A   1      42.492  20.937  26.176  1.00  0.00     0.202 C 
BRANCH  26  27
ATOM     27  C   UNL A   1      43.485  21.657  25.249  1.00  0.00     0.261 C 
BRANCH  27  28
ATOM     28  O   UNL A   1      43.042  22.904  24.684  1.00  0.00    -0.460 OA
BRANCH  28  29
ATOM     29  C   UNL A   1      43.837  23.971  24.934  1.00  0.00     0.338 C 
ATOM     30  O   UNL A   1      44.933  24.202  24.442  1.00  0.00    -0.246 OA
BRANCH  29  31
ATOM     31  C   UNL A   1      43.138  24.944  25.808  1.00  0.00     0.060 A 
ATOM     32  C   UNL A   1      43.725  26.203  26.000  1.00  0.00     0.016 A 
ATOM     33  C   UNL A   1      41.968  24.613  26.493  1.00  0.00     0.016 A 
ATOM     34  C   UNL A   1      43.171  27.117  26.902  1.00  0.00     0.010 A 
ATOM     35  C   UNL A   1      41.424  25.523  27.413  1.00  0.00     0.010 A 
ATOM     36  C   UNL A   1      42.041  26.768  27.650  1.00  0.00    -0.014 A 
BRANCH  36  37
ATOM     37  C   UNL A   1      41.617  27.607  28.808  1.00  0.00     0.031 A 
ATOM     38  C   UNL A   1      42.335  27.452  30.115  1.00  0.00     0.074 A 
ATOM     39  C   UNL A   1      40.641  28.529  28.720  1.00  0.00     0.049 A 
ATOM     40  N   UNL A   1      42.129  28.075  31.246  1.00  0.00    -0.248 NA
ATOM     41  C   UNL A   1      43.458  26.503  30.137  1.00  0.00     0.031 C 
ATOM     42  C   UNL A   1      39.967  28.906  27.494  1.00  0.00     0.029 A 
ATOM     43  N   UNL A   1      40.033  29.304  29.678  1.00  0.00    -0.354 N 
ATOM     44  C   UNL A   1      43.125  27.633  32.101  1.00  0.00     0.074 A 
ATOM     45  C   UNL A   1      43.889  26.634  31.383  1.00  0.00     0.031 C 
ATOM     46  C   UNL A   1      38.968  29.760  27.769  1.00  0.00     0.029 A 
ATOM     47  C   UNL A   1      38.947  30.004  29.205  1.00  0.00     0.049 A 
ATOM     48  H   UNL A   1      40.344  29.356  30.611  1.00  0.00     0.167 HD
ATOM     49  C   UNL A   1      43.403  28.052  33.358  1.00  0.00     0.037 A 
ATOM     50  C   UNL A   1      38.030  30.752  29.846  1.00  0.00     0.037 A 
ATOM     51  C   UNL A   1      42.620  29.016  34.086  1.00  0.00     0.049 A 
ATOM     52  C   UNL A   1      38.228  31.045  31.304  1.00  0.00     0.074 A 
ATOM     53  C   UNL A   1      42.823  29.499  35.368  1.00  0.00     0.029 A 
ATOM     54  N   UNL A   1      41.470  29.629  33.609  1.00  0.00    -0.354 N 
ATOM     55  N   UNL A   1      39.196  30.651  32.095  1.00  0.00    -0.248 NA
ATOM     56  C   UNL A   1      37.245  31.926  31.947  1.00  0.00     0.031 C 
ATOM     57  C   UNL A   1      41.761  30.351  35.690  1.00  0.00     0.029 A 
ATOM     58  C   UNL A   1      40.931  30.454  34.586  1.00  0.00     0.049 A 
ATOM     59  H   UNL A   1      41.093  29.499  32.709  1.00  0.00     0.167 HD
ATOM     60  C   UNL A   1      38.980  31.291  33.307  1.00  0.00     0.074 A 
ATOM     61  C   UNL A   1      37.779  32.084  33.151  1.00  0.00     0.031 C 
ATOM     62  C   UNL A   1      39.733  31.244  34.432  1.00  0.00     0.037 A 
BRANCH  49  63
ATOM     63  C   UNL A   1      44.596  27.434  34.023  1.00  0.00     0.057 A 
ATOM     64  C   UNL A   1      45.883  27.970  33.874  1.00  0.00     0.134 A 
ATOM     65  C   UNL A   1      44.459  26.287  34.812  1.00  0.00     0.134 A 
ATOM     66  F   UNL A   1      46.085  29.057  33.115  1.00  0.00    -0.206 F 
ATOM     67  C   UNL A   1      46.996  27.365  34.459  1.00  0.00     0.040 A 
ATOM     68  C   UNL A   1      45.560  25.690  35.426  1.00  0.00     0.040 A 
ATOM     69  F   UNL A   1      43.254  25.725  34.995  1.00  0.00    -0.206 F 
ATOM     70  C   UNL A   1      46.835  26.223  35.242  1.00  0.00     0.006 A 
ENDBRANCH  49  63
BRANCH  50  71
ATOM     71  C   UNL A   1      36.857  31.293  29.111  1.00  0.00     0.057 A 
ATOM     72  C   UNL A   1      35.757  30.491  28.790  1.00  0.00     0.134 A 
ATOM     73  C   UNL A   1      36.826  32.628  28.687  1.00  0.00     0.134 A 
ATOM     74  F   UNL A   1      35.735  29.200  29.153  1.00  0.00    -0.206 F 
ATOM     75  C   UNL A   1      34.680  30.988  28.053  1.00  0.00     0.040 A 
ATOM     76  C   UNL A   1      35.747  33.143  27.967  1.00  0.00     0.040 A 
ATOM     77  F   UNL A   1      37.849  33.451  28.966  1.00  0.00    -0.206 F 
ATOM     78  C   UNL A   1      34.673  32.319  27.641  1.00  0.00     0.006 A 
ENDBRANCH  50  71
BRANCH  62  79
ATOM     79  C   UNL A   1      39.312  32.125  35.575  1.00  0.00     0.057 A 
ATOM     80  C   UNL A   1      39.755  33.447  35.703  1.00  0.00     0.134 A 
ATOM     81  C   UNL A   1      38.435  31.639  36.554  1.00  0.00     0.134 A 
ATOM     82  F   UNL A   1      40.609  33.968  34.810  1.00  0.00    -0.206 F 
ATOM     83  C   UNL A   1      39.366  34.244  36.781  1.00  0.00     0.040 A 
ATOM     84  C   UNL A   1      38.012  32.438  37.618  1.00  0.00     0.040 A 
ATOM     85  F   UNL A   1      37.966  30.384  36.489  1.00  0.00    -0.206 F 
ATOM     86  C   UNL A   1      38.486  33.742  37.738  1.00  0.00     0.006 A 
ENDBRANCH  62  79
ENDBRANCH  36  37
ENDBRANCH  29  31
ENDBRANCH  28  29
ENDBRANCH  27  28
ENDBRANCH  26  27
ENDBRANCH  25  26
ENDBRANCH   1  25
TORSDOF 18
ENDMDL
