MODEL 1
REMARK VINA RESULT:     -12.1      0.000      0.000
REMARK SMILES Cc1cc(C(=O)OCCOCCOCCOC(=O)c2ccc(-c3c4nc(c(-c5c(F)cccc5F)c5ccc([nH]5)c(-c5c(F)cccc5F)c5nc(c(-c6c(F)cccc6F)c6ccc3[nH]6)C=C5)C=C4)cc2)ccc1NC(=O)N1C[C@@H](C)[C@H](C)C1
REMARK SMILES IDX 12 1 11 2 10 3 9 4 8 5 7 6 5 7 6 8 4 9 1 10 2 11 3 12 75 13
REMARK SMILES IDX 74 14 73 15 76 16 77 17 78 19 79 20 80 21 85 22 81 23 83 24
REMARK SMILES IDX 82 25 84 26 13 27 14 28 15 29 16 30 17 31 18 32 19 33 20 34
REMARK SMILES IDX 72 35 21 36 71 37 22 38 23 39 24 40 65 41 25 42 70 43 64 44
REMARK SMILES IDX 66 45 26 46 69 47 63 48 62 49 27 51 53 52 36 53 52 54 37 55
REMARK SMILES IDX 40 56 51 57 67 58 38 59 39 60 50 62 68 63 41 64 28 65 29 66
REMARK SMILES IDX 34 67 30 68 31 69 33 70 35 71 32 72 54 73 55 74 60 75 56 76
REMARK SMILES IDX 57 77 59 78 61 79 58 80 42 81 43 82 48 83 44 84 45 85 47 86
REMARK SMILES IDX 49 87 46 88
REMARK H PARENT 76 18 66 50 40 61
REMARK Flexibility Score: inf
ROOT
ATOM      1  C   UNL A   1      42.633  20.452  26.300  1.00  0.00     0.188 C 
ENDROOT
BRANCH   1   2
ATOM      2  C   UNL A   1      41.926  19.228  25.747  1.00  0.00     0.188 C 
BRANCH   2   3
ATOM      3  O   UNL A   1      40.512  19.038  25.837  1.00  0.00    -0.376 OA
BRANCH   3   4
ATOM      4  C   UNL A   1      39.430  19.935  25.575  1.00  0.00     0.202 C 
BRANCH   4   5
ATOM      5  C   UNL A   1      39.256  21.554  26.125  1.00  0.00     0.261 C 
BRANCH   5   6
ATOM      6  O   UNL A   1      38.050  22.609  25.791  1.00  0.00    -0.460 OA
BRANCH   6   7
ATOM      7  C   UNL A   1      36.863  22.832  25.116  1.00  0.00     0.338 C 
ATOM      8  O   UNL A   1      36.618  23.681  24.272  1.00  0.00    -0.246 OA
BRANCH   7   9
ATOM      9  C   UNL A   1      35.645  22.043  25.534  1.00  0.00     0.060 A 
ATOM     10  C   UNL A   1      32.508  20.219  24.124  1.00  0.00     0.046 C 
ATOM     11  C   UNL A   1      33.401  21.076  24.990  1.00  0.00    -0.027 A 
ATOM     12  C   UNL A   1      34.755  21.341  24.649  1.00  0.00     0.021 A 
ATOM     13  C   UNL A   1      32.941  21.707  26.144  1.00  0.00     0.045 A 
ATOM     14  C   UNL A   1      33.859  22.197  27.093  1.00  0.00     0.027 A 
ATOM     15  C   UNL A   1      35.204  22.359  26.801  1.00  0.00     0.018 A 
BRANCH  13  16
ATOM     16  N   UNL A   1      31.582  22.057  26.292  1.00  0.00    -0.308 N 
ATOM     17  C   UNL A   1      31.130  23.351  26.445  1.00  0.00     0.321 C 
ATOM     18  H   UNL A   1      30.915  21.333  26.284  1.00  0.00     0.171 HD
ATOM     19  O   UNL A   1      30.110  23.589  27.088  1.00  0.00    -0.248 OA
ATOM     20  N   UNL A   1      31.883  24.341  25.848  1.00  0.00    -0.324 N 
ATOM     21  C   UNL A   1      32.180  25.593  26.505  1.00  0.00     0.125 C 
ATOM     22  C   UNL A   1      32.255  24.369  24.435  1.00  0.00     0.125 C 
ATOM     23  C   UNL A   1      32.665  26.532  25.400  1.00  0.00     0.010 C 
ATOM     24  C   UNL A   1      33.177  25.581  24.300  1.00  0.00     0.010 C 
ATOM     25  C   UNL A   1      33.735  27.500  25.883  1.00  0.00     0.010 C 
ATOM     26  C   UNL A   1      33.142  26.216  22.914  1.00  0.00     0.010 C 
ENDBRANCH  13  16
ENDBRANCH   7   9
ENDBRANCH   6   7
ENDBRANCH   5   6
ENDBRANCH   4   5
ENDBRANCH   3   4
ENDBRANCH   2   3
ENDBRANCH   1   2
BRANCH   1  27
ATOM     27  O   UNL A   1      43.592  20.914  25.370  1.00  0.00    -0.376 OA
BRANCH  27  28
ATOM     28  C   UNL A   1      43.802  22.320  25.396  1.00  0.00     0.202 C 
BRANCH  28  29
ATOM     29  C   UNL A   1      42.499  23.149  25.317  1.00  0.00     0.261 C 
BRANCH  29  30
ATOM     30  O   UNL A   1      42.542  24.257  26.248  1.00  0.00    -0.460 OA
BRANCH  30  31
ATOM     31  C   UNL A   1      41.689  24.234  27.340  1.00  0.00     0.338 C 
ATOM     32  O   UNL A   1      41.584  23.334  28.117  1.00  0.00    -0.246 OA
BRANCH  31  33
ATOM     33  C   UNL A   1      40.715  25.394  27.223  1.00  0.00     0.060 A 
ATOM     34  C   UNL A   1      40.991  26.637  26.633  1.00  0.00     0.016 A 
ATOM     35  C   UNL A   1      39.714  25.407  28.126  1.00  0.00     0.016 A 
ATOM     36  C   UNL A   1      40.373  27.877  27.118  1.00  0.00     0.010 A 
ATOM     37  C   UNL A   1      39.520  26.649  28.734  1.00  0.00     0.010 A 
ATOM     38  C   UNL A   1      39.637  27.952  28.300  1.00  0.00    -0.014 A 
BRANCH  38  39
ATOM     39  C   UNL A   1      39.318  29.211  29.223  1.00  0.00     0.031 A 
ATOM     40  C   UNL A   1      38.209  30.360  29.212  1.00  0.00     0.074 A 
ATOM     41  C   UNL A   1      40.143  29.377  30.282  1.00  0.00     0.049 A 
ATOM     42  N   UNL A   1      38.448  31.659  29.143  1.00  0.00    -0.248 NA
ATOM     43  C   UNL A   1      36.760  30.190  29.424  1.00  0.00     0.031 C 
ATOM     44  C   UNL A   1      40.076  30.385  31.339  1.00  0.00     0.029 A 
ATOM     45  N   UNL A   1      41.348  28.712  30.519  1.00  0.00    -0.354 N 
ATOM     46  C   UNL A   1      37.227  32.360  29.265  1.00  0.00     0.074 A 
ATOM     47  C   UNL A   1      36.205  31.387  29.282  1.00  0.00     0.031 C 
ATOM     48  C   UNL A   1      41.307  30.514  31.863  1.00  0.00     0.029 A 
ATOM     49  C   UNL A   1      42.201  29.656  31.100  1.00  0.00     0.049 A 
ATOM     50  H   UNL A   1      41.556  27.772  30.319  1.00  0.00     0.167 HD
ATOM     51  C   UNL A   1      37.031  33.674  29.582  1.00  0.00     0.037 A 
ATOM     52  C   UNL A   1      43.336  30.029  30.450  1.00  0.00     0.037 A 
ATOM     53  C   UNL A   1      38.219  34.181  30.199  1.00  0.00     0.049 A 
ATOM     54  C   UNL A   1      43.355  31.504  30.132  1.00  0.00     0.074 A 
ATOM     55  C   UNL A   1      38.616  34.157  31.525  1.00  0.00     0.029 A 
ATOM     56  N   UNL A   1      39.342  34.377  29.430  1.00  0.00    -0.354 N 
ATOM     57  N   UNL A   1      42.301  32.277  30.156  1.00  0.00    -0.248 NA
ATOM     58  C   UNL A   1      44.566  32.225  29.756  1.00  0.00     0.031 C 
ATOM     59  C   UNL A   1      40.028  34.197  31.537  1.00  0.00     0.029 A 
ATOM     60  C   UNL A   1      40.461  34.348  30.232  1.00  0.00     0.049 A 
ATOM     61  H   UNL A   1      39.344  34.518  28.456  1.00  0.00     0.167 HD
ATOM     62  C   UNL A   1      42.660  33.541  29.772  1.00  0.00     0.074 A 
ATOM     63  C   UNL A   1      44.089  33.465  29.558  1.00  0.00     0.031 C 
ATOM     64  C   UNL A   1      41.762  34.556  29.637  1.00  0.00     0.037 A 
BRANCH  51  65
ATOM     65  C   UNL A   1      35.640  34.298  29.693  1.00  0.00     0.057 A 
ATOM     66  C   UNL A   1      35.032  34.613  30.921  1.00  0.00     0.134 A 
ATOM     67  C   UNL A   1      34.842  34.579  28.563  1.00  0.00     0.134 A 
ATOM     68  F   UNL A   1      35.703  34.517  32.077  1.00  0.00    -0.206 F 
ATOM     69  C   UNL A   1      33.690  35.029  31.022  1.00  0.00     0.040 A 
ATOM     70  C   UNL A   1      33.489  34.952  28.649  1.00  0.00     0.040 A 
ATOM     71  F   UNL A   1      35.348  34.470  27.324  1.00  0.00    -0.206 F 
ATOM     72  C   UNL A   1      32.899  35.154  29.889  1.00  0.00     0.006 A 
ENDBRANCH  51  65
BRANCH  52  73
ATOM     73  C   UNL A   1      43.984  28.934  29.659  1.00  0.00     0.057 A 
ATOM     74  C   UNL A   1      44.614  27.883  30.363  1.00  0.00     0.134 A 
ATOM     75  C   UNL A   1      43.768  28.717  28.294  1.00  0.00     0.134 A 
ATOM     76  F   UNL A   1      44.860  28.007  31.678  1.00  0.00    -0.206 F 
ATOM     77  C   UNL A   1      44.910  26.649  29.776  1.00  0.00     0.040 A 
ATOM     78  C   UNL A   1      44.081  27.486  27.686  1.00  0.00     0.040 A 
ATOM     79  F   UNL A   1      43.113  29.622  27.553  1.00  0.00    -0.206 F 
ATOM     80  C   UNL A   1      44.628  26.441  28.432  1.00  0.00     0.006 A 
ENDBRANCH  52  73
BRANCH  64  81
ATOM     81  C   UNL A   1      42.016  35.870  28.954  1.00  0.00     0.057 A 
ATOM     82  C   UNL A   1      42.855  36.858  29.481  1.00  0.00     0.134 A 
ATOM     83  C   UNL A   1      41.575  36.087  27.628  1.00  0.00     0.134 A 
ATOM     84  F   UNL A   1      43.426  36.722  30.685  1.00  0.00    -0.206 F 
ATOM     85  C   UNL A   1      43.195  38.008  28.759  1.00  0.00     0.040 A 
ATOM     86  C   UNL A   1      41.958  37.198  26.877  1.00  0.00     0.040 A 
ATOM     87  F   UNL A   1      40.784  35.206  26.995  1.00  0.00    -0.206 F 
ATOM     88  C   UNL A   1      42.760  38.173  27.449  1.00  0.00     0.006 A 
ENDBRANCH  64  81
ENDBRANCH  38  39
ENDBRANCH  31  33
ENDBRANCH  30  31
ENDBRANCH  29  30
ENDBRANCH  28  29
ENDBRANCH  27  28
ENDBRANCH   1  27
TORSDOF 18
ENDMDL
MODEL 2
REMARK VINA RESULT:     -12.0      1.612      2.319
REMARK SMILES Cc1cc(C(=O)OCCOCCOCCOC(=O)c2ccc(-c3c4nc(c(-c5c(F)cccc5F)c5ccc([nH]5)c(-c5c(F)cccc5F)c5nc(c(-c6c(F)cccc6F)c6ccc3[nH]6)C=C5)C=C4)cc2)ccc1NC(=O)N1C[C@@H](C)[C@H](C)C1
REMARK SMILES IDX 12 1 11 2 10 3 9 4 8 5 7 6 5 7 6 8 4 9 1 10 2 11 3 12 75 13
REMARK SMILES IDX 74 14 73 15 76 16 77 17 78 19 79 20 80 21 85 22 81 23 83 24
REMARK SMILES IDX 82 25 84 26 13 27 14 28 15 29 16 30 17 31 18 32 19 33 20 34
REMARK SMILES IDX 72 35 21 36 71 37 22 38 23 39 24 40 65 41 25 42 70 43 64 44
REMARK SMILES IDX 66 45 26 46 69 47 63 48 62 49 27 51 53 52 36 53 52 54 37 55
REMARK SMILES IDX 40 56 51 57 67 58 38 59 39 60 50 62 68 63 41 64 28 65 29 66
REMARK SMILES IDX 34 67 30 68 31 69 33 70 35 71 32 72 54 73 55 74 60 75 56 76
REMARK SMILES IDX 57 77 59 78 61 79 58 80 42 81 43 82 48 83 44 84 45 85 47 86
REMARK SMILES IDX 49 87 46 88
REMARK H PARENT 76 18 66 50 40 61
REMARK Flexibility Score: inf
ROOT
ATOM      1  C   UNL A   1      43.696  19.060  25.348  1.00  0.00     0.188 C 
ENDROOT
BRANCH   1   2
ATOM      2  C   UNL A   1      42.463  18.991  26.232  1.00  0.00     0.188 C 
BRANCH   2   3
ATOM      3  O   UNL A   1      41.149  19.298  25.761  1.00  0.00    -0.376 OA
BRANCH   3   4
ATOM      4  C   UNL A   1      40.233  20.325  26.150  1.00  0.00     0.202 C 
BRANCH   4   5
ATOM      5  C   UNL A   1      38.663  20.621  25.518  1.00  0.00     0.261 C 
BRANCH   5   6
ATOM      6  O   UNL A   1      37.895  22.057  25.353  1.00  0.00    -0.460 OA
BRANCH   6   7
ATOM      7  C   UNL A   1      36.744  22.787  25.591  1.00  0.00     0.338 C 
ATOM      8  O   UNL A   1      36.626  23.995  25.728  1.00  0.00    -0.246 OA
BRANCH   7   9
ATOM      9  C   UNL A   1      35.462  22.032  25.856  1.00  0.00     0.060 A 
ATOM     10  C   UNL A   1      32.347  20.512  24.085  1.00  0.00     0.046 C 
ATOM     11  C   UNL A   1      33.217  21.240  25.082  1.00  0.00    -0.027 A 
ATOM     12  C   UNL A   1      34.603  21.459  24.855  1.00  0.00     0.021 A 
ATOM     13  C   UNL A   1      32.709  21.793  26.255  1.00  0.00     0.045 A 
ATOM     14  C   UNL A   1      33.581  22.148  27.302  1.00  0.00     0.027 A 
ATOM     15  C   UNL A   1      34.950  22.261  27.114  1.00  0.00     0.018 A 
BRANCH  13  16
ATOM     16  N   UNL A   1      31.361  22.203  26.345  1.00  0.00    -0.308 N 
ATOM     17  C   UNL A   1      30.962  23.514  26.495  1.00  0.00     0.321 C 
ATOM     18  H   UNL A   1      30.664  21.510  26.296  1.00  0.00     0.171 HD
ATOM     19  O   UNL A   1      29.925  23.791  27.093  1.00  0.00    -0.248 OA
ATOM     20  N   UNL A   1      31.786  24.475  25.947  1.00  0.00    -0.324 N 
ATOM     21  C   UNL A   1      32.107  25.705  26.634  1.00  0.00     0.125 C 
ATOM     22  C   UNL A   1      32.224  24.503  24.553  1.00  0.00     0.125 C 
ATOM     23  C   UNL A   1      32.685  26.634  25.566  1.00  0.00     0.010 C 
ATOM     24  C   UNL A   1      33.205  25.673  24.478  1.00  0.00     0.010 C 
ATOM     25  C   UNL A   1      33.774  27.546  26.111  1.00  0.00     0.010 C 
ATOM     26  C   UNL A   1      33.263  26.326  23.101  1.00  0.00     0.010 C 
ENDBRANCH  13  16
ENDBRANCH   7   9
ENDBRANCH   6   7
ENDBRANCH   5   6
ENDBRANCH   4   5
ENDBRANCH   3   4
ENDBRANCH   2   3
ENDBRANCH   1   2
BRANCH   1  27
ATOM     27  O   UNL A   1      43.809  20.350  24.782  1.00  0.00    -0.376 OA
BRANCH  27  28
ATOM     28  C   UNL A   1      44.900  21.113  25.279  1.00  0.00     0.202 C 
BRANCH  28  29
ATOM     29  C   UNL A   1      44.486  22.230  26.265  1.00  0.00     0.261 C 
BRANCH  29  30
ATOM     30  O   UNL A   1      43.373  22.991  25.737  1.00  0.00    -0.460 OA
BRANCH  30  31
ATOM     31  C   UNL A   1      43.645  24.141  25.013  1.00  0.00     0.338 C 
ATOM     32  O   UNL A   1      44.680  24.390  24.473  1.00  0.00    -0.246 OA
BRANCH  31  33
ATOM     33  C   UNL A   1      42.535  25.148  25.261  1.00  0.00     0.060 A 
ATOM     34  C   UNL A   1      42.651  26.541  25.134  1.00  0.00     0.016 A 
ATOM     35  C   UNL A   1      41.547  24.736  26.079  1.00  0.00     0.016 A 
ATOM     36  C   UNL A   1      41.889  27.461  25.987  1.00  0.00     0.010 A 
ATOM     37  C   UNL A   1      41.205  25.666  27.063  1.00  0.00     0.010 A 
ATOM     38  C   UNL A   1      41.157  27.043  27.099  1.00  0.00    -0.014 A 
BRANCH  38  39
ATOM     39  C   UNL A   1      40.693  27.867  28.380  1.00  0.00     0.031 A 
ATOM     40  C   UNL A   1      39.551  28.946  28.669  1.00  0.00     0.074 A 
ATOM     41  C   UNL A   1      41.387  27.617  29.514  1.00  0.00     0.049 A 
ATOM     42  N   UNL A   1      39.750  30.174  29.118  1.00  0.00    -0.248 NA
ATOM     43  C   UNL A   1      38.094  28.722  28.631  1.00  0.00     0.031 C 
ATOM     44  C   UNL A   1      41.167  28.156  30.855  1.00  0.00     0.029 A 
ATOM     45  N   UNL A   1      42.581  26.901  29.625  1.00  0.00    -0.354 N 
ATOM     46  C   UNL A   1      38.498  30.789  29.349  1.00  0.00     0.074 A 
ATOM     47  C   UNL A   1      37.516  29.890  28.882  1.00  0.00     0.031 C 
ATOM     48  C   UNL A   1      42.326  28.068  31.529  1.00  0.00     0.029 A 
ATOM     49  C   UNL A   1      43.330  27.551  30.612  1.00  0.00     0.049 A 
ATOM     50  H   UNL A   1      42.844  26.102  29.114  1.00  0.00     0.167 HD
ATOM     51  C   UNL A   1      38.222  31.890  30.108  1.00  0.00     0.037 A 
ATOM     52  C   UNL A   1      44.516  28.130  30.286  1.00  0.00     0.037 A 
ATOM     53  C   UNL A   1      39.314  32.119  31.004  1.00  0.00     0.049 A 
ATOM     54  C   UNL A   1      44.517  29.616  30.545  1.00  0.00     0.074 A 
ATOM     55  C   UNL A   1      39.560  31.597  32.262  1.00  0.00     0.029 A 
ATOM     56  N   UNL A   1      40.508  32.579  30.501  1.00  0.00    -0.354 N 
ATOM     57  N   UNL A   1      43.441  30.333  30.732  1.00  0.00    -0.248 NA
ATOM     58  C   UNL A   1      45.737  30.415  30.610  1.00  0.00     0.031 C 
ATOM     59  C   UNL A   1      40.960  31.617  32.454  1.00  0.00     0.029 A 
ATOM     60  C   UNL A   1      41.531  32.242  31.359  1.00  0.00     0.049 A 
ATOM     61  H   UNL A   1      40.615  33.074  29.657  1.00  0.00     0.167 HD
ATOM     62  C   UNL A   1      43.795  31.646  30.893  1.00  0.00     0.074 A 
ATOM     63  C   UNL A   1      45.241  31.643  30.834  1.00  0.00     0.031 C 
ATOM     64  C   UNL A   1      42.882  32.645  31.042  1.00  0.00     0.037 A 
BRANCH  51  65
ATOM     65  C   UNL A   1      36.806  32.440  30.280  1.00  0.00     0.057 A 
ATOM     66  C   UNL A   1      36.242  33.401  29.423  1.00  0.00     0.134 A 
ATOM     67  C   UNL A   1      35.961  32.042  31.340  1.00  0.00     0.134 A 
ATOM     68  F   UNL A   1      36.868  33.792  28.305  1.00  0.00    -0.206 F 
ATOM     69  C   UNL A   1      35.006  34.024  29.684  1.00  0.00     0.040 A 
ATOM     70  C   UNL A   1      34.746  32.684  31.638  1.00  0.00     0.040 A 
ATOM     71  F   UNL A   1      36.307  31.026  32.146  1.00  0.00    -0.206 F 
ATOM     72  C   UNL A   1      34.275  33.701  30.820  1.00  0.00     0.006 A 
ENDBRANCH  51  65
BRANCH  52  73
ATOM     73  C   UNL A   1      45.288  27.405  29.225  1.00  0.00     0.057 A 
ATOM     74  C   UNL A   1      45.941  26.202  29.577  1.00  0.00     0.134 A 
ATOM     75  C   UNL A   1      45.175  27.667  27.855  1.00  0.00     0.134 A 
ATOM     76  F   UNL A   1      46.093  25.873  30.871  1.00  0.00    -0.206 F 
ATOM     77  C   UNL A   1      46.358  25.262  28.630  1.00  0.00     0.040 A 
ATOM     78  C   UNL A   1      45.611  26.736  26.891  1.00  0.00     0.040 A 
ATOM     79  F   UNL A   1      44.509  28.744  27.416  1.00  0.00    -0.206 F 
ATOM     80  C   UNL A   1      46.178  25.522  27.278  1.00  0.00     0.006 A 
ENDBRANCH  52  73
BRANCH  64  81
ATOM     81  C   UNL A   1      43.164  34.117  30.933  1.00  0.00     0.057 A 
ATOM     82  C   UNL A   1      43.329  34.951  32.045  1.00  0.00     0.134 A 
ATOM     83  C   UNL A   1      43.485  34.696  29.683  1.00  0.00     0.134 A 
ATOM     84  F   UNL A   1      43.162  34.493  33.293  1.00  0.00    -0.206 F 
ATOM     85  C   UNL A   1      43.738  36.283  31.922  1.00  0.00     0.040 A 
ATOM     86  C   UNL A   1      43.954  36.004  29.555  1.00  0.00     0.040 A 
ATOM     87  F   UNL A   1      43.392  34.000  28.539  1.00  0.00    -0.206 F 
ATOM     88  C   UNL A   1      44.067  36.808  30.678  1.00  0.00     0.006 A 
ENDBRANCH  64  81
ENDBRANCH  38  39
ENDBRANCH  31  33
ENDBRANCH  30  31
ENDBRANCH  29  30
ENDBRANCH  28  29
ENDBRANCH  27  28
ENDBRANCH   1  27
TORSDOF 18
ENDMDL
MODEL 3
REMARK VINA RESULT:     -11.6      1.896      2.957
REMARK SMILES Cc1cc(C(=O)OCCOCCOCCOC(=O)c2ccc(-c3c4nc(c(-c5c(F)cccc5F)c5ccc([nH]5)c(-c5c(F)cccc5F)c5nc(c(-c6c(F)cccc6F)c6ccc3[nH]6)C=C5)C=C4)cc2)ccc1NC(=O)N1C[C@@H](C)[C@H](C)C1
REMARK SMILES IDX 12 1 11 2 10 3 9 4 8 5 7 6 5 7 6 8 4 9 1 10 2 11 3 12 75 13
REMARK SMILES IDX 74 14 73 15 76 16 77 17 78 19 79 20 80 21 85 22 81 23 83 24
REMARK SMILES IDX 82 25 84 26 13 27 14 28 15 29 16 30 17 31 18 32 19 33 20 34
REMARK SMILES IDX 72 35 21 36 71 37 22 38 23 39 24 40 65 41 25 42 70 43 64 44
REMARK SMILES IDX 66 45 26 46 69 47 63 48 62 49 27 51 53 52 36 53 52 54 37 55
REMARK SMILES IDX 40 56 51 57 67 58 38 59 39 60 50 62 68 63 41 64 28 65 29 66
REMARK SMILES IDX 34 67 30 68 31 69 33 70 35 71 32 72 54 73 55 74 60 75 56 76
REMARK SMILES IDX 57 77 59 78 61 79 58 80 42 81 43 82 48 83 44 84 45 85 47 86
REMARK SMILES IDX 49 87 46 88
REMARK H PARENT 76 18 66 50 40 61
REMARK Flexibility Score: inf
ROOT
ATOM      1  C   UNL A   1      43.683  18.807  25.720  1.00  0.00     0.188 C 
ENDROOT
BRANCH   1   2
ATOM      2  C   UNL A   1      42.512  19.124  26.631  1.00  0.00     0.188 C 
BRANCH   2   3
ATOM      3  O   UNL A   1      41.201  19.418  26.141  1.00  0.00    -0.376 OA
BRANCH   3   4
ATOM      4  C   UNL A   1      40.454  20.637  26.142  1.00  0.00     0.202 C 
BRANCH   4   5
ATOM      5  C   UNL A   1      38.786  20.842  25.785  1.00  0.00     0.261 C 
BRANCH   5   6
ATOM      6  O   UNL A   1      37.964  22.242  25.573  1.00  0.00    -0.460 OA
BRANCH   6   7
ATOM      7  C   UNL A   1      36.746  22.838  25.296  1.00  0.00     0.338 C 
ATOM      8  O   UNL A   1      36.524  23.991  24.960  1.00  0.00    -0.246 OA
BRANCH   7   9
ATOM      9  C   UNL A   1      35.488  22.043  25.557  1.00  0.00     0.060 A 
ATOM     10  C   UNL A   1      32.319  20.610  23.808  1.00  0.00     0.046 C 
ATOM     11  C   UNL A   1      33.222  21.274  24.820  1.00  0.00    -0.027 A 
ATOM     12  C   UNL A   1      34.594  21.534  24.552  1.00  0.00     0.021 A 
ATOM     13  C   UNL A   1      32.759  21.728  26.052  1.00  0.00     0.045 A 
ATOM     14  C   UNL A   1      33.670  22.017  27.086  1.00  0.00     0.027 A 
ATOM     15  C   UNL A   1      35.028  22.167  26.849  1.00  0.00     0.018 A 
BRANCH  13  16
ATOM     16  N   UNL A   1      31.410  22.107  26.230  1.00  0.00    -0.308 N 
ATOM     17  C   UNL A   1      30.997  23.402  26.464  1.00  0.00     0.321 C 
ATOM     18  H   UNL A   1      30.723  21.404  26.184  1.00  0.00     0.171 HD
ATOM     19  O   UNL A   1      29.988  23.630  27.127  1.00  0.00    -0.248 OA
ATOM     20  N   UNL A   1      31.775  24.404  25.922  1.00  0.00    -0.324 N 
ATOM     21  C   UNL A   1      32.111  25.606  26.651  1.00  0.00     0.125 C 
ATOM     22  C   UNL A   1      32.140  24.506  24.511  1.00  0.00     0.125 C 
ATOM     23  C   UNL A   1      32.617  26.595  25.600  1.00  0.00     0.010 C 
ATOM     24  C   UNL A   1      33.096  25.697  24.442  1.00  0.00     0.010 C 
ATOM     25  C   UNL A   1      33.717  27.501  26.133  1.00  0.00     0.010 C 
ATOM     26  C   UNL A   1      33.072  26.415  23.097  1.00  0.00     0.010 C 
ENDBRANCH  13  16
ENDBRANCH   7   9
ENDBRANCH   6   7
ENDBRANCH   5   6
ENDBRANCH   4   5
ENDBRANCH   3   4
ENDBRANCH   2   3
ENDBRANCH   1   2
BRANCH   1  27
ATOM     27  O   UNL A   1      43.674  19.676  24.605  1.00  0.00    -0.376 OA
BRANCH  27  28
ATOM     28  C   UNL A   1      44.947  20.216  24.275  1.00  0.00     0.202 C 
BRANCH  28  29
ATOM     29  C   UNL A   1      45.351  21.437  25.132  1.00  0.00     0.261 C 
BRANCH  29  30
ATOM     30  O   UNL A   1      44.193  22.251  25.441  1.00  0.00    -0.460 OA
BRANCH  30  31
ATOM     31  C   UNL A   1      44.170  23.562  24.993  1.00  0.00     0.338 C 
ATOM     32  O   UNL A   1      45.055  24.109  24.410  1.00  0.00    -0.246 OA
BRANCH  31  33
ATOM     33  C   UNL A   1      42.975  24.268  25.611  1.00  0.00     0.060 A 
ATOM     34  C   UNL A   1      42.439  25.493  25.184  1.00  0.00     0.016 A 
ATOM     35  C   UNL A   1      42.713  23.954  26.895  1.00  0.00     0.016 A 
ATOM     36  C   UNL A   1      41.823  26.437  26.124  1.00  0.00     0.010 A 
ATOM     37  C   UNL A   1      42.487  25.063  27.712  1.00  0.00     0.010 A 
ATOM     38  C   UNL A   1      41.896  26.293  27.510  1.00  0.00    -0.014 A 
BRANCH  38  39
ATOM     39  C   UNL A   1      41.746  27.388  28.657  1.00  0.00     0.031 A 
ATOM     40  C   UNL A   1      40.571  28.358  29.135  1.00  0.00     0.074 A 
ATOM     41  C   UNL A   1      42.834  27.560  29.442  1.00  0.00     0.049 A 
ATOM     42  N   UNL A   1      40.638  29.678  29.188  1.00  0.00    -0.248 NA
ATOM     43  C   UNL A   1      39.284  27.959  29.734  1.00  0.00     0.031 C 
ATOM     44  C   UNL A   1      42.989  28.430  30.606  1.00  0.00     0.029 A 
ATOM     45  N   UNL A   1      44.117  27.055  29.219  1.00  0.00    -0.354 N 
ATOM     46  C   UNL A   1      39.446  30.178  29.760  1.00  0.00     0.074 A 
ATOM     47  C   UNL A   1      38.588  29.071  29.934  1.00  0.00     0.031 C 
ATOM     48  C   UNL A   1      44.300  28.680  30.761  1.00  0.00     0.029 A 
ATOM     49  C   UNL A   1      45.002  28.046  29.655  1.00  0.00     0.049 A 
ATOM     50  H   UNL A   1      44.352  26.181  28.833  1.00  0.00     0.167 HD
ATOM     51  C   UNL A   1      39.219  31.409  30.306  1.00  0.00     0.037 A 
ATOM     52  C   UNL A   1      45.835  28.646  28.763  1.00  0.00     0.037 A 
ATOM     53  C   UNL A   1      40.478  32.016  30.617  1.00  0.00     0.049 A 
ATOM     54  C   UNL A   1      45.598  30.133  28.669  1.00  0.00     0.074 A 
ATOM     55  C   UNL A   1      41.264  31.910  31.751  1.00  0.00     0.029 A 
ATOM     56  N   UNL A   1      41.282  32.452  29.590  1.00  0.00    -0.354 N 
ATOM     57  N   UNL A   1      44.527  30.738  29.111  1.00  0.00    -0.248 NA
ATOM     58  C   UNL A   1      46.550  31.057  28.064  1.00  0.00     0.031 C 
ATOM     59  C   UNL A   1      42.599  32.153  31.357  1.00  0.00     0.029 A 
ATOM     60  C   UNL A   1      42.590  32.502  30.017  1.00  0.00     0.049 A 
ATOM     61  H   UNL A   1      40.969  32.693  28.688  1.00  0.00     0.167 HD
ATOM     62  C   UNL A   1      44.614  32.074  28.825  1.00  0.00     0.074 A 
ATOM     63  C   UNL A   1      45.907  32.229  28.195  1.00  0.00     0.031 C 
ATOM     64  C   UNL A   1      43.615  32.957  29.106  1.00  0.00     0.037 A 
BRANCH  51  65
ATOM     65  C   UNL A   1      37.872  31.810  30.907  1.00  0.00     0.057 A 
ATOM     66  C   UNL A   1      37.525  31.575  32.249  1.00  0.00     0.134 A 
ATOM     67  C   UNL A   1      36.853  32.423  30.145  1.00  0.00     0.134 A 
ATOM     68  F   UNL A   1      38.422  31.111  33.130  1.00  0.00    -0.206 F 
ATOM     69  C   UNL A   1      36.228  31.793  32.751  1.00  0.00     0.040 A 
ATOM     70  C   UNL A   1      35.541  32.606  30.618  1.00  0.00     0.040 A 
ATOM     71  F   UNL A   1      37.094  32.842  28.892  1.00  0.00    -0.206 F 
ATOM     72  C   UNL A   1      35.217  32.265  31.923  1.00  0.00     0.006 A 
ENDBRANCH  51  65
BRANCH  52  73
ATOM     73  C   UNL A   1      46.321  27.745  27.668  1.00  0.00     0.057 A 
ATOM     74  C   UNL A   1      45.641  27.772  26.429  1.00  0.00     0.134 A 
ATOM     75  C   UNL A   1      47.561  27.098  27.677  1.00  0.00     0.134 A 
ATOM     76  F   UNL A   1      44.444  28.373  26.332  1.00  0.00    -0.206 F 
ATOM     77  C   UNL A   1      46.205  27.285  25.246  1.00  0.00     0.040 A 
ATOM     78  C   UNL A   1      48.130  26.584  26.494  1.00  0.00     0.040 A 
ATOM     79  F   UNL A   1      48.317  27.081  28.783  1.00  0.00    -0.206 F 
ATOM     80  C   UNL A   1      47.465  26.701  25.274  1.00  0.00     0.006 A 
ENDBRANCH  52  73
BRANCH  64  81
ATOM     81  C   UNL A   1      43.505  34.358  28.575  1.00  0.00     0.057 A 
ATOM     82  C   UNL A   1      43.422  34.657  27.210  1.00  0.00     0.134 A 
ATOM     83  C   UNL A   1      43.269  35.441  29.453  1.00  0.00     0.134 A 
ATOM     84  F   UNL A   1      43.520  33.701  26.277  1.00  0.00    -0.206 F 
ATOM     85  C   UNL A   1      43.171  35.954  26.747  1.00  0.00     0.040 A 
ATOM     86  C   UNL A   1      42.955  36.724  29.002  1.00  0.00     0.040 A 
ATOM     87  F   UNL A   1      43.296  35.287  30.786  1.00  0.00    -0.206 F 
ATOM     88  C   UNL A   1      42.920  36.987  27.642  1.00  0.00     0.006 A 
ENDBRANCH  64  81
ENDBRANCH  38  39
ENDBRANCH  31  33
ENDBRANCH  30  31
ENDBRANCH  29  30
ENDBRANCH  28  29
ENDBRANCH  27  28
ENDBRANCH   1  27
TORSDOF 18
ENDMDL
