MODEL 1
REMARK VINA RESULT:     -10.3      0.000      0.000
REMARK SMILES C[NH2+][C@H]1CC[C@@H](Nc2ccc(C(=O)OCCOCCOCCOC(=O)c3ccc(-c4c5nc(c(-c6c(F)cccc6F)c6ccc([nH]6)c(-c6c(F)cccc6F)c6nc(c(-c7c(F)cccc7F)c7ccc4[nH]7)C=C6)C=C5)cc3)c(F)c2F)CC1
REMARK SMILES IDX 18 1 17 2 16 3 15 4 14 5 12 6 13 7 11 8 8 9 9 10 82 11 10 12
REMARK SMILES IDX 80 13 83 14 81 15 7 16 6 18 3 19 85 20 4 21 84 22 5 23 2 24
REMARK SMILES IDX 1 25 19 28 20 29 21 30 22 31 23 32 24 33 25 34 26 35 27 36
REMARK SMILES IDX 79 37 28 38 78 39 29 40 30 41 31 42 72 43 32 44 77 45 71 46
REMARK SMILES IDX 73 47 33 48 76 49 70 50 69 51 34 53 60 54 43 55 59 56 44 57
REMARK SMILES IDX 47 58 58 59 74 60 45 61 46 62 57 64 75 65 48 66 35 67 36 68
REMARK SMILES IDX 41 69 37 70 38 71 40 72 42 73 39 74 61 75 62 76 67 77 63 78
REMARK SMILES IDX 64 79 66 80 68 81 65 82 49 83 50 84 55 85 51 86 52 87 54 88
REMARK SMILES IDX 56 89 53 90
REMARK H PARENT 7 17 2 26 2 27 73 52 47 63
REMARK Flexibility Score: inf
ROOT
ATOM      1  C   UNL A   1      35.146  31.756  27.997  1.00  0.00     0.188 C 
ENDROOT
BRANCH   1   2
ATOM      2  O   UNL A   1      34.326  30.631  27.747  1.00  0.00    -0.376 OA
BRANCH   2   3
ATOM      3  C   UNL A   1      33.012  30.800  27.237  1.00  0.00     0.202 C 
BRANCH   3   4
ATOM      4  C   UNL A   1      32.616  30.229  25.876  1.00  0.00     0.261 C 
BRANCH   4   5
ATOM      5  O   UNL A   1      31.500  29.331  25.931  1.00  0.00    -0.460 OA
BRANCH   5   6
ATOM      6  C   UNL A   1      31.118  28.812  24.740  1.00  0.00     0.341 C 
ATOM      7  O   UNL A   1      30.558  29.397  23.825  1.00  0.00    -0.246 OA
BRANCH   6   8
ATOM      8  C   UNL A   1      31.652  27.455  24.581  1.00  0.00     0.099 A 
ATOM      9  C   UNL A   1      32.757  24.873  24.453  1.00  0.00     0.074 A 
ATOM     10  C   UNL A   1      31.789  25.174  25.413  1.00  0.00     0.030 A 
ATOM     11  C   UNL A   1      33.102  25.876  23.524  1.00  0.00     0.182 A 
ATOM     12  C   UNL A   1      31.261  26.469  25.498  1.00  0.00     0.021 A 
ATOM     13  C   UNL A   1      32.552  27.150  23.574  1.00  0.00     0.175 A 
ATOM     14  F   UNL A   1      34.003  25.588  22.569  1.00  0.00    -0.201 F 
ATOM     15  F   UNL A   1      32.928  28.070  22.674  1.00  0.00    -0.203 F 
BRANCH   9  16
ATOM     16  N   UNL A   1      33.390  23.646  24.374  1.00  0.00    -0.380 N 
ATOM     17  H   UNL A   1      32.992  22.976  23.774  1.00  0.00     0.160 HD
BRANCH  16  18
ATOM     18  C   UNL A   1      34.593  23.255  25.100  1.00  0.00     0.079 C 
ATOM     19  C   UNL A   1      33.808  20.526  26.096  1.00  0.00     0.182 C 
ATOM     20  C   UNL A   1      34.275  20.772  24.647  1.00  0.00     0.067 C 
ATOM     21  C   UNL A   1      33.272  21.814  26.750  1.00  0.00     0.067 C 
ATOM     22  C   UNL A   1      35.206  21.978  24.521  1.00  0.00     0.031 C 
ATOM     23  C   UNL A   1      34.209  23.015  26.569  1.00  0.00     0.031 C 
BRANCH  19  24
ATOM     24  N   UNL A   1      32.817  19.455  26.297  1.00  0.00    -0.346 N 
ATOM     25  C   UNL A   1      32.912  18.295  25.427  1.00  0.00     0.331 C 
ATOM     26  H   UNL A   1      32.910  19.126  27.258  1.00  0.00     0.346 HD
ATOM     27  H   UNL A   1      31.917  19.880  26.073  1.00  0.00     0.346 HD
ENDBRANCH  19  24
ENDBRANCH  16  18
ENDBRANCH   9  16
ENDBRANCH   6   8
ENDBRANCH   5   6
ENDBRANCH   4   5
ENDBRANCH   3   4
ENDBRANCH   2   3
ENDBRANCH   1   2
BRANCH   1  28
ATOM     28  C   UNL A   1      34.588  33.010  28.704  1.00  0.00     0.188 C 
BRANCH  28  29
ATOM     29  O   UNL A   1      34.114  34.122  27.973  1.00  0.00    -0.376 OA
BRANCH  29  30
ATOM     30  C   UNL A   1      34.092  35.413  28.561  1.00  0.00     0.202 C 
BRANCH  30  31
ATOM     31  C   UNL A   1      32.870  35.926  29.325  1.00  0.00     0.261 C 
BRANCH  31  32
ATOM     32  O   UNL A   1      32.497  35.132  30.456  1.00  0.00    -0.460 OA
BRANCH  32  33
ATOM     33  C   UNL A   1      32.713  35.717  31.658  1.00  0.00     0.338 C 
ATOM     34  O   UNL A   1      32.054  36.588  32.198  1.00  0.00    -0.246 OA
BRANCH  33  35
ATOM     35  C   UNL A   1      33.821  35.026  32.336  1.00  0.00     0.060 A 
ATOM     36  C   UNL A   1      35.112  35.564  32.234  1.00  0.00     0.016 A 
ATOM     37  C   UNL A   1      33.594  33.823  33.003  1.00  0.00     0.016 A 
ATOM     38  C   UNL A   1      36.195  34.879  32.783  1.00  0.00     0.010 A 
ATOM     39  C   UNL A   1      34.682  33.126  33.527  1.00  0.00     0.010 A 
ATOM     40  C   UNL A   1      35.987  33.636  33.393  1.00  0.00    -0.014 A 
BRANCH  40  41
ATOM     41  C   UNL A   1      37.130  32.755  33.718  1.00  0.00     0.031 A 
ATOM     42  C   UNL A   1      37.876  33.012  34.998  1.00  0.00     0.074 A 
ATOM     43  C   UNL A   1      37.522  31.778  32.883  1.00  0.00     0.049 A 
ATOM     44  N   UNL A   1      39.015  32.518  35.407  1.00  0.00    -0.248 NA
ATOM     45  C   UNL A   1      37.253  33.959  35.937  1.00  0.00     0.031 C 
ATOM     46  C   UNL A   1      36.840  31.391  31.649  1.00  0.00     0.029 A 
ATOM     47  N   UNL A   1      38.616  30.950  32.939  1.00  0.00    -0.354 N 
ATOM     48  C   UNL A   1      39.250  33.102  36.646  1.00  0.00     0.074 A 
ATOM     49  C   UNL A   1      38.147  33.998  36.914  1.00  0.00     0.031 C 
ATOM     50  C   UNL A   1      37.552  30.421  31.046  1.00  0.00     0.029 A 
ATOM     51  C   UNL A   1      38.759  30.157  31.827  1.00  0.00     0.049 A 
ATOM     52  H   UNL A   1      39.237  30.928  33.703  1.00  0.00     0.167 HD
ATOM     53  C   UNL A   1      40.294  32.907  37.482  1.00  0.00     0.037 A 
ATOM     54  C   UNL A   1      39.775  29.349  31.466  1.00  0.00     0.037 A 
ATOM     55  C   UNL A   1      41.396  32.028  37.202  1.00  0.00     0.049 A 
ATOM     56  C   UNL A   1      40.979  29.229  32.368  1.00  0.00     0.074 A 
ATOM     57  C   UNL A   1      42.524  31.788  37.967  1.00  0.00     0.029 A 
ATOM     58  N   UNL A   1      41.506  31.244  36.064  1.00  0.00    -0.354 N 
ATOM     59  N   UNL A   1      41.205  29.795  33.529  1.00  0.00    -0.248 NA
ATOM     60  C   UNL A   1      42.074  28.362  31.906  1.00  0.00     0.031 C 
ATOM     61  C   UNL A   1      43.332  30.881  37.277  1.00  0.00     0.029 A 
ATOM     62  C   UNL A   1      42.684  30.522  36.106  1.00  0.00     0.049 A 
ATOM     63  H   UNL A   1      40.844  31.208  35.337  1.00  0.00     0.167 HD
ATOM     64  C   UNL A   1      42.439  29.315  33.955  1.00  0.00     0.074 A 
ATOM     65  C   UNL A   1      42.916  28.415  32.927  1.00  0.00     0.031 C 
ATOM     66  C   UNL A   1      43.115  29.591  35.096  1.00  0.00     0.037 A 
BRANCH  53  67
ATOM     67  C   UNL A   1      40.304  33.672  38.771  1.00  0.00     0.057 A 
ATOM     68  C   UNL A   1      41.050  34.847  38.920  1.00  0.00     0.134 A 
ATOM     69  C   UNL A   1      39.522  33.257  39.855  1.00  0.00     0.134 A 
ATOM     70  F   UNL A   1      41.833  35.286  37.923  1.00  0.00    -0.206 F 
ATOM     71  C   UNL A   1      41.024  35.580  40.107  1.00  0.00     0.040 A 
ATOM     72  C   UNL A   1      39.470  33.993  41.040  1.00  0.00     0.040 A 
ATOM     73  F   UNL A   1      38.785  32.139  39.775  1.00  0.00    -0.206 F 
ATOM     74  C   UNL A   1      40.225  35.157  41.168  1.00  0.00     0.006 A 
ENDBRANCH  53  67
BRANCH  54  75
ATOM     75  C   UNL A   1      39.735  28.612  30.177  1.00  0.00     0.057 A 
ATOM     76  C   UNL A   1      39.170  27.334  30.092  1.00  0.00     0.134 A 
ATOM     77  C   UNL A   1      40.320  29.135  29.017  1.00  0.00     0.134 A 
ATOM     78  F   UNL A   1      38.618  26.767  31.174  1.00  0.00    -0.206 F 
ATOM     79  C   UNL A   1      39.217  26.590  28.911  1.00  0.00     0.040 A 
ATOM     80  C   UNL A   1      40.348  28.414  27.823  1.00  0.00     0.040 A 
ATOM     81  F   UNL A   1      40.881  30.353  29.031  1.00  0.00    -0.206 F 
ATOM     82  C   UNL A   1      39.806  27.132  27.771  1.00  0.00     0.006 A 
ENDBRANCH  54  75
BRANCH  66  83
ATOM     83  C   UNL A   1      44.394  28.851  35.348  1.00  0.00     0.057 A 
ATOM     84  C   UNL A   1      44.423  27.612  35.999  1.00  0.00     0.134 A 
ATOM     85  C   UNL A   1      45.605  29.353  34.853  1.00  0.00     0.134 A 
ATOM     86  F   UNL A   1      43.299  27.083  36.504  1.00  0.00    -0.206 F 
ATOM     87  C   UNL A   1      45.615  26.903  36.158  1.00  0.00     0.040 A 
ATOM     88  C   UNL A   1      46.798  28.642  34.985  1.00  0.00     0.040 A 
ATOM     89  F   UNL A   1      45.641  30.529  34.210  1.00  0.00    -0.206 F 
ATOM     90  C   UNL A   1      46.805  27.415  35.641  1.00  0.00     0.006 A 
ENDBRANCH  66  83
ENDBRANCH  40  41
ENDBRANCH  33  35
ENDBRANCH  32  33
ENDBRANCH  31  32
ENDBRANCH  30  31
ENDBRANCH  29  30
ENDBRANCH  28  29
ENDBRANCH   1  28
TORSDOF 20
ENDMDL
MODEL 2
REMARK VINA RESULT:     -10.1      4.790      7.242
REMARK SMILES C[NH2+][C@H]1CC[C@@H](Nc2ccc(C(=O)OCCOCCOCCOC(=O)c3ccc(-c4c5nc(c(-c6c(F)cccc6F)c6ccc([nH]6)c(-c6c(F)cccc6F)c6nc(c(-c7c(F)cccc7F)c7ccc4[nH]7)C=C6)C=C5)cc3)c(F)c2F)CC1
REMARK SMILES IDX 18 1 17 2 16 3 15 4 14 5 12 6 13 7 11 8 8 9 9 10 82 11 10 12
REMARK SMILES IDX 80 13 83 14 81 15 7 16 6 18 3 19 85 20 4 21 84 22 5 23 2 24
REMARK SMILES IDX 1 25 19 28 20 29 21 30 22 31 23 32 24 33 25 34 26 35 27 36
REMARK SMILES IDX 79 37 28 38 78 39 29 40 30 41 31 42 72 43 32 44 77 45 71 46
REMARK SMILES IDX 73 47 33 48 76 49 70 50 69 51 34 53 60 54 43 55 59 56 44 57
REMARK SMILES IDX 47 58 58 59 74 60 45 61 46 62 57 64 75 65 48 66 35 67 36 68
REMARK SMILES IDX 41 69 37 70 38 71 40 72 42 73 39 74 61 75 62 76 67 77 63 78
REMARK SMILES IDX 64 79 66 80 68 81 65 82 49 83 50 84 55 85 51 86 52 87 54 88
REMARK SMILES IDX 56 89 53 90
REMARK H PARENT 7 17 2 26 2 27 73 52 47 63
REMARK Flexibility Score: inf
ROOT
ATOM      1  C   UNL A   1      35.482  32.569  27.899  1.00  0.00     0.188 C 
ENDROOT
BRANCH   1   2
ATOM      2  O   UNL A   1      35.001  31.366  27.332  1.00  0.00    -0.376 OA
BRANCH   2   3
ATOM      3  C   UNL A   1      33.759  30.821  27.753  1.00  0.00     0.202 C 
BRANCH   3   4
ATOM      4  C   UNL A   1      32.510  30.940  26.880  1.00  0.00     0.261 C 
BRANCH   4   5
ATOM      5  O   UNL A   1      31.738  29.734  26.811  1.00  0.00    -0.460 OA
BRANCH   5   6
ATOM      6  C   UNL A   1      31.463  29.296  25.560  1.00  0.00     0.341 C 
ATOM      7  O   UNL A   1      31.229  29.977  24.574  1.00  0.00    -0.246 OA
BRANCH   6   8
ATOM      8  C   UNL A   1      31.682  27.848  25.469  1.00  0.00     0.099 A 
ATOM      9  C   UNL A   1      32.265  25.112  25.194  1.00  0.00     0.074 A 
ATOM     10  C   UNL A   1      33.115  25.939  25.930  1.00  0.00     0.030 A 
ATOM     11  C   UNL A   1      31.089  25.678  24.660  1.00  0.00     0.182 A 
ATOM     12  C   UNL A   1      32.843  27.308  26.042  1.00  0.00     0.021 A 
ATOM     13  C   UNL A   1      30.789  27.027  24.802  1.00  0.00     0.175 A 
ATOM     14  F   UNL A   1      30.241  24.886  23.983  1.00  0.00    -0.201 F 
ATOM     15  F   UNL A   1      29.664  27.516  24.262  1.00  0.00    -0.203 F 
BRANCH   9  16
ATOM     16  N   UNL A   1      32.523  23.773  24.962  1.00  0.00    -0.380 N 
ATOM     17  H   UNL A   1      33.074  23.554  24.177  1.00  0.00     0.160 HD
BRANCH  16  18
ATOM     18  C   UNL A   1      32.052  22.657  25.773  1.00  0.00     0.079 C 
ATOM     19  C   UNL A   1      34.517  20.934  25.876  1.00  0.00     0.182 C 
ATOM     20  C   UNL A   1      34.344  22.179  26.768  1.00  0.00     0.067 C 
ATOM     21  C   UNL A   1      33.625  21.001  24.621  1.00  0.00     0.067 C 
ATOM     22  C   UNL A   1      32.878  22.506  27.052  1.00  0.00     0.031 C 
ATOM     23  C   UNL A   1      32.171  21.372  24.936  1.00  0.00     0.031 C 
BRANCH  19  24
ATOM     24  N   UNL A   1      35.891  20.609  25.454  1.00  0.00    -0.346 N 
ATOM     25  C   UNL A   1      36.611  21.627  24.709  1.00  0.00     0.331 C 
ATOM     26  H   UNL A   1      36.430  20.404  26.294  1.00  0.00     0.346 HD
ATOM     27  H   UNL A   1      35.791  19.828  24.805  1.00  0.00     0.346 HD
ENDBRANCH  19  24
ENDBRANCH  16  18
ENDBRANCH   9  16
ENDBRANCH   6   8
ENDBRANCH   5   6
ENDBRANCH   4   5
ENDBRANCH   3   4
ENDBRANCH   2   3
ENDBRANCH   1   2
BRANCH   1  28
ATOM     28  C   UNL A   1      34.578  33.816  28.013  1.00  0.00     0.188 C 
BRANCH  28  29
ATOM     29  O   UNL A   1      33.810  34.070  29.171  1.00  0.00    -0.376 OA
BRANCH  29  30
ATOM     30  C   UNL A   1      34.444  34.311  30.416  1.00  0.00     0.202 C 
BRANCH  30  31
ATOM     31  C   UNL A   1      34.338  33.320  31.577  1.00  0.00     0.261 C 
BRANCH  31  32
ATOM     32  O   UNL A   1      35.176  32.166  31.454  1.00  0.00    -0.460 OA
BRANCH  32  33
ATOM     33  C   UNL A   1      36.096  32.024  32.438  1.00  0.00     0.338 C 
ATOM     34  O   UNL A   1      35.907  31.990  33.641  1.00  0.00    -0.246 OA
BRANCH  33  35
ATOM     35  C   UNL A   1      37.408  31.750  31.833  1.00  0.00     0.060 A 
ATOM     36  C   UNL A   1      37.517  31.751  30.435  1.00  0.00     0.016 A 
ATOM     37  C   UNL A   1      38.498  31.425  32.638  1.00  0.00     0.016 A 
ATOM     38  C   UNL A   1      38.724  31.399  29.832  1.00  0.00     0.010 A 
ATOM     39  C   UNL A   1      39.696  31.047  32.033  1.00  0.00     0.010 A 
ATOM     40  C   UNL A   1      39.804  31.003  30.630  1.00  0.00    -0.014 A 
BRANCH  40  41
ATOM     41  C   UNL A   1      40.986  30.348  30.029  1.00  0.00     0.031 A 
ATOM     42  C   UNL A   1      42.201  31.193  29.764  1.00  0.00     0.074 A 
ATOM     43  C   UNL A   1      40.971  29.048  29.689  1.00  0.00     0.049 A 
ATOM     44  N   UNL A   1      43.274  30.909  29.075  1.00  0.00    -0.248 NA
ATOM     45  C   UNL A   1      42.198  32.543  30.354  1.00  0.00     0.031 C 
ATOM     46  C   UNL A   1      39.879  28.114  29.956  1.00  0.00     0.029 A 
ATOM     47  N   UNL A   1      41.902  28.298  29.016  1.00  0.00    -0.354 N 
ATOM     48  C   UNL A   1      44.070  32.047  29.139  1.00  0.00     0.074 A 
ATOM     49  C   UNL A   1      43.350  33.030  29.918  1.00  0.00     0.031 C 
ATOM     50  C   UNL A   1      40.189  26.920  29.420  1.00  0.00     0.029 A 
ATOM     51  C   UNL A   1      41.476  27.022  28.734  1.00  0.00     0.049 A 
ATOM     52  H   UNL A   1      42.789  28.641  28.760  1.00  0.00     0.167 HD
ATOM     53  C   UNL A   1      45.290  32.250  28.594  1.00  0.00     0.037 A 
ATOM     54  C   UNL A   1      42.045  26.070  27.969  1.00  0.00     0.037 A 
ATOM     55  C   UNL A   1      45.993  31.276  27.806  1.00  0.00     0.049 A 
ATOM     56  C   UNL A   1      43.358  26.360  27.285  1.00  0.00     0.074 A 
ATOM     57  C   UNL A   1      47.219  31.396  27.177  1.00  0.00     0.029 A 
ATOM     58  N   UNL A   1      45.528  29.997  27.541  1.00  0.00    -0.354 N 
ATOM     59  N   UNL A   1      44.098  27.441  27.334  1.00  0.00    -0.248 NA
ATOM     60  C   UNL A   1      43.914  25.297  26.432  1.00  0.00     0.031 C 
ATOM     61  C   UNL A   1      47.482  30.200  26.504  1.00  0.00     0.029 A 
ATOM     62  C   UNL A   1      46.442  29.320  26.755  1.00  0.00     0.049 A 
ATOM     63  H   UNL A   1      44.675  29.628  27.865  1.00  0.00     0.167 HD
ATOM     64  C   UNL A   1      45.224  27.170  26.563  1.00  0.00     0.074 A 
ATOM     65  C   UNL A   1      45.068  25.825  26.054  1.00  0.00     0.031 C 
ATOM     66  C   UNL A   1      46.292  27.962  26.303  1.00  0.00     0.037 A 
BRANCH  53  67
ATOM     67  C   UNL A   1      45.936  33.584  28.816  1.00  0.00     0.057 A 
ATOM     68  C   UNL A   1      46.866  33.787  29.843  1.00  0.00     0.134 A 
ATOM     69  C   UNL A   1      45.665  34.661  27.964  1.00  0.00     0.134 A 
ATOM     70  F   UNL A   1      47.154  32.799  30.704  1.00  0.00    -0.206 F 
ATOM     71  C   UNL A   1      47.497  35.019  30.021  1.00  0.00     0.040 A 
ATOM     72  C   UNL A   1      46.307  35.891  28.117  1.00  0.00     0.040 A 
ATOM     73  F   UNL A   1      44.784  34.531  26.960  1.00  0.00    -0.206 F 
ATOM     74  C   UNL A   1      47.224  36.073  29.150  1.00  0.00     0.006 A 
ENDBRANCH  53  67
BRANCH  54  75
ATOM     75  C   UNL A   1      41.372  24.761  27.765  1.00  0.00     0.057 A 
ATOM     76  C   UNL A   1      41.792  23.617  28.453  1.00  0.00     0.134 A 
ATOM     77  C   UNL A   1      40.342  24.607  26.829  1.00  0.00     0.134 A 
ATOM     78  F   UNL A   1      42.792  23.694  29.343  1.00  0.00    -0.206 F 
ATOM     79  C   UNL A   1      41.236  22.362  28.196  1.00  0.00     0.040 A 
ATOM     80  C   UNL A   1      39.758  23.364  26.582  1.00  0.00     0.040 A 
ATOM     81  F   UNL A   1      39.894  25.663  26.134  1.00  0.00    -0.206 F 
ATOM     82  C   UNL A   1      40.213  22.234  27.259  1.00  0.00     0.006 A 
ENDBRANCH  54  75
BRANCH  66  83
ATOM     83  C   UNL A   1      47.421  27.375  25.511  1.00  0.00     0.057 A 
ATOM     84  C   UNL A   1      47.488  27.480  24.117  1.00  0.00     0.134 A 
ATOM     85  C   UNL A   1      48.500  26.768  26.169  1.00  0.00     0.134 A 
ATOM     86  F   UNL A   1      46.483  28.041  23.428  1.00  0.00    -0.206 F 
ATOM     87  C   UNL A   1      48.584  26.992  23.403  1.00  0.00     0.040 A 
ATOM     88  C   UNL A   1      49.611  26.300  25.469  1.00  0.00     0.040 A 
ATOM     89  F   UNL A   1      48.501  26.648  27.505  1.00  0.00    -0.206 F 
ATOM     90  C   UNL A   1      49.654  26.409  24.082  1.00  0.00     0.006 A 
ENDBRANCH  66  83
ENDBRANCH  40  41
ENDBRANCH  33  35
ENDBRANCH  32  33
ENDBRANCH  31  32
ENDBRANCH  30  31
ENDBRANCH  29  30
ENDBRANCH  28  29
ENDBRANCH   1  28
TORSDOF 20
ENDMDL
MODEL 3
REMARK VINA RESULT:     -10.1      5.560      9.783
REMARK SMILES C[NH2+][C@H]1CC[C@@H](Nc2ccc(C(=O)OCCOCCOCCOC(=O)c3ccc(-c4c5nc(c(-c6c(F)cccc6F)c6ccc([nH]6)c(-c6c(F)cccc6F)c6nc(c(-c7c(F)cccc7F)c7ccc4[nH]7)C=C6)C=C5)cc3)c(F)c2F)CC1
REMARK SMILES IDX 18 1 17 2 16 3 15 4 14 5 12 6 13 7 11 8 8 9 9 10 82 11 10 12
REMARK SMILES IDX 80 13 83 14 81 15 7 16 6 18 3 19 85 20 4 21 84 22 5 23 2 24
REMARK SMILES IDX 1 25 19 28 20 29 21 30 22 31 23 32 24 33 25 34 26 35 27 36
REMARK SMILES IDX 79 37 28 38 78 39 29 40 30 41 31 42 72 43 32 44 77 45 71 46
REMARK SMILES IDX 73 47 33 48 76 49 70 50 69 51 34 53 60 54 43 55 59 56 44 57
REMARK SMILES IDX 47 58 58 59 74 60 45 61 46 62 57 64 75 65 48 66 35 67 36 68
REMARK SMILES IDX 41 69 37 70 38 71 40 72 42 73 39 74 61 75 62 76 67 77 63 78
REMARK SMILES IDX 64 79 66 80 68 81 65 82 49 83 50 84 55 85 51 86 52 87 54 88
REMARK SMILES IDX 56 89 53 90
REMARK H PARENT 7 17 2 26 2 27 73 52 47 63
REMARK Flexibility Score: inf
ROOT
ATOM      1  C   UNL A   1      35.070  35.353  33.696  1.00  0.00     0.188 C 
ENDROOT
BRANCH   1   2
ATOM      2  O   UNL A   1      34.884  35.714  32.341  1.00  0.00    -0.376 OA
BRANCH   2   3
ATOM      3  C   UNL A   1      34.040  34.941  31.502  1.00  0.00     0.202 C 
BRANCH   3   4
ATOM      4  C   UNL A   1      34.623  34.014  30.436  1.00  0.00     0.261 C 
BRANCH   4   5
ATOM      5  O   UNL A   1      33.658  33.554  29.482  1.00  0.00    -0.460 OA
BRANCH   5   6
ATOM      6  C   UNL A   1      34.112  33.438  28.211  1.00  0.00     0.341 C 
ATOM      7  O   UNL A   1      34.744  34.267  27.574  1.00  0.00    -0.246 OA
BRANCH   6   8
ATOM      8  C   UNL A   1      33.924  32.066  27.727  1.00  0.00     0.099 A 
ATOM      9  C   UNL A   1      33.437  29.410  26.945  1.00  0.00     0.074 A 
ATOM     10  C   UNL A   1      32.414  30.358  26.881  1.00  0.00     0.030 A 
ATOM     11  C   UNL A   1      34.717  29.844  27.346  1.00  0.00     0.182 A 
ATOM     12  C   UNL A   1      32.647  31.674  27.300  1.00  0.00     0.021 A 
ATOM     13  C   UNL A   1      34.968  31.156  27.722  1.00  0.00     0.175 A 
ATOM     14  F   UNL A   1      35.722  28.951  27.374  1.00  0.00    -0.201 F 
ATOM     15  F   UNL A   1      36.202  31.511  28.108  1.00  0.00    -0.203 F 
BRANCH   9  16
ATOM     16  N   UNL A   1      33.252  28.074  26.640  1.00  0.00    -0.380 N 
ATOM     17  H   UNL A   1      33.283  27.437  27.389  1.00  0.00     0.160 HD
BRANCH  16  18
ATOM     18  C   UNL A   1      33.017  27.524  25.310  1.00  0.00     0.079 C 
ATOM     19  C   UNL A   1      31.598  24.958  25.987  1.00  0.00     0.182 C 
ATOM     20  C   UNL A   1      30.880  26.322  25.988  1.00  0.00     0.067 C 
ATOM     21  C   UNL A   1      33.122  25.113  26.160  1.00  0.00     0.067 C 
ATOM     22  C   UNL A   1      31.524  27.332  25.039  1.00  0.00     0.031 C 
ATOM     23  C   UNL A   1      33.729  26.163  25.222  1.00  0.00     0.031 C 
BRANCH  19  24
ATOM     24  N   UNL A   1      31.119  23.957  26.957  1.00  0.00    -0.346 N 
ATOM     25  C   UNL A   1      30.473  22.773  26.418  1.00  0.00     0.331 C 
ATOM     26  H   UNL A   1      31.923  23.648  27.502  1.00  0.00     0.346 HD
ATOM     27  H   UNL A   1      30.394  24.434  27.492  1.00  0.00     0.346 HD
ENDBRANCH  19  24
ENDBRANCH  16  18
ENDBRANCH   9  16
ENDBRANCH   6   8
ENDBRANCH   5   6
ENDBRANCH   4   5
ENDBRANCH   3   4
ENDBRANCH   2   3
ENDBRANCH   1   2
BRANCH   1  28
ATOM     28  C   UNL A   1      35.084  33.872  34.134  1.00  0.00     0.188 C 
BRANCH  28  29
ATOM     29  O   UNL A   1      36.280  33.225  34.516  1.00  0.00    -0.376 OA
BRANCH  29  30
ATOM     30  C   UNL A   1      36.985  32.413  33.592  1.00  0.00     0.202 C 
BRANCH  30  31
ATOM     31  C   UNL A   1      36.265  31.397  32.703  1.00  0.00     0.261 C 
BRANCH  31  32
ATOM     32  O   UNL A   1      36.928  30.134  32.582  1.00  0.00    -0.460 OA
BRANCH  32  33
ATOM     33  C   UNL A   1      36.915  29.601  31.337  1.00  0.00     0.338 C 
ATOM     34  O   UNL A   1      35.949  29.257  30.680  1.00  0.00    -0.246 OA
BRANCH  33  35
ATOM     35  C   UNL A   1      38.279  29.631  30.788  1.00  0.00     0.060 A 
ATOM     36  C   UNL A   1      38.450  29.945  29.432  1.00  0.00     0.016 A 
ATOM     37  C   UNL A   1      39.365  29.280  31.587  1.00  0.00     0.016 A 
ATOM     38  C   UNL A   1      39.721  29.885  28.861  1.00  0.00     0.010 A 
ATOM     39  C   UNL A   1      40.630  29.194  31.008  1.00  0.00     0.010 A 
ATOM     40  C   UNL A   1      40.807  29.466  29.638  1.00  0.00    -0.014 A 
BRANCH  40  41
ATOM     41  C   UNL A   1      42.095  29.109  29.004  1.00  0.00     0.031 A 
ATOM     42  C   UNL A   1      42.282  27.694  28.534  1.00  0.00     0.074 A 
ATOM     43  C   UNL A   1      43.089  30.006  28.883  1.00  0.00     0.049 A 
ATOM     44  N   UNL A   1      43.369  27.089  28.134  1.00  0.00    -0.248 NA
ATOM     45  C   UNL A   1      41.077  26.847  28.520  1.00  0.00     0.031 C 
ATOM     46  C   UNL A   1      43.004  31.420  29.241  1.00  0.00     0.029 A 
ATOM     47  N   UNL A   1      44.381  29.843  28.450  1.00  0.00    -0.354 N 
ATOM     48  C   UNL A   1      42.983  25.789  27.831  1.00  0.00     0.074 A 
ATOM     49  C   UNL A   1      41.567  25.687  28.108  1.00  0.00     0.031 C 
ATOM     50  C   UNL A   1      44.207  31.991  29.042  1.00  0.00     0.029 A 
ATOM     51  C   UNL A   1      45.152  30.971  28.592  1.00  0.00     0.049 A 
ATOM     52  H   UNL A   1      44.722  28.999  28.073  1.00  0.00     0.167 HD
ATOM     53  C   UNL A   1      43.743  24.773  27.365  1.00  0.00     0.037 A 
ATOM     54  C   UNL A   1      46.478  31.139  28.422  1.00  0.00     0.037 A 
ATOM     55  C   UNL A   1      45.153  24.876  27.108  1.00  0.00     0.049 A 
ATOM     56  C   UNL A   1      47.324  29.962  28.002  1.00  0.00     0.074 A 
ATOM     57  C   UNL A   1      46.024  23.894  26.669  1.00  0.00     0.029 A 
ATOM     58  N   UNL A   1      45.898  26.034  27.266  1.00  0.00    -0.354 N 
ATOM     59  N   UNL A   1      46.957  28.732  27.733  1.00  0.00    -0.248 NA
ATOM     60  C   UNL A   1      48.770  30.195  27.868  1.00  0.00     0.031 C 
ATOM     61  C   UNL A   1      47.304  24.450  26.592  1.00  0.00     0.029 A 
ATOM     62  C   UNL A   1      47.219  25.790  26.937  1.00  0.00     0.049 A 
ATOM     63  H   UNL A   1      45.540  26.899  27.568  1.00  0.00     0.167 HD
ATOM     64  C   UNL A   1      48.116  28.063  27.352  1.00  0.00     0.074 A 
ATOM     65  C   UNL A   1      49.197  29.020  27.429  1.00  0.00     0.031 C 
ATOM     66  C   UNL A   1      48.270  26.772  26.970  1.00  0.00     0.037 A 
BRANCH  53  67
ATOM     67  C   UNL A   1      43.070  23.458  27.120  1.00  0.00     0.057 A 
ATOM     68  C   UNL A   1      42.715  23.045  25.830  1.00  0.00     0.134 A 
ATOM     69  C   UNL A   1      42.820  22.573  28.176  1.00  0.00     0.134 A 
ATOM     70  F   UNL A   1      42.911  23.855  24.779  1.00  0.00    -0.206 F 
ATOM     71  C   UNL A   1      42.126  21.800  25.600  1.00  0.00     0.040 A 
ATOM     72  C   UNL A   1      42.253  21.317  27.956  1.00  0.00     0.040 A 
ATOM     73  F   UNL A   1      43.138  22.909  29.435  1.00  0.00    -0.206 F 
ATOM     74  C   UNL A   1      41.902  20.929  26.665  1.00  0.00     0.006 A 
ENDBRANCH  53  67
BRANCH  54  75
ATOM     75  C   UNL A   1      47.114  32.457  28.682  1.00  0.00     0.057 A 
ATOM     76  C   UNL A   1      47.544  32.811  29.967  1.00  0.00     0.134 A 
ATOM     77  C   UNL A   1      47.243  33.418  27.673  1.00  0.00     0.134 A 
ATOM     78  F   UNL A   1      47.422  31.943  30.982  1.00  0.00    -0.206 F 
ATOM     79  C   UNL A   1      48.049  34.082  30.245  1.00  0.00     0.040 A 
ATOM     80  C   UNL A   1      47.773  34.683  27.930  1.00  0.00     0.040 A 
ATOM     81  F   UNL A   1      46.848  33.143  26.420  1.00  0.00    -0.206 F 
ATOM     82  C   UNL A   1      48.167  35.022  29.223  1.00  0.00     0.006 A 
ENDBRANCH  54  75
BRANCH  66  83
ATOM     83  C   UNL A   1      49.630  26.335  26.514  1.00  0.00     0.057 A 
ATOM     84  C   UNL A   1      50.064  26.501  25.194  1.00  0.00     0.134 A 
ATOM     85  C   UNL A   1      50.547  25.816  27.439  1.00  0.00     0.134 A 
ATOM     86  F   UNL A   1      49.230  26.983  24.260  1.00  0.00    -0.206 F 
ATOM     87  C   UNL A   1      51.359  26.156  24.806  1.00  0.00     0.040 A 
ATOM     88  C   UNL A   1      51.852  25.491  27.068  1.00  0.00     0.040 A 
ATOM     89  F   UNL A   1      50.196  25.644  28.721  1.00  0.00    -0.206 F 
ATOM     90  C   UNL A   1      52.260  25.659  25.748  1.00  0.00     0.006 A 
ENDBRANCH  66  83
ENDBRANCH  40  41
ENDBRANCH  33  35
ENDBRANCH  32  33
ENDBRANCH  31  32
ENDBRANCH  30  31
ENDBRANCH  29  30
ENDBRANCH  28  29
ENDBRANCH   1  28
TORSDOF 20
ENDMDL
