MODEL 1
REMARK VINA RESULT:      -9.7      0.000      0.000
REMARK SMILES CCCCCN(C)c1ncc(C(=O)OCCOCCOCCOC(=O)c2ccc(-c3c4nc(c(-c5c(F)cccc5F)c5ccc([nH]5)c(-c5c(F)cccc5F)c5nc(c(-c6c(F)cccc6F)c6ccc3[nH]6)C=C5)C=C4)cc2)cc1Cl
REMARK SMILES IDX 17 1 16 2 15 3 14 4 12 5 13 6 11 7 8 8 9 9 81 10 10 11 80 12
REMARK SMILES IDX 82 13 6 14 7 15 5 16 4 17 3 18 2 19 1 20 18 21 19 22 20 23
REMARK SMILES IDX 21 24 22 25 23 26 24 27 25 28 26 29 27 30 79 31 28 32 78 33
REMARK SMILES IDX 29 34 30 35 31 36 72 37 32 38 77 39 71 40 73 41 33 42 76 43
REMARK SMILES IDX 70 44 69 45 34 47 60 48 43 49 59 50 44 51 47 52 58 53 74 54
REMARK SMILES IDX 45 55 46 56 57 58 75 59 48 60 35 61 36 62 41 63 37 64 38 65
REMARK SMILES IDX 40 66 42 67 39 68 61 69 62 70 67 71 63 72 64 73 66 74 68 75
REMARK SMILES IDX 65 76 49 77 50 78 55 79 51 80 52 81 54 82 56 83 53 84
REMARK H PARENT 73 46 47 57
REMARK Flexibility Score: inf
ROOT
ATOM      1  O   UNL A   1      39.410  21.458  25.602  1.00  0.00    -0.376 OA
ENDROOT
BRANCH   1   2
ATOM      2  C   UNL A   1      38.005  21.336  25.405  1.00  0.00     0.202 C 
BRANCH   2   3
ATOM      3  C   UNL A   1      37.130  22.598  25.366  1.00  0.00     0.261 C 
BRANCH   3   4
ATOM      4  O   UNL A   1      36.447  22.796  24.117  1.00  0.00    -0.460 OA
BRANCH   4   5
ATOM      5  C   UNL A   1      35.107  22.606  24.140  1.00  0.00     0.339 C 
ATOM      6  O   UNL A   1      34.523  21.556  24.353  1.00  0.00    -0.246 OA
BRANCH   5   7
ATOM      7  C   UNL A   1      34.395  23.893  24.015  1.00  0.00     0.080 A 
ATOM      8  C   UNL A   1      33.118  26.337  24.033  1.00  0.00     0.147 A 
ATOM      9  N   UNL A   1      33.899  25.995  25.089  1.00  0.00    -0.237 NA
ATOM     10  C   UNL A   1      33.074  25.549  22.874  1.00  0.00     0.084 A 
ATOM     11  C   UNL A   1      34.529  24.801  25.052  1.00  0.00     0.129 A 
ATOM     12  C   UNL A   1      33.657  24.282  22.897  1.00  0.00     0.041 A 
ATOM     13  Cl  UNL A   1      32.264  26.068  21.437  1.00  0.00    -0.080 Cl
BRANCH   8  14
ATOM     14  N   UNL A   1      32.198  27.379  24.230  1.00  0.00    -0.358 N 
ATOM     15  C   UNL A   1      32.735  28.443  25.072  1.00  0.00     0.145 C 
BRANCH  14  16
ATOM     16  C   UNL A   1      30.872  26.858  24.619  1.00  0.00     0.118 C 
BRANCH  16  17
ATOM     17  C   UNL A   1      29.709  27.412  23.774  1.00  0.00     0.021 C 
BRANCH  17  18
ATOM     18  C   UNL A   1      29.894  28.730  23.004  1.00  0.00     0.002 C 
BRANCH  18  19
ATOM     19  C   UNL A   1      28.653  29.330  22.347  1.00  0.00    -0.003 C 
ATOM     20  C   UNL A   1      28.100  30.501  23.141  1.00  0.00     0.004 C 
ENDBRANCH  18  19
ENDBRANCH  17  18
ENDBRANCH  16  17
ENDBRANCH  14  16
ENDBRANCH   8  14
ENDBRANCH   5   7
ENDBRANCH   4   5
ENDBRANCH   3   4
ENDBRANCH   2   3
ENDBRANCH   1   2
BRANCH   1  21
ATOM     21  C   UNL A   1      39.918  21.823  26.879  1.00  0.00     0.188 C 
BRANCH  21  22
ATOM     22  C   UNL A   1      40.911  20.893  27.603  1.00  0.00     0.188 C 
BRANCH  22  23
ATOM     23  O   UNL A   1      42.265  21.205  27.403  1.00  0.00    -0.376 OA
BRANCH  23  24
ATOM     24  C   UNL A   1      42.880  20.809  26.187  1.00  0.00     0.202 C 
BRANCH  24  25
ATOM     25  C   UNL A   1      43.620  21.780  25.239  1.00  0.00     0.261 C 
BRANCH  25  26
ATOM     26  O   UNL A   1      43.011  23.044  24.938  1.00  0.00    -0.460 OA
BRANCH  26  27
ATOM     27  C   UNL A   1      43.795  24.145  25.043  1.00  0.00     0.338 C 
ATOM     28  O   UNL A   1      44.777  24.415  24.380  1.00  0.00    -0.246 OA
BRANCH  27  29
ATOM     29  C   UNL A   1      43.137  25.086  25.977  1.00  0.00     0.060 A 
ATOM     30  C   UNL A   1      43.578  26.416  26.032  1.00  0.00     0.016 A 
ATOM     31  C   UNL A   1      42.098  24.650  26.799  1.00  0.00     0.016 A 
ATOM     32  C   UNL A   1      42.989  27.312  26.928  1.00  0.00     0.010 A 
ATOM     33  C   UNL A   1      41.527  25.543  27.713  1.00  0.00     0.010 A 
ATOM     34  C   UNL A   1      41.989  26.869  27.802  1.00  0.00    -0.014 A 
BRANCH  34  35
ATOM     35  C   UNL A   1      41.549  27.725  28.931  1.00  0.00     0.031 A 
ATOM     36  C   UNL A   1      42.297  27.633  30.233  1.00  0.00     0.074 A 
ATOM     37  C   UNL A   1      40.506  28.564  28.815  1.00  0.00     0.049 A 
ATOM     38  N   UNL A   1      42.060  28.223  31.377  1.00  0.00    -0.248 NA
ATOM     39  C   UNL A   1      43.471  26.745  30.244  1.00  0.00     0.031 C 
ATOM     40  C   UNL A   1      39.728  28.785  27.599  1.00  0.00     0.029 A 
ATOM     41  N   UNL A   1      39.917  29.381  29.747  1.00  0.00    -0.354 N 
ATOM     42  C   UNL A   1      43.045  27.769  32.245  1.00  0.00     0.074 A 
ATOM     43  C   UNL A   1      43.862  26.832  31.505  1.00  0.00     0.031 C 
ATOM     44  C   UNL A   1      38.758  29.679  27.861  1.00  0.00     0.029 A 
ATOM     45  C   UNL A   1      38.824  30.063  29.270  1.00  0.00     0.049 A 
ATOM     46  H   UNL A   1      40.247  29.471  30.671  1.00  0.00     0.167 HD
ATOM     47  C   UNL A   1      43.255  28.107  33.540  1.00  0.00     0.037 A 
ATOM     48  C   UNL A   1      37.966  30.884  29.907  1.00  0.00     0.037 A 
ATOM     49  C   UNL A   1      42.434  29.031  34.278  1.00  0.00     0.049 A 
ATOM     50  C   UNL A   1      38.160  31.168  31.374  1.00  0.00     0.074 A 
ATOM     51  C   UNL A   1      42.577  29.457  35.587  1.00  0.00     0.029 A 
ATOM     52  N   UNL A   1      41.305  29.661  33.773  1.00  0.00    -0.354 N 
ATOM     53  N   UNL A   1      39.109  30.761  32.182  1.00  0.00    -0.248 NA
ATOM     54  C   UNL A   1      37.155  32.027  32.019  1.00  0.00     0.031 C 
ATOM     55  C   UNL A   1      41.499  30.296  35.894  1.00  0.00     0.029 A 
ATOM     56  C   UNL A   1      40.721  30.445  34.756  1.00  0.00     0.049 A 
ATOM     57  H   UNL A   1      40.970  29.567  32.853  1.00  0.00     0.167 HD
ATOM     58  C   UNL A   1      38.840  31.343  33.415  1.00  0.00     0.074 A 
ATOM     59  C   UNL A   1      37.640  32.136  33.248  1.00  0.00     0.031 C 
ATOM     60  C   UNL A   1      39.529  31.236  34.578  1.00  0.00     0.037 A 
BRANCH  47  61
ATOM     61  C   UNL A   1      44.395  27.431  34.247  1.00  0.00     0.057 A 
ATOM     62  C   UNL A   1      45.679  27.990  34.294  1.00  0.00     0.134 A 
ATOM     63  C   UNL A   1      44.205  26.198  34.885  1.00  0.00     0.134 A 
ATOM     64  F   UNL A   1      45.934  29.162  33.693  1.00  0.00    -0.206 F 
ATOM     65  C   UNL A   1      46.742  27.329  34.915  1.00  0.00     0.040 A 
ATOM     66  C   UNL A   1      45.251  25.543  35.535  1.00  0.00     0.040 A 
ATOM     67  F   UNL A   1      43.000  25.608  34.883  1.00  0.00    -0.206 F 
ATOM     68  C   UNL A   1      46.528  26.103  35.541  1.00  0.00     0.006 A 
ENDBRANCH  47  61
BRANCH  48  69
ATOM     69  C   UNL A   1      36.842  31.509  29.163  1.00  0.00     0.057 A 
ATOM     70  C   UNL A   1      35.701  30.770  28.830  1.00  0.00     0.134 A 
ATOM     71  C   UNL A   1      36.888  32.845  28.748  1.00  0.00     0.134 A 
ATOM     72  F   UNL A   1      35.611  29.476  29.175  1.00  0.00    -0.206 F 
ATOM     73  C   UNL A   1      34.651  31.331  28.102  1.00  0.00     0.040 A 
ATOM     74  C   UNL A   1      35.834  33.428  28.042  1.00  0.00     0.040 A 
ATOM     75  F   UNL A   1      37.956  33.606  29.030  1.00  0.00    -0.206 F 
ATOM     76  C   UNL A   1      34.713  32.668  27.712  1.00  0.00     0.006 A 
ENDBRANCH  48  69
BRANCH  60  77
ATOM     77  C   UNL A   1      39.033  32.031  35.754  1.00  0.00     0.057 A 
ATOM     78  C   UNL A   1      38.215  31.469  36.743  1.00  0.00     0.134 A 
ATOM     79  C   UNL A   1      39.414  33.370  35.918  1.00  0.00     0.134 A 
ATOM     80  F   UNL A   1      37.803  30.197  36.643  1.00  0.00    -0.206 F 
ATOM     81  C   UNL A   1      37.776  32.217  37.838  1.00  0.00     0.040 A 
ATOM     82  C   UNL A   1      39.006  34.118  37.023  1.00  0.00     0.040 A 
ATOM     83  F   UNL A   1      40.205  33.969  35.014  1.00  0.00    -0.206 F 
ATOM     84  C   UNL A   1      38.178  33.544  37.983  1.00  0.00     0.006 A 
ENDBRANCH  60  77
ENDBRANCH  34  35
ENDBRANCH  27  29
ENDBRANCH  26  27
ENDBRANCH  25  26
ENDBRANCH  24  25
ENDBRANCH  23  24
ENDBRANCH  22  23
ENDBRANCH  21  22
ENDBRANCH   1  21
TORSDOF 22
ENDMDL
MODEL 2
REMARK VINA RESULT:      -9.4      0.813      6.111
REMARK SMILES CCCCCN(C)c1ncc(C(=O)OCCOCCOCCOC(=O)c2ccc(-c3c4nc(c(-c5c(F)cccc5F)c5ccc([nH]5)c(-c5c(F)cccc5F)c5nc(c(-c6c(F)cccc6F)c6ccc3[nH]6)C=C5)C=C4)cc2)cc1Cl
REMARK SMILES IDX 17 1 16 2 15 3 14 4 12 5 13 6 11 7 8 8 9 9 81 10 10 11 80 12
REMARK SMILES IDX 82 13 6 14 7 15 5 16 4 17 3 18 2 19 1 20 18 21 19 22 20 23
REMARK SMILES IDX 21 24 22 25 23 26 24 27 25 28 26 29 27 30 79 31 28 32 78 33
REMARK SMILES IDX 29 34 30 35 31 36 72 37 32 38 77 39 71 40 73 41 33 42 76 43
REMARK SMILES IDX 70 44 69 45 34 47 60 48 43 49 59 50 44 51 47 52 58 53 74 54
REMARK SMILES IDX 45 55 46 56 57 58 75 59 48 60 35 61 36 62 41 63 37 64 38 65
REMARK SMILES IDX 40 66 42 67 39 68 61 69 62 70 67 71 63 72 64 73 66 74 68 75
REMARK SMILES IDX 65 76 49 77 50 78 55 79 51 80 52 81 54 82 56 83 53 84
REMARK H PARENT 73 46 47 57
REMARK Flexibility Score: inf
ROOT
ATOM      1  O   UNL A   1      39.409  21.798  25.593  1.00  0.00    -0.376 OA
ENDROOT
BRANCH   1   2
ATOM      2  C   UNL A   1      38.024  21.517  25.417  1.00  0.00     0.202 C 
BRANCH   2   3
ATOM      3  C   UNL A   1      36.982  22.600  25.733  1.00  0.00     0.261 C 
BRANCH   3   4
ATOM      4  O   UNL A   1      36.084  22.880  24.647  1.00  0.00    -0.460 OA
BRANCH   4   5
ATOM      5  C   UNL A   1      34.789  23.078  24.987  1.00  0.00     0.339 C 
ATOM      6  O   UNL A   1      34.152  22.458  25.824  1.00  0.00    -0.246 OA
BRANCH   5   7
ATOM      7  C   UNL A   1      34.247  24.273  24.310  1.00  0.00     0.080 A 
ATOM      8  C   UNL A   1      33.259  26.629  23.272  1.00  0.00     0.147 A 
ATOM      9  N   UNL A   1      33.849  26.645  24.494  1.00  0.00    -0.237 NA
ATOM     10  C   UNL A   1      33.282  25.481  22.467  1.00  0.00     0.084 A 
ATOM     11  C   UNL A   1      34.342  25.483  24.976  1.00  0.00     0.129 A 
ATOM     12  C   UNL A   1      33.712  24.276  23.022  1.00  0.00     0.041 A 
ATOM     13  Cl  UNL A   1      32.733  25.495  20.827  1.00  0.00    -0.080 Cl
BRANCH   8  14
ATOM     14  N   UNL A   1      32.442  27.722  22.943  1.00  0.00    -0.358 N 
ATOM     15  C   UNL A   1      33.206  28.956  22.777  1.00  0.00     0.145 C 
BRANCH  14  16
ATOM     16  C   UNL A   1      31.270  27.807  23.837  1.00  0.00     0.118 C 
BRANCH  16  17
ATOM     17  C   UNL A   1      30.757  29.241  24.062  1.00  0.00     0.021 C 
BRANCH  17  18
ATOM     18  C   UNL A   1      29.583  29.766  23.219  1.00  0.00     0.002 C 
BRANCH  18  19
ATOM     19  C   UNL A   1      29.028  31.142  23.583  1.00  0.00    -0.003 C 
ATOM     20  C   UNL A   1      27.516  31.127  23.719  1.00  0.00     0.004 C 
ENDBRANCH  18  19
ENDBRANCH  17  18
ENDBRANCH  16  17
ENDBRANCH  14  16
ENDBRANCH   8  14
ENDBRANCH   5   7
ENDBRANCH   4   5
ENDBRANCH   3   4
ENDBRANCH   2   3
ENDBRANCH   1   2
BRANCH   1  21
ATOM     21  C   UNL A   1      39.973  21.799  26.899  1.00  0.00     0.188 C 
BRANCH  21  22
ATOM     22  C   UNL A   1      41.227  20.953  27.193  1.00  0.00     0.188 C 
BRANCH  22  23
ATOM     23  O   UNL A   1      42.414  21.688  27.336  1.00  0.00    -0.376 OA
BRANCH  23  24
ATOM     24  C   UNL A   1      43.407  21.577  26.329  1.00  0.00     0.202 C 
BRANCH  24  25
ATOM     25  C   UNL A   1      43.376  22.361  24.997  1.00  0.00     0.261 C 
BRANCH  25  26
ATOM     26  O   UNL A   1      42.850  23.695  24.998  1.00  0.00    -0.460 OA
BRANCH  26  27
ATOM     27  C   UNL A   1      43.714  24.697  25.294  1.00  0.00     0.338 C 
ATOM     28  O   UNL A   1      44.750  24.970  24.720  1.00  0.00    -0.246 OA
BRANCH  27  29
ATOM     29  C   UNL A   1      43.084  25.551  26.326  1.00  0.00     0.060 A 
ATOM     30  C   UNL A   1      43.593  26.839  26.553  1.00  0.00     0.016 A 
ATOM     31  C   UNL A   1      42.004  25.077  27.070  1.00  0.00     0.016 A 
ATOM     32  C   UNL A   1      43.032  27.649  27.542  1.00  0.00     0.010 A 
ATOM     33  C   UNL A   1      41.460  25.880  28.077  1.00  0.00     0.010 A 
ATOM     34  C   UNL A   1      41.988  27.158  28.337  1.00  0.00    -0.014 A 
BRANCH  34  35
ATOM     35  C   UNL A   1      41.568  27.892  29.556  1.00  0.00     0.031 A 
ATOM     36  C   UNL A   1      40.375  28.804  29.467  1.00  0.00     0.074 A 
ATOM     37  C   UNL A   1      42.230  27.764  30.719  1.00  0.00     0.049 A 
ATOM     38  N   UNL A   1      39.862  29.599  30.371  1.00  0.00    -0.248 NA
ATOM     39  C   UNL A   1      39.668  28.823  28.176  1.00  0.00     0.031 C 
ATOM     40  C   UNL A   1      43.369  26.881  30.953  1.00  0.00     0.029 A 
ATOM     41  N   UNL A   1      42.037  28.394  31.923  1.00  0.00    -0.354 N 
ATOM     42  C   UNL A   1      38.783  30.221  29.755  1.00  0.00     0.074 A 
ATOM     43  C   UNL A   1      38.735  29.735  28.393  1.00  0.00     0.031 C 
ATOM     44  C   UNL A   1      43.777  27.027  32.225  1.00  0.00     0.029 A 
ATOM     45  C   UNL A   1      42.954  28.042  32.882  1.00  0.00     0.049 A 
ATOM     46  H   UNL A   1      41.309  29.038  32.084  1.00  0.00     0.167 HD
ATOM     47  C   UNL A   1      37.907  31.113  30.277  1.00  0.00     0.037 A 
ATOM     48  C   UNL A   1      43.120  28.503  34.137  1.00  0.00     0.037 A 
ATOM     49  C   UNL A   1      37.963  31.605  31.629  1.00  0.00     0.049 A 
ATOM     50  C   UNL A   1      42.194  29.569  34.666  1.00  0.00     0.074 A 
ATOM     51  C   UNL A   1      37.109  32.493  32.261  1.00  0.00     0.029 A 
ATOM     52  N   UNL A   1      38.939  31.262  32.554  1.00  0.00    -0.354 N 
ATOM     53  N   UNL A   1      41.159  30.130  34.090  1.00  0.00    -0.248 NA
ATOM     54  C   UNL A   1      42.467  30.067  36.022  1.00  0.00     0.031 C 
ATOM     55  C   UNL A   1      37.605  32.734  33.547  1.00  0.00     0.029 A 
ATOM     56  C   UNL A   1      38.730  31.948  33.740  1.00  0.00     0.049 A 
ATOM     57  H   UNL A   1      39.672  30.625  32.392  1.00  0.00     0.167 HD
ATOM     58  C   UNL A   1      40.633  31.015  35.024  1.00  0.00     0.074 A 
ATOM     59  C   UNL A   1      41.463  30.913  36.207  1.00  0.00     0.031 C 
ATOM     60  C   UNL A   1      39.558  31.834  34.915  1.00  0.00     0.037 A 
BRANCH  47  61
ATOM     61  C   UNL A   1      36.843  31.644  29.360  1.00  0.00     0.057 A 
ATOM     62  C   UNL A   1      36.912  32.929  28.803  1.00  0.00     0.134 A 
ATOM     63  C   UNL A   1      35.728  30.861  29.036  1.00  0.00     0.134 A 
ATOM     64  F   UNL A   1      37.945  33.737  29.083  1.00  0.00    -0.206 F 
ATOM     65  C   UNL A   1      35.892  33.428  27.990  1.00  0.00     0.040 A 
ATOM     66  C   UNL A   1      34.718  31.337  28.199  1.00  0.00     0.040 A 
ATOM     67  F   UNL A   1      35.599  29.620  29.530  1.00  0.00    -0.206 F 
ATOM     68  C   UNL A   1      34.793  32.630  27.682  1.00  0.00     0.006 A 
ENDBRANCH  47  61
BRANCH  48  69
ATOM     69  C   UNL A   1      44.203  27.957  34.995  1.00  0.00     0.057 A 
ATOM     70  C   UNL A   1      43.971  26.863  35.836  1.00  0.00     0.134 A 
ATOM     71  C   UNL A   1      45.483  28.523  35.012  1.00  0.00     0.134 A 
ATOM     72  F   UNL A   1      42.756  26.295  35.886  1.00  0.00    -0.206 F 
ATOM     73  C   UNL A   1      44.967  26.358  36.674  1.00  0.00     0.040 A 
ATOM     74  C   UNL A   1      46.497  28.013  35.824  1.00  0.00     0.040 A 
ATOM     75  F   UNL A   1      45.769  29.577  34.233  1.00  0.00    -0.206 F 
ATOM     76  C   UNL A   1      46.238  26.930  36.663  1.00  0.00     0.006 A 
ENDBRANCH  48  69
BRANCH  60  77
ATOM     77  C   UNL A   1      39.182  32.651  36.119  1.00  0.00     0.057 A 
ATOM     78  C   UNL A   1      38.333  32.159  37.119  1.00  0.00     0.134 A 
ATOM     79  C   UNL A   1      39.710  33.936  36.300  1.00  0.00     0.134 A 
ATOM     80  F   UNL A   1      37.781  30.942  37.005  1.00  0.00    -0.206 F 
ATOM     81  C   UNL A   1      38.006  32.925  38.241  1.00  0.00     0.040 A 
ATOM     82  C   UNL A   1      39.415  34.698  37.431  1.00  0.00     0.040 A 
ATOM     83  F   UNL A   1      40.539  34.467  35.387  1.00  0.00    -0.206 F 
ATOM     84  C   UNL A   1      38.554  34.196  38.402  1.00  0.00     0.006 A 
ENDBRANCH  60  77
ENDBRANCH  34  35
ENDBRANCH  27  29
ENDBRANCH  26  27
ENDBRANCH  25  26
ENDBRANCH  24  25
ENDBRANCH  23  24
ENDBRANCH  22  23
ENDBRANCH  21  22
ENDBRANCH   1  21
TORSDOF 22
ENDMDL
MODEL 3
REMARK VINA RESULT:      -9.1      4.036      8.068
REMARK SMILES CCCCCN(C)c1ncc(C(=O)OCCOCCOCCOC(=O)c2ccc(-c3c4nc(c(-c5c(F)cccc5F)c5ccc([nH]5)c(-c5c(F)cccc5F)c5nc(c(-c6c(F)cccc6F)c6ccc3[nH]6)C=C5)C=C4)cc2)cc1Cl
REMARK SMILES IDX 17 1 16 2 15 3 14 4 12 5 13 6 11 7 8 8 9 9 81 10 10 11 80 12
REMARK SMILES IDX 82 13 6 14 7 15 5 16 4 17 3 18 2 19 1 20 18 21 19 22 20 23
REMARK SMILES IDX 21 24 22 25 23 26 24 27 25 28 26 29 27 30 79 31 28 32 78 33
REMARK SMILES IDX 29 34 30 35 31 36 72 37 32 38 77 39 71 40 73 41 33 42 76 43
REMARK SMILES IDX 70 44 69 45 34 47 60 48 43 49 59 50 44 51 47 52 58 53 74 54
REMARK SMILES IDX 45 55 46 56 57 58 75 59 48 60 35 61 36 62 41 63 37 64 38 65
REMARK SMILES IDX 40 66 42 67 39 68 61 69 62 70 67 71 63 72 64 73 66 74 68 75
REMARK SMILES IDX 65 76 49 77 50 78 55 79 51 80 52 81 54 82 56 83 53 84
REMARK H PARENT 73 46 47 57
REMARK Flexibility Score: inf
ROOT
ATOM      1  O   UNL A   1      36.756  23.553  24.647  1.00  0.00    -0.376 OA
ENDROOT
BRANCH   1   2
ATOM      2  C   UNL A   1      36.156  22.557  23.825  1.00  0.00     0.202 C 
BRANCH   2   3
ATOM      3  C   UNL A   1      35.127  21.590  24.428  1.00  0.00     0.261 C 
BRANCH   3   4
ATOM      4  O   UNL A   1      33.961  22.238  24.962  1.00  0.00    -0.460 OA
BRANCH   4   5
ATOM      5  C   UNL A   1      33.193  22.901  24.066  1.00  0.00     0.339 C 
ATOM      6  O   UNL A   1      32.478  22.406  23.210  1.00  0.00    -0.246 OA
BRANCH   5   7
ATOM      7  C   UNL A   1      33.202  24.352  24.343  1.00  0.00     0.080 A 
ATOM      8  C   UNL A   1      33.132  27.003  25.098  1.00  0.00     0.147 A 
ATOM      9  N   UNL A   1      32.990  26.045  26.048  1.00  0.00    -0.237 NA
ATOM     10  C   UNL A   1      33.467  26.674  23.777  1.00  0.00     0.084 A 
ATOM     11  C   UNL A   1      33.045  24.752  25.660  1.00  0.00     0.129 A 
ATOM     12  C   UNL A   1      33.427  25.338  23.382  1.00  0.00     0.041 A 
ATOM     13  Cl  UNL A   1      33.866  27.879  22.601  1.00  0.00    -0.080 Cl
BRANCH   8  14
ATOM     14  N   UNL A   1      32.716  28.301  25.433  1.00  0.00    -0.358 N 
ATOM     15  C   UNL A   1      33.119  28.683  26.783  1.00  0.00     0.145 C 
BRANCH  14  16
ATOM     16  C   UNL A   1      31.292  28.512  25.103  1.00  0.00     0.118 C 
BRANCH  16  17
ATOM     17  C   UNL A   1      31.042  29.678  24.128  1.00  0.00     0.021 C 
BRANCH  17  18
ATOM     18  C   UNL A   1      29.614  29.953  23.629  1.00  0.00     0.002 C 
BRANCH  18  19
ATOM     19  C   UNL A   1      29.073  31.369  23.817  1.00  0.00    -0.003 C 
ATOM     20  C   UNL A   1      27.605  31.471  23.441  1.00  0.00     0.004 C 
ENDBRANCH  18  19
ENDBRANCH  17  18
ENDBRANCH  16  17
ENDBRANCH  14  16
ENDBRANCH   8  14
ENDBRANCH   5   7
ENDBRANCH   4   5
ENDBRANCH   3   4
ENDBRANCH   2   3
ENDBRANCH   1   2
BRANCH   1  21
ATOM     21  C   UNL A   1      37.180  23.224  25.964  1.00  0.00     0.188 C 
BRANCH  21  22
ATOM     22  C   UNL A   1      38.663  23.379  26.352  1.00  0.00     0.188 C 
BRANCH  22  23
ATOM     23  O   UNL A   1      39.331  22.174  26.625  1.00  0.00    -0.376 OA
BRANCH  23  24
ATOM     24  C   UNL A   1      39.053  21.045  25.812  1.00  0.00     0.202 C 
BRANCH  24  25
ATOM     25  C   UNL A   1      39.599  19.627  26.089  1.00  0.00     0.261 C 
BRANCH  25  26
ATOM     26  O   UNL A   1      40.823  19.227  25.458  1.00  0.00    -0.460 OA
BRANCH  26  27
ATOM     27  C   UNL A   1      41.943  19.246  26.222  1.00  0.00     0.338 C 
ATOM     28  O   UNL A   1      42.694  18.319  26.452  1.00  0.00    -0.246 OA
BRANCH  27  29
ATOM     29  C   UNL A   1      42.228  20.655  26.578  1.00  0.00     0.060 A 
ATOM     30  C   UNL A   1      42.460  21.586  25.554  1.00  0.00     0.016 A 
ATOM     31  C   UNL A   1      42.274  21.048  27.915  1.00  0.00     0.016 A 
ATOM     32  C   UNL A   1      42.759  22.914  25.870  1.00  0.00     0.010 A 
ATOM     33  C   UNL A   1      42.598  22.372  28.230  1.00  0.00     0.010 A 
ATOM     34  C   UNL A   1      42.870  23.304  27.211  1.00  0.00    -0.014 A 
BRANCH  34  35
ATOM     35  C   UNL A   1      43.446  24.625  27.559  1.00  0.00     0.031 A 
ATOM     36  C   UNL A   1      42.515  25.719  28.005  1.00  0.00     0.074 A 
ATOM     37  C   UNL A   1      44.767  24.861  27.478  1.00  0.00     0.049 A 
ATOM     38  N   UNL A   1      42.771  26.969  28.293  1.00  0.00    -0.248 NA
ATOM     39  C   UNL A   1      41.097  25.347  28.138  1.00  0.00     0.031 C 
ATOM     40  C   UNL A   1      45.782  23.879  27.107  1.00  0.00     0.029 A 
ATOM     41  N   UNL A   1      45.477  26.015  27.695  1.00  0.00    -0.354 N 
ATOM     42  C   UNL A   1      41.547  27.536  28.628  1.00  0.00     0.074 A 
ATOM     43  C   UNL A   1      40.546  26.502  28.476  1.00  0.00     0.031 C 
ATOM     44  C   UNL A   1      46.988  24.474  27.120  1.00  0.00     0.029 A 
ATOM     45  C   UNL A   1      46.824  25.886  27.461  1.00  0.00     0.049 A 
ATOM     46  H   UNL A   1      45.060  26.857  27.992  1.00  0.00     0.167 HD
ATOM     47  C   UNL A   1      41.281  28.801  29.031  1.00  0.00     0.037 A 
ATOM     48  C   UNL A   1      47.805  26.810  27.498  1.00  0.00     0.037 A 
ATOM     49  C   UNL A   1      42.276  29.832  29.170  1.00  0.00     0.049 A 
ATOM     50  C   UNL A   1      47.470  28.236  27.852  1.00  0.00     0.074 A 
ATOM     51  C   UNL A   1      42.111  31.140  29.593  1.00  0.00     0.029 A 
ATOM     52  N   UNL A   1      43.622  29.675  28.873  1.00  0.00    -0.354 N 
ATOM     53  N   UNL A   1      46.318  28.758  28.196  1.00  0.00    -0.248 NA
ATOM     54  C   UNL A   1      48.578  29.202  27.818  1.00  0.00     0.031 C 
ATOM     55  C   UNL A   1      43.346  31.791  29.492  1.00  0.00     0.029 A 
ATOM     56  C   UNL A   1      44.294  30.872  29.068  1.00  0.00     0.049 A 
ATOM     57  H   UNL A   1      44.039  28.836  28.569  1.00  0.00     0.167 HD
ATOM     58  C   UNL A   1      46.568  30.101  28.458  1.00  0.00     0.074 A 
ATOM     59  C   UNL A   1      47.984  30.311  28.236  1.00  0.00     0.031 C 
ATOM     60  C   UNL A   1      45.705  31.069  28.852  1.00  0.00     0.037 A 
BRANCH  47  61
ATOM     61  C   UNL A   1      39.844  29.145  29.303  1.00  0.00     0.057 A 
ATOM     62  C   UNL A   1      39.309  29.140  30.598  1.00  0.00     0.134 A 
ATOM     63  C   UNL A   1      38.980  29.477  28.251  1.00  0.00     0.134 A 
ATOM     64  F   UNL A   1      40.076  28.817  31.650  1.00  0.00    -0.206 F 
ATOM     65  C   UNL A   1      37.960  29.415  30.833  1.00  0.00     0.040 A 
ATOM     66  C   UNL A   1      37.638  29.784  28.476  1.00  0.00     0.040 A 
ATOM     67  F   UNL A   1      39.426  29.506  26.986  1.00  0.00    -0.206 F 
ATOM     68  C   UNL A   1      37.121  29.742  29.770  1.00  0.00     0.006 A 
ENDBRANCH  47  61
BRANCH  48  69
ATOM     69  C   UNL A   1      49.207  26.419  27.199  1.00  0.00     0.057 A 
ATOM     70  C   UNL A   1      50.111  26.142  28.231  1.00  0.00     0.134 A 
ATOM     71  C   UNL A   1      49.683  26.335  25.885  1.00  0.00     0.134 A 
ATOM     72  F   UNL A   1      49.723  26.234  29.512  1.00  0.00    -0.206 F 
ATOM     73  C   UNL A   1      51.441  25.807  27.969  1.00  0.00     0.040 A 
ATOM     74  C   UNL A   1      51.002  25.975  25.608  1.00  0.00     0.040 A 
ATOM     75  F   UNL A   1      48.868  26.593  24.851  1.00  0.00    -0.206 F 
ATOM     76  C   UNL A   1      51.888  25.715  26.653  1.00  0.00     0.006 A 
ENDBRANCH  48  69
BRANCH  60  77
ATOM     77  C   UNL A   1      46.270  32.437  29.118  1.00  0.00     0.057 A 
ATOM     78  C   UNL A   1      46.753  32.812  30.379  1.00  0.00     0.134 A 
ATOM     79  C   UNL A   1      46.369  33.378  28.085  1.00  0.00     0.134 A 
ATOM     80  F   UNL A   1      46.678  31.965  31.416  1.00  0.00    -0.206 F 
ATOM     81  C   UNL A   1      47.290  34.082  30.606  1.00  0.00     0.040 A 
ATOM     82  C   UNL A   1      46.932  34.638  28.292  1.00  0.00     0.040 A 
ATOM     83  F   UNL A   1      45.936  33.082  26.849  1.00  0.00    -0.206 F 
ATOM     84  C   UNL A   1      47.387  34.996  29.558  1.00  0.00     0.006 A 
ENDBRANCH  60  77
ENDBRANCH  34  35
ENDBRANCH  27  29
ENDBRANCH  26  27
ENDBRANCH  25  26
ENDBRANCH  24  25
ENDBRANCH  23  24
ENDBRANCH  22  23
ENDBRANCH  21  22
ENDBRANCH   1  21
TORSDOF 22
ENDMDL
