MODEL 1
REMARK VINA RESULT:     -10.1      0.000      0.000
REMARK SMILES CC[C@@H](C)[C@H](NC(=O)/C=C/c1ccnn1C)C(=O)OCCOCCOCCOC(=O)c1ccc(-c2c3nc(c(-c4c(F)cccc4F)c4ccc([nH]4)c(-c4c(F)cccc4F)c4nc(c(-c5c(F)cccc5F)c5ccc2[nH]5)C=C4)C=C3)cc1
REMARK SMILES IDX 23 1 22 2 21 3 20 4 19 5 17 6 18 7 5 8 3 9 4 10 2 11 1 12
REMARK SMILES IDX 6 13 7 14 8 16 9 17 10 18 11 19 12 20 15 21 13 22 14 23
REMARK SMILES IDX 16 24 24 25 25 26 26 27 27 28 28 29 29 30 30 31 31 32 32 33
REMARK SMILES IDX 84 34 33 35 83 36 34 37 35 38 36 39 77 40 37 41 82 42 76 43
REMARK SMILES IDX 78 44 38 45 81 46 75 47 74 48 39 50 65 51 48 52 64 53 49 54
REMARK SMILES IDX 52 55 63 56 79 57 50 58 51 59 62 61 80 62 53 63 40 64 41 65
REMARK SMILES IDX 46 66 42 67 43 68 45 69 47 70 44 71 66 72 67 73 72 74 68 75
REMARK SMILES IDX 69 76 71 77 73 78 70 79 54 80 55 81 60 82 56 83 57 84 59 85
REMARK SMILES IDX 61 86 58 87
REMARK H PARENT 6 15 78 49 52 60
REMARK Flexibility Score: inf
ROOT
ATOM      1  C   UNL A   1      39.535  21.252  26.222  1.00  0.00     0.188 C 
ENDROOT
BRANCH   1   2
ATOM      2  O   UNL A   1      39.623  22.618  26.588  1.00  0.00    -0.376 OA
BRANCH   2   3
ATOM      3  C   UNL A   1      38.497  23.437  26.321  1.00  0.00     0.202 C 
BRANCH   3   4
ATOM      4  C   UNL A   1      37.453  22.896  25.334  1.00  0.00     0.261 C 
BRANCH   4   5
ATOM      5  O   UNL A   1      36.463  23.865  24.921  1.00  0.00    -0.462 OA
BRANCH   5   6
ATOM      6  C   UNL A   1      35.664  23.527  23.871  1.00  0.00     0.329 C 
ATOM      7  O   UNL A   1      36.079  23.223  22.757  1.00  0.00    -0.250 OA
BRANCH   6   8
ATOM      8  C   UNL A   1      34.153  23.725  24.150  1.00  0.00     0.195 C 
BRANCH   8   9
ATOM      9  C   UNL A   1      33.769  25.220  23.933  1.00  0.00     0.019 C 
ATOM     10  C   UNL A   1      33.486  25.935  25.264  1.00  0.00     0.010 C 
BRANCH   9  11
ATOM     11  C   UNL A   1      32.559  25.338  22.971  1.00  0.00     0.002 C 
ATOM     12  C   UNL A   1      32.904  25.094  21.511  1.00  0.00     0.004 C 
ENDBRANCH   9  11
ENDBRANCH   8   9
BRANCH   8  13
ATOM     13  N   UNL A   1      33.579  23.273  25.419  1.00  0.00    -0.339 N 
ATOM     14  C   UNL A   1      32.623  22.314  25.565  1.00  0.00     0.244 C 
ATOM     15  H   UNL A   1      33.915  23.698  26.241  1.00  0.00     0.164 HD
ATOM     16  O   UNL A   1      31.778  22.386  26.450  1.00  0.00    -0.270 OA
BRANCH  14  17
ATOM     17  C   UNL A   1      32.875  21.029  24.901  1.00  0.00     0.073 C 
ATOM     18  C   UNL A   1      32.971  19.757  25.302  1.00  0.00     0.033 C 
BRANCH  18  19
ATOM     19  C   UNL A   1      33.057  18.669  24.336  1.00  0.00     0.061 A 
ATOM     20  C   UNL A   1      32.200  18.706  23.243  1.00  0.00     0.050 A 
ATOM     21  N   UNL A   1      33.953  17.280  24.227  1.00  0.00    -0.269 N 
ATOM     22  C   UNL A   1      32.534  17.701  22.377  1.00  0.00     0.136 A 
ATOM     23  N   UNL A   1      33.585  17.014  22.747  1.00  0.00    -0.181 NA
ATOM     24  C   UNL A   1      35.230  16.169  25.370  1.00  0.00     0.174 C 
ENDBRANCH  18  19
ENDBRANCH  14  17
ENDBRANCH   8  13
ENDBRANCH   6   8
ENDBRANCH   5   6
ENDBRANCH   4   5
ENDBRANCH   3   4
ENDBRANCH   2   3
ENDBRANCH   1   2
BRANCH   1  25
ATOM     25  C   UNL A   1      40.825  20.417  26.135  1.00  0.00     0.188 C 
BRANCH  25  26
ATOM     26  O   UNL A   1      42.084  21.020  26.224  1.00  0.00    -0.376 OA
BRANCH  26  27
ATOM     27  C   UNL A   1      43.187  20.395  25.611  1.00  0.00     0.202 C 
BRANCH  27  28
ATOM     28  C   UNL A   1      44.533  21.081  25.288  1.00  0.00     0.261 C 
BRANCH  28  29
ATOM     29  O   UNL A   1      44.916  22.285  25.962  1.00  0.00    -0.460 OA
BRANCH  29  30
ATOM     30  C   UNL A   1      44.738  23.454  25.305  1.00  0.00     0.338 C 
ATOM     31  O   UNL A   1      44.952  23.706  24.135  1.00  0.00    -0.246 OA
BRANCH  30  32
ATOM     32  C   UNL A   1      44.117  24.392  26.248  1.00  0.00     0.060 A 
ATOM     33  C   UNL A   1      44.890  26.013  26.662  1.00  0.00     0.016 A 
ATOM     34  C   UNL A   1      42.636  23.858  27.149  1.00  0.00     0.016 A 
ATOM     35  C   UNL A   1      44.044  27.178  27.800  1.00  0.00     0.010 A 
ATOM     36  C   UNL A   1      41.841  24.988  28.376  1.00  0.00     0.010 A 
ATOM     37  C   UNL A   1      42.516  26.649  28.652  1.00  0.00    -0.014 A 
BRANCH  37  38
ATOM     38  C   UNL A   1      41.996  27.477  29.758  1.00  0.00     0.031 A 
ATOM     39  C   UNL A   1      42.662  27.419  31.102  1.00  0.00     0.074 A 
ATOM     40  C   UNL A   1      40.994  28.336  29.511  1.00  0.00     0.049 A 
ATOM     41  N   UNL A   1      42.500  28.204  32.136  1.00  0.00    -0.248 NA
ATOM     42  C   UNL A   1      43.699  26.397  31.302  1.00  0.00     0.031 C 
ATOM     43  C   UNL A   1      40.337  28.505  28.220  1.00  0.00     0.029 A 
ATOM     44  N   UNL A   1      40.345  29.223  30.327  1.00  0.00    -0.354 N 
ATOM     45  C   UNL A   1      43.466  27.817  33.057  1.00  0.00     0.074 A 
ATOM     46  C   UNL A   1      44.209  26.729  32.476  1.00  0.00     0.031 C 
ATOM     47  C   UNL A   1      39.355  29.412  28.330  1.00  0.00     0.029 A 
ATOM     48  C   UNL A   1      39.304  29.874  29.709  1.00  0.00     0.049 A 
ATOM     49  H   UNL A   1      40.600  29.380  31.266  1.00  0.00     0.167 HD
ATOM     50  C   UNL A   1      43.689  28.302  34.297  1.00  0.00     0.037 A 
ATOM     51  C   UNL A   1      38.398  30.728  30.218  1.00  0.00     0.037 A 
ATOM     52  C   UNL A   1      42.812  29.248  34.924  1.00  0.00     0.049 A 
ATOM     53  C   UNL A   1      38.549  31.117  31.660  1.00  0.00     0.074 A 
ATOM     54  C   UNL A   1      42.834  29.723  36.220  1.00  0.00     0.029 A 
ATOM     55  N   UNL A   1      41.707  29.814  34.300  1.00  0.00    -0.354 N 
ATOM     56  N   UNL A   1      39.475  30.753  32.517  1.00  0.00    -0.248 NA
ATOM     57  C   UNL A   1      37.548  32.037  32.208  1.00  0.00     0.031 C 
ATOM     58  C   UNL A   1      41.698  30.518  36.400  1.00  0.00     0.029 A 
ATOM     59  C   UNL A   1      41.018  30.609  35.194  1.00  0.00     0.049 A 
ATOM     60  H   UNL A   1      41.453  29.668  33.360  1.00  0.00     0.167 HD
ATOM     61  C   UNL A   1      39.185  31.415  33.700  1.00  0.00     0.074 A 
ATOM     62  C   UNL A   1      38.002  32.215  33.441  1.00  0.00     0.031 C 
ATOM     63  C   UNL A   1      39.835  31.376  34.890  1.00  0.00     0.037 A 
BRANCH  50  64
ATOM     64  C   UNL A   1      44.847  27.729  35.060  1.00  0.00     0.057 A 
ATOM     65  C   UNL A   1      46.121  28.315  35.021  1.00  0.00     0.134 A 
ATOM     66  C   UNL A   1      44.700  26.558  35.814  1.00  0.00     0.134 A 
ATOM     67  F   UNL A   1      46.341  29.415  34.286  1.00  0.00    -0.206 F 
ATOM     68  C   UNL A   1      47.206  27.752  35.696  1.00  0.00     0.040 A 
ATOM     69  C   UNL A   1      45.773  25.998  36.510  1.00  0.00     0.040 A 
ATOM     70  F   UNL A   1      43.517  25.932  35.875  1.00  0.00    -0.206 F 
ATOM     71  C   UNL A   1      47.032  26.592  36.450  1.00  0.00     0.006 A 
ENDBRANCH  50  64
BRANCH  51  72
ATOM     72  C   UNL A   1      37.286  31.234  29.370  1.00  0.00     0.057 A 
ATOM     73  C   UNL A   1      37.310  32.511  28.802  1.00  0.00     0.134 A 
ATOM     74  C   UNL A   1      36.170  30.431  29.090  1.00  0.00     0.134 A 
ATOM     75  F   UNL A   1      38.340  33.337  29.040  1.00  0.00    -0.206 F 
ATOM     76  C   UNL A   1      36.266  32.976  27.997  1.00  0.00     0.040 A 
ATOM     77  C   UNL A   1      35.132  30.872  28.266  1.00  0.00     0.040 A 
ATOM     78  F   UNL A   1      36.082  29.192  29.596  1.00  0.00    -0.206 F 
ATOM     79  C   UNL A   1      35.176  32.153  27.721  1.00  0.00     0.006 A 
ENDBRANCH  51  72
BRANCH  63  80
ATOM     80  C   UNL A   1      39.296  32.245  35.984  1.00  0.00     0.057 A 
ATOM     81  C   UNL A   1      39.743  33.557  36.175  1.00  0.00     0.134 A 
ATOM     82  C   UNL A   1      38.266  31.777  36.808  1.00  0.00     0.134 A 
ATOM     83  F   UNL A   1      40.733  34.058  35.419  1.00  0.00    -0.206 F 
ATOM     84  C   UNL A   1      39.200  34.367  37.172  1.00  0.00     0.040 A 
ATOM     85  C   UNL A   1      37.691  32.590  37.782  1.00  0.00     0.040 A 
ATOM     86  F   UNL A   1      37.785  30.534  36.660  1.00  0.00    -0.206 F 
ATOM     87  C   UNL A   1      38.164  33.886  37.971  1.00  0.00     0.006 A 
ENDBRANCH  63  80
ENDBRANCH  37  38
ENDBRANCH  30  32
ENDBRANCH  29  30
ENDBRANCH  28  29
ENDBRANCH  27  28
ENDBRANCH  26  27
ENDBRANCH  25  26
ENDBRANCH   1  25
TORSDOF 22
ENDMDL
MODEL 2
REMARK VINA RESULT:      -9.5      1.735      7.276
REMARK SMILES CC[C@@H](C)[C@H](NC(=O)/C=C/c1ccnn1C)C(=O)OCCOCCOCCOC(=O)c1ccc(-c2c3nc(c(-c4c(F)cccc4F)c4ccc([nH]4)c(-c4c(F)cccc4F)c4nc(c(-c5c(F)cccc5F)c5ccc2[nH]5)C=C4)C=C3)cc1
REMARK SMILES IDX 23 1 22 2 21 3 20 4 19 5 17 6 18 7 5 8 3 9 4 10 2 11 1 12
REMARK SMILES IDX 6 13 7 14 8 16 9 17 10 18 11 19 12 20 15 21 13 22 14 23
REMARK SMILES IDX 16 24 24 25 25 26 26 27 27 28 28 29 29 30 30 31 31 32 32 33
REMARK SMILES IDX 84 34 33 35 83 36 34 37 35 38 36 39 77 40 37 41 82 42 76 43
REMARK SMILES IDX 78 44 38 45 81 46 75 47 74 48 39 50 65 51 48 52 64 53 49 54
REMARK SMILES IDX 52 55 63 56 79 57 50 58 51 59 62 61 80 62 53 63 40 64 41 65
REMARK SMILES IDX 46 66 42 67 43 68 45 69 47 70 44 71 66 72 67 73 72 74 68 75
REMARK SMILES IDX 69 76 71 77 73 78 70 79 54 80 55 81 60 82 56 83 57 84 59 85
REMARK SMILES IDX 61 86 58 87
REMARK H PARENT 6 15 78 49 52 60
REMARK Flexibility Score: inf
ROOT
ATOM      1  C   UNL A   1      39.223  22.056  26.155  1.00  0.00     0.188 C 
ENDROOT
BRANCH   1   2
ATOM      2  O   UNL A   1      38.689  21.099  25.257  1.00  0.00    -0.376 OA
BRANCH   2   3
ATOM      3  C   UNL A   1      37.305  21.179  24.967  1.00  0.00     0.202 C 
BRANCH   3   4
ATOM      4  C   UNL A   1      36.517  22.327  25.613  1.00  0.00     0.261 C 
BRANCH   4   5
ATOM      5  O   UNL A   1      35.099  22.077  25.748  1.00  0.00    -0.462 OA
BRANCH   5   6
ATOM      6  C   UNL A   1      34.275  23.162  25.749  1.00  0.00     0.329 C 
ATOM      7  O   UNL A   1      34.039  23.849  26.737  1.00  0.00    -0.250 OA
BRANCH   6   8
ATOM      8  C   UNL A   1      33.510  23.363  24.416  1.00  0.00     0.195 C 
BRANCH   8   9
ATOM      9  C   UNL A   1      33.136  21.977  23.810  1.00  0.00     0.019 C 
ATOM     10  C   UNL A   1      32.525  22.116  22.406  1.00  0.00     0.010 C 
BRANCH   9  11
ATOM     11  C   UNL A   1      32.181  21.206  24.758  1.00  0.00     0.002 C 
ATOM     12  C   UNL A   1      32.593  19.766  25.011  1.00  0.00     0.004 C 
ENDBRANCH   9  11
ENDBRANCH   8   9
BRANCH   8  13
ATOM     13  N   UNL A   1      34.089  24.197  23.361  1.00  0.00    -0.339 N 
ATOM     14  C   UNL A   1      33.507  25.293  22.802  1.00  0.00     0.244 C 
ATOM     15  H   UNL A   1      34.979  23.943  23.026  1.00  0.00     0.164 HD
ATOM     16  O   UNL A   1      33.673  25.571  21.620  1.00  0.00    -0.270 OA
BRANCH  14  17
ATOM     17  C   UNL A   1      33.018  26.321  23.729  1.00  0.00     0.073 C 
ATOM     18  C   UNL A   1      33.575  27.332  24.405  1.00  0.00     0.033 C 
BRANCH  18  19
ATOM     19  C   UNL A   1      32.753  28.299  25.122  1.00  0.00     0.061 A 
ATOM     20  C   UNL A   1      33.047  28.531  26.460  1.00  0.00     0.050 A 
ATOM     21  N   UNL A   1      31.439  29.226  24.727  1.00  0.00    -0.269 N 
ATOM     22  C   UNL A   1      32.284  29.572  26.913  1.00  0.00     0.136 A 
ATOM     23  N   UNL A   1      31.535  30.119  25.988  1.00  0.00    -0.181 NA
ATOM     24  C   UNL A   1      30.095  29.436  23.203  1.00  0.00     0.174 C 
ENDBRANCH  18  19
ENDBRANCH  14  17
ENDBRANCH   8  13
ENDBRANCH   6   8
ENDBRANCH   5   6
ENDBRANCH   4   5
ENDBRANCH   3   4
ENDBRANCH   2   3
ENDBRANCH   1   2
BRANCH   1  25
ATOM     25  C   UNL A   1      40.631  21.834  26.737  1.00  0.00     0.188 C 
BRANCH  25  26
ATOM     26  O   UNL A   1      41.582  21.069  26.054  1.00  0.00    -0.376 OA
BRANCH  26  27
ATOM     27  C   UNL A   1      42.831  21.642  25.749  1.00  0.00     0.202 C 
BRANCH  27  28
ATOM     28  C   UNL A   1      43.039  22.976  24.998  1.00  0.00     0.261 C 
BRANCH  28  29
ATOM     29  O   UNL A   1      44.303  23.649  25.047  1.00  0.00    -0.460 OA
BRANCH  29  30
ATOM     30  C   UNL A   1      44.986  23.612  26.215  1.00  0.00     0.338 C 
ATOM     31  O   UNL A   1      45.972  22.961  26.495  1.00  0.00    -0.246 OA
BRANCH  30  32
ATOM     32  C   UNL A   1      44.379  24.610  27.104  1.00  0.00     0.060 A 
ATOM     33  C   UNL A   1      45.001  26.342  27.196  1.00  0.00     0.016 A 
ATOM     34  C   UNL A   1      43.091  24.067  28.261  1.00  0.00     0.016 A 
ATOM     35  C   UNL A   1      44.170  27.569  28.278  1.00  0.00     0.010 A 
ATOM     36  C   UNL A   1      42.325  25.276  29.429  1.00  0.00     0.010 A 
ATOM     37  C   UNL A   1      42.829  27.019  29.392  1.00  0.00    -0.014 A 
BRANCH  37  38
ATOM     38  C   UNL A   1      42.354  27.941  30.442  1.00  0.00     0.031 A 
ATOM     39  C   UNL A   1      41.191  28.848  30.161  1.00  0.00     0.074 A 
ATOM     40  C   UNL A   1      42.914  27.880  31.661  1.00  0.00     0.049 A 
ATOM     41  N   UNL A   1      40.493  29.575  30.995  1.00  0.00    -0.248 NA
ATOM     42  C   UNL A   1      40.691  28.902  28.780  1.00  0.00     0.031 C 
ATOM     43  C   UNL A   1      43.999  26.982  32.039  1.00  0.00     0.029 A 
ATOM     44  N   UNL A   1      42.660  28.587  32.806  1.00  0.00    -0.354 N 
ATOM     45  C   UNL A   1      39.439  30.092  30.252  1.00  0.00     0.074 A 
ATOM     46  C   UNL A   1      39.582  29.611  28.903  1.00  0.00     0.031 C 
ATOM     47  C   UNL A   1      44.347  27.207  33.313  1.00  0.00     0.029 A 
ATOM     48  C   UNL A   1      43.518  28.283  33.836  1.00  0.00     0.049 A 
ATOM     49  H   UNL A   1      41.934  29.247  32.883  1.00  0.00     0.167 HD
ATOM     50  C   UNL A   1      38.458  30.929  30.652  1.00  0.00     0.037 A 
ATOM     51  C   UNL A   1      43.629  28.837  35.057  1.00  0.00     0.037 A 
ATOM     52  C   UNL A   1      38.452  31.548  31.946  1.00  0.00     0.049 A 
ATOM     53  C   UNL A   1      42.640  29.907  35.423  1.00  0.00     0.074 A 
ATOM     54  C   UNL A   1      37.603  32.517  32.438  1.00  0.00     0.029 A 
ATOM     55  N   UNL A   1      39.395  31.290  32.933  1.00  0.00    -0.354 N 
ATOM     56  N   UNL A   1      41.640  30.379  34.714  1.00  0.00    -0.248 NA
ATOM     57  C   UNL A   1      42.780  30.515  36.749  1.00  0.00     0.031 C 
ATOM     58  C   UNL A   1      38.079  32.900  33.697  1.00  0.00     0.029 A 
ATOM     59  C   UNL A   1      39.171  32.107  34.023  1.00  0.00     0.049 A 
ATOM     60  H   UNL A   1      40.117  30.624  32.865  1.00  0.00     0.167 HD
ATOM     61  C   UNL A   1      41.016  31.322  35.514  1.00  0.00     0.074 A 
ATOM     62  C   UNL A   1      41.744  31.343  36.769  1.00  0.00     0.031 C 
ATOM     63  C   UNL A   1      39.935  32.098  35.246  1.00  0.00     0.037 A 
BRANCH  50  64
ATOM     64  C   UNL A   1      37.408  31.288  29.641  1.00  0.00     0.057 A 
ATOM     65  C   UNL A   1      37.462  32.487  28.915  1.00  0.00     0.134 A 
ATOM     66  C   UNL A   1      36.311  30.448  29.416  1.00  0.00     0.134 A 
ATOM     67  F   UNL A   1      38.464  33.357  29.111  1.00  0.00    -0.206 F 
ATOM     68  C   UNL A   1      36.459  32.839  28.009  1.00  0.00     0.040 A 
ATOM     69  C   UNL A   1      35.313  30.779  28.497  1.00  0.00     0.040 A 
ATOM     70  F   UNL A   1      36.184  29.299  30.095  1.00  0.00    -0.206 F 
ATOM     71  C   UNL A   1      35.382  31.979  27.793  1.00  0.00     0.006 A 
ENDBRANCH  50  64
BRANCH  51  72
ATOM     72  C   UNL A   1      44.713  28.407  35.980  1.00  0.00     0.057 A 
ATOM     73  C   UNL A   1      44.522  27.394  36.923  1.00  0.00     0.134 A 
ATOM     74  C   UNL A   1      45.985  28.996  35.922  1.00  0.00     0.134 A 
ATOM     75  F   UNL A   1      43.327  26.797  37.043  1.00  0.00    -0.206 F 
ATOM     76  C   UNL A   1      45.549  26.987  37.781  1.00  0.00     0.040 A 
ATOM     77  C   UNL A   1      47.028  28.581  36.754  1.00  0.00     0.040 A 
ATOM     78  F   UNL A   1      46.242  29.970  35.038  1.00  0.00    -0.206 F 
ATOM     79  C   UNL A   1      46.809  27.576  37.693  1.00  0.00     0.006 A 
ENDBRANCH  51  72
BRANCH  63  80
ATOM     80  C   UNL A   1      39.464  33.005  36.341  1.00  0.00     0.057 A 
ATOM     81  C   UNL A   1      38.517  32.595  37.285  1.00  0.00     0.134 A 
ATOM     82  C   UNL A   1      40.026  34.279  36.486  1.00  0.00     0.134 A 
ATOM     83  F   UNL A   1      37.940  31.387  37.194  1.00  0.00    -0.206 F 
ATOM     84  C   UNL A   1      38.122  33.438  38.324  1.00  0.00     0.040 A 
ATOM     85  C   UNL A   1      39.666  35.114  37.541  1.00  0.00     0.040 A 
ATOM     86  F   UNL A   1      40.952  34.719  35.621  1.00  0.00    -0.206 F 
ATOM     87  C   UNL A   1      38.705  34.697  38.459  1.00  0.00     0.006 A 
ENDBRANCH  63  80
ENDBRANCH  37  38
ENDBRANCH  30  32
ENDBRANCH  29  30
ENDBRANCH  28  29
ENDBRANCH  27  28
ENDBRANCH  26  27
ENDBRANCH  25  26
ENDBRANCH   1  25
TORSDOF 22
ENDMDL
MODEL 3
REMARK VINA RESULT:      -9.5      1.327      3.449
REMARK SMILES CC[C@@H](C)[C@H](NC(=O)/C=C/c1ccnn1C)C(=O)OCCOCCOCCOC(=O)c1ccc(-c2c3nc(c(-c4c(F)cccc4F)c4ccc([nH]4)c(-c4c(F)cccc4F)c4nc(c(-c5c(F)cccc5F)c5ccc2[nH]5)C=C4)C=C3)cc1
REMARK SMILES IDX 23 1 22 2 21 3 20 4 19 5 17 6 18 7 5 8 3 9 4 10 2 11 1 12
REMARK SMILES IDX 6 13 7 14 8 16 9 17 10 18 11 19 12 20 15 21 13 22 14 23
REMARK SMILES IDX 16 24 24 25 25 26 26 27 27 28 28 29 29 30 30 31 31 32 32 33
REMARK SMILES IDX 84 34 33 35 83 36 34 37 35 38 36 39 77 40 37 41 82 42 76 43
REMARK SMILES IDX 78 44 38 45 81 46 75 47 74 48 39 50 65 51 48 52 64 53 49 54
REMARK SMILES IDX 52 55 63 56 79 57 50 58 51 59 62 61 80 62 53 63 40 64 41 65
REMARK SMILES IDX 46 66 42 67 43 68 45 69 47 70 44 71 66 72 67 73 72 74 68 75
REMARK SMILES IDX 69 76 71 77 73 78 70 79 54 80 55 81 60 82 56 83 57 84 59 85
REMARK SMILES IDX 61 86 58 87
REMARK H PARENT 6 15 78 49 52 60
REMARK Flexibility Score: inf
ROOT
ATOM      1  C   UNL A   1      39.297  21.384  25.971  1.00  0.00     0.188 C 
ENDROOT
BRANCH   1   2
ATOM      2  O   UNL A   1      39.293  22.598  26.702  1.00  0.00    -0.376 OA
BRANCH   2   3
ATOM      3  C   UNL A   1      38.235  23.506  26.448  1.00  0.00     0.202 C 
BRANCH   3   4
ATOM      4  C   UNL A   1      37.680  23.557  25.018  1.00  0.00     0.261 C 
BRANCH   4   5
ATOM      5  O   UNL A   1      36.278  23.901  24.933  1.00  0.00    -0.462 OA
BRANCH   5   6
ATOM      6  C   UNL A   1      35.555  23.314  23.939  1.00  0.00     0.329 C 
ATOM      7  O   UNL A   1      35.864  23.342  22.751  1.00  0.00    -0.250 OA
BRANCH   6   8
ATOM      8  C   UNL A   1      34.195  22.744  24.413  1.00  0.00     0.195 C 
BRANCH   8   9
ATOM      9  C   UNL A   1      34.433  21.482  25.297  1.00  0.00     0.019 C 
ATOM     10  C   UNL A   1      33.625  20.274  24.794  1.00  0.00     0.010 C 
BRANCH   9  11
ATOM     11  C   UNL A   1      34.109  21.788  26.782  1.00  0.00     0.002 C 
ATOM     12  C   UNL A   1      33.079  22.887  26.977  1.00  0.00     0.004 C 
ENDBRANCH   9  11
ENDBRANCH   8   9
BRANCH   8  13
ATOM     13  N   UNL A   1      33.148  22.441  23.434  1.00  0.00    -0.339 N 
ATOM     14  C   UNL A   1      31.870  22.908  23.464  1.00  0.00     0.244 C 
ATOM     15  H   UNL A   1      33.391  21.848  22.687  1.00  0.00     0.164 HD
ATOM     16  O   UNL A   1      30.932  22.225  23.068  1.00  0.00    -0.270 OA
BRANCH  14  17
ATOM     17  C   UNL A   1      31.704  24.359  23.606  1.00  0.00     0.073 C 
ATOM     18  C   UNL A   1      31.414  25.187  24.615  1.00  0.00     0.033 C 
BRANCH  18  19
ATOM     19  C   UNL A   1      31.502  26.633  24.450  1.00  0.00     0.061 A 
ATOM     20  C   UNL A   1      30.858  27.199  23.358  1.00  0.00     0.050 A 
ATOM     21  N   UNL A   1      32.266  27.851  25.272  1.00  0.00    -0.269 N 
ATOM     22  C   UNL A   1      30.917  28.562  23.459  1.00  0.00     0.136 A 
ATOM     23  N   UNL A   1      31.491  28.985  24.557  1.00  0.00    -0.181 NA
ATOM     24  C   UNL A   1      33.636  28.087  26.768  1.00  0.00     0.174 C 
ENDBRANCH  18  19
ENDBRANCH  14  17
ENDBRANCH   8  13
ENDBRANCH   6   8
ENDBRANCH   5   6
ENDBRANCH   4   5
ENDBRANCH   3   4
ENDBRANCH   2   3
ENDBRANCH   1   2
BRANCH   1  25
ATOM     25  C   UNL A   1      40.511  20.444  26.090  1.00  0.00     0.188 C 
BRANCH  25  26
ATOM     26  O   UNL A   1      41.795  20.947  26.318  1.00  0.00    -0.376 OA
BRANCH  26  27
ATOM     27  C   UNL A   1      42.900  20.286  25.751  1.00  0.00     0.202 C 
BRANCH  27  28
ATOM     28  C   UNL A   1      44.243  20.953  25.377  1.00  0.00     0.261 C 
BRANCH  28  29
ATOM     29  O   UNL A   1      44.610  22.216  25.943  1.00  0.00    -0.460 OA
BRANCH  29  30
ATOM     30  C   UNL A   1      44.317  23.330  25.233  1.00  0.00     0.338 C 
ATOM     31  O   UNL A   1      44.405  23.509  24.034  1.00  0.00    -0.246 OA
BRANCH  30  32
ATOM     32  C   UNL A   1      43.750  24.306  26.171  1.00  0.00     0.060 A 
ATOM     33  C   UNL A   1      44.644  25.851  26.630  1.00  0.00     0.016 A 
ATOM     34  C   UNL A   1      42.202  23.889  27.021  1.00  0.00     0.016 A 
ATOM     35  C   UNL A   1      43.866  27.070  27.759  1.00  0.00     0.010 A 
ATOM     36  C   UNL A   1      41.468  25.068  28.240  1.00  0.00     0.010 A 
ATOM     37  C   UNL A   1      42.273  26.663  28.558  1.00  0.00    -0.014 A 
BRANCH  37  38
ATOM     38  C   UNL A   1      41.791  27.520  29.660  1.00  0.00     0.031 A 
ATOM     39  C   UNL A   1      42.486  27.474  30.990  1.00  0.00     0.074 A 
ATOM     40  C   UNL A   1      40.799  28.391  29.420  1.00  0.00     0.049 A 
ATOM     41  N   UNL A   1      42.360  28.280  32.013  1.00  0.00    -0.248 NA
ATOM     42  C   UNL A   1      43.510  26.438  31.186  1.00  0.00     0.031 C 
ATOM     43  C   UNL A   1      40.117  28.549  28.140  1.00  0.00     0.029 A 
ATOM     44  N   UNL A   1      40.183  29.304  30.233  1.00  0.00    -0.354 N 
ATOM     45  C   UNL A   1      43.340  27.893  32.919  1.00  0.00     0.074 A 
ATOM     46  C   UNL A   1      44.051  26.783  32.343  1.00  0.00     0.031 C 
ATOM     47  C   UNL A   1      39.153  29.474  28.255  1.00  0.00     0.029 A 
ATOM     48  C   UNL A   1      39.140  29.961  29.626  1.00  0.00     0.049 A 
ATOM     49  H   UNL A   1      40.462  29.473  31.163  1.00  0.00     0.167 HD
ATOM     50  C   UNL A   1      43.598  28.397  34.145  1.00  0.00     0.037 A 
ATOM     51  C   UNL A   1      38.260  30.840  30.138  1.00  0.00     0.037 A 
ATOM     52  C   UNL A   1      42.751  29.368  34.774  1.00  0.00     0.049 A 
ATOM     53  C   UNL A   1      38.449  31.252  31.570  1.00  0.00     0.074 A 
ATOM     54  C   UNL A   1      42.810  29.865  36.060  1.00  0.00     0.029 A 
ATOM     55  N   UNL A   1      41.642  29.941  34.164  1.00  0.00    -0.354 N 
ATOM     56  N   UNL A   1      39.388  30.887  32.414  1.00  0.00    -0.248 NA
ATOM     57  C   UNL A   1      37.476  32.199  32.123  1.00  0.00     0.031 C 
ATOM     58  C   UNL A   1      41.691  30.683  36.251  1.00  0.00     0.029 A 
ATOM     59  C   UNL A   1      40.986  30.764  35.058  1.00  0.00     0.049 A 
ATOM     60  H   UNL A   1      41.366  29.784  33.232  1.00  0.00     0.167 HD
ATOM     61  C   UNL A   1      39.135  31.575  33.590  1.00  0.00     0.074 A 
ATOM     62  C   UNL A   1      37.960  32.391  33.342  1.00  0.00     0.031 C 
ATOM     63  C   UNL A   1      39.810  31.546  34.766  1.00  0.00     0.037 A 
BRANCH  50  64
ATOM     64  C   UNL A   1      44.763  27.816  34.894  1.00  0.00     0.057 A 
ATOM     65  C   UNL A   1      44.628  26.675  35.699  1.00  0.00     0.134 A 
ATOM     66  C   UNL A   1      46.023  28.422  34.842  1.00  0.00     0.134 A 
ATOM     67  F   UNL A   1      43.438  26.068  35.825  1.00  0.00    -0.206 F 
ATOM     68  C   UNL A   1      45.704  26.165  36.429  1.00  0.00     0.040 A 
ATOM     69  C   UNL A   1      47.111  27.909  35.552  1.00  0.00     0.040 A 
ATOM     70  F   UNL A   1      46.216  29.531  34.113  1.00  0.00    -0.206 F 
ATOM     71  C   UNL A   1      46.953  26.780  36.352  1.00  0.00     0.006 A 
ENDBRANCH  50  64
BRANCH  51  72
ATOM     72  C   UNL A   1      37.138  31.350  29.306  1.00  0.00     0.057 A 
ATOM     73  C   UNL A   1      35.999  30.582  29.049  1.00  0.00     0.134 A 
ATOM     74  C   UNL A   1      37.175  32.641  28.759  1.00  0.00     0.134 A 
ATOM     75  F   UNL A   1      35.903  29.333  29.529  1.00  0.00    -0.206 F 
ATOM     76  C   UNL A   1      34.943  31.071  28.274  1.00  0.00     0.040 A 
ATOM     77  C   UNL A   1      36.116  33.154  28.005  1.00  0.00     0.040 A 
ATOM     78  F   UNL A   1      38.234  33.436  28.969  1.00  0.00    -0.206 F 
ATOM     79  C   UNL A   1      34.997  32.364  27.756  1.00  0.00     0.006 A 
ENDBRANCH  51  72
BRANCH  63  80
ATOM     80  C   UNL A   1      39.311  32.444  35.855  1.00  0.00     0.057 A 
ATOM     81  C   UNL A   1      39.770  33.757  36.001  1.00  0.00     0.134 A 
ATOM     82  C   UNL A   1      38.304  32.001  36.722  1.00  0.00     0.134 A 
ATOM     83  F   UNL A   1      40.738  34.234  35.203  1.00  0.00    -0.206 F 
ATOM     84  C   UNL A   1      39.263  34.593  36.995  1.00  0.00     0.040 A 
ATOM     85  C   UNL A   1      37.765  32.840  37.695  1.00  0.00     0.040 A 
ATOM     86  F   UNL A   1      37.813  30.758  36.619  1.00  0.00    -0.206 F 
ATOM     87  C   UNL A   1      38.250  34.138  37.838  1.00  0.00     0.006 A 
ENDBRANCH  63  80
ENDBRANCH  37  38
ENDBRANCH  30  32
ENDBRANCH  29  30
ENDBRANCH  28  29
ENDBRANCH  27  28
ENDBRANCH  26  27
ENDBRANCH  25  26
ENDBRANCH   1  25
TORSDOF 22
ENDMDL
