MODEL 1
REMARK VINA RESULT:     -10.8      0.000      0.000
REMARK SMILES CC1=C[C@@H]([C@@H]2N=N[C@H](S)N2/N=C/c2ccc(C(=O)OCCOCCOCCOC(=O)c3ccc(-c4c5nc(c(-c6c(F)cccc6F)c6ccc([nH]6)c(-c6c(F)cccc6F)c6nc(c(-c7c(F)cccc7F)c7ccc4[nH]7)C=C6)C=C5)cc3)cc2)N=N1
REMARK SMILES IDX 23 1 22 2 21 3 20 4 19 5 17 6 18 7 16 8 13 9 14 10 86 11
REMARK SMILES IDX 15 12 85 13 12 14 11 15 10 16 5 17 6 18 7 19 8 20 4 21 1 22
REMARK SMILES IDX 2 23 3 24 88 25 87 26 9 27 24 29 25 30 26 31 27 32 28 33
REMARK SMILES IDX 29 34 30 35 31 36 32 37 84 38 33 39 83 40 34 41 35 42 36 43
REMARK SMILES IDX 77 44 37 45 82 46 76 47 78 48 38 49 81 50 75 51 74 52 39 54
REMARK SMILES IDX 65 55 48 56 64 57 49 58 52 59 63 60 79 61 50 62 51 63 62 65
REMARK SMILES IDX 80 66 53 67 40 68 41 69 46 70 42 71 43 72 45 73 47 74 44 75
REMARK SMILES IDX 66 76 67 77 72 78 68 79 69 80 71 81 73 82 70 83 54 84 55 85
REMARK SMILES IDX 60 86 56 87 57 88 59 89 61 90 58 91
REMARK H PARENT 9 28 78 53 52 64
REMARK Flexibility Score: inf
ROOT
ATOM      1  C   UNL A   1      45.006  20.979  25.327  1.00  0.00     0.188 C 
ENDROOT
BRANCH   1   2
ATOM      2  O   UNL A   1      44.015  20.150  24.773  1.00  0.00    -0.376 OA
BRANCH   2   3
ATOM      3  C   UNL A   1      43.132  19.428  25.615  1.00  0.00     0.202 C 
BRANCH   3   4
ATOM      4  C   UNL A   1      42.003  20.037  26.480  1.00  0.00     0.261 C 
BRANCH   4   5
ATOM      5  O   UNL A   1      41.133  21.003  25.882  1.00  0.00    -0.460 OA
BRANCH   5   6
ATOM      6  C   UNL A   1      40.363  21.714  26.753  1.00  0.00     0.338 C 
ATOM      7  O   UNL A   1      40.711  22.194  27.801  1.00  0.00    -0.246 OA
BRANCH   6   8
ATOM      8  C   UNL A   1      39.049  22.018  26.124  1.00  0.00     0.060 A 
ATOM      9  C   UNL A   1      36.551  22.694  25.090  1.00  0.00    -0.005 A 
ATOM     10  C   UNL A   1      37.296  23.660  25.768  1.00  0.00     0.010 A 
ATOM     11  C   UNL A   1      37.075  21.414  24.869  1.00  0.00     0.010 A 
ATOM     12  C   UNL A   1      38.538  23.314  26.301  1.00  0.00     0.016 A 
ATOM     13  C   UNL A   1      38.337  21.079  25.372  1.00  0.00     0.016 A 
BRANCH   9  14
ATOM     14  C   UNL A   1      35.174  23.036  24.683  1.00  0.00     0.141 C 
ATOM     15  N   UNL A   1      34.794  24.272  24.623  1.00  0.00    -0.180 NA
BRANCH  15  16
ATOM     16  N   UNL A   1      33.532  24.552  24.209  1.00  0.00    -0.233 NA
ATOM     17  C   UNL A   1      32.870  25.748  24.748  1.00  0.00     0.274 C 
ATOM     18  N   UNL A   1      31.828  26.173  23.781  1.00  0.00    -0.161 NA
ATOM     19  N   UNL A   1      31.905  25.487  22.734  1.00  0.00    -0.153 NA
ATOM     20  C   UNL A   1      32.967  24.465  22.861  1.00  0.00     0.298 C 
BRANCH  17  21
ATOM     21  C   UNL A   1      32.262  25.480  26.142  1.00  0.00     0.201 C 
ATOM     22  C   UNL A   1      29.905  22.715  26.876  1.00  0.00     0.068 C 
ATOM     23  C   UNL A   1      30.681  23.953  26.617  1.00  0.00     0.058 C 
ATOM     24  C   UNL A   1      31.998  24.046  26.451  1.00  0.00     0.031 C 
ATOM     25  N   UNL A   1      30.050  25.165  26.497  1.00  0.00    -0.160 NA
ATOM     26  N   UNL A   1      30.894  26.074  26.245  1.00  0.00    -0.177 NA
ENDBRANCH  17  21
BRANCH  20  27
ATOM     27  S   UNL A   1      32.366  22.762  22.554  1.00  0.00    -0.128 SA
ATOM     28  H   UNL A   1      31.099  22.635  23.031  1.00  0.00     0.106 HD
ENDBRANCH  20  27
ENDBRANCH  15  16
ENDBRANCH   9  14
ENDBRANCH   6   8
ENDBRANCH   5   6
ENDBRANCH   4   5
ENDBRANCH   3   4
ENDBRANCH   2   3
ENDBRANCH   1   2
BRANCH   1  29
ATOM     29  C   UNL A   1      44.623  22.420  25.729  1.00  0.00     0.188 C 
BRANCH  29  30
ATOM     30  O   UNL A   1      44.902  22.961  27.007  1.00  0.00    -0.376 OA
BRANCH  30  31
ATOM     31  C   UNL A   1      43.940  23.508  27.896  1.00  0.00     0.202 C 
BRANCH  31  32
ATOM     32  C   UNL A   1      43.511  24.974  27.951  1.00  0.00     0.261 C 
BRANCH  32  33
ATOM     33  O   UNL A   1      42.121  25.156  27.842  1.00  0.00    -0.460 OA
BRANCH  33  34
ATOM     34  C   UNL A   1      41.743  25.576  26.621  1.00  0.00     0.338 C 
ATOM     35  O   UNL A   1      42.254  25.303  25.548  1.00  0.00    -0.246 OA
BRANCH  34  36
ATOM     36  C   UNL A   1      40.572  26.451  26.773  1.00  0.00     0.060 A 
ATOM     37  C   UNL A   1      40.778  27.762  26.343  1.00  0.00     0.016 A 
ATOM     38  C   UNL A   1      39.670  26.107  27.783  1.00  0.00     0.016 A 
ATOM     39  C   UNL A   1      40.457  28.752  27.229  1.00  0.00     0.010 A 
ATOM     40  C   UNL A   1      39.397  27.083  28.692  1.00  0.00     0.010 A 
ATOM     41  C   UNL A   1      39.921  28.354  28.453  1.00  0.00    -0.014 A 
BRANCH  41  42
ATOM     42  C   UNL A   1      40.033  29.262  29.564  1.00  0.00     0.031 A 
ATOM     43  C   UNL A   1      38.873  30.154  29.689  1.00  0.00     0.074 A 
ATOM     44  C   UNL A   1      41.043  29.127  30.444  1.00  0.00     0.049 A 
ATOM     45  N   UNL A   1      38.811  31.423  29.465  1.00  0.00    -0.248 NA
ATOM     46  C   UNL A   1      37.564  29.503  29.870  1.00  0.00     0.031 C 
ATOM     47  C   UNL A   1      42.038  28.049  30.532  1.00  0.00     0.029 A 
ATOM     48  N   UNL A   1      41.315  29.881  31.536  1.00  0.00    -0.354 N 
ATOM     49  C   UNL A   1      37.482  31.750  29.702  1.00  0.00     0.074 A 
ATOM     50  C   UNL A   1      36.740  30.524  29.646  1.00  0.00     0.031 C 
ATOM     51  C   UNL A   1      42.648  28.105  31.739  1.00  0.00     0.029 A 
ATOM     52  C   UNL A   1      42.171  29.278  32.447  1.00  0.00     0.049 A 
ATOM     53  H   UNL A   1      40.937  30.780  31.672  1.00  0.00     0.167 HD
ATOM     54  C   UNL A   1      37.138  32.933  30.273  1.00  0.00     0.037 A 
ATOM     55  C   UNL A   1      42.352  29.687  33.727  1.00  0.00     0.037 A 
ATOM     56  C   UNL A   1      38.208  33.892  30.173  1.00  0.00     0.049 A 
ATOM     57  C   UNL A   1      41.814  31.072  33.828  1.00  0.00     0.074 A 
ATOM     58  C   UNL A   1      38.893  34.480  29.128  1.00  0.00     0.029 A 
ATOM     59  N   UNL A   1      38.976  34.103  31.293  1.00  0.00    -0.354 N 
ATOM     60  N   UNL A   1      42.352  32.107  33.241  1.00  0.00    -0.248 NA
ATOM     61  C   UNL A   1      40.412  31.228  34.192  1.00  0.00     0.031 C 
ATOM     62  C   UNL A   1      40.233  34.626  29.590  1.00  0.00     0.029 A 
ATOM     63  C   UNL A   1      40.289  34.154  30.903  1.00  0.00     0.049 A 
ATOM     64  H   UNL A   1      38.642  34.202  32.214  1.00  0.00     0.167 HD
ATOM     65  C   UNL A   1      41.278  32.875  32.805  1.00  0.00     0.074 A 
ATOM     66  C   UNL A   1      40.114  32.327  33.493  1.00  0.00     0.031 C 
ATOM     67  C   UNL A   1      41.392  33.686  31.712  1.00  0.00     0.037 A 
BRANCH  54  68
ATOM     68  C   UNL A   1      36.007  33.070  31.264  1.00  0.00     0.057 A 
ATOM     69  C   UNL A   1      34.959  33.956  30.966  1.00  0.00     0.134 A 
ATOM     70  C   UNL A   1      36.019  32.590  32.594  1.00  0.00     0.134 A 
ATOM     71  F   UNL A   1      34.842  34.493  29.743  1.00  0.00    -0.206 F 
ATOM     72  C   UNL A   1      34.042  34.384  31.932  1.00  0.00     0.040 A 
ATOM     73  C   UNL A   1      35.073  32.962  33.549  1.00  0.00     0.040 A 
ATOM     74  F   UNL A   1      36.992  31.815  33.084  1.00  0.00    -0.206 F 
ATOM     75  C   UNL A   1      34.100  33.891  33.230  1.00  0.00     0.006 A 
ENDBRANCH  54  68
BRANCH  55  76
ATOM     76  C   UNL A   1      42.614  28.844  34.915  1.00  0.00     0.057 A 
ATOM     77  C   UNL A   1      41.902  27.660  35.137  1.00  0.00     0.134 A 
ATOM     78  C   UNL A   1      43.743  29.048  35.729  1.00  0.00     0.134 A 
ATOM     79  F   UNL A   1      40.840  27.352  34.378  1.00  0.00    -0.206 F 
ATOM     80  C   UNL A   1      42.293  26.728  36.109  1.00  0.00     0.040 A 
ATOM     81  C   UNL A   1      44.139  28.133  36.709  1.00  0.00     0.040 A 
ATOM     82  F   UNL A   1      44.551  30.103  35.545  1.00  0.00    -0.206 F 
ATOM     83  C   UNL A   1      43.419  26.961  36.895  1.00  0.00     0.006 A 
ENDBRANCH  55  76
BRANCH  67  84
ATOM     84  C   UNL A   1      42.772  33.896  31.151  1.00  0.00     0.057 A 
ATOM     85  C   UNL A   1      43.334  33.081  30.156  1.00  0.00     0.134 A 
ATOM     86  C   UNL A   1      43.487  35.042  31.509  1.00  0.00     0.134 A 
ATOM     87  F   UNL A   1      42.672  32.019  29.681  1.00  0.00    -0.206 F 
ATOM     88  C   UNL A   1      44.571  33.370  29.575  1.00  0.00     0.040 A 
ATOM     89  C   UNL A   1      44.709  35.361  30.913  1.00  0.00     0.040 A 
ATOM     90  F   UNL A   1      42.981  35.900  32.409  1.00  0.00    -0.206 F 
ATOM     91  C   UNL A   1      45.260  34.520  29.948  1.00  0.00     0.006 A 
ENDBRANCH  67  84
ENDBRANCH  41  42
ENDBRANCH  34  36
ENDBRANCH  33  34
ENDBRANCH  32  33
ENDBRANCH  31  32
ENDBRANCH  30  31
ENDBRANCH  29  30
ENDBRANCH   1  29
TORSDOF 21
ENDMDL
MODEL 2
REMARK VINA RESULT:     -10.6      4.121      8.433
REMARK SMILES CC1=C[C@@H]([C@@H]2N=N[C@H](S)N2/N=C/c2ccc(C(=O)OCCOCCOCCOC(=O)c3ccc(-c4c5nc(c(-c6c(F)cccc6F)c6ccc([nH]6)c(-c6c(F)cccc6F)c6nc(c(-c7c(F)cccc7F)c7ccc4[nH]7)C=C6)C=C5)cc3)cc2)N=N1
REMARK SMILES IDX 23 1 22 2 21 3 20 4 19 5 17 6 18 7 16 8 13 9 14 10 86 11
REMARK SMILES IDX 15 12 85 13 12 14 11 15 10 16 5 17 6 18 7 19 8 20 4 21 1 22
REMARK SMILES IDX 2 23 3 24 88 25 87 26 9 27 24 29 25 30 26 31 27 32 28 33
REMARK SMILES IDX 29 34 30 35 31 36 32 37 84 38 33 39 83 40 34 41 35 42 36 43
REMARK SMILES IDX 77 44 37 45 82 46 76 47 78 48 38 49 81 50 75 51 74 52 39 54
REMARK SMILES IDX 65 55 48 56 64 57 49 58 52 59 63 60 79 61 50 62 51 63 62 65
REMARK SMILES IDX 80 66 53 67 40 68 41 69 46 70 42 71 43 72 45 73 47 74 44 75
REMARK SMILES IDX 66 76 67 77 72 78 68 79 69 80 71 81 73 82 70 83 54 84 55 85
REMARK SMILES IDX 60 86 56 87 57 88 59 89 61 90 58 91
REMARK H PARENT 9 28 78 53 52 64
REMARK Flexibility Score: inf
ROOT
ATOM      1  C   UNL A   1      33.517  30.628  26.926  1.00  0.00     0.188 C 
ENDROOT
BRANCH   1   2
ATOM      2  O   UNL A   1      32.185  30.183  27.001  1.00  0.00    -0.376 OA
BRANCH   2   3
ATOM      3  C   UNL A   1      31.642  29.374  25.972  1.00  0.00     0.202 C 
BRANCH   3   4
ATOM      4  C   UNL A   1      31.371  29.819  24.515  1.00  0.00     0.261 C 
BRANCH   4   5
ATOM      5  O   UNL A   1      30.090  29.533  23.943  1.00  0.00    -0.460 OA
BRANCH   5   6
ATOM      6  C   UNL A   1      30.117  28.865  22.756  1.00  0.00     0.338 C 
ATOM      7  O   UNL A   1      29.907  29.323  21.663  1.00  0.00    -0.246 OA
BRANCH   6   8
ATOM      8  C   UNL A   1      30.668  27.498  22.964  1.00  0.00     0.060 A 
ATOM      9  C   UNL A   1      31.762  24.944  23.184  1.00  0.00    -0.005 A 
ATOM     10  C   UNL A   1      32.449  25.925  22.467  1.00  0.00     0.010 A 
ATOM     11  C   UNL A   1      30.566  25.251  23.846  1.00  0.00     0.010 A 
ATOM     12  C   UNL A   1      31.890  27.197  22.342  1.00  0.00     0.016 A 
ATOM     13  C   UNL A   1      30.025  26.538  23.752  1.00  0.00     0.016 A 
BRANCH   9  14
ATOM     14  C   UNL A   1      32.291  23.566  23.160  1.00  0.00     0.141 C 
ATOM     15  N   UNL A   1      32.926  23.088  24.181  1.00  0.00    -0.180 NA
BRANCH  15  16
ATOM     16  N   UNL A   1      33.365  21.804  24.139  1.00  0.00    -0.233 NA
ATOM     17  C   UNL A   1      34.506  21.428  24.985  1.00  0.00     0.274 C 
ATOM     18  N   UNL A   1      34.435  19.967  25.232  1.00  0.00    -0.161 NA
ATOM     19  N   UNL A   1      33.364  19.503  24.774  1.00  0.00    -0.153 NA
ATOM     20  C   UNL A   1      32.583  20.566  24.104  1.00  0.00     0.298 C 
BRANCH  17  21
ATOM     21  C   UNL A   1      35.850  21.820  24.333  1.00  0.00     0.201 C 
ATOM     22  C   UNL A   1      39.095  21.829  26.123  1.00  0.00     0.068 C 
ATOM     23  C   UNL A   1      37.816  22.040  25.401  1.00  0.00     0.058 C 
ATOM     24  C   UNL A   1      37.043  21.102  24.862  1.00  0.00     0.031 C 
ATOM     25  N   UNL A   1      37.295  23.300  25.249  1.00  0.00    -0.160 NA
ATOM     26  N   UNL A   1      36.189  23.244  24.636  1.00  0.00    -0.177 NA
ENDBRANCH  17  21
BRANCH  20  27
ATOM     27  S   UNL A   1      32.154  20.158  22.370  1.00  0.00    -0.128 SA
ATOM     28  H   UNL A   1      30.807  20.010  22.258  1.00  0.00     0.106 HD
ENDBRANCH  20  27
ENDBRANCH  15  16
ENDBRANCH   9  14
ENDBRANCH   6   8
ENDBRANCH   5   6
ENDBRANCH   4   5
ENDBRANCH   3   4
ENDBRANCH   2   3
ENDBRANCH   1   2
BRANCH   1  29
ATOM     29  C   UNL A   1      34.016  31.641  27.979  1.00  0.00     0.188 C 
BRANCH  29  30
ATOM     30  O   UNL A   1      34.855  32.734  27.657  1.00  0.00    -0.376 OA
BRANCH  30  31
ATOM     31  C   UNL A   1      34.608  34.089  28.001  1.00  0.00     0.202 C 
BRANCH  31  32
ATOM     32  C   UNL A   1      33.544  34.579  28.983  1.00  0.00     0.261 C 
BRANCH  32  33
ATOM     33  O   UNL A   1      33.672  34.026  30.269  1.00  0.00    -0.460 OA
BRANCH  33  34
ATOM     34  C   UNL A   1      33.345  34.892  31.245  1.00  0.00     0.338 C 
ATOM     35  O   UNL A   1      32.540  35.807  31.190  1.00  0.00    -0.246 OA
BRANCH  34  36
ATOM     36  C   UNL A   1      34.131  34.561  32.442  1.00  0.00     0.060 A 
ATOM     37  C   UNL A   1      35.148  35.473  32.728  1.00  0.00     0.016 A 
ATOM     38  C   UNL A   1      34.192  33.209  32.788  1.00  0.00     0.016 A 
ATOM     39  C   UNL A   1      36.398  34.953  32.914  1.00  0.00     0.010 A 
ATOM     40  C   UNL A   1      35.442  32.687  32.918  1.00  0.00     0.010 A 
ATOM     41  C   UNL A   1      36.522  33.566  32.838  1.00  0.00    -0.014 A 
BRANCH  41  42
ATOM     42  C   UNL A   1      37.820  33.023  32.531  1.00  0.00     0.031 A 
ATOM     43  C   UNL A   1      38.748  33.092  33.667  1.00  0.00     0.074 A 
ATOM     44  C   UNL A   1      38.023  32.385  31.363  1.00  0.00     0.049 A 
ATOM     45  N   UNL A   1      39.788  33.844  33.806  1.00  0.00    -0.248 NA
ATOM     46  C   UNL A   1      38.333  32.394  34.896  1.00  0.00     0.031 C 
ATOM     47  C   UNL A   1      37.033  32.015  30.342  1.00  0.00     0.029 A 
ATOM     48  N   UNL A   1      39.163  31.819  30.899  1.00  0.00    -0.354 N 
ATOM     49  C   UNL A   1      40.272  33.530  35.070  1.00  0.00     0.074 A 
ATOM     50  C   UNL A   1      39.199  32.889  35.774  1.00  0.00     0.031 C 
ATOM     51  C   UNL A   1      37.578  31.102  29.505  1.00  0.00     0.029 A 
ATOM     52  C   UNL A   1      38.972  30.917  29.863  1.00  0.00     0.049 A 
ATOM     53  H   UNL A   1      40.052  32.030  31.267  1.00  0.00     0.167 HD
ATOM     54  C   UNL A   1      41.605  33.494  35.325  1.00  0.00     0.037 A 
ATOM     55  C   UNL A   1      39.893  30.015  29.442  1.00  0.00     0.037 A 
ATOM     56  C   UNL A   1      42.348  34.214  34.322  1.00  0.00     0.049 A 
ATOM     57  C   UNL A   1      41.211  30.444  29.986  1.00  0.00     0.074 A 
ATOM     58  C   UNL A   1      42.366  35.521  33.876  1.00  0.00     0.029 A 
ATOM     59  N   UNL A   1      42.983  33.476  33.353  1.00  0.00    -0.354 N 
ATOM     60  N   UNL A   1      41.841  31.522  29.603  1.00  0.00    -0.248 NA
ATOM     61  C   UNL A   1      41.604  29.929  31.291  1.00  0.00     0.031 C 
ATOM     62  C   UNL A   1      42.614  35.437  32.474  1.00  0.00     0.029 A 
ATOM     63  C   UNL A   1      42.770  34.089  32.146  1.00  0.00     0.049 A 
ATOM     64  H   UNL A   1      43.502  32.652  33.499  1.00  0.00     0.167 HD
ATOM     65  C   UNL A   1      42.405  32.043  30.763  1.00  0.00     0.074 A 
ATOM     66  C   UNL A   1      42.296  30.974  31.752  1.00  0.00     0.031 C 
ATOM     67  C   UNL A   1      42.638  33.382  30.892  1.00  0.00     0.037 A 
BRANCH  54  68
ATOM     68  C   UNL A   1      42.241  32.475  36.239  1.00  0.00     0.057 A 
ATOM     69  C   UNL A   1      43.047  32.931  37.295  1.00  0.00     0.134 A 
ATOM     70  C   UNL A   1      42.322  31.085  35.988  1.00  0.00     0.134 A 
ATOM     71  F   UNL A   1      43.072  34.230  37.626  1.00  0.00    -0.206 F 
ATOM     72  C   UNL A   1      43.916  32.086  37.993  1.00  0.00     0.040 A 
ATOM     73  C   UNL A   1      43.139  30.223  36.720  1.00  0.00     0.040 A 
ATOM     74  F   UNL A   1      41.701  30.489  34.965  1.00  0.00    -0.206 F 
ATOM     75  C   UNL A   1      43.968  30.728  37.704  1.00  0.00     0.006 A 
ENDBRANCH  54  68
BRANCH  55  76
ATOM     76  C   UNL A   1      39.649  28.650  28.925  1.00  0.00     0.057 A 
ATOM     77  C   UNL A   1      40.057  28.275  27.640  1.00  0.00     0.134 A 
ATOM     78  C   UNL A   1      39.232  27.605  29.771  1.00  0.00     0.134 A 
ATOM     79  F   UNL A   1      40.518  29.193  26.778  1.00  0.00    -0.206 F 
ATOM     80  C   UNL A   1      40.059  26.937  27.220  1.00  0.00     0.040 A 
ATOM     81  C   UNL A   1      39.219  26.268  29.363  1.00  0.00     0.040 A 
ATOM     82  F   UNL A   1      38.904  27.836  31.051  1.00  0.00    -0.206 F 
ATOM     83  C   UNL A   1      39.644  25.928  28.086  1.00  0.00     0.006 A 
ENDBRANCH  55  76
BRANCH  67  84
ATOM     84  C   UNL A   1      42.486  34.228  29.657  1.00  0.00     0.057 A 
ATOM     85  C   UNL A   1      41.287  34.862  29.297  1.00  0.00     0.134 A 
ATOM     86  C   UNL A   1      43.619  34.541  28.900  1.00  0.00     0.134 A 
ATOM     87  F   UNL A   1      40.177  34.700  30.027  1.00  0.00    -0.206 F 
ATOM     88  C   UNL A   1      41.210  35.734  28.207  1.00  0.00     0.040 A 
ATOM     89  C   UNL A   1      43.563  35.436  27.830  1.00  0.00     0.040 A 
ATOM     90  F   UNL A   1      44.813  34.020  29.226  1.00  0.00    -0.206 F 
ATOM     91  C   UNL A   1      42.354  36.029  27.473  1.00  0.00     0.006 A 
ENDBRANCH  67  84
ENDBRANCH  41  42
ENDBRANCH  34  36
ENDBRANCH  33  34
ENDBRANCH  32  33
ENDBRANCH  31  32
ENDBRANCH  30  31
ENDBRANCH  29  30
ENDBRANCH   1  29
TORSDOF 21
ENDMDL
MODEL 3
REMARK VINA RESULT:     -10.5      1.988      5.891
REMARK SMILES CC1=C[C@@H]([C@@H]2N=N[C@H](S)N2/N=C/c2ccc(C(=O)OCCOCCOCCOC(=O)c3ccc(-c4c5nc(c(-c6c(F)cccc6F)c6ccc([nH]6)c(-c6c(F)cccc6F)c6nc(c(-c7c(F)cccc7F)c7ccc4[nH]7)C=C6)C=C5)cc3)cc2)N=N1
REMARK SMILES IDX 23 1 22 2 21 3 20 4 19 5 17 6 18 7 16 8 13 9 14 10 86 11
REMARK SMILES IDX 15 12 85 13 12 14 11 15 10 16 5 17 6 18 7 19 8 20 4 21 1 22
REMARK SMILES IDX 2 23 3 24 88 25 87 26 9 27 24 29 25 30 26 31 27 32 28 33
REMARK SMILES IDX 29 34 30 35 31 36 32 37 84 38 33 39 83 40 34 41 35 42 36 43
REMARK SMILES IDX 77 44 37 45 82 46 76 47 78 48 38 49 81 50 75 51 74 52 39 54
REMARK SMILES IDX 65 55 48 56 64 57 49 58 52 59 63 60 79 61 50 62 51 63 62 65
REMARK SMILES IDX 80 66 53 67 40 68 41 69 46 70 42 71 43 72 45 73 47 74 44 75
REMARK SMILES IDX 66 76 67 77 72 78 68 79 69 80 71 81 73 82 70 83 54 84 55 85
REMARK SMILES IDX 60 86 56 87 57 88 59 89 61 90 58 91
REMARK H PARENT 9 28 78 53 52 64
REMARK Flexibility Score: inf
ROOT
ATOM      1  C   UNL A   1      44.298  21.084  25.301  1.00  0.00     0.188 C 
ENDROOT
BRANCH   1   2
ATOM      2  O   UNL A   1      43.936  19.823  24.796  1.00  0.00    -0.376 OA
BRANCH   2   3
ATOM      3  C   UNL A   1      42.966  19.035  25.466  1.00  0.00     0.202 C 
BRANCH   3   4
ATOM      4  C   UNL A   1      41.849  19.567  26.395  1.00  0.00     0.261 C 
BRANCH   4   5
ATOM      5  O   UNL A   1      41.059  20.672  25.944  1.00  0.00    -0.460 OA
BRANCH   5   6
ATOM      6  C   UNL A   1      40.382  21.342  26.919  1.00  0.00     0.338 C 
ATOM      7  O   UNL A   1      40.741  21.528  28.053  1.00  0.00    -0.246 OA
BRANCH   6   8
ATOM      8  C   UNL A   1      39.199  22.024  26.326  1.00  0.00     0.060 A 
ATOM      9  C   UNL A   1      36.963  23.388  25.375  1.00  0.00    -0.005 A 
ATOM     10  C   UNL A   1      37.857  24.044  26.222  1.00  0.00     0.010 A 
ATOM     11  C   UNL A   1      37.215  22.078  24.949  1.00  0.00     0.010 A 
ATOM     12  C   UNL A   1      38.966  23.354  26.712  1.00  0.00     0.016 A 
ATOM     13  C   UNL A   1      38.347  21.398  25.411  1.00  0.00     0.016 A 
BRANCH   9  14
ATOM     14  C   UNL A   1      35.714  24.084  25.006  1.00  0.00     0.141 C 
ATOM     15  N   UNL A   1      34.647  23.943  25.723  1.00  0.00    -0.180 NA
BRANCH  15  16
ATOM     16  N   UNL A   1      33.527  24.628  25.376  1.00  0.00    -0.233 NA
ATOM     17  C   UNL A   1      33.663  25.781  24.477  1.00  0.00     0.274 C 
ATOM     18  N   UNL A   1      32.364  25.988  23.793  1.00  0.00    -0.161 NA
ATOM     19  N   UNL A   1      31.577  25.051  24.066  1.00  0.00    -0.153 NA
ATOM     20  C   UNL A   1      32.207  24.107  25.016  1.00  0.00     0.298 C 
BRANCH  17  21
ATOM     21  C   UNL A   1      34.100  27.049  25.243  1.00  0.00     0.201 C 
ATOM     22  C   UNL A   1      31.760  29.285  27.050  1.00  0.00     0.068 C 
ATOM     23  C   UNL A   1      32.723  28.554  26.189  1.00  0.00     0.058 C 
ATOM     24  C   UNL A   1      33.282  27.374  26.445  1.00  0.00     0.031 C 
ATOM     25  N   UNL A   1      33.112  29.067  24.978  1.00  0.00    -0.160 NA
ATOM     26  N   UNL A   1      33.906  28.269  24.400  1.00  0.00    -0.177 NA
ENDBRANCH  17  21
BRANCH  20  27
ATOM     27  S   UNL A   1      31.213  23.844  26.532  1.00  0.00    -0.128 SA
ATOM     28  H   UNL A   1      31.049  25.029  27.179  1.00  0.00     0.106 HD
ENDBRANCH  20  27
ENDBRANCH  15  16
ENDBRANCH   9  14
ENDBRANCH   6   8
ENDBRANCH   5   6
ENDBRANCH   4   5
ENDBRANCH   3   4
ENDBRANCH   2   3
ENDBRANCH   1   2
BRANCH   1  29
ATOM     29  C   UNL A   1      45.792  21.478  25.298  1.00  0.00     0.188 C 
BRANCH  29  30
ATOM     30  O   UNL A   1      46.287  22.618  25.974  1.00  0.00    -0.376 OA
BRANCH  30  31
ATOM     31  C   UNL A   1      46.071  23.965  25.581  1.00  0.00     0.202 C 
BRANCH  31  32
ATOM     32  C   UNL A   1      45.435  25.053  26.445  1.00  0.00     0.261 C 
BRANCH  32  33
ATOM     33  O   UNL A   1      44.364  25.712  25.817  1.00  0.00    -0.460 OA
BRANCH  33  34
ATOM     34  C   UNL A   1      43.439  24.862  25.333  1.00  0.00     0.338 C 
ATOM     35  O   UNL A   1      43.555  24.088  24.398  1.00  0.00    -0.246 OA
BRANCH  34  36
ATOM     36  C   UNL A   1      42.214  25.008  26.131  1.00  0.00     0.060 A 
ATOM     37  C   UNL A   1      41.315  25.951  25.631  1.00  0.00     0.016 A 
ATOM     38  C   UNL A   1      42.316  24.688  27.487  1.00  0.00     0.016 A 
ATOM     39  C   UNL A   1      40.876  26.901  26.511  1.00  0.00     0.010 A 
ATOM     40  C   UNL A   1      41.927  25.660  28.356  1.00  0.00     0.010 A 
ATOM     41  C   UNL A   1      41.339  26.807  27.823  1.00  0.00    -0.014 A 
BRANCH  41  42
ATOM     42  C   UNL A   1      41.325  28.001  28.627  1.00  0.00     0.031 A 
ATOM     43  C   UNL A   1      42.477  28.875  28.367  1.00  0.00     0.074 A 
ATOM     44  C   UNL A   1      40.250  28.290  29.384  1.00  0.00     0.049 A 
ATOM     45  N   UNL A   1      43.484  29.121  29.136  1.00  0.00    -0.248 NA
ATOM     46  C   UNL A   1      42.633  29.359  26.985  1.00  0.00     0.031 C 
ATOM     47  C   UNL A   1      38.950  27.606  29.421  1.00  0.00     0.029 A 
ATOM     48  N   UNL A   1      40.057  29.352  30.203  1.00  0.00    -0.354 N 
ATOM     49  C   UNL A   1      44.284  29.977  28.390  1.00  0.00     0.074 A 
ATOM     50  C   UNL A   1      43.873  29.838  27.022  1.00  0.00     0.031 C 
ATOM     51  C   UNL A   1      38.047  28.399  30.043  1.00  0.00     0.029 A 
ATOM     52  C   UNL A   1      38.730  29.579  30.540  1.00  0.00     0.049 A 
ATOM     53  H   UNL A   1      40.795  29.915  30.530  1.00  0.00     0.167 HD
ATOM     54  C   UNL A   1      44.973  30.989  28.977  1.00  0.00     0.037 A 
ATOM     55  C   UNL A   1      38.255  30.727  31.084  1.00  0.00     0.037 A 
ATOM     56  C   UNL A   1      45.110  30.773  30.395  1.00  0.00     0.049 A 
ATOM     57  C   UNL A   1      39.424  31.483  31.609  1.00  0.00     0.074 A 
ATOM     58  C   UNL A   1      45.684  29.791  31.178  1.00  0.00     0.029 A 
ATOM     59  N   UNL A   1      44.274  31.478  31.227  1.00  0.00    -0.354 N 
ATOM     60  N   UNL A   1      40.143  31.097  32.629  1.00  0.00    -0.248 NA
ATOM     61  C   UNL A   1      40.082  32.423  30.710  1.00  0.00     0.031 C 
ATOM     62  C   UNL A   1      44.840  29.679  32.321  1.00  0.00     0.029 A 
ATOM     63  C   UNL A   1      43.817  30.620  32.193  1.00  0.00     0.049 A 
ATOM     64  H   UNL A   1      44.045  32.432  31.144  1.00  0.00     0.167 HD
ATOM     65  C   UNL A   1      41.453  31.417  32.291  1.00  0.00     0.074 A 
ATOM     66  C   UNL A   1      41.342  32.306  31.138  1.00  0.00     0.031 C 
ATOM     67  C   UNL A   1      42.504  30.703  32.792  1.00  0.00     0.037 A 
BRANCH  54  68
ATOM     68  C   UNL A   1      45.154  32.344  28.335  1.00  0.00     0.057 A 
ATOM     69  C   UNL A   1      46.451  32.753  27.988  1.00  0.00     0.134 A 
ATOM     70  C   UNL A   1      44.175  33.363  28.281  1.00  0.00     0.134 A 
ATOM     71  F   UNL A   1      47.474  31.886  28.011  1.00  0.00    -0.206 F 
ATOM     72  C   UNL A   1      46.761  34.083  27.684  1.00  0.00     0.040 A 
ATOM     73  C   UNL A   1      44.461  34.679  27.919  1.00  0.00     0.040 A 
ATOM     74  F   UNL A   1      42.907  33.182  28.668  1.00  0.00    -0.206 F 
ATOM     75  C   UNL A   1      45.765  35.052  27.652  1.00  0.00     0.006 A 
ENDBRANCH  54  68
BRANCH  55  76
ATOM     76  C   UNL A   1      36.936  31.356  30.851  1.00  0.00     0.057 A 
ATOM     77  C   UNL A   1      36.077  31.659  31.914  1.00  0.00     0.134 A 
ATOM     78  C   UNL A   1      36.591  31.906  29.603  1.00  0.00     0.134 A 
ATOM     79  F   UNL A   1      36.348  31.222  33.153  1.00  0.00    -0.206 F 
ATOM     80  C   UNL A   1      34.943  32.467  31.748  1.00  0.00     0.040 A 
ATOM     81  C   UNL A   1      35.458  32.705  29.420  1.00  0.00     0.040 A 
ATOM     82  F   UNL A   1      37.387  31.756  28.534  1.00  0.00    -0.206 F 
ATOM     83  C   UNL A   1      34.634  32.998  30.498  1.00  0.00     0.006 A 
ENDBRANCH  55  76
BRANCH  67  84
ATOM     84  C   UNL A   1      42.206  29.724  33.895  1.00  0.00     0.057 A 
ATOM     85  C   UNL A   1      41.836  28.390  33.665  1.00  0.00     0.134 A 
ATOM     86  C   UNL A   1      42.454  30.092  35.220  1.00  0.00     0.134 A 
ATOM     87  F   UNL A   1      41.677  27.924  32.420  1.00  0.00    -0.206 F 
ATOM     88  C   UNL A   1      41.679  27.475  34.710  1.00  0.00     0.040 A 
ATOM     89  C   UNL A   1      42.334  29.181  36.271  1.00  0.00     0.040 A 
ATOM     90  F   UNL A   1      42.872  31.335  35.508  1.00  0.00    -0.206 F 
ATOM     91  C   UNL A   1      41.936  27.869  36.019  1.00  0.00     0.006 A 
ENDBRANCH  67  84
ENDBRANCH  41  42
ENDBRANCH  34  36
ENDBRANCH  33  34
ENDBRANCH  32  33
ENDBRANCH  31  32
ENDBRANCH  30  31
ENDBRANCH  29  30
ENDBRANCH   1  29
TORSDOF 21
ENDMDL
