MODEL 1
REMARK VINA RESULT:     -10.2      0.000      0.000
REMARK SMILES CC[C@@H](C)N(C)C(=O)N1[C@@H](C(=O)OCCOCCOCCOC(=O)c2ccc(-c3c4nc(c(-c5c(F)cccc5F)c5ccc([nH]5)c(-c5c(F)cccc5F)c5nc(c(-c6c(F)cccc6F)c6ccc3[nH]6)C=C5)C=C4)cc2)CC[C@H]2CCCC[C@H]21
REMARK SMILES IDX 17 1 16 2 15 3 14 4 13 5 11 6 12 7 10 8 9 9 86 10 79 11
REMARK SMILES IDX 81 12 85 13 80 14 82 15 84 16 83 17 7 18 8 19 5 20 6 21 3 22
REMARK SMILES IDX 4 23 2 24 1 25 18 26 19 27 20 28 21 29 22 30 23 31 24 32
REMARK SMILES IDX 25 33 26 34 78 35 27 36 77 37 28 38 29 39 30 40 71 41 31 42
REMARK SMILES IDX 76 43 70 44 72 45 32 46 75 47 69 48 68 49 33 51 59 52 42 53
REMARK SMILES IDX 58 54 43 55 46 56 57 57 73 58 44 59 45 60 56 62 74 63 47 64
REMARK SMILES IDX 34 65 35 66 40 67 36 68 37 69 39 70 41 71 38 72 60 73 61 74
REMARK SMILES IDX 66 75 62 76 63 77 65 78 67 79 64 80 48 81 49 82 54 83 50 84
REMARK SMILES IDX 51 85 53 86 55 87 52 88
REMARK H PARENT 72 50 46 61
REMARK Flexibility Score: inf
ROOT
ATOM      1  C   UNL A   1      34.364  31.658  28.347  1.00  0.00     0.188 C 
ENDROOT
BRANCH   1   2
ATOM      2  O   UNL A   1      35.313  30.965  27.544  1.00  0.00    -0.376 OA
BRANCH   2   3
ATOM      3  C   UNL A   1      35.056  29.635  27.117  1.00  0.00     0.202 C 
BRANCH   3   4
ATOM      4  C   UNL A   1      33.753  28.964  27.564  1.00  0.00     0.261 C 
BRANCH   4   5
ATOM      5  O   UNL A   1      32.618  29.096  26.687  1.00  0.00    -0.462 OA
BRANCH   5   6
ATOM      6  C   UNL A   1      31.683  28.104  26.736  1.00  0.00     0.329 C 
ATOM      7  O   UNL A   1      31.387  27.480  27.751  1.00  0.00    -0.250 OA
BRANCH   6   8
ATOM      8  C   UNL A   1      31.109  27.749  25.345  1.00  0.00     0.197 C 
ATOM      9  N   UNL A   1      31.389  26.370  24.909  1.00  0.00    -0.308 N 
ATOM     10  C   UNL A   1      30.710  25.990  23.654  1.00  0.00     0.091 C 
ATOM     11  C   UNL A   1      31.363  28.776  24.233  1.00  0.00     0.038 C 
ATOM     12  C   UNL A   1      30.884  26.985  22.494  1.00  0.00     0.012 C 
ATOM     13  C   UNL A   1      30.953  24.564  23.153  1.00  0.00     0.025 C 
ATOM     14  C   UNL A   1      30.596  28.416  22.959  1.00  0.00     0.008 C 
ATOM     15  C   UNL A   1      32.238  26.904  21.790  1.00  0.00     0.006 C 
ATOM     16  C   UNL A   1      32.240  24.341  22.363  1.00  0.00     0.002 C 
ATOM     17  C   UNL A   1      32.782  25.503  21.532  1.00  0.00     0.000 C 
BRANCH   9  18
ATOM     18  C   UNL A   1      32.657  25.882  25.182  1.00  0.00     0.320 C 
ATOM     19  O   UNL A   1      33.660  26.489  24.825  1.00  0.00    -0.248 OA
BRANCH  18  20
ATOM     20  N   UNL A   1      32.688  24.651  25.841  1.00  0.00    -0.325 N 
ATOM     21  C   UNL A   1      31.675  24.198  26.799  1.00  0.00     0.149 C 
BRANCH  20  22
ATOM     22  C   UNL A   1      33.660  23.610  25.448  1.00  0.00     0.083 C 
ATOM     23  C   UNL A   1      33.099  22.193  25.282  1.00  0.00     0.031 C 
BRANCH  22  24
ATOM     24  C   UNL A   1      34.850  23.662  26.426  1.00  0.00     0.021 C 
ATOM     25  C   UNL A   1      36.201  23.809  25.750  1.00  0.00     0.006 C 
ENDBRANCH  22  24
ENDBRANCH  20  22
ENDBRANCH  18  20
ENDBRANCH   9  18
ENDBRANCH   6   8
ENDBRANCH   5   6
ENDBRANCH   4   5
ENDBRANCH   3   4
ENDBRANCH   2   3
ENDBRANCH   1   2
BRANCH   1  26
ATOM     26  C   UNL A   1      34.303  33.190  28.288  1.00  0.00     0.188 C 
BRANCH  26  27
ATOM     27  O   UNL A   1      33.475  33.783  29.251  1.00  0.00    -0.376 OA
BRANCH  27  28
ATOM     28  C   UNL A   1      34.035  34.608  30.246  1.00  0.00     0.202 C 
BRANCH  28  29
ATOM     29  C   UNL A   1      34.442  34.064  31.627  1.00  0.00     0.261 C 
BRANCH  29  30
ATOM     30  O   UNL A   1      35.838  33.840  31.888  1.00  0.00    -0.460 OA
BRANCH  30  31
ATOM     31  C   UNL A   1      36.179  32.809  32.702  1.00  0.00     0.338 C 
ATOM     32  O   UNL A   1      35.660  32.508  33.749  1.00  0.00    -0.246 OA
BRANCH  31  33
ATOM     33  C   UNL A   1      37.152  31.952  31.959  1.00  0.00     0.060 A 
ATOM     34  C   UNL A   1      38.062  31.175  32.691  1.00  0.00     0.016 A 
ATOM     35  C   UNL A   1      37.159  31.901  30.564  1.00  0.00     0.016 A 
ATOM     36  C   UNL A   1      39.008  30.380  32.031  1.00  0.00     0.010 A 
ATOM     37  C   UNL A   1      38.121  31.123  29.903  1.00  0.00     0.010 A 
ATOM     38  C   UNL A   1      39.075  30.387  30.631  1.00  0.00    -0.014 A 
BRANCH  38  39
ATOM     39  C   UNL A   1      40.269  29.828  29.940  1.00  0.00     0.031 A 
ATOM     40  C   UNL A   1      41.444  30.743  29.705  1.00  0.00     0.074 A 
ATOM     41  C   UNL A   1      40.343  28.541  29.548  1.00  0.00     0.049 A 
ATOM     42  N   UNL A   1      42.564  30.519  29.066  1.00  0.00    -0.248 NA
ATOM     43  C   UNL A   1      41.337  32.096  30.275  1.00  0.00     0.031 C 
ATOM     44  C   UNL A   1      39.316  27.525  29.759  1.00  0.00     0.029 A 
ATOM     45  N   UNL A   1      41.341  27.875  28.873  1.00  0.00    -0.354 N 
ATOM     46  C   UNL A   1      43.292  31.700  29.157  1.00  0.00     0.074 A 
ATOM     47  C   UNL A   1      42.473  32.649  29.879  1.00  0.00     0.031 C 
ATOM     48  C   UNL A   1      39.730  26.366  29.215  1.00  0.00     0.029 A 
ATOM     49  C   UNL A   1      41.036  26.566  28.584  1.00  0.00     0.049 A 
ATOM     50  H   UNL A   1      42.194  28.296  28.622  1.00  0.00     0.167 HD
ATOM     51  C   UNL A   1      44.535  31.973  28.696  1.00  0.00     0.037 A 
ATOM     52  C   UNL A   1      41.720  25.646  27.872  1.00  0.00     0.037 A 
ATOM     53  C   UNL A   1      45.355  31.042  27.966  1.00  0.00     0.049 A 
ATOM     54  C   UNL A   1      43.054  26.011  27.267  1.00  0.00     0.074 A 
ATOM     55  C   UNL A   1      46.621  31.235  27.442  1.00  0.00     0.029 A 
ATOM     56  N   UNL A   1      44.988  29.743  27.657  1.00  0.00    -0.354 N 
ATOM     57  N   UNL A   1      43.734  27.129  27.362  1.00  0.00    -0.248 NA
ATOM     58  C   UNL A   1      43.717  24.982  26.450  1.00  0.00     0.031 C 
ATOM     59  C   UNL A   1      47.001  30.067  26.775  1.00  0.00     0.029 A 
ATOM     60  C   UNL A   1      45.996  29.128  26.933  1.00  0.00     0.049 A 
ATOM     61  H   UNL A   1      44.136  29.319  27.913  1.00  0.00     0.167 HD
ATOM     62  C   UNL A   1      44.917  26.919  26.659  1.00  0.00     0.074 A 
ATOM     63  C   UNL A   1      44.867  25.566  26.150  1.00  0.00     0.031 C 
ATOM     64  C   UNL A   1      45.951  27.770  26.454  1.00  0.00     0.037 A 
BRANCH  51  65
ATOM     65  C   UNL A   1      45.082  33.347  28.952  1.00  0.00     0.057 A 
ATOM     66  C   UNL A   1      44.810  34.420  28.092  1.00  0.00     0.134 A 
ATOM     67  C   UNL A   1      45.857  33.609  30.088  1.00  0.00     0.134 A 
ATOM     68  F   UNL A   1      44.088  34.231  26.978  1.00  0.00    -0.206 F 
ATOM     69  C   UNL A   1      45.307  35.699  28.343  1.00  0.00     0.040 A 
ATOM     70  C   UNL A   1      46.336  34.891  30.365  1.00  0.00     0.040 A 
ATOM     71  F   UNL A   1      46.151  32.628  30.954  1.00  0.00    -0.206 F 
ATOM     72  C   UNL A   1      46.065  35.940  29.488  1.00  0.00     0.006 A 
ENDBRANCH  51  65
BRANCH  52  73
ATOM     73  C   UNL A   1      41.161  24.284  27.654  1.00  0.00     0.057 A 
ATOM     74  C   UNL A   1      41.675  23.172  28.334  1.00  0.00     0.134 A 
ATOM     75  C   UNL A   1      40.158  24.049  26.706  1.00  0.00     0.134 A 
ATOM     76  F   UNL A   1      42.660  23.326  29.231  1.00  0.00    -0.206 F 
ATOM     77  C   UNL A   1      41.235  21.876  28.059  1.00  0.00     0.040 A 
ATOM     78  C   UNL A   1      39.686  22.761  26.443  1.00  0.00     0.040 A 
ATOM     79  F   UNL A   1      39.628  25.066  26.014  1.00  0.00    -0.206 F 
ATOM     80  C   UNL A   1      40.235  21.668  27.112  1.00  0.00     0.006 A 
ENDBRANCH  52  73
BRANCH  64  81
ATOM     81  C   UNL A   1      47.146  27.252  25.703  1.00  0.00     0.057 A 
ATOM     82  C   UNL A   1      47.313  27.465  24.329  1.00  0.00     0.134 A 
ATOM     83  C   UNL A   1      48.166  26.568  26.378  1.00  0.00     0.134 A 
ATOM     84  F   UNL A   1      46.371  28.103  23.619  1.00  0.00    -0.206 F 
ATOM     85  C   UNL A   1      48.438  26.992  23.649  1.00  0.00     0.040 A 
ATOM     86  C   UNL A   1      49.309  26.118  25.716  1.00  0.00     0.040 A 
ATOM     87  F   UNL A   1      48.077  26.341  27.698  1.00  0.00    -0.206 F 
ATOM     88  C   UNL A   1      49.444  26.323  24.345  1.00  0.00     0.006 A 
ENDBRANCH  64  81
ENDBRANCH  38  39
ENDBRANCH  31  33
ENDBRANCH  30  31
ENDBRANCH  29  30
ENDBRANCH  28  29
ENDBRANCH  27  28
ENDBRANCH  26  27
ENDBRANCH   1  26
TORSDOF 21
ENDMDL
MODEL 2
REMARK VINA RESULT:     -10.1      4.367      9.718
REMARK SMILES CC[C@@H](C)N(C)C(=O)N1[C@@H](C(=O)OCCOCCOCCOC(=O)c2ccc(-c3c4nc(c(-c5c(F)cccc5F)c5ccc([nH]5)c(-c5c(F)cccc5F)c5nc(c(-c6c(F)cccc6F)c6ccc3[nH]6)C=C5)C=C4)cc2)CC[C@H]2CCCC[C@H]21
REMARK SMILES IDX 17 1 16 2 15 3 14 4 13 5 11 6 12 7 10 8 9 9 86 10 79 11
REMARK SMILES IDX 81 12 85 13 80 14 82 15 84 16 83 17 7 18 8 19 5 20 6 21 3 22
REMARK SMILES IDX 4 23 2 24 1 25 18 26 19 27 20 28 21 29 22 30 23 31 24 32
REMARK SMILES IDX 25 33 26 34 78 35 27 36 77 37 28 38 29 39 30 40 71 41 31 42
REMARK SMILES IDX 76 43 70 44 72 45 32 46 75 47 69 48 68 49 33 51 59 52 42 53
REMARK SMILES IDX 58 54 43 55 46 56 57 57 73 58 44 59 45 60 56 62 74 63 47 64
REMARK SMILES IDX 34 65 35 66 40 67 36 68 37 69 39 70 41 71 38 72 60 73 61 74
REMARK SMILES IDX 66 75 62 76 63 77 65 78 67 79 64 80 48 81 49 82 54 83 50 84
REMARK SMILES IDX 51 85 53 86 55 87 52 88
REMARK H PARENT 72 50 46 61
REMARK Flexibility Score: inf
ROOT
ATOM      1  C   UNL A   1      40.397  21.267  27.236  1.00  0.00     0.188 C 
ENDROOT
BRANCH   1   2
ATOM      2  O   UNL A   1      39.380  21.617  26.303  1.00  0.00    -0.376 OA
BRANCH   2   3
ATOM      3  C   UNL A   1      39.042  22.980  26.089  1.00  0.00     0.202 C 
BRANCH   3   4
ATOM      4  C   UNL A   1      37.610  23.318  25.662  1.00  0.00     0.261 C 
BRANCH   4   5
ATOM      5  O   UNL A   1      36.857  22.271  25.019  1.00  0.00    -0.462 OA
BRANCH   5   6
ATOM      6  C   UNL A   1      36.161  22.613  23.897  1.00  0.00     0.329 C 
ATOM      7  O   UNL A   1      36.589  23.351  23.013  1.00  0.00    -0.250 OA
BRANCH   6   8
ATOM      8  C   UNL A   1      34.711  22.076  23.902  1.00  0.00     0.197 C 
ATOM      9  N   UNL A   1      33.677  23.125  23.935  1.00  0.00    -0.308 N 
ATOM     10  C   UNL A   1      32.301  22.612  23.783  1.00  0.00     0.091 C 
ATOM     11  C   UNL A   1      34.422  20.938  24.890  1.00  0.00     0.038 C 
ATOM     12  C   UNL A   1      31.936  21.443  24.715  1.00  0.00     0.012 C 
ATOM     13  C   UNL A   1      31.180  23.655  23.800  1.00  0.00     0.025 C 
ATOM     14  C   UNL A   1      33.020  20.362  24.677  1.00  0.00     0.008 C 
ATOM     15  C   UNL A   1      31.629  21.855  26.154  1.00  0.00     0.006 C 
ATOM     16  C   UNL A   1      30.711  24.114  25.178  1.00  0.00     0.002 C 
ATOM     17  C   UNL A   1      30.787  23.114  26.331  1.00  0.00     0.000 C 
BRANCH   9  18
ATOM     18  C   UNL A   1      33.923  24.207  24.764  1.00  0.00     0.320 C 
ATOM     19  O   UNL A   1      34.085  24.058  25.970  1.00  0.00    -0.248 OA
BRANCH  18  20
ATOM     20  N   UNL A   1      33.925  25.451  24.129  1.00  0.00    -0.325 N 
ATOM     21  C   UNL A   1      33.790  25.643  22.682  1.00  0.00     0.149 C 
BRANCH  20  22
ATOM     22  C   UNL A   1      33.852  26.699  24.916  1.00  0.00     0.083 C 
ATOM     23  C   UNL A   1      32.682  26.808  25.899  1.00  0.00     0.031 C 
BRANCH  22  24
ATOM     24  C   UNL A   1      33.918  27.892  23.942  1.00  0.00     0.021 C 
ATOM     25  C   UNL A   1      32.925  28.998  24.248  1.00  0.00     0.006 C 
ENDBRANCH  22  24
ENDBRANCH  20  22
ENDBRANCH  18  20
ENDBRANCH   9  18
ENDBRANCH   6   8
ENDBRANCH   5   6
ENDBRANCH   4   5
ENDBRANCH   3   4
ENDBRANCH   2   3
ENDBRANCH   1   2
BRANCH   1  26
ATOM     26  C   UNL A   1      41.413  20.177  26.868  1.00  0.00     0.188 C 
BRANCH  26  27
ATOM     27  O   UNL A   1      42.014  20.334  25.612  1.00  0.00    -0.376 OA
BRANCH  27  28
ATOM     28  C   UNL A   1      43.415  20.434  25.512  1.00  0.00     0.202 C 
BRANCH  28  29
ATOM     29  C   UNL A   1      44.154  21.775  25.670  1.00  0.00     0.261 C 
BRANCH  29  30
ATOM     30  O   UNL A   1      43.557  22.954  25.106  1.00  0.00    -0.460 OA
BRANCH  30  31
ATOM     31  C   UNL A   1      44.251  24.119  25.174  1.00  0.00     0.338 C 
ATOM     32  O   UNL A   1      45.207  24.435  24.508  1.00  0.00    -0.246 OA
BRANCH  31  33
ATOM     33  C   UNL A   1      43.477  25.053  26.046  1.00  0.00     0.060 A 
ATOM     34  C   UNL A   1      43.873  26.397  26.113  1.00  0.00     0.016 A 
ATOM     35  C   UNL A   1      42.368  24.618  26.774  1.00  0.00     0.016 A 
ATOM     36  C   UNL A   1      43.189  27.297  26.940  1.00  0.00     0.010 A 
ATOM     37  C   UNL A   1      41.698  25.515  27.620  1.00  0.00     0.010 A 
ATOM     38  C   UNL A   1      42.127  26.850  27.736  1.00  0.00    -0.014 A 
BRANCH  38  39
ATOM     39  C   UNL A   1      41.624  27.698  28.852  1.00  0.00     0.031 A 
ATOM     40  C   UNL A   1      42.339  27.622  30.178  1.00  0.00     0.074 A 
ATOM     41  C   UNL A   1      40.583  28.541  28.709  1.00  0.00     0.049 A 
ATOM     42  N   UNL A   1      42.054  28.201  31.317  1.00  0.00    -0.248 NA
ATOM     43  C   UNL A   1      43.543  26.776  30.217  1.00  0.00     0.031 C 
ATOM     44  C   UNL A   1      39.833  28.768  27.476  1.00  0.00     0.029 A 
ATOM     45  N   UNL A   1      39.971  29.360  29.630  1.00  0.00    -0.354 N 
ATOM     46  C   UNL A   1      43.041  27.789  32.205  1.00  0.00     0.074 A 
ATOM     47  C   UNL A   1      43.909  26.883  31.485  1.00  0.00     0.031 C 
ATOM     48  C   UNL A   1      38.854  29.659  27.719  1.00  0.00     0.029 A 
ATOM     49  C   UNL A   1      38.883  30.037  29.133  1.00  0.00     0.049 A 
ATOM     50  H   UNL A   1      40.283  29.454  30.559  1.00  0.00     0.167 HD
ATOM     51  C   UNL A   1      43.221  28.140  33.500  1.00  0.00     0.037 A 
ATOM     52  C   UNL A   1      38.000  30.847  29.753  1.00  0.00     0.037 A 
ATOM     53  C   UNL A   1      42.359  29.031  34.230  1.00  0.00     0.049 A 
ATOM     54  C   UNL A   1      38.155  31.132  31.228  1.00  0.00     0.074 A 
ATOM     55  C   UNL A   1      42.451  29.430  35.552  1.00  0.00     0.029 A 
ATOM     56  N   UNL A   1      41.243  29.658  33.699  1.00  0.00    -0.354 N 
ATOM     57  N   UNL A   1      39.093  30.740  32.058  1.00  0.00    -0.248 NA
ATOM     58  C   UNL A   1      37.122  31.972  31.855  1.00  0.00     0.031 C 
ATOM     59  C   UNL A   1      41.365  30.263  35.834  1.00  0.00     0.029 A 
ATOM     60  C   UNL A   1      40.628  30.428  34.673  1.00  0.00     0.049 A 
ATOM     61  H   UNL A   1      40.932  29.569  32.769  1.00  0.00     0.167 HD
ATOM     62  C   UNL A   1      38.787  31.322  33.284  1.00  0.00     0.074 A 
ATOM     63  C   UNL A   1      37.582  32.100  33.090  1.00  0.00     0.031 C 
ATOM     64  C   UNL A   1      39.444  31.222  34.465  1.00  0.00     0.037 A 
BRANCH  51  65
ATOM     65  C   UNL A   1      44.394  27.543  34.221  1.00  0.00     0.057 A 
ATOM     66  C   UNL A   1      45.633  28.197  34.280  1.00  0.00     0.134 A 
ATOM     67  C   UNL A   1      44.277  26.320  34.891  1.00  0.00     0.134 A 
ATOM     68  F   UNL A   1      45.816  29.364  33.645  1.00  0.00    -0.206 F 
ATOM     69  C   UNL A   1      46.716  27.646  34.966  1.00  0.00     0.040 A 
ATOM     70  C   UNL A   1      45.345  25.772  35.604  1.00  0.00     0.040 A 
ATOM     71  F   UNL A   1      43.118  25.644  34.877  1.00  0.00    -0.206 F 
ATOM     72  C   UNL A   1      46.571  26.434  35.638  1.00  0.00     0.006 A 
ENDBRANCH  51  65
BRANCH  52  73
ATOM     73  C   UNL A   1      36.859  31.443  29.005  1.00  0.00     0.057 A 
ATOM     74  C   UNL A   1      36.856  32.797  28.645  1.00  0.00     0.134 A 
ATOM     75  C   UNL A   1      35.714  30.697  28.703  1.00  0.00     0.134 A 
ATOM     76  F   UNL A   1      37.910  33.575  28.935  1.00  0.00    -0.206 F 
ATOM     77  C   UNL A   1      35.747  33.393  28.041  1.00  0.00     0.040 A 
ATOM     78  C   UNL A   1      34.609  31.272  28.072  1.00  0.00     0.040 A 
ATOM     79  F   UNL A   1      35.646  29.398  29.027  1.00  0.00    -0.206 F 
ATOM     80  C   UNL A   1      34.620  32.628  27.751  1.00  0.00     0.006 A 
ENDBRANCH  52  73
BRANCH  64  81
ATOM     81  C   UNL A   1      38.922  32.019  35.627  1.00  0.00     0.057 A 
ATOM     82  C   UNL A   1      38.169  31.435  36.654  1.00  0.00     0.134 A 
ATOM     83  C   UNL A   1      39.216  33.384  35.741  1.00  0.00     0.134 A 
ATOM     84  F   UNL A   1      37.842  30.135  36.604  1.00  0.00    -0.206 F 
ATOM     85  C   UNL A   1      37.706  32.186  37.737  1.00  0.00     0.040 A 
ATOM     86  C   UNL A   1      38.784  34.138  36.833  1.00  0.00     0.040 A 
ATOM     87  F   UNL A   1      39.944  34.005  34.800  1.00  0.00    -0.206 F 
ATOM     88  C   UNL A   1      38.021  33.541  37.832  1.00  0.00     0.006 A 
ENDBRANCH  64  81
ENDBRANCH  38  39
ENDBRANCH  31  33
ENDBRANCH  30  31
ENDBRANCH  29  30
ENDBRANCH  28  29
ENDBRANCH  27  28
ENDBRANCH  26  27
ENDBRANCH   1  26
TORSDOF 21
ENDMDL
MODEL 3
REMARK VINA RESULT:     -10.1      4.588      9.342
REMARK SMILES CC[C@@H](C)N(C)C(=O)N1[C@@H](C(=O)OCCOCCOCCOC(=O)c2ccc(-c3c4nc(c(-c5c(F)cccc5F)c5ccc([nH]5)c(-c5c(F)cccc5F)c5nc(c(-c6c(F)cccc6F)c6ccc3[nH]6)C=C5)C=C4)cc2)CC[C@H]2CCCC[C@H]21
REMARK SMILES IDX 17 1 16 2 15 3 14 4 13 5 11 6 12 7 10 8 9 9 86 10 79 11
REMARK SMILES IDX 81 12 85 13 80 14 82 15 84 16 83 17 7 18 8 19 5 20 6 21 3 22
REMARK SMILES IDX 4 23 2 24 1 25 18 26 19 27 20 28 21 29 22 30 23 31 24 32
REMARK SMILES IDX 25 33 26 34 78 35 27 36 77 37 28 38 29 39 30 40 71 41 31 42
REMARK SMILES IDX 76 43 70 44 72 45 32 46 75 47 69 48 68 49 33 51 59 52 42 53
REMARK SMILES IDX 58 54 43 55 46 56 57 57 73 58 44 59 45 60 56 62 74 63 47 64
REMARK SMILES IDX 34 65 35 66 40 67 36 68 37 69 39 70 41 71 38 72 60 73 61 74
REMARK SMILES IDX 66 75 62 76 63 77 65 78 67 79 64 80 48 81 49 82 54 83 50 84
REMARK SMILES IDX 51 85 53 86 55 87 52 88
REMARK H PARENT 72 50 46 61
REMARK Flexibility Score: inf
ROOT
ATOM      1  C   UNL A   1      39.090  21.823  26.177  1.00  0.00     0.188 C 
ENDROOT
BRANCH   1   2
ATOM      2  O   UNL A   1      38.225  21.855  25.047  1.00  0.00    -0.376 OA
BRANCH   2   3
ATOM      3  C   UNL A   1      36.819  21.958  25.224  1.00  0.00     0.202 C 
BRANCH   3   4
ATOM      4  C   UNL A   1      35.950  22.261  23.998  1.00  0.00     0.261 C 
BRANCH   4   5
ATOM      5  O   UNL A   1      35.628  23.644  23.755  1.00  0.00    -0.462 OA
BRANCH   5   6
ATOM      6  C   UNL A   1      34.465  23.896  23.086  1.00  0.00     0.329 C 
ATOM      7  O   UNL A   1      34.052  23.233  22.139  1.00  0.00    -0.250 OA
BRANCH   6   8
ATOM      8  C   UNL A   1      33.768  25.192  23.561  1.00  0.00     0.197 C 
ATOM      9  N   UNL A   1      32.645  24.970  24.488  1.00  0.00    -0.308 N 
ATOM     10  C   UNL A   1      32.085  26.211  25.057  1.00  0.00     0.091 C 
ATOM     11  C   UNL A   1      33.427  26.210  22.465  1.00  0.00     0.038 C 
ATOM     12  C   UNL A   1      31.746  27.303  24.027  1.00  0.00     0.012 C 
ATOM     13  C   UNL A   1      30.920  26.046  26.037  1.00  0.00     0.025 C 
ATOM     14  C   UNL A   1      32.917  27.522  23.065  1.00  0.00     0.008 C 
ATOM     15  C   UNL A   1      30.447  27.064  23.258  1.00  0.00     0.006 C 
ATOM     16  C   UNL A   1      29.538  25.871  25.413  1.00  0.00     0.002 C 
ATOM     17  C   UNL A   1      29.265  26.549  24.072  1.00  0.00     0.000 C 
BRANCH   9  18
ATOM     18  C   UNL A   1      31.808  23.904  24.199  1.00  0.00     0.320 C 
ATOM     19  O   UNL A   1      31.126  23.891  23.181  1.00  0.00    -0.248 OA
BRANCH  18  20
ATOM     20  N   UNL A   1      31.779  22.896  25.166  1.00  0.00    -0.325 N 
ATOM     21  C   UNL A   1      30.653  22.647  26.071  1.00  0.00     0.149 C 
BRANCH  20  22
ATOM     22  C   UNL A   1      32.826  21.853  25.199  1.00  0.00     0.083 C 
ATOM     23  C   UNL A   1      32.444  20.497  24.594  1.00  0.00     0.031 C 
BRANCH  22  24
ATOM     24  C   UNL A   1      33.343  21.730  26.646  1.00  0.00     0.021 C 
ATOM     25  C   UNL A   1      33.885  23.024  27.222  1.00  0.00     0.006 C 
ENDBRANCH  22  24
ENDBRANCH  20  22
ENDBRANCH  18  20
ENDBRANCH   9  18
ENDBRANCH   6   8
ENDBRANCH   5   6
ENDBRANCH   4   5
ENDBRANCH   3   4
ENDBRANCH   2   3
ENDBRANCH   1   2
BRANCH   1  26
ATOM     26  C   UNL A   1      40.096  20.673  26.323  1.00  0.00     0.188 C 
BRANCH  26  27
ATOM     27  O   UNL A   1      41.293  21.018  26.966  1.00  0.00    -0.376 OA
BRANCH  27  28
ATOM     28  C   UNL A   1      42.522  20.565  26.450  1.00  0.00     0.202 C 
BRANCH  28  29
ATOM     29  C   UNL A   1      43.436  21.465  25.600  1.00  0.00     0.261 C 
BRANCH  29  30
ATOM     30  O   UNL A   1      42.871  22.647  25.010  1.00  0.00    -0.460 OA
BRANCH  30  31
ATOM     31  C   UNL A   1      43.624  23.777  24.991  1.00  0.00     0.338 C 
ATOM     32  O   UNL A   1      44.546  24.023  24.252  1.00  0.00    -0.246 OA
BRANCH  31  33
ATOM     33  C   UNL A   1      42.959  24.775  25.882  1.00  0.00     0.060 A 
ATOM     34  C   UNL A   1      43.485  26.074  25.950  1.00  0.00     0.016 A 
ATOM     35  C   UNL A   1      41.826  24.445  26.626  1.00  0.00     0.016 A 
ATOM     36  C   UNL A   1      42.906  27.031  26.793  1.00  0.00     0.010 A 
ATOM     37  C   UNL A   1      41.261  25.396  27.489  1.00  0.00     0.010 A 
ATOM     38  C   UNL A   1      41.819  26.683  27.605  1.00  0.00    -0.014 A 
BRANCH  38  39
ATOM     39  C   UNL A   1      41.419  27.568  28.734  1.00  0.00     0.031 A 
ATOM     40  C   UNL A   1      42.220  27.493  30.010  1.00  0.00     0.074 A 
ATOM     41  C   UNL A   1      40.398  28.441  28.644  1.00  0.00     0.049 A 
ATOM     42  N   UNL A   1      42.031  28.102  31.153  1.00  0.00    -0.248 NA
ATOM     43  C   UNL A   1      43.397  26.610  29.987  1.00  0.00     0.031 C 
ATOM     44  C   UNL A   1      39.574  28.669  27.460  1.00  0.00     0.029 A 
ATOM     45  N   UNL A   1      39.876  29.297  29.587  1.00  0.00    -0.354 N 
ATOM     46  C   UNL A   1      43.063  27.676  31.982  1.00  0.00     0.074 A 
ATOM     47  C   UNL A   1      43.852  26.729  31.224  1.00  0.00     0.031 C 
ATOM     48  C   UNL A   1      38.641  29.596  27.750  1.00  0.00     0.029 A 
ATOM     49  C   UNL A   1      38.778  30.000  29.150  1.00  0.00     0.049 A 
ATOM     50  H   UNL A   1      40.253  29.398  30.490  1.00  0.00     0.167 HD
ATOM     51  C   UNL A   1      43.342  28.045  33.254  1.00  0.00     0.037 A 
ATOM     52  C   UNL A   1      37.965  30.850  29.811  1.00  0.00     0.037 A 
ATOM     53  C   UNL A   1      42.559  28.977  34.021  1.00  0.00     0.049 A 
ATOM     54  C   UNL A   1      38.228  31.157  31.266  1.00  0.00     0.074 A 
ATOM     55  C   UNL A   1      42.753  29.398  35.325  1.00  0.00     0.029 A 
ATOM     56  N   UNL A   1      41.430  29.630  33.554  1.00  0.00    -0.354 N 
ATOM     57  N   UNL A   1      39.208  30.751  32.038  1.00  0.00    -0.248 NA
ATOM     58  C   UNL A   1      37.267  32.042  31.943  1.00  0.00     0.031 C 
ATOM     59  C   UNL A   1      41.715  30.271  35.663  1.00  0.00     0.029 A 
ATOM     60  C   UNL A   1      40.907  30.438  34.551  1.00  0.00     0.049 A 
ATOM     61  H   UNL A   1      41.054  29.534  32.649  1.00  0.00     0.167 HD
ATOM     62  C   UNL A   1      39.004  31.366  33.270  1.00  0.00     0.074 A 
ATOM     63  C   UNL A   1      37.814  32.178  33.142  1.00  0.00     0.031 C 
ATOM     64  C   UNL A   1      39.737  31.266  34.406  1.00  0.00     0.037 A 
BRANCH  51  65
ATOM     65  C   UNL A   1      44.542  27.424  33.907  1.00  0.00     0.057 A 
ATOM     66  C   UNL A   1      45.804  28.031  33.857  1.00  0.00     0.134 A 
ATOM     67  C   UNL A   1      44.429  26.225  34.622  1.00  0.00     0.134 A 
ATOM     68  F   UNL A   1      45.983  29.171  33.174  1.00  0.00    -0.206 F 
ATOM     69  C   UNL A   1      46.914  27.459  34.479  1.00  0.00     0.040 A 
ATOM     70  C   UNL A   1      45.525  25.657  35.272  1.00  0.00     0.040 A 
ATOM     71  F   UNL A   1      43.249  25.594  34.711  1.00  0.00    -0.206 F 
ATOM     72  C   UNL A   1      46.774  26.272  35.198  1.00  0.00     0.006 A 
ENDBRANCH  51  65
BRANCH  52  73
ATOM     73  C   UNL A   1      36.795  31.468  29.129  1.00  0.00     0.057 A 
ATOM     74  C   UNL A   1      35.649  30.718  28.831  1.00  0.00     0.134 A 
ATOM     75  C   UNL A   1      36.824  32.796  28.689  1.00  0.00     0.134 A 
ATOM     76  F   UNL A   1      35.573  29.430  29.197  1.00  0.00    -0.206 F 
ATOM     77  C   UNL A   1      34.591  31.255  28.097  1.00  0.00     0.040 A 
ATOM     78  C   UNL A   1      35.759  33.356  27.980  1.00  0.00     0.040 A 
ATOM     79  F   UNL A   1      37.892  33.568  28.932  1.00  0.00    -0.206 F 
ATOM     80  C   UNL A   1      34.643  32.580  27.671  1.00  0.00     0.006 A 
ENDBRANCH  52  73
BRANCH  64  81
ATOM     81  C   UNL A   1      39.320  32.102  35.584  1.00  0.00     0.057 A 
ATOM     82  C   UNL A   1      38.474  31.608  36.586  1.00  0.00     0.134 A 
ATOM     83  C   UNL A   1      39.809  33.405  35.737  1.00  0.00     0.134 A 
ATOM     84  F   UNL A   1      37.962  30.372  36.497  1.00  0.00    -0.206 F 
ATOM     85  C   UNL A   1      38.110  32.391  37.683  1.00  0.00     0.040 A 
ATOM     86  C   UNL A   1      39.476  34.187  36.845  1.00  0.00     0.040 A 
ATOM     87  F   UNL A   1      40.633  33.937  34.821  1.00  0.00    -0.206 F 
ATOM     88  C   UNL A   1      38.618  33.683  37.819  1.00  0.00     0.006 A 
ENDBRANCH  64  81
ENDBRANCH  38  39
ENDBRANCH  31  33
ENDBRANCH  30  31
ENDBRANCH  29  30
ENDBRANCH  28  29
ENDBRANCH  27  28
ENDBRANCH  26  27
ENDBRANCH   1  26
TORSDOF 21
ENDMDL
