MODEL 1
REMARK VINA RESULT:     -10.6      0.000      0.000
REMARK SMILES C[C@H](C(=O)OCCOCCOCCOC(=O)c1ccc(-c2c3nc(c(-c4c(F)cccc4F)c4ccc([nH]4)c(-c4c(F)cccc4F)c4nc(c(-c5c(F)cccc5F)c5ccc2[nH]5)C=C4)C=C3)cc1)c1ccc(-c2ccccc2)c(F)c1
REMARK SMILES IDX 9 1 8 2 7 3 6 4 5 5 3 6 4 7 2 8 1 9 71 10 72 11 83 12 73 13
REMARK SMILES IDX 81 14 74 15 82 16 75 17 76 18 80 19 77 20 79 21 78 22 10 23
REMARK SMILES IDX 11 24 12 25 13 26 14 27 15 28 16 29 17 30 18 31 70 32 19 33
REMARK SMILES IDX 69 34 20 35 21 36 22 37 63 38 23 39 68 40 62 41 64 42 24 43
REMARK SMILES IDX 67 44 61 45 60 46 25 48 51 49 34 50 50 51 35 52 38 53 49 54
REMARK SMILES IDX 65 55 36 56 37 57 48 59 66 60 39 61 26 62 27 63 32 64 28 65
REMARK SMILES IDX 29 66 31 67 33 68 30 69 52 70 53 71 58 72 54 73 55 74 57 75
REMARK SMILES IDX 59 76 56 77 40 78 41 79 46 80 42 81 43 82 45 83 47 84 44 85
REMARK H PARENT 64 47 38 58
REMARK Flexibility Score: inf
ROOT
ATOM      1  C   UNL A   1      36.671  23.593  24.979  1.00  0.00     0.188 C 
ENDROOT
BRANCH   1   2
ATOM      2  O   UNL A   1      35.423  23.855  25.579  1.00  0.00    -0.376 OA
BRANCH   2   3
ATOM      3  C   UNL A   1      34.524  24.772  24.984  1.00  0.00     0.202 C 
BRANCH   3   4
ATOM      4  C   UNL A   1      33.781  25.857  25.778  1.00  0.00     0.261 C 
BRANCH   4   5
ATOM      5  O   UNL A   1      32.588  26.383  25.184  1.00  0.00    -0.463 OA
BRANCH   5   6
ATOM      6  C   UNL A   1      31.408  26.051  25.768  1.00  0.00     0.313 C 
ATOM      7  O   UNL A   1      31.033  26.492  26.851  1.00  0.00    -0.252 OA
BRANCH   6   8
ATOM      8  C   UNL A   1      30.514  25.166  24.901  1.00  0.00     0.126 C 
ATOM      9  C   UNL A   1      30.045  25.960  23.670  1.00  0.00     0.025 C 
BRANCH   8  10
ATOM     10  C   UNL A   1      30.965  23.745  24.557  1.00  0.00    -0.031 A 
ATOM     11  C   UNL A   1      31.012  22.780  25.581  1.00  0.00     0.005 A 
ATOM     12  C   UNL A   1      31.466  23.367  23.305  1.00  0.00     0.044 A 
ATOM     13  C   UNL A   1      31.572  21.513  25.375  1.00  0.00     0.012 A 
ATOM     14  C   UNL A   1      32.021  22.098  23.103  1.00  0.00     0.131 A 
ATOM     15  C   UNL A   1      32.120  21.160  24.136  1.00  0.00     0.017 A 
ATOM     16  F   UNL A   1      32.507  21.814  21.885  1.00  0.00    -0.206 F 
BRANCH  15  17
ATOM     17  C   UNL A   1      32.868  19.903  23.982  1.00  0.00    -0.015 A 
ATOM     18  C   UNL A   1      32.375  18.836  23.215  1.00  0.00     0.009 A 
ATOM     19  C   UNL A   1      34.079  19.717  24.673  1.00  0.00     0.009 A 
ATOM     20  C   UNL A   1      33.067  17.623  23.149  1.00  0.00     0.001 A 
ATOM     21  C   UNL A   1      34.769  18.506  24.610  1.00  0.00     0.001 A 
ATOM     22  C   UNL A   1      34.260  17.458  23.849  1.00  0.00     0.000 A 
ENDBRANCH  15  17
ENDBRANCH   8  10
ENDBRANCH   6   8
ENDBRANCH   5   6
ENDBRANCH   4   5
ENDBRANCH   3   4
ENDBRANCH   2   3
ENDBRANCH   1   2
BRANCH   1  23
ATOM     23  C   UNL A   1      36.961  22.224  24.326  1.00  0.00     0.188 C 
BRANCH  23  24
ATOM     24  O   UNL A   1      37.216  21.093  25.129  1.00  0.00    -0.376 OA
BRANCH  24  25
ATOM     25  C   UNL A   1      38.528  20.825  25.586  1.00  0.00     0.202 C 
BRANCH  25  26
ATOM     26  C   UNL A   1      39.308  19.553  25.209  1.00  0.00     0.261 C 
BRANCH  26  27
ATOM     27  O   UNL A   1      40.333  19.130  26.118  1.00  0.00    -0.460 OA
BRANCH  27  28
ATOM     28  C   UNL A   1      41.569  19.638  25.890  1.00  0.00     0.338 C 
ATOM     29  O   UNL A   1      42.452  19.152  25.192  1.00  0.00    -0.246 OA
BRANCH  28  30
ATOM     30  C   UNL A   1      41.678  20.988  26.474  1.00  0.00     0.060 A 
ATOM     31  C   UNL A   1      42.070  22.051  25.647  1.00  0.00     0.016 A 
ATOM     32  C   UNL A   1      41.445  21.202  27.833  1.00  0.00     0.016 A 
ATOM     33  C   UNL A   1      42.255  23.328  26.184  1.00  0.00     0.010 A 
ATOM     34  C   UNL A   1      41.653  22.477  28.373  1.00  0.00     0.010 A 
ATOM     35  C   UNL A   1      42.086  23.541  27.558  1.00  0.00    -0.014 A 
BRANCH  35  36
ATOM     36  C   UNL A   1      42.525  24.819  28.177  1.00  0.00     0.031 A 
ATOM     37  C   UNL A   1      41.502  25.900  28.408  1.00  0.00     0.074 A 
ATOM     38  C   UNL A   1      43.806  25.026  28.535  1.00  0.00     0.049 A 
ATOM     39  N   UNL A   1      41.665  27.118  28.857  1.00  0.00    -0.248 NA
ATOM     40  C   UNL A   1      40.108  25.556  28.087  1.00  0.00     0.031 C 
ATOM     41  C   UNL A   1      44.887  24.051  28.416  1.00  0.00     0.029 A 
ATOM     42  N   UNL A   1      44.412  26.141  29.062  1.00  0.00    -0.354 N 
ATOM     43  C   UNL A   1      40.399  27.690  28.861  1.00  0.00     0.074 A 
ATOM     44  C   UNL A   1      39.483  26.695  28.347  1.00  0.00     0.031 C 
ATOM     45  C   UNL A   1      46.030  24.616  28.844  1.00  0.00     0.029 A 
ATOM     46  C   UNL A   1      45.769  26.003  29.229  1.00  0.00     0.049 A 
ATOM     47  H   UNL A   1      43.921  26.960  29.297  1.00  0.00     0.167 HD
ATOM     48  C   UNL A   1      40.030  28.932  29.257  1.00  0.00     0.037 A 
ATOM     49  C   UNL A   1      46.695  26.901  29.620  1.00  0.00     0.037 A 
ATOM     50  C   UNL A   1      40.938  29.928  29.763  1.00  0.00     0.049 A 
ATOM     51  C   UNL A   1      46.272  28.307  29.968  1.00  0.00     0.074 A 
ATOM     52  C   UNL A   1      40.652  31.208  30.207  1.00  0.00     0.029 A 
ATOM     53  N   UNL A   1      42.309  29.761  29.881  1.00  0.00    -0.354 N 
ATOM     54  N   UNL A   1      45.072  28.832  29.992  1.00  0.00    -0.248 NA
ATOM     55  C   UNL A   1      47.341  29.247  30.343  1.00  0.00     0.031 C 
ATOM     56  C   UNL A   1      41.857  31.837  30.534  1.00  0.00     0.029 A 
ATOM     57  C   UNL A   1      42.887  30.927  30.360  1.00  0.00     0.049 A 
ATOM     58  H   UNL A   1      42.800  28.938  29.658  1.00  0.00     0.167 HD
ATOM     59  C   UNL A   1      45.235  30.145  30.419  1.00  0.00     0.074 A 
ATOM     60  C   UNL A   1      46.650  30.336  30.653  1.00  0.00     0.031 C 
ATOM     61  C   UNL A   1      44.296  31.106  30.605  1.00  0.00     0.037 A 
BRANCH  48  62
ATOM     62  C   UNL A   1      38.580  29.299  29.123  1.00  0.00     0.057 A 
ATOM     63  C   UNL A   1      37.701  29.273  30.213  1.00  0.00     0.134 A 
ATOM     64  C   UNL A   1      38.065  29.718  27.889  1.00  0.00     0.134 A 
ATOM     65  F   UNL A   1      38.126  28.868  31.420  1.00  0.00    -0.206 F 
ATOM     66  C   UNL A   1      36.357  29.625  30.076  1.00  0.00     0.040 A 
ATOM     67  C   UNL A   1      36.731  30.100  27.745  1.00  0.00     0.040 A 
ATOM     68  F   UNL A   1      38.853  29.772  26.805  1.00  0.00    -0.206 F 
ATOM     69  C   UNL A   1      35.871  30.048  28.840  1.00  0.00     0.006 A 
ENDBRANCH  48  62
BRANCH  49  70
ATOM     70  C   UNL A   1      48.131  26.518  29.685  1.00  0.00     0.057 A 
ATOM     71  C   UNL A   1      48.988  26.727  28.597  1.00  0.00     0.134 A 
ATOM     72  C   UNL A   1      48.670  25.892  30.816  1.00  0.00     0.134 A 
ATOM     73  F   UNL A   1      48.526  27.295  27.473  1.00  0.00    -0.206 F 
ATOM     74  C   UNL A   1      50.319  26.306  28.621  1.00  0.00     0.040 A 
ATOM     75  C   UNL A   1      50.007  25.493  30.865  1.00  0.00     0.040 A 
ATOM     76  F   UNL A   1      47.903  25.657  31.890  1.00  0.00    -0.206 F 
ATOM     77  C   UNL A   1      50.833  25.692  29.761  1.00  0.00     0.006 A 
ENDBRANCH  49  70
BRANCH  61  78
ATOM     78  C   UNL A   1      44.753  32.437  31.134  1.00  0.00     0.057 A 
ATOM     79  C   UNL A   1      45.103  33.498  30.288  1.00  0.00     0.134 A 
ATOM     80  C   UNL A   1      44.799  32.674  32.515  1.00  0.00     0.134 A 
ATOM     81  F   UNL A   1      45.090  33.337  28.956  1.00  0.00    -0.206 F 
ATOM     82  C   UNL A   1      45.504  34.735  30.796  1.00  0.00     0.040 A 
ATOM     83  C   UNL A   1      45.169  33.915  33.034  1.00  0.00     0.040 A 
ATOM     84  F   UNL A   1      44.466  31.707  33.384  1.00  0.00    -0.206 F 
ATOM     85  C   UNL A   1      45.531  34.949  32.172  1.00  0.00     0.006 A 
ENDBRANCH  61  78
ENDBRANCH  35  36
ENDBRANCH  28  30
ENDBRANCH  27  28
ENDBRANCH  26  27
ENDBRANCH  25  26
ENDBRANCH  24  25
ENDBRANCH  23  24
ENDBRANCH   1  23
TORSDOF 19
ENDMDL
MODEL 2
REMARK VINA RESULT:     -10.3      3.699      8.010
REMARK SMILES C[C@H](C(=O)OCCOCCOCCOC(=O)c1ccc(-c2c3nc(c(-c4c(F)cccc4F)c4ccc([nH]4)c(-c4c(F)cccc4F)c4nc(c(-c5c(F)cccc5F)c5ccc2[nH]5)C=C4)C=C3)cc1)c1ccc(-c2ccccc2)c(F)c1
REMARK SMILES IDX 9 1 8 2 7 3 6 4 5 5 3 6 4 7 2 8 1 9 71 10 72 11 83 12 73 13
REMARK SMILES IDX 81 14 74 15 82 16 75 17 76 18 80 19 77 20 79 21 78 22 10 23
REMARK SMILES IDX 11 24 12 25 13 26 14 27 15 28 16 29 17 30 18 31 70 32 19 33
REMARK SMILES IDX 69 34 20 35 21 36 22 37 63 38 23 39 68 40 62 41 64 42 24 43
REMARK SMILES IDX 67 44 61 45 60 46 25 48 51 49 34 50 50 51 35 52 38 53 49 54
REMARK SMILES IDX 65 55 36 56 37 57 48 59 66 60 39 61 26 62 27 63 32 64 28 65
REMARK SMILES IDX 29 66 31 67 33 68 30 69 52 70 53 71 58 72 54 73 55 74 57 75
REMARK SMILES IDX 59 76 56 77 40 78 41 79 46 80 42 81 43 82 45 83 47 84 44 85
REMARK H PARENT 64 47 38 58
REMARK Flexibility Score: inf
ROOT
ATOM      1  C   UNL A   1      35.258  32.437  28.575  1.00  0.00     0.188 C 
ENDROOT
BRANCH   1   2
ATOM      2  O   UNL A   1      34.764  31.840  27.397  1.00  0.00    -0.376 OA
BRANCH   2   3
ATOM      3  C   UNL A   1      33.545  31.121  27.419  1.00  0.00     0.202 C 
BRANCH   3   4
ATOM      4  C   UNL A   1      33.375  29.734  26.780  1.00  0.00     0.261 C 
BRANCH   4   5
ATOM      5  O   UNL A   1      32.041  29.214  26.722  1.00  0.00    -0.463 OA
BRANCH   5   6
ATOM      6  C   UNL A   1      31.580  28.830  25.504  1.00  0.00     0.313 C 
ATOM      7  O   UNL A   1      31.541  29.568  24.524  1.00  0.00    -0.252 OA
BRANCH   6   8
ATOM      8  C   UNL A   1      31.219  27.348  25.416  1.00  0.00     0.126 C 
ATOM      9  C   UNL A   1      30.229  27.127  24.260  1.00  0.00     0.025 C 
BRANCH   8  10
ATOM     10  C   UNL A   1      32.332  26.297  25.455  1.00  0.00    -0.031 A 
ATOM     11  C   UNL A   1      33.291  26.285  24.424  1.00  0.00     0.005 A 
ATOM     12  C   UNL A   1      32.386  25.253  26.386  1.00  0.00     0.044 A 
ATOM     13  C   UNL A   1      34.233  25.255  24.306  1.00  0.00     0.012 A 
ATOM     14  C   UNL A   1      33.333  24.228  26.265  1.00  0.00     0.131 A 
ATOM     15  C   UNL A   1      34.248  24.185  25.208  1.00  0.00     0.017 A 
ATOM     16  F   UNL A   1      33.309  23.244  27.178  1.00  0.00    -0.206 F 
BRANCH  15  17
ATOM     17  C   UNL A   1      35.114  23.021  24.970  1.00  0.00    -0.015 A 
ATOM     18  C   UNL A   1      34.666  21.708  25.182  1.00  0.00     0.009 A 
ATOM     19  C   UNL A   1      36.454  23.209  24.587  1.00  0.00     0.009 A 
ATOM     20  C   UNL A   1      35.533  20.622  25.024  1.00  0.00     0.001 A 
ATOM     21  C   UNL A   1      37.321  22.126  24.432  1.00  0.00     0.001 A 
ATOM     22  C   UNL A   1      36.859  20.833  24.653  1.00  0.00     0.000 A 
ENDBRANCH  15  17
ENDBRANCH   8  10
ENDBRANCH   6   8
ENDBRANCH   5   6
ENDBRANCH   4   5
ENDBRANCH   3   4
ENDBRANCH   2   3
ENDBRANCH   1   2
BRANCH   1  23
ATOM     23  C   UNL A   1      34.554  33.666  29.192  1.00  0.00     0.188 C 
BRANCH  23  24
ATOM     24  O   UNL A   1      33.989  33.588  30.482  1.00  0.00    -0.376 OA
BRANCH  24  25
ATOM     25  C   UNL A   1      34.731  34.006  31.612  1.00  0.00     0.202 C 
BRANCH  25  26
ATOM     26  C   UNL A   1      34.809  33.193  32.915  1.00  0.00     0.261 C 
BRANCH  26  27
ATOM     27  O   UNL A   1      35.495  31.935  32.852  1.00  0.00    -0.460 OA
BRANCH  27  28
ATOM     28  C   UNL A   1      36.720  31.902  33.431  1.00  0.00     0.338 C 
ATOM     29  O   UNL A   1      37.002  32.199  34.587  1.00  0.00    -0.246 OA
BRANCH  28  30
ATOM     30  C   UNL A   1      37.696  31.281  32.515  1.00  0.00     0.060 A 
ATOM     31  C   UNL A   1      38.790  30.594  33.061  1.00  0.00     0.016 A 
ATOM     32  C   UNL A   1      37.566  31.414  31.132  1.00  0.00     0.016 A 
ATOM     33  C   UNL A   1      39.773  30.058  32.224  1.00  0.00     0.010 A 
ATOM     34  C   UNL A   1      38.563  30.896  30.297  1.00  0.00     0.010 A 
ATOM     35  C   UNL A   1      39.686  30.240  30.838  1.00  0.00    -0.014 A 
BRANCH  35  36
ATOM     36  C   UNL A   1      40.841  29.904  29.965  1.00  0.00     0.031 A 
ATOM     37  C   UNL A   1      40.925  28.521  29.376  1.00  0.00     0.074 A 
ATOM     38  C   UNL A   1      41.802  30.806  29.690  1.00  0.00     0.049 A 
ATOM     39  N   UNL A   1      41.874  27.978  28.656  1.00  0.00    -0.248 NA
ATOM     40  C   UNL A   1      39.784  27.632  29.639  1.00  0.00     0.031 C 
ATOM     41  C   UNL A   1      41.821  32.192  30.149  1.00  0.00     0.029 A 
ATOM     42  N   UNL A   1      42.961  30.675  28.962  1.00  0.00    -0.354 N 
ATOM     43  C   UNL A   1      41.451  26.683  28.390  1.00  0.00     0.074 A 
ATOM     44  C   UNL A   1      40.172  26.512  29.046  1.00  0.00     0.031 C 
ATOM     45  C   UNL A   1      42.945  32.782  29.704  1.00  0.00     0.029 A 
ATOM     46  C   UNL A   1      43.742  31.805  28.963  1.00  0.00     0.049 A 
ATOM     47  H   UNL A   1      43.207  29.850  28.485  1.00  0.00     0.167 HD
ATOM     48  C   UNL A   1      42.069  25.720  27.664  1.00  0.00     0.037 A 
ATOM     49  C   UNL A   1      44.972  32.016  28.451  1.00  0.00     0.037 A 
ATOM     50  C   UNL A   1      43.344  25.883  27.015  1.00  0.00     0.049 A 
ATOM     51  C   UNL A   1      45.681  30.898  27.726  1.00  0.00     0.074 A 
ATOM     52  C   UNL A   1      44.039  24.969  26.242  1.00  0.00     0.029 A 
ATOM     53  N   UNL A   1      44.120  27.030  27.073  1.00  0.00    -0.354 N 
ATOM     54  N   UNL A   1      45.263  29.685  27.459  1.00  0.00    -0.248 NA
ATOM     55  C   UNL A   1      47.037  31.184  27.232  1.00  0.00     0.031 C 
ATOM     56  C   UNL A   1      45.263  25.540  25.885  1.00  0.00     0.029 A 
ATOM     57  C   UNL A   1      45.303  26.835  26.377  1.00  0.00     0.049 A 
ATOM     58  H   UNL A   1      43.869  27.859  27.539  1.00  0.00     0.167 HD
ATOM     59  C   UNL A   1      46.285  29.078  26.736  1.00  0.00     0.074 A 
ATOM     60  C   UNL A   1      47.339  30.060  26.597  1.00  0.00     0.031 C 
ATOM     61  C   UNL A   1      46.343  27.821  26.230  1.00  0.00     0.037 A 
BRANCH  48  62
ATOM     62  C   UNL A   1      41.389  24.385  27.565  1.00  0.00     0.057 A 
ATOM     63  C   UNL A   1      40.292  24.169  26.723  1.00  0.00     0.134 A 
ATOM     64  C   UNL A   1      41.864  23.290  28.300  1.00  0.00     0.134 A 
ATOM     65  F   UNL A   1      39.778  25.177  26.002  1.00  0.00    -0.206 F 
ATOM     66  C   UNL A   1      39.675  22.919  26.634  1.00  0.00     0.040 A 
ATOM     67  C   UNL A   1      41.274  22.030  28.198  1.00  0.00     0.040 A 
ATOM     68  F   UNL A   1      42.916  23.425  29.122  1.00  0.00    -0.206 F 
ATOM     69  C   UNL A   1      40.171  21.843  27.368  1.00  0.00     0.006 A 
ENDBRANCH  48  62
BRANCH  49  70
ATOM     70  C   UNL A   1      45.639  33.334  28.619  1.00  0.00     0.057 A 
ATOM     71  C   UNL A   1      45.475  34.356  27.674  1.00  0.00     0.134 A 
ATOM     72  C   UNL A   1      46.493  33.590  29.699  1.00  0.00     0.134 A 
ATOM     73  F   UNL A   1      44.694  34.163  26.601  1.00  0.00    -0.206 F 
ATOM     74  C   UNL A   1      46.152  35.571  27.784  1.00  0.00     0.040 A 
ATOM     75  C   UNL A   1      47.153  34.812  29.838  1.00  0.00     0.040 A 
ATOM     76  F   UNL A   1      46.698  32.654  30.636  1.00  0.00    -0.206 F 
ATOM     77  C   UNL A   1      46.991  35.804  28.872  1.00  0.00     0.006 A 
ENDBRANCH  49  70
BRANCH  61  78
ATOM     78  C   UNL A   1      47.560  27.445  25.432  1.00  0.00     0.057 A 
ATOM     79  C   UNL A   1      47.643  27.655  24.049  1.00  0.00     0.134 A 
ATOM     80  C   UNL A   1      48.687  26.905  26.068  1.00  0.00     0.134 A 
ATOM     81  F   UNL A   1      46.598  28.159  23.375  1.00  0.00    -0.206 F 
ATOM     82  C   UNL A   1      48.789  27.321  23.326  1.00  0.00     0.040 A 
ATOM     83  C   UNL A   1      49.850  26.595  25.361  1.00  0.00     0.040 A 
ATOM     84  F   UNL A   1      48.683  26.688  27.393  1.00  0.00    -0.206 F 
ATOM     85  C   UNL A   1      49.900  26.796  23.984  1.00  0.00     0.006 A 
ENDBRANCH  61  78
ENDBRANCH  35  36
ENDBRANCH  28  30
ENDBRANCH  27  28
ENDBRANCH  26  27
ENDBRANCH  25  26
ENDBRANCH  24  25
ENDBRANCH  23  24
ENDBRANCH   1  23
TORSDOF 19
ENDMDL
MODEL 3
REMARK VINA RESULT:     -10.3      2.370      4.494
REMARK SMILES C[C@H](C(=O)OCCOCCOCCOC(=O)c1ccc(-c2c3nc(c(-c4c(F)cccc4F)c4ccc([nH]4)c(-c4c(F)cccc4F)c4nc(c(-c5c(F)cccc5F)c5ccc2[nH]5)C=C4)C=C3)cc1)c1ccc(-c2ccccc2)c(F)c1
REMARK SMILES IDX 9 1 8 2 7 3 6 4 5 5 3 6 4 7 2 8 1 9 71 10 72 11 83 12 73 13
REMARK SMILES IDX 81 14 74 15 82 16 75 17 76 18 80 19 77 20 79 21 78 22 10 23
REMARK SMILES IDX 11 24 12 25 13 26 14 27 15 28 16 29 17 30 18 31 70 32 19 33
REMARK SMILES IDX 69 34 20 35 21 36 22 37 63 38 23 39 68 40 62 41 64 42 24 43
REMARK SMILES IDX 67 44 61 45 60 46 25 48 51 49 34 50 50 51 35 52 38 53 49 54
REMARK SMILES IDX 65 55 36 56 37 57 48 59 66 60 39 61 26 62 27 63 32 64 28 65
REMARK SMILES IDX 29 66 31 67 33 68 30 69 52 70 53 71 58 72 54 73 55 74 57 75
REMARK SMILES IDX 59 76 56 77 40 78 41 79 46 80 42 81 43 82 45 83 47 84 44 85
REMARK H PARENT 64 47 38 58
REMARK Flexibility Score: inf
ROOT
ATOM      1  C   UNL A   1      35.624  23.566  23.785  1.00  0.00     0.188 C 
ENDROOT
BRANCH   1   2
ATOM      2  O   UNL A   1      34.856  22.991  22.752  1.00  0.00    -0.376 OA
BRANCH   2   3
ATOM      3  C   UNL A   1      33.462  22.815  22.912  1.00  0.00     0.202 C 
BRANCH   3   4
ATOM      4  C   UNL A   1      32.815  21.458  23.225  1.00  0.00     0.261 C 
BRANCH   4   5
ATOM      5  O   UNL A   1      32.180  21.330  24.503  1.00  0.00    -0.463 OA
BRANCH   5   6
ATOM      6  C   UNL A   1      32.988  21.208  25.588  1.00  0.00     0.313 C 
ATOM      7  O   UNL A   1      33.934  20.429  25.651  1.00  0.00    -0.252 OA
BRANCH   6   8
ATOM      8  C   UNL A   1      32.698  22.221  26.695  1.00  0.00     0.126 C 
ATOM      9  C   UNL A   1      33.752  22.082  27.807  1.00  0.00     0.025 C 
BRANCH   8  10
ATOM     10  C   UNL A   1      32.409  23.678  26.328  1.00  0.00    -0.031 A 
ATOM     11  C   UNL A   1      33.488  24.573  26.195  1.00  0.00     0.005 A 
ATOM     12  C   UNL A   1      31.120  24.220  26.243  1.00  0.00     0.044 A 
ATOM     13  C   UNL A   1      33.289  25.948  26.027  1.00  0.00     0.012 A 
ATOM     14  C   UNL A   1      30.927  25.596  26.071  1.00  0.00     0.131 A 
ATOM     15  C   UNL A   1      31.998  26.491  25.997  1.00  0.00     0.017 A 
ATOM     16  F   UNL A   1      29.664  26.049  26.026  1.00  0.00    -0.206 F 
BRANCH  15  17
ATOM     17  C   UNL A   1      31.803  27.949  26.006  1.00  0.00    -0.015 A 
ATOM     18  C   UNL A   1      31.303  28.637  24.890  1.00  0.00     0.009 A 
ATOM     19  C   UNL A   1      32.188  28.702  27.130  1.00  0.00     0.009 A 
ATOM     20  C   UNL A   1      31.200  30.031  24.897  1.00  0.00     0.001 A 
ATOM     21  C   UNL A   1      32.088  30.094  27.137  1.00  0.00     0.001 A 
ATOM     22  C   UNL A   1      31.596  30.758  26.018  1.00  0.00     0.000 A 
ENDBRANCH  15  17
ENDBRANCH   8  10
ENDBRANCH   6   8
ENDBRANCH   5   6
ENDBRANCH   4   5
ENDBRANCH   3   4
ENDBRANCH   2   3
ENDBRANCH   1   2
BRANCH   1  23
ATOM     23  C   UNL A   1      36.771  22.774  24.451  1.00  0.00     0.188 C 
BRANCH  23  24
ATOM     24  O   UNL A   1      37.055  21.455  24.040  1.00  0.00    -0.376 OA
BRANCH  24  25
ATOM     25  C   UNL A   1      37.307  20.448  25.002  1.00  0.00     0.202 C 
BRANCH  25  26
ATOM     26  C   UNL A   1      38.583  19.588  25.006  1.00  0.00     0.261 C 
BRANCH  26  27
ATOM     27  O   UNL A   1      39.286  19.480  26.252  1.00  0.00    -0.460 OA
BRANCH  27  28
ATOM     28  C   UNL A   1      40.622  19.697  26.195  1.00  0.00     0.338 C 
ATOM     29  O   UNL A   1      41.474  18.954  25.720  1.00  0.00    -0.246 OA
BRANCH  28  30
ATOM     30  C   UNL A   1      40.932  21.069  26.642  1.00  0.00     0.060 A 
ATOM     31  C   UNL A   1      40.533  22.147  25.839  1.00  0.00     0.016 A 
ATOM     32  C   UNL A   1      41.652  21.294  27.816  1.00  0.00     0.016 A 
ATOM     33  C   UNL A   1      40.875  23.454  26.194  1.00  0.00     0.010 A 
ATOM     34  C   UNL A   1      42.013  22.603  28.159  1.00  0.00     0.010 A 
ATOM     35  C   UNL A   1      41.651  23.687  27.337  1.00  0.00    -0.014 A 
BRANCH  35  36
ATOM     36  C   UNL A   1      42.235  25.032  27.583  1.00  0.00     0.031 A 
ATOM     37  C   UNL A   1      41.403  26.060  28.303  1.00  0.00     0.074 A 
ATOM     38  C   UNL A   1      43.482  25.344  27.184  1.00  0.00     0.049 A 
ATOM     39  N   UNL A   1      41.668  27.317  28.558  1.00  0.00    -0.248 NA
ATOM     40  C   UNL A   1      40.094  25.608  28.798  1.00  0.00     0.031 C 
ATOM     41  C   UNL A   1      44.413  24.433  26.525  1.00  0.00     0.029 A 
ATOM     42  N   UNL A   1      44.170  26.530  27.267  1.00  0.00    -0.354 N 
ATOM     43  C   UNL A   1      40.557  27.807  29.232  1.00  0.00     0.074 A 
ATOM     44  C   UNL A   1      39.605  26.721  29.324  1.00  0.00     0.031 C 
ATOM     45  C   UNL A   1      45.549  25.098  26.249  1.00  0.00     0.029 A 
ATOM     46  C   UNL A   1      45.410  26.490  26.676  1.00  0.00     0.049 A 
ATOM     47  H   UNL A   1      43.810  27.333  27.709  1.00  0.00     0.167 HD
ATOM     48  C   UNL A   1      40.346  29.049  29.731  1.00  0.00     0.037 A 
ATOM     49  C   UNL A   1      46.313  27.471  26.477  1.00  0.00     0.037 A 
ATOM     50  C   UNL A   1      41.288  30.134  29.636  1.00  0.00     0.049 A 
ATOM     51  C   UNL A   1      46.017  28.869  26.961  1.00  0.00     0.074 A 
ATOM     52  C   UNL A   1      41.169  31.422  30.128  1.00  0.00     0.029 A 
ATOM     53  N   UNL A   1      42.515  30.062  28.996  1.00  0.00    -0.354 N 
ATOM     54  N   UNL A   1      44.975  29.318  27.617  1.00  0.00    -0.248 NA
ATOM     55  C   UNL A   1      47.027  29.900  26.671  1.00  0.00     0.031 C 
ATOM     56  C   UNL A   1      42.296  32.147  29.733  1.00  0.00     0.029 A 
ATOM     57  C   UNL A   1      43.149  31.294  29.053  1.00  0.00     0.049 A 
ATOM     58  H   UNL A   1      42.882  29.257  28.565  1.00  0.00     0.167 HD
ATOM     59  C   UNL A   1      45.221  30.667  27.852  1.00  0.00     0.074 A 
ATOM     60  C   UNL A   1      46.515  30.962  27.276  1.00  0.00     0.031 C 
ATOM     61  C   UNL A   1      44.445  31.578  28.490  1.00  0.00     0.037 A 
BRANCH  48  62
ATOM     62  C   UNL A   1      39.025  29.313  30.394  1.00  0.00     0.057 A 
ATOM     63  C   UNL A   1      37.928  29.827  29.691  1.00  0.00     0.134 A 
ATOM     64  C   UNL A   1      38.841  29.017  31.751  1.00  0.00     0.134 A 
ATOM     65  F   UNL A   1      38.040  30.145  28.392  1.00  0.00    -0.206 F 
ATOM     66  C   UNL A   1      36.703  30.060  30.319  1.00  0.00     0.040 A 
ATOM     67  C   UNL A   1      37.613  29.218  32.383  1.00  0.00     0.040 A 
ATOM     68  F   UNL A   1      39.848  28.517  32.483  1.00  0.00    -0.206 F 
ATOM     69  C   UNL A   1      36.541  29.747  31.667  1.00  0.00     0.006 A 
ENDBRANCH  48  62
BRANCH  49  70
ATOM     70  C   UNL A   1      47.587  27.185  25.765  1.00  0.00     0.057 A 
ATOM     71  C   UNL A   1      48.715  26.720  26.453  1.00  0.00     0.134 A 
ATOM     72  C   UNL A   1      47.724  27.413  24.390  1.00  0.00     0.134 A 
ATOM     73  F   UNL A   1      48.658  26.510  27.777  1.00  0.00    -0.206 F 
ATOM     74  C   UNL A   1      49.936  26.517  25.807  1.00  0.00     0.040 A 
ATOM     75  C   UNL A   1      48.930  27.185  23.725  1.00  0.00     0.040 A 
ATOM     76  F   UNL A   1      46.685  27.863  23.672  1.00  0.00    -0.206 F 
ATOM     77  C   UNL A   1      50.043  26.744  24.437  1.00  0.00     0.006 A 
ENDBRANCH  49  70
BRANCH  61  78
ATOM     78  C   UNL A   1      44.990  32.970  28.650  1.00  0.00     0.057 A 
ATOM     79  C   UNL A   1      45.819  33.330  29.720  1.00  0.00     0.134 A 
ATOM     80  C   UNL A   1      44.717  33.954  27.689  1.00  0.00     0.134 A 
ATOM     81  F   UNL A   1      46.113  32.440  30.681  1.00  0.00    -0.206 F 
ATOM     82  C   UNL A   1      46.336  34.622  29.843  1.00  0.00     0.040 A 
ATOM     83  C   UNL A   1      45.253  35.239  27.784  1.00  0.00     0.040 A 
ATOM     84  F   UNL A   1      43.941  33.676  26.631  1.00  0.00    -0.206 F 
ATOM     85  C   UNL A   1      46.059  35.578  28.868  1.00  0.00     0.006 A 
ENDBRANCH  61  78
ENDBRANCH  35  36
ENDBRANCH  28  30
ENDBRANCH  27  28
ENDBRANCH  26  27
ENDBRANCH  25  26
ENDBRANCH  24  25
ENDBRANCH  23  24
ENDBRANCH   1  23
TORSDOF 19
ENDMDL
