MODEL 1
REMARK VINA RESULT:     -11.1      0.000      0.000
REMARK SMILES CC(=O)N[C@@H](Cc1c(C)[nH]c2ccccc2c1=O)C(=O)OCCOCCOCCOC(=O)c1ccc(-c2c3nc(c(-c4c(F)cccc4F)c4ccc([nH]4)c(-c4c(F)cccc4F)c4nc(c(-c5c(F)cccc5F)c5ccc2[nH]5)C=C4)C=C3)cc1
REMARK SMILES IDX 25 1 24 2 23 3 22 4 21 5 19 6 20 7 5 8 4 9 1 10 2 11 3 12
REMARK SMILES IDX 6 14 7 15 8 16 17 17 9 18 10 19 16 20 18 21 11 22 15 24
REMARK SMILES IDX 12 25 14 26 13 27 26 28 27 29 28 30 29 31 30 32 31 33 32 34
REMARK SMILES IDX 33 35 34 36 86 37 35 38 85 39 36 40 37 41 38 42 79 43 39 44
REMARK SMILES IDX 84 45 78 46 80 47 40 48 83 49 77 50 76 51 41 53 67 54 50 55
REMARK SMILES IDX 66 56 51 57 54 58 65 59 81 60 52 61 53 62 64 64 82 65 55 66
REMARK SMILES IDX 42 67 43 68 48 69 44 70 45 71 47 72 49 73 46 74 68 75 69 76
REMARK SMILES IDX 74 77 70 78 71 79 73 80 75 81 72 82 56 83 57 84 62 85 58 86
REMARK SMILES IDX 59 87 61 88 63 89 60 90
REMARK H PARENT 4 13 10 23 80 52 54 63
REMARK Flexibility Score: inf
ROOT
ATOM      1  C   UNL A   1      35.814  22.126  24.271  1.00  0.00     0.188 C 
ENDROOT
BRANCH   1   2
ATOM      2  O   UNL A   1      34.523  21.636  24.631  1.00  0.00    -0.376 OA
BRANCH   2   3
ATOM      3  C   UNL A   1      34.147  21.608  25.999  1.00  0.00     0.202 C 
BRANCH   3   4
ATOM      4  C   UNL A   1      32.940  22.464  26.391  1.00  0.00     0.261 C 
BRANCH   4   5
ATOM      5  O   UNL A   1      33.001  23.827  25.926  1.00  0.00    -0.462 OA
BRANCH   5   6
ATOM      6  C   UNL A   1      32.108  24.701  26.465  1.00  0.00     0.329 C 
ATOM      7  O   UNL A   1      31.186  24.378  27.209  1.00  0.00    -0.250 OA
BRANCH   6   8
ATOM      8  C   UNL A   1      32.246  26.139  25.915  1.00  0.00     0.196 C 
BRANCH   8   9
ATOM      9  N   UNL A   1      33.352  26.964  26.414  1.00  0.00    -0.343 N 
ATOM     10  C   UNL A   1      32.043  28.971  26.993  1.00  0.00     0.114 C 
ATOM     11  C   UNL A   1      33.349  28.242  26.883  1.00  0.00     0.217 C 
ATOM     12  O   UNL A   1      34.402  28.768  27.238  1.00  0.00    -0.275 OA
ATOM     13  H   UNL A   1      34.233  26.525  26.408  1.00  0.00     0.164 HD
ENDBRANCH   8   9
BRANCH   8  14
ATOM     14  C   UNL A   1      32.291  26.051  24.372  1.00  0.00     0.078 C 
BRANCH  14  15
ATOM     15  C   UNL A   1      31.627  27.219  23.661  1.00  0.00     0.022 A 
ATOM     16  C   UNL A   1      32.241  28.270  23.071  1.00  0.00     0.019 A 
ATOM     17  C   UNL A   1      30.123  27.194  23.637  1.00  0.00     0.192 A 
ATOM     18  C   UNL A   1      33.741  28.468  23.062  1.00  0.00     0.064 C 
ATOM     19  N   UNL A   1      31.537  29.286  22.452  1.00  0.00    -0.358 N 
ATOM     20  C   UNL A   1      29.397  28.341  23.061  1.00  0.00     0.046 A 
ATOM     21  O   UNL A   1      29.497  26.258  24.120  1.00  0.00    -0.289 OA
ATOM     22  C   UNL A   1      30.142  29.351  22.449  1.00  0.00     0.049 A 
ATOM     23  H   UNL A   1      32.041  29.997  21.993  1.00  0.00     0.166 HD
ATOM     24  C   UNL A   1      28.000  28.403  23.127  1.00  0.00     0.014 A 
ATOM     25  C   UNL A   1      29.460  30.412  21.849  1.00  0.00     0.027 A 
ATOM     26  C   UNL A   1      27.334  29.477  22.543  1.00  0.00     0.001 A 
ATOM     27  C   UNL A   1      28.063  30.473  21.893  1.00  0.00     0.002 A 
ENDBRANCH  14  15
ENDBRANCH   8  14
ENDBRANCH   6   8
ENDBRANCH   5   6
ENDBRANCH   4   5
ENDBRANCH   3   4
ENDBRANCH   2   3
ENDBRANCH   1   2
BRANCH   1  28
ATOM     28  C   UNL A   1      36.475  23.255  25.088  1.00  0.00     0.188 C 
BRANCH  28  29
ATOM     29  O   UNL A   1      37.797  22.937  25.484  1.00  0.00    -0.376 OA
BRANCH  29  30
ATOM     30  C   UNL A   1      38.129  21.564  25.484  1.00  0.00     0.202 C 
BRANCH  30  31
ATOM     31  C   UNL A   1      39.498  21.272  26.105  1.00  0.00     0.261 C 
BRANCH  31  32
ATOM     32  O   UNL A   1      39.882  19.885  26.112  1.00  0.00    -0.460 OA
BRANCH  32  33
ATOM     33  C   UNL A   1      41.204  19.599  26.130  1.00  0.00     0.338 C 
ATOM     34  O   UNL A   1      41.735  18.568  25.757  1.00  0.00    -0.246 OA
BRANCH  33  35
ATOM     35  C   UNL A   1      41.920  20.837  26.522  1.00  0.00     0.060 A 
ATOM     36  C   UNL A   1      42.426  21.697  25.542  1.00  0.00     0.016 A 
ATOM     37  C   UNL A   1      42.125  21.124  27.880  1.00  0.00     0.016 A 
ATOM     38  C   UNL A   1      43.106  22.857  25.922  1.00  0.00     0.010 A 
ATOM     39  C   UNL A   1      42.815  22.284  28.259  1.00  0.00     0.010 A 
ATOM     40  C   UNL A   1      43.286  23.175  27.283  1.00  0.00    -0.014 A 
BRANCH  40  41
ATOM     41  C   UNL A   1      43.747  24.543  27.638  1.00  0.00     0.031 A 
ATOM     42  C   UNL A   1      45.173  24.987  27.518  1.00  0.00     0.074 A 
ATOM     43  C   UNL A   1      42.811  25.418  28.050  1.00  0.00     0.049 A 
ATOM     44  N   UNL A   1      45.662  26.202  27.593  1.00  0.00    -0.248 NA
ATOM     45  C   UNL A   1      46.182  23.943  27.306  1.00  0.00     0.031 C 
ATOM     46  C   UNL A   1      41.401  25.092  28.267  1.00  0.00     0.029 A 
ATOM     47  N   UNL A   1      42.893  26.758  28.332  1.00  0.00    -0.354 N 
ATOM     48  C   UNL A   1      47.032  26.078  27.408  1.00  0.00     0.074 A 
ATOM     49  C   UNL A   1      47.302  24.658  27.276  1.00  0.00     0.031 C 
ATOM     50  C   UNL A   1      40.741  26.209  28.605  1.00  0.00     0.029 A 
ATOM     51  C   UNL A   1      41.681  27.324  28.636  1.00  0.00     0.049 A 
ATOM     52  H   UNL A   1      43.739  27.263  28.318  1.00  0.00     0.167 HD
ATOM     53  C   UNL A   1      47.970  27.058  27.341  1.00  0.00     0.037 A 
ATOM     54  C   UNL A   1      41.352  28.604  28.888  1.00  0.00     0.037 A 
ATOM     55  C   UNL A   1      47.698  28.468  27.508  1.00  0.00     0.049 A 
ATOM     56  C   UNL A   1      42.408  29.666  28.810  1.00  0.00     0.074 A 
ATOM     57  C   UNL A   1      48.572  29.538  27.396  1.00  0.00     0.029 A 
ATOM     58  N   UNL A   1      46.464  29.004  27.848  1.00  0.00    -0.354 N 
ATOM     59  N   UNL A   1      43.679  29.552  28.510  1.00  0.00    -0.248 NA
ATOM     60  C   UNL A   1      41.976  31.042  29.089  1.00  0.00     0.031 C 
ATOM     61  C   UNL A   1      47.881  30.712  27.724  1.00  0.00     0.029 A 
ATOM     62  C   UNL A   1      46.562  30.383  27.984  1.00  0.00     0.049 A 
ATOM     63  H   UNL A   1      45.639  28.483  27.975  1.00  0.00     0.167 HD
ATOM     64  C   UNL A   1      44.193  30.842  28.542  1.00  0.00     0.074 A 
ATOM     65  C   UNL A   1      43.089  31.723  28.861  1.00  0.00     0.031 C 
ATOM     66  C   UNL A   1      45.466  31.257  28.325  1.00  0.00     0.037 A 
BRANCH  53  67
ATOM     67  C   UNL A   1      49.390  26.641  27.069  1.00  0.00     0.057 A 
ATOM     68  C   UNL A   1      49.844  26.428  25.761  1.00  0.00     0.134 A 
ATOM     69  C   UNL A   1      50.296  26.393  28.110  1.00  0.00     0.134 A 
ATOM     70  F   UNL A   1      49.027  26.628  24.714  1.00  0.00    -0.206 F 
ATOM     71  C   UNL A   1      51.144  25.989  25.497  1.00  0.00     0.040 A 
ATOM     72  C   UNL A   1      51.607  25.981  27.859  1.00  0.00     0.040 A 
ATOM     73  F   UNL A   1      49.928  26.572  29.388  1.00  0.00    -0.206 F 
ATOM     74  C   UNL A   1      52.033  25.772  26.549  1.00  0.00     0.006 A 
ENDBRANCH  53  67
BRANCH  54  75
ATOM     75  C   UNL A   1      39.943  28.956  29.187  1.00  0.00     0.057 A 
ATOM     76  C   UNL A   1      39.046  29.295  28.167  1.00  0.00     0.134 A 
ATOM     77  C   UNL A   1      39.460  28.956  30.501  1.00  0.00     0.134 A 
ATOM     78  F   UNL A   1      39.453  29.324  26.890  1.00  0.00    -0.206 F 
ATOM     79  C   UNL A   1      37.719  29.623  28.444  1.00  0.00     0.040 A 
ATOM     80  C   UNL A   1      38.128  29.254  30.788  1.00  0.00     0.040 A 
ATOM     81  F   UNL A   1      40.270  28.626  31.519  1.00  0.00    -0.206 F 
ATOM     82  C   UNL A   1      37.255  29.594  29.757  1.00  0.00     0.006 A 
ENDBRANCH  54  75
BRANCH  66  83
ATOM     83  C   UNL A   1      45.717  32.737  28.417  1.00  0.00     0.057 A 
ATOM     84  C   UNL A   1      46.054  33.332  29.639  1.00  0.00     0.134 A 
ATOM     85  C   UNL A   1      45.654  33.572  27.292  1.00  0.00     0.134 A 
ATOM     86  F   UNL A   1      46.125  32.596  30.759  1.00  0.00    -0.206 F 
ATOM     87  C   UNL A   1      46.335  34.696  29.737  1.00  0.00     0.040 A 
ATOM     88  C   UNL A   1      45.965  34.932  27.370  1.00  0.00     0.040 A 
ATOM     89  F   UNL A   1      45.353  33.067  26.086  1.00  0.00    -0.206 F 
ATOM     90  C   UNL A   1      46.304  35.498  28.597  1.00  0.00     0.006 A 
ENDBRANCH  66  83
ENDBRANCH  40  41
ENDBRANCH  33  35
ENDBRANCH  32  33
ENDBRANCH  31  32
ENDBRANCH  30  31
ENDBRANCH  29  30
ENDBRANCH  28  29
ENDBRANCH   1  28
TORSDOF 20
ENDMDL
MODEL 2
REMARK VINA RESULT:     -11.0      4.334      7.007
REMARK SMILES CC(=O)N[C@@H](Cc1c(C)[nH]c2ccccc2c1=O)C(=O)OCCOCCOCCOC(=O)c1ccc(-c2c3nc(c(-c4c(F)cccc4F)c4ccc([nH]4)c(-c4c(F)cccc4F)c4nc(c(-c5c(F)cccc5F)c5ccc2[nH]5)C=C4)C=C3)cc1
REMARK SMILES IDX 25 1 24 2 23 3 22 4 21 5 19 6 20 7 5 8 4 9 1 10 2 11 3 12
REMARK SMILES IDX 6 14 7 15 8 16 17 17 9 18 10 19 16 20 18 21 11 22 15 24
REMARK SMILES IDX 12 25 14 26 13 27 26 28 27 29 28 30 29 31 30 32 31 33 32 34
REMARK SMILES IDX 33 35 34 36 86 37 35 38 85 39 36 40 37 41 38 42 79 43 39 44
REMARK SMILES IDX 84 45 78 46 80 47 40 48 83 49 77 50 76 51 41 53 67 54 50 55
REMARK SMILES IDX 66 56 51 57 54 58 65 59 81 60 52 61 53 62 64 64 82 65 55 66
REMARK SMILES IDX 42 67 43 68 48 69 44 70 45 71 47 72 49 73 46 74 68 75 69 76
REMARK SMILES IDX 74 77 70 78 71 79 73 80 75 81 72 82 56 83 57 84 62 85 58 86
REMARK SMILES IDX 59 87 61 88 63 89 60 90
REMARK H PARENT 4 13 10 23 80 52 54 63
REMARK Flexibility Score: inf
ROOT
ATOM      1  C   UNL A   1      39.703  22.003  26.197  1.00  0.00     0.188 C 
ENDROOT
BRANCH   1   2
ATOM      2  O   UNL A   1      38.817  20.997  25.707  1.00  0.00    -0.376 OA
BRANCH   2   3
ATOM      3  C   UNL A   1      37.567  21.381  25.158  1.00  0.00     0.202 C 
BRANCH   3   4
ATOM      4  C   UNL A   1      36.968  22.691  25.677  1.00  0.00     0.261 C 
BRANCH   4   5
ATOM      5  O   UNL A   1      35.730  23.072  25.045  1.00  0.00    -0.462 OA
BRANCH   5   6
ATOM      6  C   UNL A   1      34.584  22.583  25.593  1.00  0.00     0.329 C 
ATOM      7  O   UNL A   1      34.367  22.518  26.800  1.00  0.00    -0.250 OA
BRANCH   6   8
ATOM      8  C   UNL A   1      33.632  21.943  24.557  1.00  0.00     0.196 C 
BRANCH   8   9
ATOM      9  N   UNL A   1      32.770  20.842  25.003  1.00  0.00    -0.343 N 
ATOM     10  C   UNL A   1      34.326  18.986  24.542  1.00  0.00     0.114 C 
ATOM     11  C   UNL A   1      32.994  19.499  25.001  1.00  0.00     0.217 C 
ATOM     12  O   UNL A   1      32.121  18.731  25.403  1.00  0.00    -0.275 OA
ATOM     13  H   UNL A   1      31.894  21.117  25.357  1.00  0.00     0.164 HD
ENDBRANCH   8   9
BRANCH   8  14
ATOM     14  C   UNL A   1      32.784  23.074  23.934  1.00  0.00     0.078 C 
BRANCH  14  15
ATOM     15  C   UNL A   1      32.463  24.212  24.888  1.00  0.00     0.022 A 
ATOM     16  C   UNL A   1      31.569  24.196  25.905  1.00  0.00     0.019 A 
ATOM     17  C   UNL A   1      33.216  25.492  24.651  1.00  0.00     0.192 A 
ATOM     18  C   UNL A   1      30.695  23.007  26.234  1.00  0.00     0.064 C 
ATOM     19  N   UNL A   1      31.350  25.296  26.714  1.00  0.00    -0.358 N 
ATOM     20  C   UNL A   1      32.889  26.678  25.463  1.00  0.00     0.046 A 
ATOM     21  O   UNL A   1      34.067  25.573  23.771  1.00  0.00    -0.289 OA
ATOM     22  C   UNL A   1      31.974  26.528  26.507  1.00  0.00     0.049 A 
ATOM     23  H   UNL A   1      30.728  25.206  27.471  1.00  0.00     0.166 HD
ATOM     24  C   UNL A   1      33.487  27.914  25.190  1.00  0.00     0.014 A 
ATOM     25  C   UNL A   1      31.701  27.632  27.318  1.00  0.00     0.027 A 
ATOM     26  C   UNL A   1      33.191  29.011  25.994  1.00  0.00     0.001 A 
ATOM     27  C   UNL A   1      32.309  28.866  27.066  1.00  0.00     0.002 A 
ENDBRANCH  14  15
ENDBRANCH   8  14
ENDBRANCH   6   8
ENDBRANCH   5   6
ENDBRANCH   4   5
ENDBRANCH   3   4
ENDBRANCH   2   3
ENDBRANCH   1   2
BRANCH   1  28
ATOM     28  C   UNL A   1      41.166  21.653  26.540  1.00  0.00     0.188 C 
BRANCH  28  29
ATOM     29  O   UNL A   1      41.993  21.590  25.392  1.00  0.00    -0.376 OA
BRANCH  29  30
ATOM     30  C   UNL A   1      43.384  21.592  25.631  1.00  0.00     0.202 C 
BRANCH  30  31
ATOM     31  C   UNL A   1      44.160  22.518  24.688  1.00  0.00     0.261 C 
BRANCH  31  32
ATOM     32  O   UNL A   1      43.711  23.885  24.668  1.00  0.00    -0.460 OA
BRANCH  32  33
ATOM     33  C   UNL A   1      44.559  24.831  25.131  1.00  0.00     0.338 C 
ATOM     34  O   UNL A   1      45.654  25.117  24.678  1.00  0.00    -0.246 OA
BRANCH  33  35
ATOM     35  C   UNL A   1      43.845  25.589  26.187  1.00  0.00     0.060 A 
ATOM     36  C   UNL A   1      42.759  25.014  26.852  1.00  0.00     0.016 A 
ATOM     37  C   UNL A   1      44.237  26.902  26.489  1.00  0.00     0.016 A 
ATOM     38  C   UNL A   1      42.088  25.739  27.840  1.00  0.00     0.010 A 
ATOM     39  C   UNL A   1      43.557  27.631  27.475  1.00  0.00     0.010 A 
ATOM     40  C   UNL A   1      42.494  27.044  28.179  1.00  0.00    -0.014 A 
BRANCH  40  41
ATOM     41  C   UNL A   1      41.951  27.659  29.419  1.00  0.00     0.031 A 
ATOM     42  C   UNL A   1      42.613  27.532  30.757  1.00  0.00     0.074 A 
ATOM     43  C   UNL A   1      40.829  28.393  29.299  1.00  0.00     0.049 A 
ATOM     44  N   UNL A   1      42.358  28.190  31.863  1.00  0.00    -0.248 NA
ATOM     45  C   UNL A   1      43.679  26.532  30.882  1.00  0.00     0.031 C 
ATOM     46  C   UNL A   1      40.057  28.543  28.065  1.00  0.00     0.029 A 
ATOM     47  N   UNL A   1      40.159  29.168  30.211  1.00  0.00    -0.354 N 
ATOM     48  C   UNL A   1      43.250  27.709  32.811  1.00  0.00     0.074 A 
ATOM     49  C   UNL A   1      44.015  26.660  32.161  1.00  0.00     0.031 C 
ATOM     50  C   UNL A   1      39.045  29.394  28.283  1.00  0.00     0.029 A 
ATOM     51  C   UNL A   1      39.092  29.841  29.672  1.00  0.00     0.049 A 
ATOM     52  H   UNL A   1      40.418  29.234  31.159  1.00  0.00     0.167 HD
ATOM     53  C   UNL A   1      43.423  28.117  34.095  1.00  0.00     0.037 A 
ATOM     54  C   UNL A   1      38.257  30.741  30.222  1.00  0.00     0.037 A 
ATOM     55  C   UNL A   1      42.635  29.139  34.745  1.00  0.00     0.049 A 
ATOM     56  C   UNL A   1      38.468  31.171  31.643  1.00  0.00     0.074 A 
ATOM     57  C   UNL A   1      42.776  29.662  36.021  1.00  0.00     0.029 A 
ATOM     58  N   UNL A   1      41.539  29.777  34.180  1.00  0.00    -0.354 N 
ATOM     59  N   UNL A   1      39.395  30.801  32.492  1.00  0.00    -0.248 NA
ATOM     60  C   UNL A   1      37.523  32.161  32.175  1.00  0.00     0.031 C 
ATOM     61  C   UNL A   1      41.734  30.571  36.247  1.00  0.00     0.029 A 
ATOM     62  C   UNL A   1      40.977  30.661  35.092  1.00  0.00     0.049 A 
ATOM     63  H   UNL A   1      41.210  29.626  33.265  1.00  0.00     0.167 HD
ATOM     64  C   UNL A   1      39.160  31.529  33.651  1.00  0.00     0.074 A 
ATOM     65  C   UNL A   1      38.020  32.383  33.383  1.00  0.00     0.031 C 
ATOM     66  C   UNL A   1      39.828  31.494  34.830  1.00  0.00     0.037 A 
BRANCH  53  67
ATOM     67  C   UNL A   1      44.516  27.456  34.891  1.00  0.00     0.057 A 
ATOM     68  C   UNL A   1      44.256  26.326  35.678  1.00  0.00     0.134 A 
ATOM     69  C   UNL A   1      45.818  27.975  34.927  1.00  0.00     0.134 A 
ATOM     70  F   UNL A   1      43.028  25.784  35.709  1.00  0.00    -0.206 F 
ATOM     71  C   UNL A   1      45.248  25.735  36.464  1.00  0.00     0.040 A 
ATOM     72  C   UNL A   1      46.826  27.377  35.686  1.00  0.00     0.040 A 
ATOM     73  F   UNL A   1      46.137  29.059  34.201  1.00  0.00    -0.206 F 
ATOM     74  C   UNL A   1      46.541  26.257  36.463  1.00  0.00     0.006 A 
ENDBRANCH  53  67
BRANCH  54  75
ATOM     75  C   UNL A   1      37.172  31.334  29.403  1.00  0.00     0.057 A 
ATOM     76  C   UNL A   1      37.293  32.616  28.854  1.00  0.00     0.134 A 
ATOM     77  C   UNL A   1      35.990  30.628  29.146  1.00  0.00     0.134 A 
ATOM     78  F   UNL A   1      38.396  33.345  29.075  1.00  0.00    -0.206 F 
ATOM     79  C   UNL A   1      36.276  33.176  28.081  1.00  0.00     0.040 A 
ATOM     80  C   UNL A   1      34.979  31.165  28.350  1.00  0.00     0.040 A 
ATOM     81  F   UNL A   1      35.824  29.389  29.635  1.00  0.00    -0.206 F 
ATOM     82  C   UNL A   1      35.119  32.445  27.820  1.00  0.00     0.006 A 
ENDBRANCH  54  75
BRANCH  66  83
ATOM     83  C   UNL A   1      39.340  32.421  35.910  1.00  0.00     0.057 A 
ATOM     84  C   UNL A   1      38.393  31.991  36.848  1.00  0.00     0.134 A 
ATOM     85  C   UNL A   1      39.827  33.729  36.041  1.00  0.00     0.134 A 
ATOM     86  F   UNL A   1      37.878  30.754  36.781  1.00  0.00    -0.206 F 
ATOM     87  C   UNL A   1      37.962  32.821  37.886  1.00  0.00     0.040 A 
ATOM     88  C   UNL A   1      39.427  34.558  37.093  1.00  0.00     0.040 A 
ATOM     89  F   UNL A   1      40.748  34.201  35.187  1.00  0.00    -0.206 F 
ATOM     90  C   UNL A   1      38.490  34.104  38.017  1.00  0.00     0.006 A 
ENDBRANCH  66  83
ENDBRANCH  40  41
ENDBRANCH  33  35
ENDBRANCH  32  33
ENDBRANCH  31  32
ENDBRANCH  30  31
ENDBRANCH  29  30
ENDBRANCH  28  29
ENDBRANCH   1  28
TORSDOF 20
ENDMDL
MODEL 3
REMARK VINA RESULT:     -10.8      5.739     10.277
REMARK SMILES CC(=O)N[C@@H](Cc1c(C)[nH]c2ccccc2c1=O)C(=O)OCCOCCOCCOC(=O)c1ccc(-c2c3nc(c(-c4c(F)cccc4F)c4ccc([nH]4)c(-c4c(F)cccc4F)c4nc(c(-c5c(F)cccc5F)c5ccc2[nH]5)C=C4)C=C3)cc1
REMARK SMILES IDX 25 1 24 2 23 3 22 4 21 5 19 6 20 7 5 8 4 9 1 10 2 11 3 12
REMARK SMILES IDX 6 14 7 15 8 16 17 17 9 18 10 19 16 20 18 21 11 22 15 24
REMARK SMILES IDX 12 25 14 26 13 27 26 28 27 29 28 30 29 31 30 32 31 33 32 34
REMARK SMILES IDX 33 35 34 36 86 37 35 38 85 39 36 40 37 41 38 42 79 43 39 44
REMARK SMILES IDX 84 45 78 46 80 47 40 48 83 49 77 50 76 51 41 53 67 54 50 55
REMARK SMILES IDX 66 56 51 57 54 58 65 59 81 60 52 61 53 62 64 64 82 65 55 66
REMARK SMILES IDX 42 67 43 68 48 69 44 70 45 71 47 72 49 73 46 74 68 75 69 76
REMARK SMILES IDX 74 77 70 78 71 79 73 80 75 81 72 82 56 83 57 84 62 85 58 86
REMARK SMILES IDX 59 87 61 88 63 89 60 90
REMARK H PARENT 4 13 10 23 80 52 54 63
REMARK Flexibility Score: inf
ROOT
ATOM      1  C   UNL A   1      34.579  32.933  28.776  1.00  0.00     0.188 C 
ENDROOT
BRANCH   1   2
ATOM      2  O   UNL A   1      34.460  31.807  27.907  1.00  0.00    -0.376 OA
BRANCH   2   3
ATOM      3  C   UNL A   1      35.539  30.891  27.806  1.00  0.00     0.202 C 
BRANCH   3   4
ATOM      4  C   UNL A   1      35.176  29.404  27.854  1.00  0.00     0.261 C 
BRANCH   4   5
ATOM      5  O   UNL A   1      34.416  28.940  26.721  1.00  0.00    -0.462 OA
BRANCH   5   6
ATOM      6  C   UNL A   1      33.270  28.256  26.988  1.00  0.00     0.329 C 
ATOM      7  O   UNL A   1      32.567  28.442  27.977  1.00  0.00    -0.250 OA
BRANCH   6   8
ATOM      8  C   UNL A   1      33.014  27.082  26.015  1.00  0.00     0.196 C 
BRANCH   8   9
ATOM      9  N   UNL A   1      31.809  26.270  26.219  1.00  0.00    -0.343 N 
ATOM     10  C   UNL A   1      32.916  24.083  26.489  1.00  0.00     0.114 C 
ATOM     11  C   UNL A   1      31.679  24.927  26.407  1.00  0.00     0.217 C 
ATOM     12  O   UNL A   1      30.562  24.431  26.538  1.00  0.00    -0.275 OA
ATOM     13  H   UNL A   1      30.963  26.774  26.219  1.00  0.00     0.164 HD
ENDBRANCH   8   9
BRANCH   8  14
ATOM     14  C   UNL A   1      33.049  27.645  24.577  1.00  0.00     0.078 C 
BRANCH  14  15
ATOM     15  C   UNL A   1      31.684  28.002  24.013  1.00  0.00     0.022 A 
ATOM     16  C   UNL A   1      30.902  27.231  23.221  1.00  0.00     0.019 A 
ATOM     17  C   UNL A   1      31.170  29.369  24.369  1.00  0.00     0.192 A 
ATOM     18  C   UNL A   1      31.302  25.858  22.730  1.00  0.00     0.064 C 
ATOM     19  N   UNL A   1      29.672  27.657  22.757  1.00  0.00    -0.358 N 
ATOM     20  C   UNL A   1      29.903  29.836  23.777  1.00  0.00     0.046 A 
ATOM     21  O   UNL A   1      31.806  30.112  25.110  1.00  0.00    -0.289 OA
ATOM     22  C   UNL A   1      29.168  28.936  23.003  1.00  0.00     0.049 A 
ATOM     23  H   UNL A   1      29.125  27.031  22.230  1.00  0.00     0.166 HD
ATOM     24  C   UNL A   1      29.457  31.145  23.995  1.00  0.00     0.014 A 
ATOM     25  C   UNL A   1      27.938  29.350  22.486  1.00  0.00     0.027 A 
ATOM     26  C   UNL A   1      28.239  31.552  23.457  1.00  0.00     0.001 A 
ATOM     27  C   UNL A   1      27.474  30.650  22.715  1.00  0.00     0.002 A 
ENDBRANCH  14  15
ENDBRANCH   8  14
ENDBRANCH   6   8
ENDBRANCH   5   6
ENDBRANCH   4   5
ENDBRANCH   3   4
ENDBRANCH   2   3
ENDBRANCH   1   2
BRANCH   1  28
ATOM     28  C   UNL A   1      35.246  34.233  28.280  1.00  0.00     0.188 C 
BRANCH  28  29
ATOM     29  O   UNL A   1      34.404  35.362  28.418  1.00  0.00    -0.376 OA
BRANCH  29  30
ATOM     30  C   UNL A   1      33.167  35.136  29.059  1.00  0.00     0.202 C 
BRANCH  30  31
ATOM     31  C   UNL A   1      32.764  36.266  30.013  1.00  0.00     0.261 C 
BRANCH  31  32
ATOM     32  O   UNL A   1      32.073  35.843  31.202  1.00  0.00    -0.460 OA
BRANCH  32  33
ATOM     33  C   UNL A   1      32.643  36.130  32.396  1.00  0.00     0.338 C 
ATOM     34  O   UNL A   1      32.223  36.898  33.242  1.00  0.00    -0.246 OA
BRANCH  33  35
ATOM     35  C   UNL A   1      33.789  35.205  32.573  1.00  0.00     0.060 A 
ATOM     36  C   UNL A   1      35.094  35.651  32.344  1.00  0.00     0.016 A 
ATOM     37  C   UNL A   1      33.558  33.868  32.931  1.00  0.00     0.016 A 
ATOM     38  C   UNL A   1      36.166  34.770  32.506  1.00  0.00     0.010 A 
ATOM     39  C   UNL A   1      34.634  32.983  33.085  1.00  0.00     0.010 A 
ATOM     40  C   UNL A   1      35.950  33.435  32.902  1.00  0.00    -0.014 A 
BRANCH  40  41
ATOM     41  C   UNL A   1      37.117  32.626  33.343  1.00  0.00     0.031 A 
ATOM     42  C   UNL A   1      37.756  31.572  32.491  1.00  0.00     0.074 A 
ATOM     43  C   UNL A   1      37.629  32.899  34.557  1.00  0.00     0.049 A 
ATOM     44  N   UNL A   1      38.897  30.951  32.673  1.00  0.00    -0.248 NA
ATOM     45  C   UNL A   1      37.021  31.145  31.295  1.00  0.00     0.031 C 
ATOM     46  C   UNL A   1      37.061  33.857  35.507  1.00  0.00     0.029 A 
ATOM     47  N   UNL A   1      38.749  32.422  35.190  1.00  0.00    -0.354 N 
ATOM     48  C   UNL A   1      39.036  30.079  31.602  1.00  0.00     0.074 A 
ATOM     49  C   UNL A   1      37.830  30.212  30.805  1.00  0.00     0.031 C 
ATOM     50  C   UNL A   1      37.859  33.932  36.582  1.00  0.00     0.029 A 
ATOM     51  C   UNL A   1      38.985  33.023  36.401  1.00  0.00     0.049 A 
ATOM     52  H   UNL A   1      39.325  31.719  34.813  1.00  0.00     0.167 HD
ATOM     53  C   UNL A   1      40.078  29.260  31.307  1.00  0.00     0.037 A 
ATOM     54  C   UNL A   1      40.009  32.881  37.262  1.00  0.00     0.037 A 
ATOM     55  C   UNL A   1      41.260  29.108  32.125  1.00  0.00     0.049 A 
ATOM     56  C   UNL A   1      41.145  31.966  36.914  1.00  0.00     0.074 A 
ATOM     57  C   UNL A   1      42.393  28.349  31.878  1.00  0.00     0.029 A 
ATOM     58  N   UNL A   1      41.453  29.706  33.363  1.00  0.00    -0.354 N 
ATOM     59  N   UNL A   1      41.326  31.241  35.837  1.00  0.00    -0.248 NA
ATOM     60  C   UNL A   1      42.231  31.866  37.897  1.00  0.00     0.031 C 
ATOM     61  C   UNL A   1      43.243  28.442  32.988  1.00  0.00     0.029 A 
ATOM     62  C   UNL A   1      42.668  29.307  33.904  1.00  0.00     0.049 A 
ATOM     63  H   UNL A   1      40.820  30.324  33.794  1.00  0.00     0.167 HD
ATOM     64  C   UNL A   1      42.555  30.617  36.002  1.00  0.00     0.074 A 
ATOM     65  C   UNL A   1      43.087  31.073  37.271  1.00  0.00     0.031 C 
ATOM     66  C   UNL A   1      43.186  29.744  35.178  1.00  0.00     0.037 A 
BRANCH  53  67
ATOM     67  C   UNL A   1      39.992  28.458  30.037  1.00  0.00     0.057 A 
ATOM     68  C   UNL A   1      39.312  27.233  30.000  1.00  0.00     0.134 A 
ATOM     69  C   UNL A   1      40.633  28.870  28.861  1.00  0.00     0.134 A 
ATOM     70  F   UNL A   1      38.689  26.764  31.093  1.00  0.00    -0.206 F 
ATOM     71  C   UNL A   1      39.269  26.452  28.842  1.00  0.00     0.040 A 
ATOM     72  C   UNL A   1      40.575  28.113  27.689  1.00  0.00     0.040 A 
ATOM     73  F   UNL A   1      41.307  30.030  28.826  1.00  0.00    -0.206 F 
ATOM     74  C   UNL A   1      39.896  26.896  27.679  1.00  0.00     0.006 A 
ENDBRANCH  53  67
BRANCH  54  75
ATOM     75  C   UNL A   1      40.026  33.668  38.519  1.00  0.00     0.057 A 
ATOM     76  C   UNL A   1      39.315  33.248  39.649  1.00  0.00     0.134 A 
ATOM     77  C   UNL A   1      40.759  34.857  38.620  1.00  0.00     0.134 A 
ATOM     78  F   UNL A   1      38.585  32.123  39.610  1.00  0.00    -0.206 F 
ATOM     79  C   UNL A   1      39.330  33.982  40.835  1.00  0.00     0.040 A 
ATOM     80  C   UNL A   1      40.806  35.585  39.808  1.00  0.00     0.040 A 
ATOM     81  F   UNL A   1      41.471  35.302  37.573  1.00  0.00    -0.206 F 
ATOM     82  C   UNL A   1      40.086  35.150  40.918  1.00  0.00     0.006 A 
ENDBRANCH  54  75
BRANCH  66  83
ATOM     83  C   UNL A   1      44.530  29.242  35.628  1.00  0.00     0.057 A 
ATOM     84  C   UNL A   1      44.639  28.073  36.392  1.00  0.00     0.134 A 
ATOM     85  C   UNL A   1      45.721  29.898  35.283  1.00  0.00     0.134 A 
ATOM     86  F   UNL A   1      43.542  27.397  36.765  1.00  0.00    -0.206 F 
ATOM     87  C   UNL A   1      45.881  27.566  36.780  1.00  0.00     0.040 A 
ATOM     88  C   UNL A   1      46.970  29.383  35.638  1.00  0.00     0.040 A 
ATOM     89  F   UNL A   1      45.692  31.014  34.539  1.00  0.00    -0.206 F 
ATOM     90  C   UNL A   1      47.051  28.214  36.392  1.00  0.00     0.006 A 
ENDBRANCH  66  83
ENDBRANCH  40  41
ENDBRANCH  33  35
ENDBRANCH  32  33
ENDBRANCH  31  32
ENDBRANCH  30  31
ENDBRANCH  29  30
ENDBRANCH  28  29
ENDBRANCH   1  28
TORSDOF 20
ENDMDL
