MODEL 1
REMARK VINA RESULT:     -11.1      0.000      0.000
REMARK SMILES C[C@@H](C(=O)OCCOCCOCCOC(=O)c1ccc(-c2c3nc(c(-c4c(F)cccc4F)c4ccc([nH]4)c(-c4c(F)cccc4F)c4nc(c(-c5c(F)cccc5F)c5ccc2[nH]5)C=C4)C=C3)cc1)c1ccc(-c2ccccc2)c(F)c1
REMARK SMILES IDX 9 1 8 2 7 3 6 4 5 5 3 6 4 7 2 8 1 9 71 10 72 11 83 12 73 13
REMARK SMILES IDX 81 14 74 15 82 16 75 17 76 18 80 19 77 20 79 21 78 22 10 23
REMARK SMILES IDX 11 24 12 25 13 26 14 27 15 28 16 29 17 30 18 31 70 32 19 33
REMARK SMILES IDX 69 34 20 35 21 36 22 37 63 38 23 39 68 40 62 41 64 42 24 43
REMARK SMILES IDX 67 44 61 45 60 46 25 48 51 49 34 50 50 51 35 52 38 53 49 54
REMARK SMILES IDX 65 55 36 56 37 57 48 59 66 60 39 61 26 62 27 63 32 64 28 65
REMARK SMILES IDX 29 66 31 67 33 68 30 69 52 70 53 71 58 72 54 73 55 74 57 75
REMARK SMILES IDX 59 76 56 77 40 78 41 79 46 80 42 81 43 82 45 83 47 84 44 85
REMARK H PARENT 64 47 38 58
REMARK Flexibility Score: inf
ROOT
ATOM      1  C   UNL A   1      39.925  21.665  26.584  1.00  0.00     0.188 C 
ENDROOT
BRANCH   1   2
ATOM      2  O   UNL A   1      38.560  21.891  26.257  1.00  0.00    -0.376 OA
BRANCH   2   3
ATOM      3  C   UNL A   1      38.050  21.350  25.042  1.00  0.00     0.202 C 
BRANCH   3   4
ATOM      4  C   UNL A   1      36.578  21.603  24.664  1.00  0.00     0.261 C 
BRANCH   4   5
ATOM      5  O   UNL A   1      35.603  21.277  25.680  1.00  0.00    -0.463 OA
BRANCH   5   6
ATOM      6  C   UNL A   1      34.397  21.898  25.575  1.00  0.00     0.313 C 
ATOM      7  O   UNL A   1      33.628  21.736  24.631  1.00  0.00    -0.252 OA
BRANCH   6   8
ATOM      8  C   UNL A   1      34.042  22.820  26.754  1.00  0.00     0.126 C 
ATOM      9  C   UNL A   1      33.400  22.199  28.000  1.00  0.00     0.025 C 
BRANCH   8  10
ATOM     10  C   UNL A   1      33.310  24.063  26.255  1.00  0.00    -0.031 A 
ATOM     11  C   UNL A   1      31.952  24.293  26.500  1.00  0.00     0.005 A 
ATOM     12  C   UNL A   1      33.987  24.977  25.436  1.00  0.00     0.044 A 
ATOM     13  C   UNL A   1      31.289  25.384  25.927  1.00  0.00     0.012 A 
ATOM     14  C   UNL A   1      33.322  26.079  24.891  1.00  0.00     0.131 A 
ATOM     15  C   UNL A   1      31.960  26.312  25.120  1.00  0.00     0.017 A 
ATOM     16  F   UNL A   1      34.039  26.921  24.131  1.00  0.00    -0.206 F 
BRANCH  15  17
ATOM     17  C   UNL A   1      31.242  27.472  24.559  1.00  0.00    -0.015 A 
ATOM     18  C   UNL A   1      31.519  28.780  25.001  1.00  0.00     0.009 A 
ATOM     19  C   UNL A   1      30.258  27.314  23.571  1.00  0.00     0.009 A 
ATOM     20  C   UNL A   1      30.841  29.883  24.480  1.00  0.00     0.001 A 
ATOM     21  C   UNL A   1      29.601  28.418  23.028  1.00  0.00     0.001 A 
ATOM     22  C   UNL A   1      29.888  29.701  23.486  1.00  0.00     0.000 A 
ENDBRANCH  15  17
ENDBRANCH   8  10
ENDBRANCH   6   8
ENDBRANCH   5   6
ENDBRANCH   4   5
ENDBRANCH   3   4
ENDBRANCH   2   3
ENDBRANCH   1   2
BRANCH   1  23
ATOM     23  C   UNL A   1      40.555  20.299  26.245  1.00  0.00     0.188 C 
BRANCH  23  24
ATOM     24  O   UNL A   1      41.884  20.163  26.689  1.00  0.00    -0.376 OA
BRANCH  24  25
ATOM     25  C   UNL A   1      42.915  20.143  25.722  1.00  0.00     0.202 C 
BRANCH  25  26
ATOM     26  C   UNL A   1      43.750  21.414  25.485  1.00  0.00     0.261 C 
BRANCH  26  27
ATOM     27  O   UNL A   1      43.038  22.605  25.103  1.00  0.00    -0.460 OA
BRANCH  27  28
ATOM     28  C   UNL A   1      43.731  23.763  25.088  1.00  0.00     0.338 C 
ATOM     29  O   UNL A   1      44.617  24.078  24.303  1.00  0.00    -0.246 OA
BRANCH  28  30
ATOM     30  C   UNL A   1      43.101  24.698  26.047  1.00  0.00     0.060 A 
ATOM     31  C   UNL A   1      43.524  26.035  26.063  1.00  0.00     0.016 A 
ATOM     32  C   UNL A   1      42.109  24.269  26.933  1.00  0.00     0.016 A 
ATOM     33  C   UNL A   1      42.963  26.938  26.971  1.00  0.00     0.010 A 
ATOM     34  C   UNL A   1      41.557  25.175  27.851  1.00  0.00     0.010 A 
ATOM     35  C   UNL A   1      41.987  26.514  27.883  1.00  0.00    -0.014 A 
BRANCH  35  36
ATOM     36  C   UNL A   1      41.555  27.419  28.982  1.00  0.00     0.031 A 
ATOM     37  C   UNL A   1      42.314  27.376  30.279  1.00  0.00     0.074 A 
ATOM     38  C   UNL A   1      40.521  28.271  28.841  1.00  0.00     0.049 A 
ATOM     39  N   UNL A   1      42.106  28.033  31.390  1.00  0.00    -0.248 NA
ATOM     40  C   UNL A   1      43.471  26.467  30.323  1.00  0.00     0.031 C 
ATOM     41  C   UNL A   1      39.746  28.460  27.618  1.00  0.00     0.029 A 
ATOM     42  N   UNL A   1      39.948  29.143  29.739  1.00  0.00    -0.354 N 
ATOM     43  C   UNL A   1      43.091  27.605  32.270  1.00  0.00     0.074 A 
ATOM     44  C   UNL A   1      43.894  26.630  31.567  1.00  0.00     0.031 C 
ATOM     45  C   UNL A   1      38.800  29.390  27.842  1.00  0.00     0.029 A 
ATOM     46  C   UNL A   1      38.871  29.836  29.233  1.00  0.00     0.049 A 
ATOM     47  H   UNL A   1      40.279  29.260  30.659  1.00  0.00     0.167 HD
ATOM     48  C   UNL A   1      43.303  27.983  33.554  1.00  0.00     0.037 A 
ATOM     49  C   UNL A   1      38.037  30.717  29.829  1.00  0.00     0.037 A 
ATOM     50  C   UNL A   1      42.492  28.936  34.263  1.00  0.00     0.049 A 
ATOM     51  C   UNL A   1      38.266  31.073  31.282  1.00  0.00     0.074 A 
ATOM     52  C   UNL A   1      42.613  29.364  35.573  1.00  0.00     0.029 A 
ATOM     53  N   UNL A   1      41.399  29.599  33.725  1.00  0.00    -0.354 N 
ATOM     54  N   UNL A   1      39.229  30.696  32.091  1.00  0.00    -0.248 NA
ATOM     55  C   UNL A   1      37.292  31.982  31.907  1.00  0.00     0.031 C 
ATOM     56  C   UNL A   1      41.561  30.243  35.846  1.00  0.00     0.029 A 
ATOM     57  C   UNL A   1      40.822  30.413  34.686  1.00  0.00     0.049 A 
ATOM     58  H   UNL A   1      41.081  29.505  32.798  1.00  0.00     0.167 HD
ATOM     59  C   UNL A   1      38.992  31.342  33.300  1.00  0.00     0.074 A 
ATOM     60  C   UNL A   1      37.819  32.167  33.109  1.00  0.00     0.031 C 
ATOM     61  C   UNL A   1      39.670  31.251  34.471  1.00  0.00     0.037 A 
BRANCH  48  62
ATOM     62  C   UNL A   1      44.428  27.315  34.287  1.00  0.00     0.057 A 
ATOM     63  C   UNL A   1      44.289  26.049  34.870  1.00  0.00     0.134 A 
ATOM     64  C   UNL A   1      45.673  27.946  34.403  1.00  0.00     0.134 A 
ATOM     65  F   UNL A   1      43.116  25.399  34.813  1.00  0.00    -0.206 F 
ATOM     66  C   UNL A   1      45.339  25.449  35.568  1.00  0.00     0.040 A 
ATOM     67  C   UNL A   1      46.739  27.344  35.071  1.00  0.00     0.040 A 
ATOM     68  F   UNL A   1      45.874  29.159  33.865  1.00  0.00    -0.206 F 
ATOM     69  C   UNL A   1      46.571  26.095  35.664  1.00  0.00     0.006 A 
ENDBRANCH  48  62
BRANCH  49  70
ATOM     70  C   UNL A   1      36.905  31.338  29.075  1.00  0.00     0.057 A 
ATOM     71  C   UNL A   1      36.933  32.685  28.684  1.00  0.00     0.134 A 
ATOM     72  C   UNL A   1      35.744  30.621  28.763  1.00  0.00     0.134 A 
ATOM     73  F   UNL A   1      37.979  33.462  29.000  1.00  0.00    -0.206 F 
ATOM     74  C   UNL A   1      35.872  33.286  28.001  1.00  0.00     0.040 A 
ATOM     75  C   UNL A   1      34.683  31.201  28.061  1.00  0.00     0.040 A 
ATOM     76  F   UNL A   1      35.617  29.339  29.135  1.00  0.00    -0.206 F 
ATOM     77  C   UNL A   1      34.746  32.538  27.678  1.00  0.00     0.006 A 
ENDBRANCH  49  70
BRANCH  61  78
ATOM     78  C   UNL A   1      39.190  32.092  35.623  1.00  0.00     0.057 A 
ATOM     79  C   UNL A   1      39.593  33.424  35.788  1.00  0.00     0.134 A 
ATOM     80  C   UNL A   1      38.275  31.577  36.551  1.00  0.00     0.134 A 
ATOM     81  F   UNL A   1      40.473  33.979  34.942  1.00  0.00    -0.206 F 
ATOM     82  C   UNL A   1      39.126  34.202  36.850  1.00  0.00     0.040 A 
ATOM     83  C   UNL A   1      37.776  32.355  37.597  1.00  0.00     0.040 A 
ATOM     84  F   UNL A   1      37.835  30.314  36.445  1.00  0.00    -0.206 F 
ATOM     85  C   UNL A   1      38.209  33.670  37.753  1.00  0.00     0.006 A 
ENDBRANCH  61  78
ENDBRANCH  35  36
ENDBRANCH  28  30
ENDBRANCH  27  28
ENDBRANCH  26  27
ENDBRANCH  25  26
ENDBRANCH  24  25
ENDBRANCH  23  24
ENDBRANCH   1  23
TORSDOF 19
ENDMDL
MODEL 2
REMARK VINA RESULT:     -11.0      2.473      6.989
REMARK SMILES C[C@@H](C(=O)OCCOCCOCCOC(=O)c1ccc(-c2c3nc(c(-c4c(F)cccc4F)c4ccc([nH]4)c(-c4c(F)cccc4F)c4nc(c(-c5c(F)cccc5F)c5ccc2[nH]5)C=C4)C=C3)cc1)c1ccc(-c2ccccc2)c(F)c1
REMARK SMILES IDX 9 1 8 2 7 3 6 4 5 5 3 6 4 7 2 8 1 9 71 10 72 11 83 12 73 13
REMARK SMILES IDX 81 14 74 15 82 16 75 17 76 18 80 19 77 20 79 21 78 22 10 23
REMARK SMILES IDX 11 24 12 25 13 26 14 27 15 28 16 29 17 30 18 31 70 32 19 33
REMARK SMILES IDX 69 34 20 35 21 36 22 37 63 38 23 39 68 40 62 41 64 42 24 43
REMARK SMILES IDX 67 44 61 45 60 46 25 48 51 49 34 50 50 51 35 52 38 53 49 54
REMARK SMILES IDX 65 55 36 56 37 57 48 59 66 60 39 61 26 62 27 63 32 64 28 65
REMARK SMILES IDX 29 66 31 67 33 68 30 69 52 70 53 71 58 72 54 73 55 74 57 75
REMARK SMILES IDX 59 76 56 77 40 78 41 79 46 80 42 81 43 82 45 83 47 84 44 85
REMARK H PARENT 64 47 38 58
REMARK Flexibility Score: inf
ROOT
ATOM      1  C   UNL A   1      44.544  18.941  25.351  1.00  0.00     0.188 C 
ENDROOT
BRANCH   1   2
ATOM      2  O   UNL A   1      43.194  18.972  24.906  1.00  0.00    -0.376 OA
BRANCH   2   3
ATOM      3  C   UNL A   1      42.210  19.556  25.754  1.00  0.00     0.202 C 
BRANCH   3   4
ATOM      4  C   UNL A   1      42.404  21.001  26.250  1.00  0.00     0.261 C 
BRANCH   4   5
ATOM      5  O   UNL A   1      41.332  21.921  25.945  1.00  0.00    -0.463 OA
BRANCH   5   6
ATOM      6  C   UNL A   1      40.481  22.209  26.966  1.00  0.00     0.313 C 
ATOM      7  O   UNL A   1      40.409  21.549  28.000  1.00  0.00    -0.252 OA
BRANCH   6   8
ATOM      8  C   UNL A   1      39.609  23.458  26.746  1.00  0.00     0.126 C 
ATOM      9  C   UNL A   1      39.470  24.464  27.894  1.00  0.00     0.025 C 
BRANCH   8  10
ATOM     10  C   UNL A   1      38.272  23.068  26.119  1.00  0.00    -0.031 A 
ATOM     11  C   UNL A   1      38.063  21.839  25.483  1.00  0.00     0.005 A 
ATOM     12  C   UNL A   1      37.229  24.002  26.088  1.00  0.00     0.044 A 
ATOM     13  C   UNL A   1      36.862  21.565  24.819  1.00  0.00     0.012 A 
ATOM     14  C   UNL A   1      36.022  23.708  25.446  1.00  0.00     0.131 A 
ATOM     15  C   UNL A   1      35.807  22.486  24.796  1.00  0.00     0.017 A 
ATOM     16  F   UNL A   1      35.062  24.645  25.472  1.00  0.00    -0.206 F 
BRANCH  15  17
ATOM     17  C   UNL A   1      34.539  22.155  24.117  1.00  0.00    -0.015 A 
ATOM     18  C   UNL A   1      34.050  22.953  23.065  1.00  0.00     0.009 A 
ATOM     19  C   UNL A   1      33.776  21.041  24.499  1.00  0.00     0.009 A 
ATOM     20  C   UNL A   1      32.849  22.652  22.421  1.00  0.00     0.001 A 
ATOM     21  C   UNL A   1      32.591  20.722  23.836  1.00  0.00     0.001 A 
ATOM     22  C   UNL A   1      32.125  21.529  22.802  1.00  0.00     0.000 A 
ENDBRANCH  15  17
ENDBRANCH   8  10
ENDBRANCH   6   8
ENDBRANCH   5   6
ENDBRANCH   4   5
ENDBRANCH   3   4
ENDBRANCH   2   3
ENDBRANCH   1   2
BRANCH   1  23
ATOM     23  C   UNL A   1      45.671  19.213  24.334  1.00  0.00     0.188 C 
BRANCH  23  24
ATOM     24  O   UNL A   1      46.376  20.407  24.575  1.00  0.00    -0.376 OA
BRANCH  24  25
ATOM     25  C   UNL A   1      45.659  21.625  24.557  1.00  0.00     0.202 C 
BRANCH  25  26
ATOM     26  C   UNL A   1      45.946  22.684  25.636  1.00  0.00     0.261 C 
BRANCH  26  27
ATOM     27  O   UNL A   1      44.827  23.451  26.116  1.00  0.00    -0.460 OA
BRANCH  27  28
ATOM     28  C   UNL A   1      44.746  24.741  25.725  1.00  0.00     0.338 C 
ATOM     29  O   UNL A   1      45.039  25.195  24.626  1.00  0.00    -0.246 OA
BRANCH  28  30
ATOM     30  C   UNL A   1      44.036  25.505  26.776  1.00  0.00     0.060 A 
ATOM     31  C   UNL A   1      44.304  26.874  26.913  1.00  0.00     0.016 A 
ATOM     32  C   UNL A   1      43.121  24.884  27.631  1.00  0.00     0.016 A 
ATOM     33  C   UNL A   1      43.666  27.619  27.909  1.00  0.00     0.010 A 
ATOM     34  C   UNL A   1      42.491  25.632  28.637  1.00  0.00     0.010 A 
ATOM     35  C   UNL A   1      42.766  27.002  28.789  1.00  0.00    -0.014 A 
BRANCH  35  36
ATOM     36  C   UNL A   1      42.259  27.746  29.974  1.00  0.00     0.031 A 
ATOM     37  C   UNL A   1      41.008  28.566  29.817  1.00  0.00     0.074 A 
ATOM     38  C   UNL A   1      42.878  27.693  31.169  1.00  0.00     0.049 A 
ATOM     39  N   UNL A   1      40.397  29.330  30.685  1.00  0.00    -0.248 NA
ATOM     40  C   UNL A   1      40.359  28.512  28.497  1.00  0.00     0.031 C 
ATOM     41  C   UNL A   1      44.055  26.885  31.473  1.00  0.00     0.029 A 
ATOM     42  N   UNL A   1      42.596  28.333  32.354  1.00  0.00    -0.354 N 
ATOM     43  C   UNL A   1      39.303  29.860  30.015  1.00  0.00     0.074 A 
ATOM     44  C   UNL A   1      39.337  29.336  28.667  1.00  0.00     0.031 C 
ATOM     45  C   UNL A   1      44.394  27.077  32.760  1.00  0.00     0.029 A 
ATOM     46  C   UNL A   1      43.487  28.051  33.366  1.00  0.00     0.049 A 
ATOM     47  H   UNL A   1      41.826  28.938  32.468  1.00  0.00     0.167 HD
ATOM     48  C   UNL A   1      38.360  30.716  30.475  1.00  0.00     0.037 A 
ATOM     49  C   UNL A   1      43.563  28.533  34.627  1.00  0.00     0.037 A 
ATOM     50  C   UNL A   1      38.337  31.257  31.808  1.00  0.00     0.049 A 
ATOM     51  C   UNL A   1      42.527  29.532  35.092  1.00  0.00     0.074 A 
ATOM     52  C   UNL A   1      37.436  32.150  32.360  1.00  0.00     0.029 A 
ATOM     53  N   UNL A   1      39.267  30.965  32.795  1.00  0.00    -0.354 N 
ATOM     54  N   UNL A   1      41.471  29.992  34.462  1.00  0.00    -0.248 NA
ATOM     55  C   UNL A   1      42.691  30.081  36.448  1.00  0.00     0.031 C 
ATOM     56  C   UNL A   1      37.852  32.442  33.663  1.00  0.00     0.029 A 
ATOM     57  C   UNL A   1      38.974  31.681  33.944  1.00  0.00     0.049 A 
ATOM     58  H   UNL A   1      40.021  30.341  32.694  1.00  0.00     0.167 HD
ATOM     59  C   UNL A   1      40.837  30.853  35.352  1.00  0.00     0.074 A 
ATOM     60  C   UNL A   1      41.601  30.822  36.580  1.00  0.00     0.031 C 
ATOM     61  C   UNL A   1      39.731  31.617  35.169  1.00  0.00     0.037 A 
BRANCH  48  62
ATOM     62  C   UNL A   1      37.307  31.162  29.504  1.00  0.00     0.057 A 
ATOM     63  C   UNL A   1      37.347  32.419  28.889  1.00  0.00     0.134 A 
ATOM     64  C   UNL A   1      36.242  30.315  29.174  1.00  0.00     0.134 A 
ATOM     65  F   UNL A   1      38.330  33.287  29.176  1.00  0.00    -0.206 F 
ATOM     66  C   UNL A   1      36.348  32.829  28.003  1.00  0.00     0.040 A 
ATOM     67  C   UNL A   1      35.254  30.700  28.268  1.00  0.00     0.040 A 
ATOM     68  F   UNL A   1      36.145  29.096  29.727  1.00  0.00    -0.206 F 
ATOM     69  C   UNL A   1      35.301  31.965  27.686  1.00  0.00     0.006 A 
ENDBRANCH  48  62
BRANCH  49  70
ATOM     70  C   UNL A   1      44.647  28.090  35.556  1.00  0.00     0.057 A 
ATOM     71  C   UNL A   1      45.924  28.671  35.528  1.00  0.00     0.134 A 
ATOM     72  C   UNL A   1      44.457  27.044  36.468  1.00  0.00     0.134 A 
ATOM     73  F   UNL A   1      46.211  29.634  34.640  1.00  0.00    -0.206 F 
ATOM     74  C   UNL A   1      46.954  28.250  36.373  1.00  0.00     0.040 A 
ATOM     75  C   UNL A   1      45.471  26.626  37.336  1.00  0.00     0.040 A 
ATOM     76  F   UNL A   1      43.279  26.406  36.534  1.00  0.00    -0.206 F 
ATOM     77  C   UNL A   1      46.725  27.230  37.289  1.00  0.00     0.006 A 
ENDBRANCH  49  70
BRANCH  61  78
ATOM     78  C   UNL A   1      39.255  32.447  36.330  1.00  0.00     0.057 A 
ATOM     79  C   UNL A   1      39.729  33.747  36.557  1.00  0.00     0.134 A 
ATOM     80  C   UNL A   1      38.275  31.958  37.204  1.00  0.00     0.134 A 
ATOM     81  F   UNL A   1      40.673  34.275  35.766  1.00  0.00    -0.206 F 
ATOM     82  C   UNL A   1      39.265  34.517  37.627  1.00  0.00     0.040 A 
ATOM     83  C   UNL A   1      37.781  32.729  38.257  1.00  0.00     0.040 A 
ATOM     84  F   UNL A   1      37.766  30.727  37.038  1.00  0.00    -0.206 F 
ATOM     85  C   UNL A   1      38.283  34.011  38.475  1.00  0.00     0.006 A 
ENDBRANCH  61  78
ENDBRANCH  35  36
ENDBRANCH  28  30
ENDBRANCH  27  28
ENDBRANCH  26  27
ENDBRANCH  25  26
ENDBRANCH  24  25
ENDBRANCH  23  24
ENDBRANCH   1  23
TORSDOF 19
ENDMDL
MODEL 3
REMARK VINA RESULT:     -11.0      2.454      3.829
REMARK SMILES C[C@@H](C(=O)OCCOCCOCCOC(=O)c1ccc(-c2c3nc(c(-c4c(F)cccc4F)c4ccc([nH]4)c(-c4c(F)cccc4F)c4nc(c(-c5c(F)cccc5F)c5ccc2[nH]5)C=C4)C=C3)cc1)c1ccc(-c2ccccc2)c(F)c1
REMARK SMILES IDX 9 1 8 2 7 3 6 4 5 5 3 6 4 7 2 8 1 9 71 10 72 11 83 12 73 13
REMARK SMILES IDX 81 14 74 15 82 16 75 17 76 18 80 19 77 20 79 21 78 22 10 23
REMARK SMILES IDX 11 24 12 25 13 26 14 27 15 28 16 29 17 30 18 31 70 32 19 33
REMARK SMILES IDX 69 34 20 35 21 36 22 37 63 38 23 39 68 40 62 41 64 42 24 43
REMARK SMILES IDX 67 44 61 45 60 46 25 48 51 49 34 50 50 51 35 52 38 53 49 54
REMARK SMILES IDX 65 55 36 56 37 57 48 59 66 60 39 61 26 62 27 63 32 64 28 65
REMARK SMILES IDX 29 66 31 67 33 68 30 69 52 70 53 71 58 72 54 73 55 74 57 75
REMARK SMILES IDX 59 76 56 77 40 78 41 79 46 80 42 81 43 82 45 83 47 84 44 85
REMARK H PARENT 64 47 38 58
REMARK Flexibility Score: inf
ROOT
ATOM      1  C   UNL A   1      44.878  19.221  24.553  1.00  0.00     0.188 C 
ENDROOT
BRANCH   1   2
ATOM      2  O   UNL A   1      44.329  18.183  25.355  1.00  0.00    -0.376 OA
BRANCH   2   3
ATOM      3  C   UNL A   1      43.296  18.510  26.281  1.00  0.00     0.202 C 
BRANCH   3   4
ATOM      4  C   UNL A   1      41.948  19.033  25.752  1.00  0.00     0.261 C 
BRANCH   4   5
ATOM      5  O   UNL A   1      41.754  20.463  25.830  1.00  0.00    -0.463 OA
BRANCH   5   6
ATOM      6  C   UNL A   1      40.957  20.906  26.840  1.00  0.00     0.313 C 
ATOM      7  O   UNL A   1      40.723  20.257  27.857  1.00  0.00    -0.252 OA
BRANCH   6   8
ATOM      8  C   UNL A   1      40.375  22.315  26.632  1.00  0.00     0.126 C 
ATOM      9  C   UNL A   1      40.496  23.332  27.773  1.00  0.00     0.025 C 
BRANCH   8  10
ATOM     10  C   UNL A   1      38.966  22.226  26.050  1.00  0.00    -0.031 A 
ATOM     11  C   UNL A   1      38.504  21.104  25.352  1.00  0.00     0.005 A 
ATOM     12  C   UNL A   1      38.119  23.339  26.125  1.00  0.00     0.044 A 
ATOM     13  C   UNL A   1      37.249  21.106  24.733  1.00  0.00     0.012 A 
ATOM     14  C   UNL A   1      36.856  23.321  25.527  1.00  0.00     0.131 A 
ATOM     15  C   UNL A   1      36.389  22.208  24.816  1.00  0.00     0.017 A 
ATOM     16  F   UNL A   1      36.094  24.418  25.655  1.00  0.00    -0.206 F 
BRANCH  15  17
ATOM     17  C   UNL A   1      35.057  22.167  24.182  1.00  0.00    -0.015 A 
ATOM     18  C   UNL A   1      34.722  23.055  23.141  1.00  0.00     0.009 A 
ATOM     19  C   UNL A   1      34.079  21.249  24.594  1.00  0.00     0.009 A 
ATOM     20  C   UNL A   1      33.463  23.029  22.539  1.00  0.00     0.001 A 
ATOM     21  C   UNL A   1      32.831  21.201  23.973  1.00  0.00     0.001 A 
ATOM     22  C   UNL A   1      32.521  22.094  22.951  1.00  0.00     0.000 A 
ENDBRANCH  15  17
ENDBRANCH   8  10
ENDBRANCH   6   8
ENDBRANCH   5   6
ENDBRANCH   4   5
ENDBRANCH   3   4
ENDBRANCH   2   3
ENDBRANCH   1   2
BRANCH   1  23
ATOM     23  C   UNL A   1      46.177  19.910  25.015  1.00  0.00     0.188 C 
BRANCH  23  24
ATOM     24  O   UNL A   1      46.131  21.315  24.941  1.00  0.00    -0.376 OA
BRANCH  24  25
ATOM     25  C   UNL A   1      45.043  21.983  25.548  1.00  0.00     0.202 C 
BRANCH  25  26
ATOM     26  C   UNL A   1      44.080  22.804  24.673  1.00  0.00     0.261 C 
BRANCH  26  27
ATOM     27  O   UNL A   1      44.292  24.226  24.621  1.00  0.00    -0.460 OA
BRANCH  27  28
ATOM     28  C   UNL A   1      45.137  24.761  25.528  1.00  0.00     0.338 C 
ATOM     29  O   UNL A   1      46.361  24.752  25.484  1.00  0.00    -0.246 OA
BRANCH  28  30
ATOM     30  C   UNL A   1      44.345  25.559  26.491  1.00  0.00     0.060 A 
ATOM     31  C   UNL A   1      44.376  26.957  26.393  1.00  0.00     0.016 A 
ATOM     32  C   UNL A   1      43.586  24.945  27.491  1.00  0.00     0.016 A 
ATOM     33  C   UNL A   1      43.655  27.740  27.300  1.00  0.00     0.010 A 
ATOM     34  C   UNL A   1      42.875  25.734  28.407  1.00  0.00     0.010 A 
ATOM     35  C   UNL A   1      42.912  27.137  28.324  1.00  0.00    -0.014 A 
BRANCH  35  36
ATOM     36  C   UNL A   1      42.329  27.973  29.409  1.00  0.00     0.031 A 
ATOM     37  C   UNL A   1      43.037  28.011  30.735  1.00  0.00     0.074 A 
ATOM     38  C   UNL A   1      41.205  28.693  29.230  1.00  0.00     0.049 A 
ATOM     39  N   UNL A   1      42.706  28.627  31.840  1.00  0.00    -0.248 NA
ATOM     40  C   UNL A   1      44.294  27.250  30.821  1.00  0.00     0.031 C 
ATOM     41  C   UNL A   1      40.461  28.797  27.978  1.00  0.00     0.029 A 
ATOM     42  N   UNL A   1      40.495  29.480  30.108  1.00  0.00    -0.354 N 
ATOM     43  C   UNL A   1      43.701  28.316  32.756  1.00  0.00     0.074 A 
ATOM     44  C   UNL A   1      44.645  27.452  32.082  1.00  0.00     0.031 C 
ATOM     45  C   UNL A   1      39.400  29.602  28.168  1.00  0.00     0.029 A 
ATOM     46  C   UNL A   1      39.361  30.041  29.563  1.00  0.00     0.049 A 
ATOM     47  H   UNL A   1      40.772  29.628  31.041  1.00  0.00     0.167 HD
ATOM     48  C   UNL A   1      43.814  28.705  34.049  1.00  0.00     0.037 A 
ATOM     49  C   UNL A   1      38.402  30.807  30.129  1.00  0.00     0.037 A 
ATOM     50  C   UNL A   1      42.865  29.545  34.730  1.00  0.00     0.049 A 
ATOM     51  C   UNL A   1      38.529  31.175  31.590  1.00  0.00     0.074 A 
ATOM     52  C   UNL A   1      42.882  29.973  36.045  1.00  0.00     0.029 A 
ATOM     53  N   UNL A   1      41.721  30.074  34.151  1.00  0.00    -0.354 N 
ATOM     54  N   UNL A   1      39.499  30.912  32.436  1.00  0.00    -0.248 NA
ATOM     55  C   UNL A   1      37.427  31.953  32.180  1.00  0.00     0.031 C 
ATOM     56  C   UNL A   1      41.719  30.714  36.279  1.00  0.00     0.029 A 
ATOM     57  C   UNL A   1      41.012  30.803  35.091  1.00  0.00     0.049 A 
ATOM     58  H   UNL A   1      41.453  29.951  33.211  1.00  0.00     0.167 HD
ATOM     59  C   UNL A   1      39.137  31.513  33.637  1.00  0.00     0.074 A 
ATOM     60  C   UNL A   1      37.880  32.190  33.403  1.00  0.00     0.031 C 
ATOM     61  C   UNL A   1      39.774  31.495  34.834  1.00  0.00     0.037 A 
BRANCH  48  62
ATOM     62  C   UNL A   1      44.983  28.173  34.824  1.00  0.00     0.057 A 
ATOM     63  C   UNL A   1      44.898  27.005  35.592  1.00  0.00     0.134 A 
ATOM     64  C   UNL A   1      46.216  28.838  34.793  1.00  0.00     0.134 A 
ATOM     65  F   UNL A   1      43.741  26.332  35.680  1.00  0.00    -0.206 F 
ATOM     66  C   UNL A   1      45.989  26.533  36.324  1.00  0.00     0.040 A 
ATOM     67  C   UNL A   1      47.322  28.360  35.497  1.00  0.00     0.040 A 
ATOM     68  F   UNL A   1      46.366  29.962  34.076  1.00  0.00    -0.206 F 
ATOM     69  C   UNL A   1      47.207  27.209  36.273  1.00  0.00     0.006 A 
ENDBRANCH  48  62
BRANCH  49  70
ATOM     70  C   UNL A   1      37.234  31.292  29.333  1.00  0.00     0.057 A 
ATOM     71  C   UNL A   1      36.145  30.456  29.040  1.00  0.00     0.134 A 
ATOM     72  C   UNL A   1      37.187  32.586  28.801  1.00  0.00     0.134 A 
ATOM     73  F   UNL A   1      36.138  29.180  29.455  1.00  0.00    -0.206 F 
ATOM     74  C   UNL A   1      35.057  30.886  28.276  1.00  0.00     0.040 A 
ATOM     75  C   UNL A   1      36.096  33.040  28.053  1.00  0.00     0.040 A 
ATOM     76  F   UNL A   1      38.204  33.438  28.998  1.00  0.00    -0.206 F 
ATOM     77  C   UNL A   1      35.027  32.188  27.788  1.00  0.00     0.006 A 
ENDBRANCH  49  70
BRANCH  61  78
ATOM     78  C   UNL A   1      39.150  32.261  35.969  1.00  0.00     0.057 A 
ATOM     79  C   UNL A   1      38.251  31.662  36.862  1.00  0.00     0.134 A 
ATOM     80  C   UNL A   1      39.491  33.600  36.200  1.00  0.00     0.134 A 
ATOM     81  F   UNL A   1      37.874  30.387  36.697  1.00  0.00    -0.206 F 
ATOM     82  C   UNL A   1      37.693  32.377  37.926  1.00  0.00     0.040 A 
ATOM     83  C   UNL A   1      38.966  34.315  37.278  1.00  0.00     0.040 A 
ATOM     84  F   UNL A   1      40.357  34.232  35.393  1.00  0.00    -0.206 F 
ATOM     85  C   UNL A   1      38.057  33.704  38.140  1.00  0.00     0.006 A 
ENDBRANCH  61  78
ENDBRANCH  35  36
ENDBRANCH  28  30
ENDBRANCH  27  28
ENDBRANCH  26  27
ENDBRANCH  25  26
ENDBRANCH  24  25
ENDBRANCH  23  24
ENDBRANCH   1  23
TORSDOF 19
ENDMDL
