MODEL 1
REMARK VINA RESULT:     -11.0      0.000      0.000
REMARK SMILES O=C(OCCOCCOCCOC(=O)[C@H](c1cnn(Cc2ccccc2)c1)[NH+]1CCOCC1)c1ccc(-c2c3nc(c(-c4c(F)cccc4F)c4ccc([nH]4)c(-c4c(F)cccc4F)c4nc(c(-c5c(F)cccc5F)c5ccc2[nH]5)C=C4)C=C3)cc1
REMARK SMILES IDX 8 1 7 2 6 3 5 4 4 5 3 6 2 7 1 8 34 9 35 10 87 11 36 12 86 13
REMARK SMILES IDX 37 14 38 15 39 16 80 17 40 18 85 19 79 20 81 21 41 22 84 23
REMARK SMILES IDX 78 24 77 25 42 27 68 28 51 29 67 30 52 31 55 32 66 33 82 34
REMARK SMILES IDX 53 35 54 36 65 38 83 39 56 40 43 41 44 42 49 43 45 44 46 45
REMARK SMILES IDX 48 46 50 47 47 48 69 49 70 50 75 51 71 52 72 53 74 54 76 55
REMARK SMILES IDX 73 56 57 57 58 58 63 59 59 60 60 61 62 62 64 63 61 64 9 65
REMARK SMILES IDX 10 66 11 67 12 68 13 69 14 70 15 71 28 72 29 73 33 74 30 76
REMARK SMILES IDX 32 77 31 78 16 79 17 80 27 81 18 82 19 83 20 84 21 85 22 86
REMARK SMILES IDX 26 87 23 88 25 89 24 90
REMARK H PARENT 81 26 55 37 28 75
REMARK Flexibility Score: inf
ROOT
ATOM      1  C   UNL A   1      39.917  21.475  26.432  1.00  0.00     0.188 C 
ENDROOT
BRANCH   1   2
ATOM      2  C   UNL A   1      40.820  21.103  27.630  1.00  0.00     0.188 C 
BRANCH   2   3
ATOM      3  O   UNL A   1      41.819  20.143  27.377  1.00  0.00    -0.376 OA
BRANCH   3   4
ATOM      4  C   UNL A   1      41.928  19.543  26.101  1.00  0.00     0.202 C 
BRANCH   4   5
ATOM      5  C   UNL A   1      43.102  18.626  25.730  1.00  0.00     0.261 C 
BRANCH   5   6
ATOM      6  O   UNL A   1      43.714  18.813  24.450  1.00  0.00    -0.460 OA
BRANCH   6   7
ATOM      7  C   UNL A   1      44.813  19.508  24.075  1.00  0.00     0.338 C 
ATOM      8  O   UNL A   1      45.710  18.941  23.497  1.00  0.00    -0.246 OA
BRANCH   7   9
ATOM      9  C   UNL A   1      45.062  20.909  24.534  1.00  0.00     0.060 A 
ATOM     10  C   UNL A   1      45.908  21.294  25.569  1.00  0.00     0.016 A 
ATOM     11  C   UNL A   1      44.298  21.890  23.866  1.00  0.00     0.016 A 
ATOM     12  C   UNL A   1      45.866  22.601  26.037  1.00  0.00     0.010 A 
ATOM     13  C   UNL A   1      44.263  23.198  24.323  1.00  0.00     0.010 A 
ATOM     14  C   UNL A   1      44.975  23.518  25.470  1.00  0.00    -0.014 A 
BRANCH  14  15
ATOM     15  C   UNL A   1      44.746  24.758  26.198  1.00  0.00     0.031 A 
ATOM     16  C   UNL A   1      45.876  25.720  26.240  1.00  0.00     0.074 A 
ATOM     17  C   UNL A   1      43.577  25.001  26.825  1.00  0.00     0.049 A 
ATOM     18  N   UNL A   1      46.574  26.087  27.266  1.00  0.00    -0.248 NA
ATOM     19  C   UNL A   1      46.342  26.277  24.963  1.00  0.00     0.031 C 
ATOM     20  C   UNL A   1      42.299  24.295  26.694  1.00  0.00     0.029 A 
ATOM     21  N   UNL A   1      43.281  26.007  27.693  1.00  0.00    -0.354 N 
ATOM     22  C   UNL A   1      47.462  27.054  26.801  1.00  0.00     0.074 A 
ATOM     23  C   UNL A   1      47.355  27.048  25.363  1.00  0.00     0.031 C 
ATOM     24  C   UNL A   1      41.322  25.022  27.283  1.00  0.00     0.029 A 
ATOM     25  C   UNL A   1      41.928  26.156  27.958  1.00  0.00     0.049 A 
ATOM     26  H   UNL A   1      43.970  26.582  28.098  1.00  0.00     0.167 HD
ATOM     27  C   UNL A   1      48.092  27.922  27.639  1.00  0.00     0.037 A 
ATOM     28  C   UNL A   1      41.348  27.172  28.640  1.00  0.00     0.037 A 
ATOM     29  C   UNL A   1      48.110  27.441  28.993  1.00  0.00     0.049 A 
ATOM     30  C   UNL A   1      42.396  27.813  29.471  1.00  0.00     0.074 A 
ATOM     31  C   UNL A   1      48.649  26.334  29.620  1.00  0.00     0.029 A 
ATOM     32  N   UNL A   1      47.214  27.968  29.889  1.00  0.00    -0.354 N 
ATOM     33  N   UNL A   1      42.954  27.245  30.503  1.00  0.00    -0.248 NA
ATOM     34  C   UNL A   1      43.142  28.916  28.885  1.00  0.00     0.031 C 
ATOM     35  C   UNL A   1      47.693  25.972  30.614  1.00  0.00     0.029 A 
ATOM     36  C   UNL A   1      46.660  26.908  30.562  1.00  0.00     0.049 A 
ATOM     37  H   UNL A   1      47.007  28.921  30.023  1.00  0.00     0.167 HD
ATOM     38  C   UNL A   1      44.286  27.627  30.441  1.00  0.00     0.074 A 
ATOM     39  C   UNL A   1      44.324  28.723  29.475  1.00  0.00     0.031 C 
ATOM     40  C   UNL A   1      45.275  26.846  30.966  1.00  0.00     0.037 A 
BRANCH  27  41
ATOM     41  C   UNL A   1      48.422  29.346  27.279  1.00  0.00     0.057 A 
ATOM     42  C   UNL A   1      49.744  29.811  27.385  1.00  0.00     0.134 A 
ATOM     43  C   UNL A   1      47.445  30.347  27.100  1.00  0.00     0.134 A 
ATOM     44  F   UNL A   1      50.761  28.958  27.585  1.00  0.00    -0.206 F 
ATOM     45  C   UNL A   1      50.063  31.175  27.363  1.00  0.00     0.040 A 
ATOM     46  C   UNL A   1      47.757  31.707  27.029  1.00  0.00     0.040 A 
ATOM     47  F   UNL A   1      46.136  30.068  27.084  1.00  0.00    -0.206 F 
ATOM     48  C   UNL A   1      49.067  32.128  27.190  1.00  0.00     0.006 A 
ENDBRANCH  27  41
BRANCH  28  49
ATOM     49  C   UNL A   1      40.050  27.819  28.355  1.00  0.00     0.057 A 
ATOM     50  C   UNL A   1      39.010  27.813  29.292  1.00  0.00     0.134 A 
ATOM     51  C   UNL A   1      39.897  28.697  27.265  1.00  0.00     0.134 A 
ATOM     52  F   UNL A   1      39.085  27.044  30.387  1.00  0.00    -0.206 F 
ATOM     53  C   UNL A   1      37.889  28.646  29.164  1.00  0.00     0.040 A 
ATOM     54  C   UNL A   1      38.782  29.527  27.122  1.00  0.00     0.040 A 
ATOM     55  F   UNL A   1      40.868  28.842  26.351  1.00  0.00    -0.206 F 
ATOM     56  C   UNL A   1      37.779  29.515  28.082  1.00  0.00     0.006 A 
ENDBRANCH  28  49
BRANCH  40  57
ATOM     57  C   UNL A   1      44.868  25.670  31.811  1.00  0.00     0.057 A 
ATOM     58  C   UNL A   1      44.528  24.413  31.286  1.00  0.00     0.134 A 
ATOM     59  C   UNL A   1      44.978  25.763  33.203  1.00  0.00     0.134 A 
ATOM     60  F   UNL A   1      44.503  24.198  29.964  1.00  0.00    -0.206 F 
ATOM     61  C   UNL A   1      44.265  23.315  32.110  1.00  0.00     0.040 A 
ATOM     62  C   UNL A   1      44.751  24.665  34.036  1.00  0.00     0.040 A 
ATOM     63  F   UNL A   1      45.360  26.916  33.774  1.00  0.00    -0.206 F 
ATOM     64  C   UNL A   1      44.383  23.437  33.491  1.00  0.00     0.006 A 
ENDBRANCH  40  57
ENDBRANCH  14  15
ENDBRANCH   7   9
ENDBRANCH   6   7
ENDBRANCH   5   6
ENDBRANCH   4   5
ENDBRANCH   3   4
ENDBRANCH   2   3
ENDBRANCH   1   2
BRANCH   1  65
ATOM     65  O   UNL A   1      38.923  22.487  26.529  1.00  0.00    -0.376 OA
BRANCH  65  66
ATOM     66  C   UNL A   1      37.738  22.423  25.751  1.00  0.00     0.202 C 
BRANCH  66  67
ATOM     67  C   UNL A   1      37.393  23.591  24.823  1.00  0.00     0.261 C 
BRANCH  67  68
ATOM     68  O   UNL A   1      36.038  24.051  24.939  1.00  0.00    -0.459 OA
BRANCH  68  69
ATOM     69  C   UNL A   1      35.193  23.651  23.955  1.00  0.00     0.370 C 
ATOM     70  O   UNL A   1      35.579  23.368  22.828  1.00  0.00    -0.245 OA
BRANCH  69  71
ATOM     71  C   UNL A   1      33.712  23.658  24.429  1.00  0.00     0.329 C 
BRANCH  71  72
ATOM     72  N   UNL A   1      32.796  24.499  23.621  1.00  0.00    -0.315 N 
ATOM     73  C   UNL A   1      33.378  25.742  23.087  1.00  0.00     0.292 C 
ATOM     74  C   UNL A   1      31.503  24.803  24.268  1.00  0.00     0.292 C 
ATOM     75  H   UNL A   1      32.620  23.883  22.828  1.00  0.00     0.349 HD
ATOM     76  C   UNL A   1      33.346  26.943  24.051  1.00  0.00     0.221 C 
ATOM     77  C   UNL A   1      31.478  26.034  25.190  1.00  0.00     0.221 C 
ATOM     78  O   UNL A   1      32.027  27.189  24.548  1.00  0.00    -0.370 OA
ENDBRANCH  71  72
BRANCH  71  79
ATOM     79  C   UNL A   1      33.188  22.239  24.507  1.00  0.00     0.059 A 
ATOM     80  C   UNL A   1      32.660  21.601  25.655  1.00  0.00     0.145 A 
ATOM     81  C   UNL A   1      33.004  21.293  23.505  1.00  0.00     0.119 A 
ATOM     82  N   UNL A   1      32.065  20.449  25.378  1.00  0.00    -0.181 NA
ATOM     83  N   UNL A   1      32.407  20.211  24.101  1.00  0.00    -0.268 N 
BRANCH  83  84
ATOM     84  C   UNL A   1      32.090  18.904  23.528  1.00  0.00     0.179 C 
BRANCH  84  85
ATOM     85  C   UNL A   1      32.905  17.796  24.169  1.00  0.00    -0.027 A 
ATOM     86  C   UNL A   1      34.293  17.740  23.992  1.00  0.00     0.005 A 
ATOM     87  C   UNL A   1      32.293  16.788  24.938  1.00  0.00     0.005 A 
ATOM     88  C   UNL A   1      35.045  16.742  24.619  1.00  0.00     0.000 A 
ATOM     89  C   UNL A   1      33.045  15.811  25.585  1.00  0.00     0.000 A 
ATOM     90  C   UNL A   1      34.425  15.791  25.430  1.00  0.00     0.000 A 
ENDBRANCH  84  85
ENDBRANCH  83  84
ENDBRANCH  71  79
ENDBRANCH  69  71
ENDBRANCH  68  69
ENDBRANCH  67  68
ENDBRANCH  66  67
ENDBRANCH  65  66
ENDBRANCH   1  65
TORSDOF 21
ENDMDL
MODEL 2
REMARK VINA RESULT:     -10.8      1.263      4.011
REMARK SMILES O=C(OCCOCCOCCOC(=O)[C@H](c1cnn(Cc2ccccc2)c1)[NH+]1CCOCC1)c1ccc(-c2c3nc(c(-c4c(F)cccc4F)c4ccc([nH]4)c(-c4c(F)cccc4F)c4nc(c(-c5c(F)cccc5F)c5ccc2[nH]5)C=C4)C=C3)cc1
REMARK SMILES IDX 8 1 7 2 6 3 5 4 4 5 3 6 2 7 1 8 34 9 35 10 87 11 36 12 86 13
REMARK SMILES IDX 37 14 38 15 39 16 80 17 40 18 85 19 79 20 81 21 41 22 84 23
REMARK SMILES IDX 78 24 77 25 42 27 68 28 51 29 67 30 52 31 55 32 66 33 82 34
REMARK SMILES IDX 53 35 54 36 65 38 83 39 56 40 43 41 44 42 49 43 45 44 46 45
REMARK SMILES IDX 48 46 50 47 47 48 69 49 70 50 75 51 71 52 72 53 74 54 76 55
REMARK SMILES IDX 73 56 57 57 58 58 63 59 59 60 60 61 62 62 64 63 61 64 9 65
REMARK SMILES IDX 10 66 11 67 12 68 13 69 14 70 15 71 28 72 29 73 33 74 30 76
REMARK SMILES IDX 32 77 31 78 16 79 17 80 27 81 18 82 19 83 20 84 21 85 22 86
REMARK SMILES IDX 26 87 23 88 25 89 24 90
REMARK H PARENT 81 26 55 37 28 75
REMARK Flexibility Score: inf
ROOT
ATOM      1  C   UNL A   1      40.472  21.426  26.149  1.00  0.00     0.188 C 
ENDROOT
BRANCH   1   2
ATOM      2  C   UNL A   1      40.847  19.982  26.555  1.00  0.00     0.188 C 
BRANCH   2   3
ATOM      3  O   UNL A   1      41.652  19.272  25.642  1.00  0.00    -0.376 OA
BRANCH   3   4
ATOM      4  C   UNL A   1      42.466  18.205  26.087  1.00  0.00     0.202 C 
BRANCH   4   5
ATOM      5  C   UNL A   1      43.999  18.299  26.095  1.00  0.00     0.261 C 
BRANCH   5   6
ATOM      6  O   UNL A   1      44.654  18.592  24.858  1.00  0.00    -0.460 OA
BRANCH   6   7
ATOM      7  C   UNL A   1      44.625  19.689  24.066  1.00  0.00     0.338 C 
ATOM      8  O   UNL A   1      44.533  19.558  22.868  1.00  0.00    -0.246 OA
BRANCH   7   9
ATOM      9  C   UNL A   1      44.914  21.057  24.592  1.00  0.00     0.060 A 
ATOM     10  C   UNL A   1      45.648  21.356  25.736  1.00  0.00     0.016 A 
ATOM     11  C   UNL A   1      44.314  22.106  23.863  1.00  0.00     0.016 A 
ATOM     12  C   UNL A   1      45.642  22.653  26.233  1.00  0.00     0.010 A 
ATOM     13  C   UNL A   1      44.317  23.404  24.350  1.00  0.00     0.010 A 
ATOM     14  C   UNL A   1      44.900  23.646  25.586  1.00  0.00    -0.014 A 
BRANCH  14  15
ATOM     15  C   UNL A   1      44.671  24.885  26.315  1.00  0.00     0.031 A 
ATOM     16  C   UNL A   1      45.780  25.872  26.308  1.00  0.00     0.074 A 
ATOM     17  C   UNL A   1      43.523  25.107  26.986  1.00  0.00     0.049 A 
ATOM     18  N   UNL A   1      46.509  26.261  27.303  1.00  0.00    -0.248 NA
ATOM     19  C   UNL A   1      46.184  26.431  25.011  1.00  0.00     0.031 C 
ATOM     20  C   UNL A   1      42.256  24.371  26.909  1.00  0.00     0.029 A 
ATOM     21  N   UNL A   1      43.238  26.111  27.859  1.00  0.00    -0.354 N 
ATOM     22  C   UNL A   1      47.356  27.245  26.799  1.00  0.00     0.074 A 
ATOM     23  C   UNL A   1      47.194  27.227  25.366  1.00  0.00     0.031 C 
ATOM     24  C   UNL A   1      41.287  25.080  27.531  1.00  0.00     0.029 A 
ATOM     25  C   UNL A   1      41.893  26.231  28.176  1.00  0.00     0.049 A 
ATOM     26  H   UNL A   1      43.929  26.704  28.234  1.00  0.00     0.167 HD
ATOM     27  C   UNL A   1      47.999  28.132  27.607  1.00  0.00     0.037 A 
ATOM     28  C   UNL A   1      41.317  27.238  28.874  1.00  0.00     0.037 A 
ATOM     29  C   UNL A   1      48.080  27.661  28.962  1.00  0.00     0.049 A 
ATOM     30  C   UNL A   1      42.382  27.908  29.660  1.00  0.00     0.074 A 
ATOM     31  C   UNL A   1      48.668  26.570  29.574  1.00  0.00     0.029 A 
ATOM     32  N   UNL A   1      47.208  28.173  29.889  1.00  0.00    -0.354 N 
ATOM     33  N   UNL A   1      42.992  27.360  30.672  1.00  0.00    -0.248 NA
ATOM     34  C   UNL A   1      43.079  29.024  29.039  1.00  0.00     0.031 C 
ATOM     35  C   UNL A   1      47.759  26.193  30.606  1.00  0.00     0.029 A 
ATOM     36  C   UNL A   1      46.705  27.106  30.590  1.00  0.00     0.049 A 
ATOM     37  H   UNL A   1      46.985  29.122  30.026  1.00  0.00     0.167 HD
ATOM     38  C   UNL A   1      44.312  27.771  30.557  1.00  0.00     0.074 A 
ATOM     39  C   UNL A   1      44.288  28.861  29.584  1.00  0.00     0.031 C 
ATOM     40  C   UNL A   1      45.338  27.015  31.047  1.00  0.00     0.037 A 
BRANCH  27  41
ATOM     41  C   UNL A   1      48.283  29.561  27.226  1.00  0.00     0.057 A 
ATOM     42  C   UNL A   1      49.592  30.066  27.311  1.00  0.00     0.134 A 
ATOM     43  C   UNL A   1      47.275  30.530  27.048  1.00  0.00     0.134 A 
ATOM     44  F   UNL A   1      50.636  29.245  27.509  1.00  0.00    -0.206 F 
ATOM     45  C   UNL A   1      49.870  31.438  27.270  1.00  0.00     0.040 A 
ATOM     46  C   UNL A   1      47.545  31.898  26.957  1.00  0.00     0.040 A 
ATOM     47  F   UNL A   1      45.974  30.213  27.051  1.00  0.00    -0.206 F 
ATOM     48  C   UNL A   1      48.844  32.360  27.097  1.00  0.00     0.006 A 
ENDBRANCH  27  41
BRANCH  28  49
ATOM     49  C   UNL A   1      39.995  27.855  28.636  1.00  0.00     0.057 A 
ATOM     50  C   UNL A   1      39.004  27.863  29.626  1.00  0.00     0.134 A 
ATOM     51  C   UNL A   1      39.771  28.694  27.529  1.00  0.00     0.134 A 
ATOM     52  F   UNL A   1      39.149  27.131  30.740  1.00  0.00    -0.206 F 
ATOM     53  C   UNL A   1      37.864  28.673  29.529  1.00  0.00     0.040 A 
ATOM     54  C   UNL A   1      38.635  29.501  27.417  1.00  0.00     0.040 A 
ATOM     55  F   UNL A   1      40.690  28.825  26.561  1.00  0.00    -0.206 F 
ATOM     56  C   UNL A   1      37.682  29.503  28.427  1.00  0.00     0.006 A 
ENDBRANCH  28  49
BRANCH  40  57
ATOM     57  C   UNL A   1      44.991  25.836  31.914  1.00  0.00     0.057 A 
ATOM     58  C   UNL A   1      44.802  25.918  33.303  1.00  0.00     0.134 A 
ATOM     59  C   UNL A   1      44.682  24.613  31.307  1.00  0.00     0.134 A 
ATOM     60  F   UNL A   1      44.969  27.075  33.957  1.00  0.00    -0.206 F 
ATOM     61  C   UNL A   1      44.370  24.822  34.056  1.00  0.00     0.040 A 
ATOM     62  C   UNL A   1      44.217  23.521  32.043  1.00  0.00     0.040 A 
ATOM     63  F   UNL A   1      44.778  24.478  29.975  1.00  0.00    -0.206 F 
ATOM     64  C   UNL A   1      44.069  23.620  33.425  1.00  0.00     0.006 A 
ENDBRANCH  40  57
ENDBRANCH  14  15
ENDBRANCH   7   9
ENDBRANCH   6   7
ENDBRANCH   5   6
ENDBRANCH   4   5
ENDBRANCH   3   4
ENDBRANCH   2   3
ENDBRANCH   1   2
BRANCH   1  65
ATOM     65  O   UNL A   1      39.275  22.044  26.604  1.00  0.00    -0.376 OA
BRANCH  65  66
ATOM     66  C   UNL A   1      38.135  22.132  25.765  1.00  0.00     0.202 C 
BRANCH  66  67
ATOM     67  C   UNL A   1      37.619  23.513  25.353  1.00  0.00     0.261 C 
BRANCH  67  68
ATOM     68  O   UNL A   1      36.194  23.582  25.188  1.00  0.00    -0.459 OA
BRANCH  68  69
ATOM     69  C   UNL A   1      35.711  23.088  24.020  1.00  0.00     0.370 C 
ATOM     70  O   UNL A   1      36.406  22.959  23.020  1.00  0.00    -0.245 OA
BRANCH  69  71
ATOM     71  C   UNL A   1      34.190  22.773  24.112  1.00  0.00     0.329 C 
BRANCH  71  72
ATOM     72  N   UNL A   1      33.803  21.846  25.201  1.00  0.00    -0.315 N 
ATOM     73  C   UNL A   1      34.800  20.818  25.547  1.00  0.00     0.292 C 
ATOM     74  C   UNL A   1      32.481  21.208  25.031  1.00  0.00     0.292 C 
ATOM     75  H   UNL A   1      33.749  22.490  25.990  1.00  0.00     0.349 HD
ATOM     76  C   UNL A   1      34.747  19.543  24.683  1.00  0.00     0.221 C 
ATOM     77  C   UNL A   1      32.456  19.911  24.205  1.00  0.00     0.221 C 
ATOM     78  O   UNL A   1      33.435  18.972  24.661  1.00  0.00    -0.370 OA
ENDBRANCH  71  72
BRANCH  71  79
ATOM     79  C   UNL A   1      33.402  24.062  24.216  1.00  0.00     0.059 A 
ATOM     80  C   UNL A   1      33.051  24.920  23.146  1.00  0.00     0.145 A 
ATOM     81  C   UNL A   1      32.767  24.641  25.309  1.00  0.00     0.119 A 
ATOM     82  N   UNL A   1      32.165  25.844  23.494  1.00  0.00    -0.181 NA
ATOM     83  N   UNL A   1      32.114  25.750  24.833  1.00  0.00    -0.268 N 
BRANCH  83  84
ATOM     84  C   UNL A   1      31.381  26.775  25.573  1.00  0.00     0.179 C 
BRANCH  84  85
ATOM     85  C   UNL A   1      32.309  27.839  26.130  1.00  0.00    -0.027 A 
ATOM     86  C   UNL A   1      31.791  28.981  26.752  1.00  0.00     0.005 A 
ATOM     87  C   UNL A   1      33.708  27.721  26.021  1.00  0.00     0.005 A 
ATOM     88  C   UNL A   1      32.649  29.938  27.302  1.00  0.00     0.000 A 
ATOM     89  C   UNL A   1      34.562  28.659  26.592  1.00  0.00     0.000 A 
ATOM     90  C   UNL A   1      34.033  29.767  27.239  1.00  0.00     0.000 A 
ENDBRANCH  84  85
ENDBRANCH  83  84
ENDBRANCH  71  79
ENDBRANCH  69  71
ENDBRANCH  68  69
ENDBRANCH  67  68
ENDBRANCH  66  67
ENDBRANCH  65  66
ENDBRANCH   1  65
TORSDOF 21
ENDMDL
MODEL 3
REMARK VINA RESULT:     -10.3      3.056      4.382
REMARK SMILES O=C(OCCOCCOCCOC(=O)[C@H](c1cnn(Cc2ccccc2)c1)[NH+]1CCOCC1)c1ccc(-c2c3nc(c(-c4c(F)cccc4F)c4ccc([nH]4)c(-c4c(F)cccc4F)c4nc(c(-c5c(F)cccc5F)c5ccc2[nH]5)C=C4)C=C3)cc1
REMARK SMILES IDX 8 1 7 2 6 3 5 4 4 5 3 6 2 7 1 8 34 9 35 10 87 11 36 12 86 13
REMARK SMILES IDX 37 14 38 15 39 16 80 17 40 18 85 19 79 20 81 21 41 22 84 23
REMARK SMILES IDX 78 24 77 25 42 27 68 28 51 29 67 30 52 31 55 32 66 33 82 34
REMARK SMILES IDX 53 35 54 36 65 38 83 39 56 40 43 41 44 42 49 43 45 44 46 45
REMARK SMILES IDX 48 46 50 47 47 48 69 49 70 50 75 51 71 52 72 53 74 54 76 55
REMARK SMILES IDX 73 56 57 57 58 58 63 59 59 60 60 61 62 62 64 63 61 64 9 65
REMARK SMILES IDX 10 66 11 67 12 68 13 69 14 70 15 71 28 72 29 73 33 74 30 76
REMARK SMILES IDX 32 77 31 78 16 79 17 80 27 81 18 82 19 83 20 84 21 85 22 86
REMARK SMILES IDX 26 87 23 88 25 89 24 90
REMARK H PARENT 81 26 55 37 28 75
REMARK Flexibility Score: inf
ROOT
ATOM      1  C   UNL A   1      39.793  22.258  26.226  1.00  0.00     0.188 C 
ENDROOT
BRANCH   1   2
ATOM      2  C   UNL A   1      40.521  22.419  27.580  1.00  0.00     0.188 C 
BRANCH   2   3
ATOM      3  O   UNL A   1      41.806  21.847  27.663  1.00  0.00    -0.376 OA
BRANCH   3   4
ATOM      4  C   UNL A   1      42.283  21.008  26.630  1.00  0.00     0.202 C 
BRANCH   4   5
ATOM      5  C   UNL A   1      43.279  21.504  25.572  1.00  0.00     0.261 C 
BRANCH   5   6
ATOM      6  O   UNL A   1      42.955  22.704  24.864  1.00  0.00    -0.460 OA
BRANCH   6   7
ATOM      7  C   UNL A   1      43.393  23.977  25.009  1.00  0.00     0.338 C 
ATOM      8  O   UNL A   1      44.477  24.289  24.577  1.00  0.00    -0.246 OA
BRANCH   7   9
ATOM      9  C   UNL A   1      42.681  24.967  25.872  1.00  0.00     0.060 A 
ATOM     10  C   UNL A   1      41.624  25.785  25.482  1.00  0.00     0.016 A 
ATOM     11  C   UNL A   1      43.206  25.095  27.176  1.00  0.00     0.016 A 
ATOM     12  C   UNL A   1      41.214  26.817  26.314  1.00  0.00     0.010 A 
ATOM     13  C   UNL A   1      42.789  26.116  28.015  1.00  0.00     0.010 A 
ATOM     14  C   UNL A   1      41.863  27.031  27.534  1.00  0.00    -0.014 A 
BRANCH  14  15
ATOM     15  C   UNL A   1      41.613  28.299  28.207  1.00  0.00     0.031 A 
ATOM     16  C   UNL A   1      42.679  29.326  28.101  1.00  0.00     0.074 A 
ATOM     17  C   UNL A   1      40.485  28.511  28.913  1.00  0.00     0.049 A 
ATOM     18  N   UNL A   1      43.432  29.796  29.042  1.00  0.00    -0.248 NA
ATOM     19  C   UNL A   1      43.007  29.829  26.760  1.00  0.00     0.031 C 
ATOM     20  C   UNL A   1      39.248  27.724  28.930  1.00  0.00     0.029 A 
ATOM     21  N   UNL A   1      40.195  29.550  29.744  1.00  0.00    -0.354 N 
ATOM     22  C   UNL A   1      44.217  30.783  28.451  1.00  0.00     0.074 A 
ATOM     23  C   UNL A   1      43.997  30.682  27.030  1.00  0.00     0.031 C 
ATOM     24  C   UNL A   1      38.276  28.427  29.554  1.00  0.00     0.029 A 
ATOM     25  C   UNL A   1      38.860  29.634  30.111  1.00  0.00     0.049 A 
ATOM     26  H   UNL A   1      40.875  30.188  30.058  1.00  0.00     0.167 HD
ATOM     27  C   UNL A   1      44.854  31.737  29.183  1.00  0.00     0.037 A 
ATOM     28  C   UNL A   1      38.272  30.655  30.780  1.00  0.00     0.037 A 
ATOM     29  C   UNL A   1      45.010  31.344  30.556  1.00  0.00     0.049 A 
ATOM     30  C   UNL A   1      39.339  31.407  31.484  1.00  0.00     0.074 A 
ATOM     31  C   UNL A   1      45.666  30.311  31.199  1.00  0.00     0.029 A 
ATOM     32  N   UNL A   1      44.156  31.871  31.491  1.00  0.00    -0.354 N 
ATOM     33  N   UNL A   1      40.012  30.938  32.496  1.00  0.00    -0.248 NA
ATOM     34  C   UNL A   1      39.964  32.514  30.776  1.00  0.00     0.031 C 
ATOM     35  C   UNL A   1      44.816  29.956  32.287  1.00  0.00     0.029 A 
ATOM     36  C   UNL A   1      43.726  30.825  32.268  1.00  0.00     0.049 A 
ATOM     37  H   UNL A   1      43.900  32.817  31.588  1.00  0.00     0.167 HD
ATOM     38  C   UNL A   1      41.308  31.394  32.303  1.00  0.00     0.074 A 
ATOM     39  C   UNL A   1      41.200  32.427  31.276  1.00  0.00     0.031 C 
ATOM     40  C   UNL A   1      42.384  30.706  32.788  1.00  0.00     0.037 A 
BRANCH  27  41
ATOM     41  C   UNL A   1      45.063  33.153  28.716  1.00  0.00     0.057 A 
ATOM     42  C   UNL A   1      43.960  34.007  28.540  1.00  0.00     0.134 A 
ATOM     43  C   UNL A   1      46.277  33.619  28.169  1.00  0.00     0.134 A 
ATOM     44  F   UNL A   1      42.743  33.663  28.990  1.00  0.00    -0.206 F 
ATOM     45  C   UNL A   1      44.050  35.211  27.828  1.00  0.00     0.040 A 
ATOM     46  C   UNL A   1      46.388  34.840  27.500  1.00  0.00     0.040 A 
ATOM     47  F   UNL A   1      47.388  32.873  28.168  1.00  0.00    -0.206 F 
ATOM     48  C   UNL A   1      45.266  35.629  27.302  1.00  0.00     0.006 A 
ENDBRANCH  27  41
BRANCH  28  49
ATOM     49  C   UNL A   1      36.917  31.205  30.567  1.00  0.00     0.057 A 
ATOM     50  C   UNL A   1      36.083  31.530  31.644  1.00  0.00     0.134 A 
ATOM     51  C   UNL A   1      36.515  31.684  29.306  1.00  0.00     0.134 A 
ATOM     52  F   UNL A   1      36.405  31.157  32.890  1.00  0.00    -0.206 F 
ATOM     53  C   UNL A   1      34.925  32.303  31.480  1.00  0.00     0.040 A 
ATOM     54  C   UNL A   1      35.359  32.450  29.128  1.00  0.00     0.040 A 
ATOM     55  F   UNL A   1      37.279  31.501  28.219  1.00  0.00    -0.206 F 
ATOM     56  C   UNL A   1      34.566  32.774  30.220  1.00  0.00     0.006 A 
ENDBRANCH  28  49
BRANCH  40  57
ATOM     57  C   UNL A   1      42.121  29.563  33.729  1.00  0.00     0.057 A 
ATOM     58  C   UNL A   1      41.883  28.244  33.308  1.00  0.00     0.134 A 
ATOM     59  C   UNL A   1      42.270  29.768  35.106  1.00  0.00     0.134 A 
ATOM     60  F   UNL A   1      41.833  27.932  32.007  1.00  0.00    -0.206 F 
ATOM     61  C   UNL A   1      41.756  27.190  34.218  1.00  0.00     0.040 A 
ATOM     62  C   UNL A   1      42.178  28.718  36.022  1.00  0.00     0.040 A 
ATOM     63  F   UNL A   1      42.560  30.990  35.578  1.00  0.00    -0.206 F 
ATOM     64  C   UNL A   1      41.910  27.424  35.581  1.00  0.00     0.006 A 
ENDBRANCH  40  57
ENDBRANCH  14  15
ENDBRANCH   7   9
ENDBRANCH   6   7
ENDBRANCH   5   6
ENDBRANCH   4   5
ENDBRANCH   3   4
ENDBRANCH   2   3
ENDBRANCH   1   2
BRANCH   1  65
ATOM     65  O   UNL A   1      38.397  22.497  26.094  1.00  0.00    -0.376 OA
BRANCH  65  66
ATOM     66  C   UNL A   1      37.567  21.593  25.382  1.00  0.00     0.202 C 
BRANCH  66  67
ATOM     67  C   UNL A   1      36.060  21.853  25.327  1.00  0.00     0.261 C 
BRANCH  67  68
ATOM     68  O   UNL A   1      35.709  23.188  24.931  1.00  0.00    -0.459 OA
BRANCH  68  69
ATOM     69  C   UNL A   1      34.821  23.286  23.909  1.00  0.00     0.370 C 
ATOM     70  O   UNL A   1      35.154  23.600  22.773  1.00  0.00    -0.245 OA
BRANCH  69  71
ATOM     71  C   UNL A   1      33.365  23.011  24.381  1.00  0.00     0.329 C 
BRANCH  71  72
ATOM     72  N   UNL A   1      32.444  24.169  24.294  1.00  0.00    -0.315 N 
ATOM     73  C   UNL A   1      32.979  25.447  24.797  1.00  0.00     0.292 C 
ATOM     74  C   UNL A   1      31.104  23.939  24.872  1.00  0.00     0.292 C 
ATOM     75  H   UNL A   1      32.346  24.260  23.284  1.00  0.00     0.349 HD
ATOM     76  C   UNL A   1      32.827  25.664  26.315  1.00  0.00     0.221 C 
ATOM     77  C   UNL A   1      30.960  24.208  26.380  1.00  0.00     0.221 C 
ATOM     78  O   UNL A   1      31.472  25.494  26.742  1.00  0.00    -0.370 OA
ENDBRANCH  71  72
BRANCH  71  79
ATOM     79  C   UNL A   1      32.792  21.829  23.626  1.00  0.00     0.059 A 
ATOM     80  C   UNL A   1      32.051  21.882  22.421  1.00  0.00     0.145 A 
ATOM     81  C   UNL A   1      32.931  20.465  23.854  1.00  0.00     0.119 A 
ATOM     82  N   UNL A   1      31.881  20.690  21.866  1.00  0.00    -0.181 NA
ATOM     83  N   UNL A   1      32.294  19.833  22.815  1.00  0.00    -0.268 N 
BRANCH  83  84
ATOM     84  C   UNL A   1      32.049  18.406  22.618  1.00  0.00     0.179 C 
BRANCH  84  85
ATOM     85  C   UNL A   1      32.842  17.558  23.595  1.00  0.00    -0.027 A 
ATOM     86  C   UNL A   1      34.090  17.037  23.234  1.00  0.00     0.005 A 
ATOM     87  C   UNL A   1      32.343  17.256  24.876  1.00  0.00     0.005 A 
ATOM     88  C   UNL A   1      34.838  16.292  24.151  1.00  0.00     0.000 A 
ATOM     89  C   UNL A   1      33.098  16.538  25.798  1.00  0.00     0.000 A 
ATOM     90  C   UNL A   1      34.351  16.059  25.438  1.00  0.00     0.000 A 
ENDBRANCH  84  85
ENDBRANCH  83  84
ENDBRANCH  71  79
ENDBRANCH  69  71
ENDBRANCH  68  69
ENDBRANCH  67  68
ENDBRANCH  66  67
ENDBRANCH  65  66
ENDBRANCH   1  65
TORSDOF 21
ENDMDL
