MODEL 1
REMARK VINA RESULT:     -11.7      0.000      0.000
REMARK SMILES CCc1ccc(C(=O)OCCOCCOCCOC(=O)c2ccc(-c3c4nc(c(-c5c(F)cccc5F)c5ccc([nH]5)c(-c5c(F)cccc5F)c5nc(c(-c6c(F)cccc6F)c6ccc3[nH]6)C=C5)C=C4)cc2)cc1S(=O)(=O)Nc1ccc(F)c(F)c1F
REMARK SMILES IDX 13 1 12 2 11 3 10 4 9 5 7 6 8 7 6 8 3 9 4 10 76 11 5 12
REMARK SMILES IDX 75 13 2 14 1 15 77 16 78 17 79 18 80 19 81 21 82 22 88 23
REMARK SMILES IDX 83 24 86 25 89 26 84 27 87 28 85 29 14 30 15 31 16 32 17 33
REMARK SMILES IDX 18 34 19 35 20 36 21 37 22 38 74 39 23 40 73 41 24 42 25 43
REMARK SMILES IDX 26 44 67 45 27 46 72 47 66 48 68 49 28 50 71 51 65 52 64 53
REMARK SMILES IDX 29 55 55 56 38 57 54 58 39 59 42 60 53 61 69 62 40 63 41 64
REMARK SMILES IDX 52 66 70 67 43 68 30 69 31 70 36 71 32 72 33 73 35 74 37 75
REMARK SMILES IDX 34 76 56 77 57 78 62 79 58 80 59 81 61 82 63 83 60 84 44 85
REMARK SMILES IDX 45 86 50 87 46 88 47 89 49 90 51 91 48 92
REMARK H PARENT 80 20 68 54 42 65
REMARK Flexibility Score: inf
ROOT
ATOM      1  C   UNL A   1      42.464  19.138  26.018  1.00  0.00     0.188 C 
ENDROOT
BRANCH   1   2
ATOM      2  O   UNL A   1      41.718  20.317  25.768  1.00  0.00    -0.376 OA
BRANCH   2   3
ATOM      3  C   UNL A   1      40.512  20.461  26.512  1.00  0.00     0.202 C 
BRANCH   3   4
ATOM      4  C   UNL A   1      39.864  21.853  26.457  1.00  0.00     0.261 C 
BRANCH   4   5
ATOM      5  O   UNL A   1      38.683  21.906  25.635  1.00  0.00    -0.460 OA
BRANCH   5   6
ATOM      6  C   UNL A   1      37.849  22.954  25.818  1.00  0.00     0.338 C 
ATOM      7  O   UNL A   1      38.138  24.062  26.231  1.00  0.00    -0.246 OA
BRANCH   6   8
ATOM      8  C   UNL A   1      36.561  22.612  25.171  1.00  0.00     0.061 A 
ATOM      9  C   UNL A   1      33.977  21.893  24.302  1.00  0.00    -0.028 A 
ATOM     10  C   UNL A   1      34.859  20.943  24.864  1.00  0.00     0.006 A 
ATOM     11  C   UNL A   1      34.435  23.220  24.118  1.00  0.00     0.091 A 
ATOM     12  C   UNL A   1      36.139  21.291  25.281  1.00  0.00     0.016 A 
ATOM     13  C   UNL A   1      35.728  23.572  24.580  1.00  0.00     0.038 A 
BRANCH   9  14
ATOM     14  C   UNL A   1      32.598  21.372  24.000  1.00  0.00     0.033 C 
ATOM     15  C   UNL A   1      32.276  21.251  22.521  1.00  0.00     0.009 C 
ENDBRANCH   9  14
BRANCH  11  16
ATOM     16  S   UNL A   1      33.404  24.586  23.524  1.00  0.00     0.262 S 
ATOM     17  O   UNL A   1      33.451  24.555  22.086  1.00  0.00    -0.201 OA
ATOM     18  O   UNL A   1      32.134  24.457  24.214  1.00  0.00    -0.201 OA
BRANCH  16  19
ATOM     19  N   UNL A   1      34.016  26.025  24.145  1.00  0.00    -0.277 N 
ATOM     20  H   UNL A   1      34.973  26.202  24.000  1.00  0.00     0.180 HD
BRANCH  19  21
ATOM     21  C   UNL A   1      33.276  27.012  24.862  1.00  0.00     0.088 A 
ATOM     22  C   UNL A   1      33.567  27.126  26.229  1.00  0.00     0.033 A 
ATOM     23  C   UNL A   1      32.285  27.842  24.315  1.00  0.00     0.185 A 
ATOM     24  C   UNL A   1      32.997  28.150  26.992  1.00  0.00     0.045 A 
ATOM     25  C   UNL A   1      31.744  28.881  25.067  1.00  0.00     0.196 A 
ATOM     26  F   UNL A   1      31.853  27.678  23.060  1.00  0.00    -0.201 F 
ATOM     27  C   UNL A   1      32.117  29.045  26.392  1.00  0.00     0.162 A 
ATOM     28  F   UNL A   1      30.888  29.745  24.502  1.00  0.00    -0.200 F 
ATOM     29  F   UNL A   1      31.634  30.068  27.110  1.00  0.00    -0.204 F 
ENDBRANCH  19  21
ENDBRANCH  16  19
ENDBRANCH  11  16
ENDBRANCH   6   8
ENDBRANCH   5   6
ENDBRANCH   4   5
ENDBRANCH   3   4
ENDBRANCH   2   3
ENDBRANCH   1   2
BRANCH   1  30
ATOM     30  C   UNL A   1      43.815  19.051  25.279  1.00  0.00     0.188 C 
BRANCH  30  31
ATOM     31  O   UNL A   1      44.165  20.006  24.285  1.00  0.00    -0.376 OA
BRANCH  31  32
ATOM     32  C   UNL A   1      44.833  21.202  24.657  1.00  0.00     0.202 C 
BRANCH  32  33
ATOM     33  C   UNL A   1      44.504  22.504  23.915  1.00  0.00     0.261 C 
BRANCH  33  34
ATOM     34  O   UNL A   1      43.706  23.436  24.663  1.00  0.00    -0.460 OA
BRANCH  34  35
ATOM     35  C   UNL A   1      44.342  24.582  25.001  1.00  0.00     0.338 C 
ATOM     36  O   UNL A   1      45.446  24.956  24.643  1.00  0.00    -0.246 OA
BRANCH  35  37
ATOM     37  C   UNL A   1      43.450  25.444  25.797  1.00  0.00     0.060 A 
ATOM     38  C   UNL A   1      43.859  26.763  26.033  1.00  0.00     0.016 A 
ATOM     39  C   UNL A   1      42.306  24.931  26.413  1.00  0.00     0.016 A 
ATOM     40  C   UNL A   1      43.154  27.559  26.932  1.00  0.00     0.010 A 
ATOM     41  C   UNL A   1      41.610  25.727  27.329  1.00  0.00     0.010 A 
ATOM     42  C   UNL A   1      42.060  27.026  27.627  1.00  0.00    -0.014 A 
BRANCH  42  43
ATOM     43  C   UNL A   1      41.546  27.755  28.811  1.00  0.00     0.031 A 
ATOM     44  C   UNL A   1      42.284  27.617  30.116  1.00  0.00     0.074 A 
ATOM     45  C   UNL A   1      40.484  28.574  28.720  1.00  0.00     0.049 A 
ATOM     46  N   UNL A   1      42.049  28.189  31.269  1.00  0.00    -0.248 NA
ATOM     47  C   UNL A   1      43.445  26.713  30.117  1.00  0.00     0.031 C 
ATOM     48  C   UNL A   1      39.703  28.817  27.509  1.00  0.00     0.029 A 
ATOM     49  N   UNL A   1      39.884  29.357  29.674  1.00  0.00    -0.354 N 
ATOM     50  C   UNL A   1      43.034  27.719  32.129  1.00  0.00     0.074 A 
ATOM     51  C   UNL A   1      43.847  26.789  31.377  1.00  0.00     0.031 C 
ATOM     52  C   UNL A   1      38.720  29.689  27.796  1.00  0.00     0.029 A 
ATOM     53  C   UNL A   1      38.796  30.053  29.210  1.00  0.00     0.049 A 
ATOM     54  H   UNL A   1      40.204  29.415  30.604  1.00  0.00     0.167 HD
ATOM     55  C   UNL A   1      43.253  28.041  33.426  1.00  0.00     0.037 A 
ATOM     56  C   UNL A   1      37.956  30.882  29.859  1.00  0.00     0.037 A 
ATOM     57  C   UNL A   1      42.446  28.961  34.181  1.00  0.00     0.049 A 
ATOM     58  C   UNL A   1      38.189  31.187  31.315  1.00  0.00     0.074 A 
ATOM     59  C   UNL A   1      42.586  29.354  35.500  1.00  0.00     0.029 A 
ATOM     60  N   UNL A   1      41.339  29.631  33.680  1.00  0.00    -0.354 N 
ATOM     61  N   UNL A   1      39.140  30.759  32.110  1.00  0.00    -0.248 NA
ATOM     62  C   UNL A   1      37.236  32.102  31.960  1.00  0.00     0.031 C 
ATOM     63  C   UNL A   1      41.543  30.235  35.808  1.00  0.00     0.029 A 
ATOM     64  C   UNL A   1      40.779  30.424  34.668  1.00  0.00     0.049 A 
ATOM     65  H   UNL A   1      41.003  29.554  32.758  1.00  0.00     0.167 HD
ATOM     66  C   UNL A   1      38.920  31.378  33.335  1.00  0.00     0.074 A 
ATOM     67  C   UNL A   1      37.751  32.217  33.177  1.00  0.00     0.031 C 
ATOM     68  C   UNL A   1      39.625  31.266  34.488  1.00  0.00     0.037 A 
BRANCH  55  69
ATOM     69  C   UNL A   1      44.406  27.373  34.112  1.00  0.00     0.057 A 
ATOM     70  C   UNL A   1      45.692  27.930  34.107  1.00  0.00     0.134 A 
ATOM     71  C   UNL A   1      44.229  26.163  34.794  1.00  0.00     0.134 A 
ATOM     72  F   UNL A   1      45.931  29.079  33.456  1.00  0.00    -0.206 F 
ATOM     73  C   UNL A   1      46.765  27.297  34.737  1.00  0.00     0.040 A 
ATOM     74  C   UNL A   1      45.288  25.532  35.448  1.00  0.00     0.040 A 
ATOM     75  F   UNL A   1      43.023  25.576  34.838  1.00  0.00    -0.206 F 
ATOM     76  C   UNL A   1      46.562  26.096  35.414  1.00  0.00     0.006 A 
ENDBRANCH  55  69
BRANCH  56  77
ATOM     77  C   UNL A   1      36.814  31.497  29.138  1.00  0.00     0.057 A 
ATOM     78  C   UNL A   1      35.681  30.748  28.798  1.00  0.00     0.134 A 
ATOM     79  C   UNL A   1      36.843  32.840  28.742  1.00  0.00     0.134 A 
ATOM     80  F   UNL A   1      35.605  29.451  29.130  1.00  0.00    -0.206 F 
ATOM     81  C   UNL A   1      34.627  31.306  28.072  1.00  0.00     0.040 A 
ATOM     82  C   UNL A   1      35.786  33.417  28.037  1.00  0.00     0.040 A 
ATOM     83  F   UNL A   1      37.900  33.610  29.039  1.00  0.00    -0.206 F 
ATOM     84  C   UNL A   1      34.677  32.646  27.693  1.00  0.00     0.006 A 
ENDBRANCH  56  77
BRANCH  68  85
ATOM     85  C   UNL A   1      39.181  32.105  35.651  1.00  0.00     0.057 A 
ATOM     86  C   UNL A   1      39.593  33.433  35.808  1.00  0.00     0.134 A 
ATOM     87  C   UNL A   1      38.305  31.580  36.610  1.00  0.00     0.134 A 
ATOM     88  F   UNL A   1      40.440  33.991  34.931  1.00  0.00    -0.206 F 
ATOM     89  C   UNL A   1      39.169  34.204  36.893  1.00  0.00     0.040 A 
ATOM     90  C   UNL A   1      37.855  32.348  37.685  1.00  0.00     0.040 A 
ATOM     91  F   UNL A   1      37.865  30.316  36.513  1.00  0.00    -0.206 F 
ATOM     92  C   UNL A   1      38.294  33.661  37.832  1.00  0.00     0.006 A 
ENDBRANCH  68  85
ENDBRANCH  42  43
ENDBRANCH  35  37
ENDBRANCH  34  35
ENDBRANCH  33  34
ENDBRANCH  32  33
ENDBRANCH  31  32
ENDBRANCH  30  31
ENDBRANCH   1  30
TORSDOF 21
ENDMDL
MODEL 2
REMARK VINA RESULT:     -11.4      2.211      3.772
REMARK SMILES CCc1ccc(C(=O)OCCOCCOCCOC(=O)c2ccc(-c3c4nc(c(-c5c(F)cccc5F)c5ccc([nH]5)c(-c5c(F)cccc5F)c5nc(c(-c6c(F)cccc6F)c6ccc3[nH]6)C=C5)C=C4)cc2)cc1S(=O)(=O)Nc1ccc(F)c(F)c1F
REMARK SMILES IDX 13 1 12 2 11 3 10 4 9 5 7 6 8 7 6 8 3 9 4 10 76 11 5 12
REMARK SMILES IDX 75 13 2 14 1 15 77 16 78 17 79 18 80 19 81 21 82 22 88 23
REMARK SMILES IDX 83 24 86 25 89 26 84 27 87 28 85 29 14 30 15 31 16 32 17 33
REMARK SMILES IDX 18 34 19 35 20 36 21 37 22 38 74 39 23 40 73 41 24 42 25 43
REMARK SMILES IDX 26 44 67 45 27 46 72 47 66 48 68 49 28 50 71 51 65 52 64 53
REMARK SMILES IDX 29 55 55 56 38 57 54 58 39 59 42 60 53 61 69 62 40 63 41 64
REMARK SMILES IDX 52 66 70 67 43 68 30 69 31 70 36 71 32 72 33 73 35 74 37 75
REMARK SMILES IDX 34 76 56 77 57 78 62 79 58 80 59 81 61 82 63 83 60 84 44 85
REMARK SMILES IDX 45 86 50 87 46 88 47 89 49 90 51 91 48 92
REMARK H PARENT 80 20 68 54 42 65
REMARK Flexibility Score: inf
ROOT
ATOM      1  C   UNL A   1      42.989  18.990  25.899  1.00  0.00     0.188 C 
ENDROOT
BRANCH   1   2
ATOM      2  O   UNL A   1      41.931  19.802  25.418  1.00  0.00    -0.376 OA
BRANCH   2   3
ATOM      3  C   UNL A   1      41.162  20.476  26.409  1.00  0.00     0.202 C 
BRANCH   3   4
ATOM      4  C   UNL A   1      40.294  21.634  25.897  1.00  0.00     0.261 C 
BRANCH   4   5
ATOM      5  O   UNL A   1      38.893  21.477  26.191  1.00  0.00    -0.460 OA
BRANCH   5   6
ATOM      6  C   UNL A   1      38.138  20.824  25.280  1.00  0.00     0.338 C 
ATOM      7  O   UNL A   1      38.270  19.673  24.906  1.00  0.00    -0.246 OA
BRANCH   6   8
ATOM      8  C   UNL A   1      36.946  21.660  25.010  1.00  0.00     0.061 A 
ATOM      9  C   UNL A   1      34.611  23.013  24.193  1.00  0.00    -0.028 A 
ATOM     10  C   UNL A   1      35.789  23.035  23.414  1.00  0.00     0.006 A 
ATOM     11  C   UNL A   1      34.635  22.345  25.442  1.00  0.00     0.091 A 
ATOM     12  C   UNL A   1      36.946  22.380  23.820  1.00  0.00     0.016 A 
ATOM     13  C   UNL A   1      35.808  21.651  25.829  1.00  0.00     0.038 A 
BRANCH   9  14
ATOM     14  C   UNL A   1      33.423  23.684  23.559  1.00  0.00     0.033 C 
ATOM     15  C   UNL A   1      33.767  24.824  22.617  1.00  0.00     0.009 C 
ENDBRANCH   9  14
BRANCH  11  16
ATOM     16  S   UNL A   1      33.189  22.119  26.510  1.00  0.00     0.262 S 
ATOM     17  O   UNL A   1      33.667  21.584  27.758  1.00  0.00    -0.201 OA
ATOM     18  O   UNL A   1      32.473  23.381  26.486  1.00  0.00    -0.201 OA
BRANCH  16  19
ATOM     19  N   UNL A   1      32.118  21.073  25.744  1.00  0.00    -0.277 N 
ATOM     20  H   UNL A   1      31.159  21.288  25.813  1.00  0.00     0.180 HD
BRANCH  19  21
ATOM     21  C   UNL A   1      32.468  19.905  25.003  1.00  0.00     0.088 A 
ATOM     22  C   UNL A   1      32.959  18.827  25.751  1.00  0.00     0.033 A 
ATOM     23  C   UNL A   1      32.380  19.771  23.609  1.00  0.00     0.185 A 
ATOM     24  C   UNL A   1      33.204  17.593  25.139  1.00  0.00     0.045 A 
ATOM     25  C   UNL A   1      32.592  18.534  23.007  1.00  0.00     0.196 A 
ATOM     26  F   UNL A   1      32.068  20.810  22.825  1.00  0.00    -0.201 F 
ATOM     27  C   UNL A   1      32.980  17.446  23.774  1.00  0.00     0.162 A 
ATOM     28  F   UNL A   1      32.387  18.383  21.690  1.00  0.00    -0.200 F 
ATOM     29  F   UNL A   1      33.144  16.243  23.209  1.00  0.00    -0.204 F 
ENDBRANCH  19  21
ENDBRANCH  16  19
ENDBRANCH  11  16
ENDBRANCH   6   8
ENDBRANCH   5   6
ENDBRANCH   4   5
ENDBRANCH   3   4
ENDBRANCH   2   3
ENDBRANCH   1   2
BRANCH   1  30
ATOM     30  C   UNL A   1      44.333  19.163  25.160  1.00  0.00     0.188 C 
BRANCH  30  31
ATOM     31  O   UNL A   1      44.410  19.906  23.951  1.00  0.00    -0.376 OA
BRANCH  31  32
ATOM     32  C   UNL A   1      44.685  21.299  23.993  1.00  0.00     0.202 C 
BRANCH  32  33
ATOM     33  C   UNL A   1      45.185  21.923  25.301  1.00  0.00     0.261 C 
BRANCH  33  34
ATOM     34  O   UNL A   1      44.295  22.889  25.885  1.00  0.00    -0.460 OA
BRANCH  34  35
ATOM     35  C   UNL A   1      44.568  24.176  25.566  1.00  0.00     0.338 C 
ATOM     36  O   UNL A   1      45.347  24.586  24.723  1.00  0.00    -0.246 OA
BRANCH  35  37
ATOM     37  C   UNL A   1      43.673  25.084  26.305  1.00  0.00     0.060 A 
ATOM     38  C   UNL A   1      44.104  26.400  26.509  1.00  0.00     0.016 A 
ATOM     39  C   UNL A   1      42.499  24.618  26.902  1.00  0.00     0.016 A 
ATOM     40  C   UNL A   1      43.392  27.242  27.359  1.00  0.00     0.010 A 
ATOM     41  C   UNL A   1      41.794  25.460  27.770  1.00  0.00     0.010 A 
ATOM     42  C   UNL A   1      42.266  26.758  28.037  1.00  0.00    -0.014 A 
BRANCH  42  43
ATOM     43  C   UNL A   1      41.733  27.538  29.180  1.00  0.00     0.031 A 
ATOM     44  C   UNL A   1      42.440  27.443  30.506  1.00  0.00     0.074 A 
ATOM     45  C   UNL A   1      40.683  28.364  29.033  1.00  0.00     0.049 A 
ATOM     46  N   UNL A   1      42.186  28.063  31.630  1.00  0.00    -0.248 NA
ATOM     47  C   UNL A   1      43.590  26.528  30.569  1.00  0.00     0.031 C 
ATOM     48  C   UNL A   1      39.932  28.568  27.796  1.00  0.00     0.029 A 
ATOM     49  N   UNL A   1      40.070  29.190  29.942  1.00  0.00    -0.354 N 
ATOM     50  C   UNL A   1      43.145  27.616  32.531  1.00  0.00     0.074 A 
ATOM     51  C   UNL A   1      43.964  26.648  31.834  1.00  0.00     0.031 C 
ATOM     52  C   UNL A   1      38.953  29.461  28.026  1.00  0.00     0.029 A 
ATOM     53  C   UNL A   1      39.001  29.879  29.426  1.00  0.00     0.049 A 
ATOM     54  H   UNL A   1      40.370  29.281  30.875  1.00  0.00     0.167 HD
ATOM     55  C   UNL A   1      43.338  27.986  33.818  1.00  0.00     0.037 A 
ATOM     56  C   UNL A   1      38.157  30.742  30.022  1.00  0.00     0.037 A 
ATOM     57  C   UNL A   1      42.525  28.944  34.518  1.00  0.00     0.049 A 
ATOM     58  C   UNL A   1      38.360  31.101  31.471  1.00  0.00     0.074 A 
ATOM     59  C   UNL A   1      42.640  29.387  35.824  1.00  0.00     0.029 A 
ATOM     60  N   UNL A   1      41.438  29.605  33.966  1.00  0.00    -0.354 N 
ATOM     61  N   UNL A   1      39.288  30.695  32.303  1.00  0.00    -0.248 NA
ATOM     62  C   UNL A   1      37.404  32.051  32.058  1.00  0.00     0.031 C 
ATOM     63  C   UNL A   1      41.600  30.290  36.074  1.00  0.00     0.029 A 
ATOM     64  C   UNL A   1      40.865  30.442  34.909  1.00  0.00     0.049 A 
ATOM     65  H   UNL A   1      41.122  29.496  33.040  1.00  0.00     0.167 HD
ATOM     66  C   UNL A   1      39.048  31.364  33.498  1.00  0.00     0.074 A 
ATOM     67  C   UNL A   1      37.893  32.208  33.280  1.00  0.00     0.031 C 
ATOM     68  C   UNL A   1      39.725  31.288  34.671  1.00  0.00     0.037 A 
BRANCH  55  69
ATOM     69  C   UNL A   1      44.468  27.332  34.556  1.00  0.00     0.057 A 
ATOM     70  C   UNL A   1      44.317  26.090  35.186  1.00  0.00     0.134 A 
ATOM     71  C   UNL A   1      45.725  27.945  34.628  1.00  0.00     0.134 A 
ATOM     72  F   UNL A   1      43.132  25.459  35.168  1.00  0.00    -0.206 F 
ATOM     73  C   UNL A   1      45.368  25.491  35.882  1.00  0.00     0.040 A 
ATOM     74  C   UNL A   1      46.791  27.346  35.300  1.00  0.00     0.040 A 
ATOM     75  F   UNL A   1      45.938  29.134  34.045  1.00  0.00    -0.206 F 
ATOM     76  C   UNL A   1      46.612  26.119  35.936  1.00  0.00     0.006 A 
ENDBRANCH  55  69
BRANCH  56  77
ATOM     77  C   UNL A   1      37.039  31.341  29.252  1.00  0.00     0.057 A 
ATOM     78  C   UNL A   1      35.892  30.600  28.942  1.00  0.00     0.134 A 
ATOM     79  C   UNL A   1      37.106  32.657  28.779  1.00  0.00     0.134 A 
ATOM     80  F   UNL A   1      35.780  29.328  29.349  1.00  0.00    -0.206 F 
ATOM     81  C   UNL A   1      34.860  31.140  28.171  1.00  0.00     0.040 A 
ATOM     82  C   UNL A   1      36.071  33.216  28.027  1.00  0.00     0.040 A 
ATOM     83  F   UNL A   1      38.178  33.417  29.043  1.00  0.00    -0.206 F 
ATOM     84  C   UNL A   1      34.948  32.454  27.715  1.00  0.00     0.006 A 
ENDBRANCH  56  77
BRANCH  68  85
ATOM     85  C   UNL A   1      39.265  32.177  35.789  1.00  0.00     0.057 A 
ATOM     86  C   UNL A   1      38.349  31.742  36.754  1.00  0.00     0.134 A 
ATOM     87  C   UNL A   1      39.771  33.477  35.917  1.00  0.00     0.134 A 
ATOM     88  F   UNL A   1      37.818  30.513  36.683  1.00  0.00    -0.206 F 
ATOM     89  C   UNL A   1      37.931  32.578  37.792  1.00  0.00     0.040 A 
ATOM     90  C   UNL A   1      39.381  34.313  36.963  1.00  0.00     0.040 A 
ATOM     91  F   UNL A   1      40.660  33.952  35.031  1.00  0.00    -0.206 F 
ATOM     92  C   UNL A   1      38.452  33.867  37.900  1.00  0.00     0.006 A 
ENDBRANCH  68  85
ENDBRANCH  42  43
ENDBRANCH  35  37
ENDBRANCH  34  35
ENDBRANCH  33  34
ENDBRANCH  32  33
ENDBRANCH  31  32
ENDBRANCH  30  31
ENDBRANCH   1  30
TORSDOF 21
ENDMDL
MODEL 3
REMARK VINA RESULT:     -10.9      1.599      6.410
REMARK SMILES CCc1ccc(C(=O)OCCOCCOCCOC(=O)c2ccc(-c3c4nc(c(-c5c(F)cccc5F)c5ccc([nH]5)c(-c5c(F)cccc5F)c5nc(c(-c6c(F)cccc6F)c6ccc3[nH]6)C=C5)C=C4)cc2)cc1S(=O)(=O)Nc1ccc(F)c(F)c1F
REMARK SMILES IDX 13 1 12 2 11 3 10 4 9 5 7 6 8 7 6 8 3 9 4 10 76 11 5 12
REMARK SMILES IDX 75 13 2 14 1 15 77 16 78 17 79 18 80 19 81 21 82 22 88 23
REMARK SMILES IDX 83 24 86 25 89 26 84 27 87 28 85 29 14 30 15 31 16 32 17 33
REMARK SMILES IDX 18 34 19 35 20 36 21 37 22 38 74 39 23 40 73 41 24 42 25 43
REMARK SMILES IDX 26 44 67 45 27 46 72 47 66 48 68 49 28 50 71 51 65 52 64 53
REMARK SMILES IDX 29 55 55 56 38 57 54 58 39 59 42 60 53 61 69 62 40 63 41 64
REMARK SMILES IDX 52 66 70 67 43 68 30 69 31 70 36 71 32 72 33 73 35 74 37 75
REMARK SMILES IDX 34 76 56 77 57 78 62 79 58 80 59 81 61 82 63 83 60 84 44 85
REMARK SMILES IDX 45 86 50 87 46 88 47 89 49 90 51 91 48 92
REMARK H PARENT 80 20 68 54 42 65
REMARK Flexibility Score: inf
ROOT
ATOM      1  C   UNL A   1      41.008  21.159  26.988  1.00  0.00     0.188 C 
ENDROOT
BRANCH   1   2
ATOM      2  O   UNL A   1      40.292  21.647  25.865  1.00  0.00    -0.376 OA
BRANCH   2   3
ATOM      3  C   UNL A   1      38.958  22.078  26.116  1.00  0.00     0.202 C 
BRANCH   3   4
ATOM      4  C   UNL A   1      37.890  21.499  25.177  1.00  0.00     0.261 C 
BRANCH   4   5
ATOM      5  O   UNL A   1      36.659  22.246  25.175  1.00  0.00    -0.460 OA
BRANCH   5   6
ATOM      6  C   UNL A   1      36.389  22.993  24.081  1.00  0.00     0.338 C 
ATOM      7  O   UNL A   1      36.868  22.868  22.969  1.00  0.00    -0.246 OA
BRANCH   6   8
ATOM      8  C   UNL A   1      35.202  23.822  24.392  1.00  0.00     0.061 A 
ATOM      9  C   UNL A   1      33.181  25.605  25.220  1.00  0.00    -0.028 A 
ATOM     10  C   UNL A   1      33.749  24.668  26.111  1.00  0.00     0.006 A 
ATOM     11  C   UNL A   1      33.599  25.597  23.867  1.00  0.00     0.091 A 
ATOM     12  C   UNL A   1      34.737  23.778  25.703  1.00  0.00     0.016 A 
ATOM     13  C   UNL A   1      34.631  24.710  23.471  1.00  0.00     0.038 A 
BRANCH   9  14
ATOM     14  C   UNL A   1      32.202  26.559  25.848  1.00  0.00     0.033 C 
ATOM     15  C   UNL A   1      32.837  27.698  26.626  1.00  0.00     0.009 C 
ENDBRANCH   9  14
BRANCH  11  16
ATOM     16  S   UNL A   1      33.064  26.800  22.622  1.00  0.00     0.262 S 
ATOM     17  O   UNL A   1      33.379  28.107  23.136  1.00  0.00    -0.201 OA
ATOM     18  O   UNL A   1      33.636  26.354  21.364  1.00  0.00    -0.201 OA
BRANCH  16  19
ATOM     19  N   UNL A   1      31.413  26.603  22.365  1.00  0.00    -0.277 N 
ATOM     20  H   UNL A   1      31.120  25.744  21.983  1.00  0.00     0.180 HD
BRANCH  19  21
ATOM     21  C   UNL A   1      30.398  27.564  22.648  1.00  0.00     0.088 A 
ATOM     22  C   UNL A   1      30.693  28.890  22.302  1.00  0.00     0.033 A 
ATOM     23  C   UNL A   1      29.164  27.288  23.256  1.00  0.00     0.185 A 
ATOM     24  C   UNL A   1      29.716  29.886  22.414  1.00  0.00     0.045 A 
ATOM     25  C   UNL A   1      28.182  28.272  23.336  1.00  0.00     0.196 A 
ATOM     26  F   UNL A   1      28.884  26.075  23.749  1.00  0.00    -0.201 F 
ATOM     27  C   UNL A   1      28.453  29.558  22.896  1.00  0.00     0.162 A 
ATOM     28  F   UNL A   1      26.963  27.970  23.806  1.00  0.00    -0.200 F 
ATOM     29  F   UNL A   1      27.501  30.500  22.929  1.00  0.00    -0.204 F 
ENDBRANCH  19  21
ENDBRANCH  16  19
ENDBRANCH  11  16
ENDBRANCH   6   8
ENDBRANCH   5   6
ENDBRANCH   4   5
ENDBRANCH   3   4
ENDBRANCH   2   3
ENDBRANCH   1   2
BRANCH   1  30
ATOM     30  C   UNL A   1      42.437  20.661  26.685  1.00  0.00     0.188 C 
BRANCH  30  31
ATOM     31  O   UNL A   1      42.925  20.615  25.351  1.00  0.00    -0.376 OA
BRANCH  31  32
ATOM     32  C   UNL A   1      44.127  21.290  25.014  1.00  0.00     0.202 C 
BRANCH  32  33
ATOM     33  C   UNL A   1      44.050  22.609  24.233  1.00  0.00     0.261 C 
BRANCH  33  34
ATOM     34  O   UNL A   1      43.353  23.667  24.910  1.00  0.00    -0.460 OA
BRANCH  34  35
ATOM     35  C   UNL A   1      44.147  24.512  25.609  1.00  0.00     0.338 C 
ATOM     36  O   UNL A   1      45.356  24.644  25.519  1.00  0.00    -0.246 OA
BRANCH  35  37
ATOM     37  C   UNL A   1      43.328  25.401  26.452  1.00  0.00     0.060 A 
ATOM     38  C   UNL A   1      43.672  26.757  26.494  1.00  0.00     0.016 A 
ATOM     39  C   UNL A   1      42.330  24.892  27.287  1.00  0.00     0.016 A 
ATOM     40  C   UNL A   1      43.058  27.602  27.415  1.00  0.00     0.010 A 
ATOM     41  C   UNL A   1      41.727  25.738  28.223  1.00  0.00     0.010 A 
ATOM     42  C   UNL A   1      42.124  27.084  28.322  1.00  0.00    -0.014 A 
BRANCH  42  43
ATOM     43  C   UNL A   1      41.745  27.903  29.499  1.00  0.00     0.031 A 
ATOM     44  C   UNL A   1      40.525  28.780  29.400  1.00  0.00     0.074 A 
ATOM     45  C   UNL A   1      42.428  27.825  30.653  1.00  0.00     0.049 A 
ATOM     46  N   UNL A   1      39.977  29.547  30.308  1.00  0.00    -0.248 NA
ATOM     47  C   UNL A   1      39.829  28.788  28.104  1.00  0.00     0.031 C 
ATOM     48  C   UNL A   1      43.607  26.993  30.886  1.00  0.00     0.029 A 
ATOM     49  N   UNL A   1      42.220  28.461  31.851  1.00  0.00    -0.354 N 
ATOM     50  C   UNL A   1      38.872  30.125  29.694  1.00  0.00     0.074 A 
ATOM     51  C   UNL A   1      38.847  29.648  28.328  1.00  0.00     0.031 C 
ATOM     52  C   UNL A   1      44.022  27.173  32.152  1.00  0.00     0.029 A 
ATOM     53  C   UNL A   1      43.147  28.142  32.812  1.00  0.00     0.049 A 
ATOM     54  H   UNL A   1      41.475  29.086  32.008  1.00  0.00     0.167 HD
ATOM     55  C   UNL A   1      37.951  30.966  30.221  1.00  0.00     0.037 A 
ATOM     56  C   UNL A   1      43.275  28.589  34.076  1.00  0.00     0.037 A 
ATOM     57  C   UNL A   1      37.974  31.448  31.576  1.00  0.00     0.049 A 
ATOM     58  C   UNL A   1      42.268  29.565  34.626  1.00  0.00     0.074 A 
ATOM     59  C   UNL A   1      37.086  32.303  32.205  1.00  0.00     0.029 A 
ATOM     60  N   UNL A   1      38.941  31.117  32.512  1.00  0.00    -0.354 N 
ATOM     61  N   UNL A   1      41.211  30.080  34.045  1.00  0.00    -0.248 NA
ATOM     62  C   UNL A   1      42.466  30.009  36.013  1.00  0.00     0.031 C 
ATOM     63  C   UNL A   1      37.537  32.518  33.512  1.00  0.00     0.029 A 
ATOM     64  C   UNL A   1      38.681  31.762  33.709  1.00  0.00     0.049 A 
ATOM     65  H   UNL A   1      39.701  30.512  32.349  1.00  0.00     0.167 HD
ATOM     66  C   UNL A   1      40.601  30.880  35.005  1.00  0.00     0.074 A 
ATOM     67  C   UNL A   1      41.401  30.776  36.206  1.00  0.00     0.031 C 
ATOM     68  C   UNL A   1      39.478  31.633  34.902  1.00  0.00     0.037 A 
BRANCH  55  69
ATOM     69  C   UNL A   1      36.852  31.432  29.314  1.00  0.00     0.057 A 
ATOM     70  C   UNL A   1      35.773  30.604  28.976  1.00  0.00     0.134 A 
ATOM     71  C   UNL A   1      36.865  32.726  28.781  1.00  0.00     0.134 A 
ATOM     72  F   UNL A   1      35.712  29.346  29.440  1.00  0.00    -0.206 F 
ATOM     73  C   UNL A   1      34.759  31.038  28.121  1.00  0.00     0.040 A 
ATOM     74  C   UNL A   1      35.844  33.181  27.945  1.00  0.00     0.040 A 
ATOM     75  F   UNL A   1      37.868  33.571  29.066  1.00  0.00    -0.206 F 
ATOM     76  C   UNL A   1      34.791  32.333  27.607  1.00  0.00     0.006 A 
ENDBRANCH  55  69
BRANCH  56  77
ATOM     77  C   UNL A   1      44.398  28.115  34.923  1.00  0.00     0.057 A 
ATOM     78  C   UNL A   1      45.613  28.809  34.973  1.00  0.00     0.134 A 
ATOM     79  C   UNL A   1      44.293  26.939  35.674  1.00  0.00     0.134 A 
ATOM     80  F   UNL A   1      45.780  29.929  34.257  1.00  0.00    -0.206 F 
ATOM     81  C   UNL A   1      46.692  28.338  35.724  1.00  0.00     0.040 A 
ATOM     82  C   UNL A   1      45.356  26.470  36.449  1.00  0.00     0.040 A 
ATOM     83  F   UNL A   1      43.155  26.230  35.669  1.00  0.00    -0.206 F 
ATOM     84  C   UNL A   1      46.563  27.167  36.468  1.00  0.00     0.006 A 
ENDBRANCH  56  77
BRANCH  68  85
ATOM     85  C   UNL A   1      39.021  32.360  36.133  1.00  0.00     0.057 A 
ATOM     86  C   UNL A   1      38.199  31.754  37.091  1.00  0.00     0.134 A 
ATOM     87  C   UNL A   1      39.437  33.676  36.375  1.00  0.00     0.134 A 
ATOM     88  F   UNL A   1      37.756  30.501  36.913  1.00  0.00    -0.206 F 
ATOM     89  C   UNL A   1      37.783  32.441  38.234  1.00  0.00     0.040 A 
ATOM     90  C   UNL A   1      39.050  34.364  37.525  1.00  0.00     0.040 A 
ATOM     91  F   UNL A   1      40.234  34.310  35.501  1.00  0.00    -0.206 F 
ATOM     92  C   UNL A   1      38.214  33.749  38.454  1.00  0.00     0.006 A 
ENDBRANCH  68  85
ENDBRANCH  42  43
ENDBRANCH  35  37
ENDBRANCH  34  35
ENDBRANCH  33  34
ENDBRANCH  32  33
ENDBRANCH  31  32
ENDBRANCH  30  31
ENDBRANCH   1  30
TORSDOF 21
ENDMDL
