MODEL 1
REMARK VINA RESULT:     -10.4      0.000      0.000
REMARK SMILES O=C(OCCOCCOCCOC(=O)c1ccc(-c2c3nc(c(-c4c(F)cccc4F)c4ccc([nH]4)c(-c4c(F)cccc4F)c4nc(c(-c5c(F)cccc5F)c5ccc2[nH]5)C=C4)C=C3)cc1)C1=NN(c2ccc(S(=O)(=O)[O-])cc2)C(=O)/C1=C/Nc1ccccc1
REMARK SMILES IDX 7 1 6 2 5 3 4 4 3 5 2 6 1 7 69 8 70 9 84 10 71 11 82 12
REMARK SMILES IDX 85 13 83 14 72 15 73 16 81 17 74 18 80 19 75 20 76 21 77 22
REMARK SMILES IDX 78 23 79 24 86 25 87 27 88 28 92 29 89 30 91 31 90 32 8 33
REMARK SMILES IDX 9 34 10 35 11 36 12 37 13 38 14 39 15 40 16 41 68 42 17 43
REMARK SMILES IDX 67 44 18 45 19 46 20 47 61 48 21 49 66 50 60 51 62 52 22 53
REMARK SMILES IDX 65 54 59 55 58 56 23 58 49 59 32 60 48 61 33 62 36 63 47 64
REMARK SMILES IDX 63 65 34 66 35 67 46 69 64 70 37 71 24 72 25 73 30 74 26 75
REMARK SMILES IDX 27 76 29 77 31 78 28 79 50 80 51 81 56 82 52 83 53 84 55 85
REMARK SMILES IDX 57 86 54 87 38 88 39 89 44 90 40 91 41 92 43 93 45 94 42 95
REMARK H PARENT 86 26 62 57 36 68
REMARK Flexibility Score: inf
ROOT
ATOM      1  C   UNL A   1      39.230  24.550  27.037  1.00  0.00     0.188 C 
ENDROOT
BRANCH   1   2
ATOM      2  O   UNL A   1      38.543  23.653  26.182  1.00  0.00    -0.376 OA
BRANCH   2   3
ATOM      3  C   UNL A   1      38.949  22.304  26.150  1.00  0.00     0.202 C 
BRANCH   3   4
ATOM      4  C   UNL A   1      37.985  21.440  25.358  1.00  0.00     0.261 C 
BRANCH   4   5
ATOM      5  O   UNL A   1      36.835  22.116  24.800  1.00  0.00    -0.458 OA
BRANCH   5   6
ATOM      6  C   UNL A   1      35.700  21.433  24.502  1.00  0.00     0.359 C 
ATOM      7  O   UNL A   1      35.474  20.274  24.806  1.00  0.00    -0.244 OA
BRANCH   6   8
ATOM      8  C   UNL A   1      34.588  22.371  24.160  1.00  0.00     0.183 C 
ATOM      9  N   UNL A   1      34.807  23.625  24.451  1.00  0.00    -0.157 NA
ATOM     10  C   UNL A   1      33.255  22.106  23.549  1.00  0.00     0.093 C 
ATOM     11  N   UNL A   1      33.701  24.329  24.090  1.00  0.00    -0.196 N 
ATOM     12  C   UNL A   1      32.747  23.562  23.419  1.00  0.00     0.282 C 
ATOM     13  C   UNL A   1      32.401  21.141  23.117  1.00  0.00     0.099 C 
ATOM     14  O   UNL A   1      31.741  23.945  22.846  1.00  0.00    -0.267 OA
BRANCH  11  15
ATOM     15  C   UNL A   1      33.600  25.651  24.595  1.00  0.00     0.069 A 
ATOM     16  C   UNL A   1      33.392  25.838  25.977  1.00  0.00     0.030 A 
ATOM     17  C   UNL A   1      33.556  26.774  23.758  1.00  0.00     0.030 A 
ATOM     18  C   UNL A   1      33.071  27.086  26.501  1.00  0.00     0.021 A 
ATOM     19  C   UNL A   1      33.228  28.037  24.275  1.00  0.00     0.021 A 
ATOM     20  C   UNL A   1      32.971  28.175  25.640  1.00  0.00     0.054 A 
BRANCH  20  21
ATOM     21  S   UNL A   1      32.409  29.700  26.325  1.00  0.00     0.124 S 
ATOM     22  O   UNL A   1      31.591  29.340  27.455  1.00  0.00    -0.237 OA
ATOM     23  O   UNL A   1      33.559  30.576  26.460  1.00  0.00    -0.237 OA
ATOM     24  O   UNL A   1      31.432  30.338  25.212  1.00  0.00    -0.744 OA
ENDBRANCH  20  21
ENDBRANCH  11  15
BRANCH  13  25
ATOM     25  N   UNL A   1      32.122  19.761  22.904  1.00  0.00    -0.361 N 
ATOM     26  H   UNL A   1      31.444  19.662  22.198  1.00  0.00     0.166 HD
BRANCH  25  27
ATOM     27  C   UNL A   1      32.536  18.387  23.419  1.00  0.00     0.038 A 
ATOM     28  C   UNL A   1      32.281  18.162  24.778  1.00  0.00     0.026 A 
ATOM     29  C   UNL A   1      33.559  17.513  22.926  1.00  0.00     0.026 A 
ATOM     30  C   UNL A   1      33.012  17.220  25.555  1.00  0.00     0.002 A 
ATOM     31  C   UNL A   1      34.317  16.593  23.688  1.00  0.00     0.002 A 
ATOM     32  C   UNL A   1      34.054  16.462  25.025  1.00  0.00     0.000 A 
ENDBRANCH  25  27
ENDBRANCH  13  25
ENDBRANCH   6   8
ENDBRANCH   5   6
ENDBRANCH   4   5
ENDBRANCH   3   4
ENDBRANCH   2   3
ENDBRANCH   1   2
BRANCH   1  33
ATOM     33  C   UNL A   1      40.507  23.902  27.536  1.00  0.00     0.188 C 
BRANCH  33  34
ATOM     34  O   UNL A   1      41.698  24.506  27.034  1.00  0.00    -0.376 OA
BRANCH  34  35
ATOM     35  C   UNL A   1      42.217  24.477  25.697  1.00  0.00     0.202 C 
BRANCH  35  36
ATOM     36  C   UNL A   1      43.858  24.239  25.297  1.00  0.00     0.261 C 
BRANCH  36  37
ATOM     37  O   UNL A   1      45.178  24.017  26.180  1.00  0.00    -0.460 OA
BRANCH  37  38
ATOM     38  C   UNL A   1      46.044  24.432  27.189  1.00  0.00     0.338 C 
ATOM     39  O   UNL A   1      47.264  24.331  27.189  1.00  0.00    -0.246 OA
BRANCH  38  40
ATOM     40  C   UNL A   1      45.339  25.141  28.400  1.00  0.00     0.060 A 
ATOM     41  C   UNL A   1      44.469  24.522  29.349  1.00  0.00     0.016 A 
ATOM     42  C   UNL A   1      45.575  26.493  28.607  1.00  0.00     0.016 A 
ATOM     43  C   UNL A   1      44.052  25.149  30.554  1.00  0.00     0.010 A 
ATOM     44  C   UNL A   1      45.071  27.157  29.756  1.00  0.00     0.010 A 
ATOM     45  C   UNL A   1      44.337  26.495  30.763  1.00  0.00    -0.014 A 
BRANCH  45  46
ATOM     46  C   UNL A   1      43.661  27.296  31.841  1.00  0.00     0.031 A 
ATOM     47  C   UNL A   1      42.368  27.990  31.470  1.00  0.00     0.074 A 
ATOM     48  C   UNL A   1      44.150  27.482  33.088  1.00  0.00     0.049 A 
ATOM     49  N   UNL A   1      41.708  28.937  32.089  1.00  0.00    -0.248 NA
ATOM     50  C   UNL A   1      41.747  27.553  30.208  1.00  0.00     0.031 C 
ATOM     51  C   UNL A   1      45.315  26.822  33.678  1.00  0.00     0.029 A 
ATOM     52  N   UNL A   1      43.721  28.332  34.090  1.00  0.00    -0.354 N 
ATOM     53  C   UNL A   1      40.616  29.231  31.277  1.00  0.00     0.074 A 
ATOM     54  C   UNL A   1      40.713  28.373  30.116  1.00  0.00     0.031 C 
ATOM     55  C   UNL A   1      45.535  27.324  34.911  1.00  0.00     0.029 A 
ATOM     56  C   UNL A   1      44.549  28.367  35.191  1.00  0.00     0.049 A 
ATOM     57  H   UNL A   1      42.897  28.866  34.023  1.00  0.00     0.167 HD
ATOM     58  C   UNL A   1      39.623  30.134  31.469  1.00  0.00     0.037 A 
ATOM     59  C   UNL A   1      44.536  29.179  36.269  1.00  0.00     0.037 A 
ATOM     60  C   UNL A   1      39.512  30.995  32.617  1.00  0.00     0.049 A 
ATOM     61  C   UNL A   1      43.507  30.278  36.387  1.00  0.00     0.074 A 
ATOM     62  C   UNL A   1      38.516  31.911  32.919  1.00  0.00     0.029 A 
ATOM     63  N   UNL A   1      40.435  31.060  33.647  1.00  0.00    -0.354 N 
ATOM     64  N   UNL A   1      42.529  30.598  35.579  1.00  0.00    -0.248 NA
ATOM     65  C   UNL A   1      43.609  31.144  37.577  1.00  0.00     0.031 C 
ATOM     66  C   UNL A   1      38.872  32.576  34.097  1.00  0.00     0.029 A 
ATOM     67  C   UNL A   1      40.049  32.024  34.565  1.00  0.00     0.049 A 
ATOM     68  H   UNL A   1      41.244  30.505  33.716  1.00  0.00     0.167 HD
ATOM     69  C   UNL A   1      41.881  31.673  36.178  1.00  0.00     0.074 A 
ATOM     70  C   UNL A   1      42.588  31.968  37.403  1.00  0.00     0.031 C 
ATOM     71  C   UNL A   1      40.776  32.339  35.765  1.00  0.00     0.037 A 
BRANCH  58  72
ATOM     72  C   UNL A   1      38.589  30.270  30.387  1.00  0.00     0.057 A 
ATOM     73  C   UNL A   1      37.564  29.333  30.210  1.00  0.00     0.134 A 
ATOM     74  C   UNL A   1      38.601  31.381  29.532  1.00  0.00     0.134 A 
ATOM     75  F   UNL A   1      37.498  28.241  30.986  1.00  0.00    -0.206 F 
ATOM     76  C   UNL A   1      36.607  29.478  29.203  1.00  0.00     0.040 A 
ATOM     77  C   UNL A   1      37.630  31.555  28.544  1.00  0.00     0.040 A 
ATOM     78  F   UNL A   1      39.548  32.324  29.652  1.00  0.00    -0.206 F 
ATOM     79  C   UNL A   1      36.635  30.596  28.371  1.00  0.00     0.006 A 
ENDBRANCH  58  72
BRANCH  59  80
ATOM     80  C   UNL A   1      45.564  29.114  37.342  1.00  0.00     0.057 A 
ATOM     81  C   UNL A   1      45.402  28.295  38.465  1.00  0.00     0.134 A 
ATOM     82  C   UNL A   1      46.593  30.060  37.380  1.00  0.00     0.134 A 
ATOM     83  F   UNL A   1      44.386  27.423  38.523  1.00  0.00    -0.206 F 
ATOM     84  C   UNL A   1      46.230  28.422  39.585  1.00  0.00     0.040 A 
ATOM     85  C   UNL A   1      47.410  30.218  38.501  1.00  0.00     0.040 A 
ATOM     86  F   UNL A   1      46.822  30.850  36.317  1.00  0.00    -0.206 F 
ATOM     87  C   UNL A   1      47.234  29.389  39.606  1.00  0.00     0.006 A 
ENDBRANCH  59  80
BRANCH  71  88
ATOM     88  C   UNL A   1      40.238  33.398  36.683  1.00  0.00     0.057 A 
ATOM     89  C   UNL A   1      39.267  33.128  37.657  1.00  0.00     0.134 A 
ATOM     90  C   UNL A   1      40.677  34.723  36.561  1.00  0.00     0.134 A 
ATOM     91  F   UNL A   1      38.783  31.885  37.808  1.00  0.00    -0.206 F 
ATOM     92  C   UNL A   1      38.725  34.144  38.447  1.00  0.00     0.040 A 
ATOM     93  C   UNL A   1      40.166  35.741  37.365  1.00  0.00     0.040 A 
ATOM     94  F   UNL A   1      41.604  35.051  35.648  1.00  0.00    -0.206 F 
ATOM     95  C   UNL A   1      39.177  35.455  38.304  1.00  0.00     0.006 A 
ENDBRANCH  71  88
ENDBRANCH  45  46
ENDBRANCH  38  40
ENDBRANCH  37  38
ENDBRANCH  36  37
ENDBRANCH  35  36
ENDBRANCH  34  35
ENDBRANCH  33  34
ENDBRANCH   1  33
TORSDOF 21
ENDMDL
MODEL 2
REMARK VINA RESULT:     -10.4     11.201     17.048
REMARK SMILES O=C(OCCOCCOCCOC(=O)c1ccc(-c2c3nc(c(-c4c(F)cccc4F)c4ccc([nH]4)c(-c4c(F)cccc4F)c4nc(c(-c5c(F)cccc5F)c5ccc2[nH]5)C=C4)C=C3)cc1)C1=NN(c2ccc(S(=O)(=O)[O-])cc2)C(=O)/C1=C/Nc1ccccc1
REMARK SMILES IDX 7 1 6 2 5 3 4 4 3 5 2 6 1 7 69 8 70 9 84 10 71 11 82 12
REMARK SMILES IDX 85 13 83 14 72 15 73 16 81 17 74 18 80 19 75 20 76 21 77 22
REMARK SMILES IDX 78 23 79 24 86 25 87 27 88 28 92 29 89 30 91 31 90 32 8 33
REMARK SMILES IDX 9 34 10 35 11 36 12 37 13 38 14 39 15 40 16 41 68 42 17 43
REMARK SMILES IDX 67 44 18 45 19 46 20 47 61 48 21 49 66 50 60 51 62 52 22 53
REMARK SMILES IDX 65 54 59 55 58 56 23 58 49 59 32 60 48 61 33 62 36 63 47 64
REMARK SMILES IDX 63 65 34 66 35 67 46 69 64 70 37 71 24 72 25 73 30 74 26 75
REMARK SMILES IDX 27 76 29 77 31 78 28 79 50 80 51 81 56 82 52 83 53 84 55 85
REMARK SMILES IDX 57 86 54 87 38 88 39 89 44 90 40 91 41 92 43 93 45 94 42 95
REMARK H PARENT 86 26 62 57 36 68
REMARK Flexibility Score: inf
ROOT
ATOM      1  C   UNL A   1      41.181  40.431  26.415  1.00  0.00     0.188 C 
ENDROOT
BRANCH   1   2
ATOM      2  O   UNL A   1      42.388  41.171  26.434  1.00  0.00    -0.376 OA
BRANCH   2   3
ATOM      3  C   UNL A   1      42.987  41.521  25.207  1.00  0.00     0.202 C 
BRANCH   3   4
ATOM      4  C   UNL A   1      41.955  41.760  24.120  1.00  0.00     0.261 C 
BRANCH   4   5
ATOM      5  O   UNL A   1      42.008  43.046  23.462  1.00  0.00    -0.458 OA
BRANCH   5   6
ATOM      6  C   UNL A   1      42.265  43.140  22.132  1.00  0.00     0.359 C 
ATOM      7  O   UNL A   1      41.428  43.301  21.261  1.00  0.00    -0.244 OA
BRANCH   6   8
ATOM      8  C   UNL A   1      43.702  43.470  21.890  1.00  0.00     0.183 C 
ATOM      9  N   UNL A   1      44.498  43.277  22.907  1.00  0.00    -0.157 NA
ATOM     10  C   UNL A   1      44.379  44.000  20.672  1.00  0.00     0.093 C 
ATOM     11  N   UNL A   1      45.751  43.636  22.521  1.00  0.00    -0.196 N 
ATOM     12  C   UNL A   1      45.845  43.965  21.167  1.00  0.00     0.282 C 
ATOM     13  C   UNL A   1      44.192  44.468  19.410  1.00  0.00     0.099 C 
ATOM     14  O   UNL A   1      46.851  44.170  20.511  1.00  0.00    -0.267 OA
BRANCH  11  15
ATOM     15  C   UNL A   1      46.709  43.798  23.555  1.00  0.00     0.069 A 
ATOM     16  C   UNL A   1      46.549  43.071  24.752  1.00  0.00     0.030 A 
ATOM     17  C   UNL A   1      47.729  44.758  23.492  1.00  0.00     0.030 A 
ATOM     18  C   UNL A   1      47.322  43.343  25.877  1.00  0.00     0.021 A 
ATOM     19  C   UNL A   1      48.510  45.044  24.621  1.00  0.00     0.021 A 
ATOM     20  C   UNL A   1      48.285  44.344  25.808  1.00  0.00     0.054 A 
BRANCH  20  21
ATOM     21  S   UNL A   1      49.130  44.759  27.300  1.00  0.00     0.124 S 
ATOM     22  O   UNL A   1      48.121  44.766  28.328  1.00  0.00    -0.237 OA
ATOM     23  O   UNL A   1      50.309  43.918  27.390  1.00  0.00    -0.237 OA
ATOM     24  O   UNL A   1      49.625  46.282  27.106  1.00  0.00    -0.744 OA
ENDBRANCH  20  21
ENDBRANCH  11  15
BRANCH  13  25
ATOM     25  N   UNL A   1      43.305  44.782  18.341  1.00  0.00    -0.361 N 
ATOM     26  H   UNL A   1      42.611  44.088  18.270  1.00  0.00     0.166 HD
BRANCH  25  27
ATOM     27  C   UNL A   1      43.085  45.847  17.273  1.00  0.00     0.038 A 
ATOM     28  C   UNL A   1      43.901  46.980  17.389  1.00  0.00     0.026 A 
ATOM     29  C   UNL A   1      41.903  46.127  16.512  1.00  0.00     0.026 A 
ATOM     30  C   UNL A   1      43.536  48.251  16.861  1.00  0.00     0.002 A 
ATOM     31  C   UNL A   1      41.509  47.388  16.006  1.00  0.00     0.002 A 
ATOM     32  C   UNL A   1      42.327  48.468  16.204  1.00  0.00     0.000 A 
ENDBRANCH  25  27
ENDBRANCH  13  25
ENDBRANCH   6   8
ENDBRANCH   5   6
ENDBRANCH   4   5
ENDBRANCH   3   4
ENDBRANCH   2   3
ENDBRANCH   1   2
BRANCH   1  33
ATOM     33  C   UNL A   1      41.474  38.970  26.698  1.00  0.00     0.188 C 
BRANCH  33  34
ATOM     34  O   UNL A   1      41.906  38.714  28.034  1.00  0.00    -0.376 OA
BRANCH  34  35
ATOM     35  C   UNL A   1      43.129  38.108  28.475  1.00  0.00     0.202 C 
BRANCH  35  36
ATOM     36  C   UNL A   1      44.689  38.705  28.130  1.00  0.00     0.261 C 
BRANCH  36  37
ATOM     37  O   UNL A   1      45.883  38.173  27.202  1.00  0.00    -0.460 OA
BRANCH  37  38
ATOM     38  C   UNL A   1      46.692  37.135  26.746  1.00  0.00     0.338 C 
ATOM     39  O   UNL A   1      47.744  37.248  26.130  1.00  0.00    -0.246 OA
BRANCH  38  40
ATOM     40  C   UNL A   1      46.187  35.700  27.132  1.00  0.00     0.060 A 
ATOM     41  C   UNL A   1      46.600  34.938  28.268  1.00  0.00     0.016 A 
ATOM     42  C   UNL A   1      45.236  35.090  26.325  1.00  0.00     0.016 A 
ATOM     43  C   UNL A   1      45.941  33.755  28.700  1.00  0.00     0.010 A 
ATOM     44  C   UNL A   1      44.648  33.852  26.693  1.00  0.00     0.010 A 
ATOM     45  C   UNL A   1      44.958  33.184  27.897  1.00  0.00    -0.014 A 
BRANCH  45  46
ATOM     46  C   UNL A   1      44.456  31.784  28.123  1.00  0.00     0.031 A 
ATOM     47  C   UNL A   1      45.212  30.667  27.439  1.00  0.00     0.074 A 
ATOM     48  C   UNL A   1      43.357  31.465  28.843  1.00  0.00     0.049 A 
ATOM     49  N   UNL A   1      44.875  29.417  27.239  1.00  0.00    -0.248 NA
ATOM     50  C   UNL A   1      46.532  31.027  26.894  1.00  0.00     0.031 C 
ATOM     51  C   UNL A   1      42.555  32.372  29.664  1.00  0.00     0.029 A 
ATOM     52  N   UNL A   1      42.701  30.255  28.969  1.00  0.00    -0.354 N 
ATOM     53  C   UNL A   1      45.924  28.853  26.517  1.00  0.00     0.074 A 
ATOM     54  C   UNL A   1      46.898  29.901  26.303  1.00  0.00     0.031 C 
ATOM     55  C   UNL A   1      41.495  31.703  30.165  1.00  0.00     0.029 A 
ATOM     56  C   UNL A   1      41.520  30.325  29.675  1.00  0.00     0.049 A 
ATOM     57  H   UNL A   1      43.048  29.416  28.587  1.00  0.00     0.167 HD
ATOM     58  C   UNL A   1      46.068  27.583  26.065  1.00  0.00     0.037 A 
ATOM     59  C   UNL A   1      40.555  29.399  29.858  1.00  0.00     0.037 A 
ATOM     60  C   UNL A   1      45.110  26.528  26.268  1.00  0.00     0.049 A 
ATOM     61  C   UNL A   1      40.669  28.037  29.217  1.00  0.00     0.074 A 
ATOM     62  C   UNL A   1      45.191  25.199  25.885  1.00  0.00     0.029 A 
ATOM     63  N   UNL A   1      43.887  26.685  26.898  1.00  0.00    -0.354 N 
ATOM     64  N   UNL A   1      41.625  27.540  28.474  1.00  0.00    -0.248 NA
ATOM     65  C   UNL A   1      39.539  27.114  29.435  1.00  0.00     0.031 C 
ATOM     66  C   UNL A   1      43.989  24.569  26.223  1.00  0.00     0.029 A 
ATOM     67  C   UNL A   1      43.192  25.486  26.882  1.00  0.00     0.049 A 
ATOM     68  H   UNL A   1      43.560  27.523  27.298  1.00  0.00     0.167 HD
ATOM     69  C   UNL A   1      41.228  26.242  28.168  1.00  0.00     0.074 A 
ATOM     70  C   UNL A   1      39.938  26.034  28.783  1.00  0.00     0.031 C 
ATOM     71  C   UNL A   1      41.891  25.294  27.464  1.00  0.00     0.037 A 
BRANCH  58  72
ATOM     72  C   UNL A   1      47.299  27.267  25.261  1.00  0.00     0.057 A 
ATOM     73  C   UNL A   1      47.419  27.613  23.910  1.00  0.00     0.134 A 
ATOM     74  C   UNL A   1      48.396  26.638  25.866  1.00  0.00     0.134 A 
ATOM     75  F   UNL A   1      46.404  28.208  23.266  1.00  0.00    -0.206 F 
ATOM     76  C   UNL A   1      48.572  27.317  23.180  1.00  0.00     0.040 A 
ATOM     77  C   UNL A   1      49.567  26.368  25.155  1.00  0.00     0.040 A 
ATOM     78  F   UNL A   1      48.355  26.288  27.160  1.00  0.00    -0.206 F 
ATOM     79  C   UNL A   1      49.654  26.700  23.806  1.00  0.00     0.006 A 
ENDBRANCH  58  72
BRANCH  59  80
ATOM     80  C   UNL A   1      39.300  29.678  30.605  1.00  0.00     0.057 A 
ATOM     81  C   UNL A   1      39.088  29.183  31.897  1.00  0.00     0.134 A 
ATOM     82  C   UNL A   1      38.198  30.224  29.938  1.00  0.00     0.134 A 
ATOM     83  F   UNL A   1      40.083  28.576  32.558  1.00  0.00    -0.206 F 
ATOM     84  C   UNL A   1      37.824  29.223  32.494  1.00  0.00     0.040 A 
ATOM     85  C   UNL A   1      36.925  30.246  30.510  1.00  0.00     0.040 A 
ATOM     86  F   UNL A   1      38.347  30.750  28.710  1.00  0.00    -0.206 F 
ATOM     87  C   UNL A   1      36.738  29.752  31.798  1.00  0.00     0.006 A 
ENDBRANCH  59  80
BRANCH  71  88
ATOM     88  C   UNL A   1      41.256  23.936  27.388  1.00  0.00     0.057 A 
ATOM     89  C   UNL A   1      41.710  22.848  28.146  1.00  0.00     0.134 A 
ATOM     90  C   UNL A   1      40.189  23.708  26.508  1.00  0.00     0.134 A 
ATOM     91  F   UNL A   1      42.745  22.991  28.988  1.00  0.00    -0.206 F 
ATOM     92  C   UNL A   1      41.153  21.576  28.001  1.00  0.00     0.040 A 
ATOM     93  C   UNL A   1      39.604  22.449  26.377  1.00  0.00     0.040 A 
ATOM     94  F   UNL A   1      39.706  24.705  25.752  1.00  0.00    -0.206 F 
ATOM     95  C   UNL A   1      40.094  21.374  27.117  1.00  0.00     0.006 A 
ENDBRANCH  71  88
ENDBRANCH  45  46
ENDBRANCH  38  40
ENDBRANCH  37  38
ENDBRANCH  36  37
ENDBRANCH  35  36
ENDBRANCH  34  35
ENDBRANCH  33  34
ENDBRANCH   1  33
TORSDOF 21
ENDMDL
MODEL 3
REMARK VINA RESULT:     -10.4      3.119      8.277
REMARK SMILES O=C(OCCOCCOCCOC(=O)c1ccc(-c2c3nc(c(-c4c(F)cccc4F)c4ccc([nH]4)c(-c4c(F)cccc4F)c4nc(c(-c5c(F)cccc5F)c5ccc2[nH]5)C=C4)C=C3)cc1)C1=NN(c2ccc(S(=O)(=O)[O-])cc2)C(=O)/C1=C/Nc1ccccc1
REMARK SMILES IDX 7 1 6 2 5 3 4 4 3 5 2 6 1 7 69 8 70 9 84 10 71 11 82 12
REMARK SMILES IDX 85 13 83 14 72 15 73 16 81 17 74 18 80 19 75 20 76 21 77 22
REMARK SMILES IDX 78 23 79 24 86 25 87 27 88 28 92 29 89 30 91 31 90 32 8 33
REMARK SMILES IDX 9 34 10 35 11 36 12 37 13 38 14 39 15 40 16 41 68 42 17 43
REMARK SMILES IDX 67 44 18 45 19 46 20 47 61 48 21 49 66 50 60 51 62 52 22 53
REMARK SMILES IDX 65 54 59 55 58 56 23 58 49 59 32 60 48 61 33 62 36 63 47 64
REMARK SMILES IDX 63 65 34 66 35 67 46 69 64 70 37 71 24 72 25 73 30 74 26 75
REMARK SMILES IDX 27 76 29 77 31 78 28 79 50 80 51 81 56 82 52 83 53 84 55 85
REMARK SMILES IDX 57 86 54 87 38 88 39 89 44 90 40 91 41 92 43 93 45 94 42 95
REMARK H PARENT 86 26 62 57 36 68
REMARK Flexibility Score: inf
ROOT
ATOM      1  C   UNL A   1      40.303  29.966  29.446  1.00  0.00     0.188 C 
ENDROOT
BRANCH   1   2
ATOM      2  O   UNL A   1      40.488  29.058  28.374  1.00  0.00    -0.376 OA
BRANCH   2   3
ATOM      3  C   UNL A   1      39.720  27.877  28.349  1.00  0.00     0.202 C 
BRANCH   3   4
ATOM      4  C   UNL A   1      40.540  26.675  27.915  1.00  0.00     0.261 C 
BRANCH   4   5
ATOM      5  O   UNL A   1      39.811  25.601  27.279  1.00  0.00    -0.458 OA
BRANCH   5   6
ATOM      6  C   UNL A   1      40.279  24.328  27.306  1.00  0.00     0.359 C 
ATOM      7  O   UNL A   1      41.176  23.920  28.024  1.00  0.00    -0.244 OA
BRANCH   6   8
ATOM      8  C   UNL A   1      39.295  23.385  26.693  1.00  0.00     0.183 C 
ATOM      9  N   UNL A   1      38.113  23.888  26.458  1.00  0.00    -0.157 NA
ATOM     10  C   UNL A   1      39.438  21.950  26.316  1.00  0.00     0.093 C 
ATOM     11  N   UNL A   1      37.348  22.902  25.919  1.00  0.00    -0.196 N 
ATOM     12  C   UNL A   1      38.055  21.726  25.659  1.00  0.00     0.282 C 
ATOM     13  C   UNL A   1      40.260  20.868  26.347  1.00  0.00     0.099 C 
ATOM     14  O   UNL A   1      37.679  20.743  25.045  1.00  0.00    -0.267 OA
BRANCH  11  15
ATOM     15  C   UNL A   1      35.950  23.140  25.873  1.00  0.00     0.069 A 
ATOM     16  C   UNL A   1      35.464  24.192  25.069  1.00  0.00     0.030 A 
ATOM     17  C   UNL A   1      35.045  22.465  26.703  1.00  0.00     0.030 A 
ATOM     18  C   UNL A   1      34.141  24.614  25.146  1.00  0.00     0.021 A 
ATOM     19  C   UNL A   1      33.709  22.886  26.793  1.00  0.00     0.021 A 
ATOM     20  C   UNL A   1      33.277  23.969  26.025  1.00  0.00     0.054 A 
BRANCH  20  21
ATOM     21  S   UNL A   1      31.654  24.638  26.203  1.00  0.00     0.124 S 
ATOM     22  O   UNL A   1      31.827  25.900  26.876  1.00  0.00    -0.237 OA
ATOM     23  O   UNL A   1      30.990  24.541  24.916  1.00  0.00    -0.237 OA
ATOM     24  O   UNL A   1      30.891  23.653  27.227  1.00  0.00    -0.744 OA
ENDBRANCH  20  21
ENDBRANCH  11  15
BRANCH  13  25
ATOM     25  N   UNL A   1      41.512  20.294  26.708  1.00  0.00    -0.361 N 
ATOM     26  H   UNL A   1      41.483  19.990  27.644  1.00  0.00     0.166 HD
BRANCH  25  27
ATOM     27  C   UNL A   1      42.883  19.997  26.110  1.00  0.00     0.038 A 
ATOM     28  C   UNL A   1      43.638  21.128  25.772  1.00  0.00     0.026 A 
ATOM     29  C   UNL A   1      43.317  18.840  25.385  1.00  0.00     0.026 A 
ATOM     30  C   UNL A   1      44.658  21.106  24.779  1.00  0.00     0.002 A 
ATOM     31  C   UNL A   1      44.306  18.804  24.374  1.00  0.00     0.002 A 
ATOM     32  C   UNL A   1      44.969  19.959  24.052  1.00  0.00     0.000 A 
ENDBRANCH  25  27
ENDBRANCH  13  25
ENDBRANCH   6   8
ENDBRANCH   5   6
ENDBRANCH   4   5
ENDBRANCH   3   4
ENDBRANCH   2   3
ENDBRANCH   1   2
BRANCH   1  33
ATOM     33  C   UNL A   1      38.822  30.120  29.733  1.00  0.00     0.188 C 
BRANCH  33  34
ATOM     34  O   UNL A   1      38.123  30.903  28.767  1.00  0.00    -0.376 OA
BRANCH  34  35
ATOM     35  C   UNL A   1      36.890  30.600  28.098  1.00  0.00     0.202 C 
BRANCH  35  36
ATOM     36  C   UNL A   1      35.498  31.585  28.137  1.00  0.00     0.261 C 
BRANCH  36  37
ATOM     37  O   UNL A   1      35.017  32.763  29.113  1.00  0.00    -0.460 OA
BRANCH  37  38
ATOM     38  C   UNL A   1      34.848  33.279  30.396  1.00  0.00     0.338 C 
ATOM     39  O   UNL A   1      33.900  33.944  30.793  1.00  0.00    -0.246 OA
BRANCH  38  40
ATOM     40  C   UNL A   1      35.986  32.895  31.406  1.00  0.00     0.060 A 
ATOM     41  C   UNL A   1      37.373  33.214  31.274  1.00  0.00     0.016 A 
ATOM     42  C   UNL A   1      35.647  32.196  32.556  1.00  0.00     0.016 A 
ATOM     43  C   UNL A   1      38.317  33.054  32.325  1.00  0.00     0.010 A 
ATOM     44  C   UNL A   1      36.609  31.935  33.566  1.00  0.00     0.010 A 
ATOM     45  C   UNL A   1      37.944  32.388  33.488  1.00  0.00    -0.014 A 
BRANCH  45  46
ATOM     46  C   UNL A   1      38.955  31.901  34.489  1.00  0.00     0.031 A 
ATOM     47  C   UNL A   1      39.221  32.794  35.682  1.00  0.00     0.074 A 
ATOM     48  C   UNL A   1      39.673  30.761  34.371  1.00  0.00     0.049 A 
ATOM     49  N   UNL A   1      40.198  32.769  36.555  1.00  0.00    -0.248 NA
ATOM     50  C   UNL A   1      38.245  33.874  35.904  1.00  0.00     0.031 C 
ATOM     51  C   UNL A   1      39.496  29.717  33.363  1.00  0.00     0.029 A 
ATOM     52  N   UNL A   1      40.744  30.307  35.118  1.00  0.00    -0.354 N 
ATOM     53  C   UNL A   1      39.972  33.849  37.406  1.00  0.00     0.074 A 
ATOM     54  C   UNL A   1      38.776  34.513  36.934  1.00  0.00     0.031 C 
ATOM     55  C   UNL A   1      40.449  28.775  33.523  1.00  0.00     0.029 A 
ATOM     56  C   UNL A   1      41.329  29.162  34.624  1.00  0.00     0.049 A 
ATOM     57  H   UNL A   1      41.060  30.763  35.932  1.00  0.00     0.167 HD
ATOM     58  C   UNL A   1      40.692  34.259  38.479  1.00  0.00     0.037 A 
ATOM     59  C   UNL A   1      42.467  28.536  34.990  1.00  0.00     0.037 A 
ATOM     60  C   UNL A   1      41.883  33.611  38.962  1.00  0.00     0.049 A 
ATOM     61  C   UNL A   1      43.332  29.099  36.092  1.00  0.00     0.074 A 
ATOM     62  C   UNL A   1      42.653  33.929  40.069  1.00  0.00     0.029 A 
ATOM     63  N   UNL A   1      42.486  32.520  38.359  1.00  0.00    -0.354 N 
ATOM     64  N   UNL A   1      43.151  30.160  36.838  1.00  0.00    -0.248 NA
ATOM     65  C   UNL A   1      44.580  28.369  36.383  1.00  0.00     0.031 C 
ATOM     66  C   UNL A   1      43.759  33.074  40.097  1.00  0.00     0.029 A 
ATOM     67  C   UNL A   1      43.637  32.177  39.051  1.00  0.00     0.049 A 
ATOM     68  H   UNL A   1      42.148  32.058  37.559  1.00  0.00     0.167 HD
ATOM     69  C   UNL A   1      44.239  30.202  37.703  1.00  0.00     0.074 A 
ATOM     70  C   UNL A   1      45.087  29.079  37.378  1.00  0.00     0.031 C 
ATOM     71  C   UNL A   1      44.498  31.079  38.702  1.00  0.00     0.037 A 
BRANCH  58  72
ATOM     72  C   UNL A   1      40.232  35.501  39.190  1.00  0.00     0.057 A 
ATOM     73  C   UNL A   1      39.246  35.474  40.183  1.00  0.00     0.134 A 
ATOM     74  C   UNL A   1      40.816  36.742  38.897  1.00  0.00     0.134 A 
ATOM     75  F   UNL A   1      38.638  34.322  40.507  1.00  0.00    -0.206 F 
ATOM     76  C   UNL A   1      38.835  36.637  40.837  1.00  0.00     0.040 A 
ATOM     77  C   UNL A   1      40.438  37.905  39.568  1.00  0.00     0.040 A 
ATOM     78  F   UNL A   1      41.775  36.841  37.963  1.00  0.00    -0.206 F 
ATOM     79  C   UNL A   1      39.438  37.856  40.535  1.00  0.00     0.006 A 
ENDBRANCH  58  72
BRANCH  59  80
ATOM     80  C   UNL A   1      42.987  27.331  34.289  1.00  0.00     0.057 A 
ATOM     81  C   UNL A   1      42.810  26.045  34.810  1.00  0.00     0.134 A 
ATOM     82  C   UNL A   1      43.886  27.477  33.227  1.00  0.00     0.134 A 
ATOM     83  F   UNL A   1      42.023  25.852  35.878  1.00  0.00    -0.206 F 
ATOM     84  C   UNL A   1      43.510  24.948  34.296  1.00  0.00     0.040 A 
ATOM     85  C   UNL A   1      44.613  26.396  32.722  1.00  0.00     0.040 A 
ATOM     86  F   UNL A   1      44.071  28.680  32.660  1.00  0.00    -0.206 F 
ATOM     87  C   UNL A   1      44.418  25.124  33.253  1.00  0.00     0.006 A 
ENDBRANCH  59  80
BRANCH  71  88
ATOM     88  C   UNL A   1      45.708  30.809  39.547  1.00  0.00     0.057 A 
ATOM     89  C   UNL A   1      46.992  31.234  39.183  1.00  0.00     0.134 A 
ATOM     90  C   UNL A   1      45.586  30.072  40.734  1.00  0.00     0.134 A 
ATOM     91  F   UNL A   1      47.184  31.920  38.045  1.00  0.00    -0.206 F 
ATOM     92  C   UNL A   1      48.114  30.903  39.946  1.00  0.00     0.040 A 
ATOM     93  C   UNL A   1      46.694  29.762  41.521  1.00  0.00     0.040 A 
ATOM     94  F   UNL A   1      44.386  29.633  41.141  1.00  0.00    -0.206 F 
ATOM     95  C   UNL A   1      47.966  30.168  41.121  1.00  0.00     0.006 A 
ENDBRANCH  71  88
ENDBRANCH  45  46
ENDBRANCH  38  40
ENDBRANCH  37  38
ENDBRANCH  36  37
ENDBRANCH  35  36
ENDBRANCH  34  35
ENDBRANCH  33  34
ENDBRANCH   1  33
TORSDOF 21
ENDMDL
