MODEL 1
REMARK VINA RESULT:      -9.3      0.000      0.000
REMARK SMILES O=C(OCCOCCOCCOC(=O)c1ccc(-c2ccc(F)c(C(F)(F)F)c2)cc1[N+](=O)[O-])c1ccc(-c2c3nc(c(-c4c(F)cccc4F)c4ccc([nH]4)c(-c4c(F)cccc4F)c4nc(c(-c5c(F)cccc5F)c5ccc2[nH]5)C=C4)C=C3)cc1
REMARK SMILES IDX 7 1 6 2 5 3 4 4 3 5 2 6 1 7 35 8 36 9 88 10 37 11 87 12
REMARK SMILES IDX 38 13 39 14 40 15 81 16 41 17 86 18 80 19 82 20 42 21 85 22
REMARK SMILES IDX 79 23 78 24 43 26 69 27 52 28 68 29 53 30 56 31 67 32 83 33
REMARK SMILES IDX 54 34 55 35 66 37 84 38 57 39 44 40 45 41 50 42 46 43 47 44
REMARK SMILES IDX 49 45 51 46 48 47 70 48 71 49 76 50 72 51 73 52 75 53 77 54
REMARK SMILES IDX 74 55 58 56 59 57 64 58 60 59 61 60 63 61 65 62 62 63 8 64
REMARK SMILES IDX 9 65 10 66 11 67 12 68 13 69 14 70 15 71 16 72 31 73 17 74
REMARK SMILES IDX 30 75 18 76 32 77 33 78 34 79 19 80 20 81 29 82 21 83 24 84
REMARK SMILES IDX 22 85 23 86 25 87 26 88 27 89 28 90
REMARK H PARENT 82 25 56 36
REMARK Flexibility Score: inf
ROOT
ATOM      1  C   UNL A   1      42.617  18.482  25.941  1.00  0.00     0.188 C 
ENDROOT
BRANCH   1   2
ATOM      2  O   UNL A   1      42.594  19.015  27.274  1.00  0.00    -0.376 OA
BRANCH   2   3
ATOM      3  C   UNL A   1      41.399  19.741  27.577  1.00  0.00     0.202 C 
BRANCH   3   4
ATOM      4  C   UNL A   1      40.671  20.280  26.341  1.00  0.00     0.261 C 
BRANCH   4   5
ATOM      5  O   UNL A   1      40.815  21.705  26.218  1.00  0.00    -0.460 OA
BRANCH   5   6
ATOM      6  C   UNL A   1      39.856  22.652  26.357  1.00  0.00     0.338 C 
ATOM      7  O   UNL A   1      38.681  22.335  26.169  1.00  0.00    -0.246 OA
BRANCH   6   8
ATOM      8  C   UNL A   1      40.129  24.058  26.791  1.00  0.00     0.060 A 
ATOM      9  C   UNL A   1      40.440  25.121  25.943  1.00  0.00     0.016 A 
ATOM     10  C   UNL A   1      39.993  24.332  28.164  1.00  0.00     0.016 A 
ATOM     11  C   UNL A   1      40.727  26.390  26.446  1.00  0.00     0.010 A 
ATOM     12  C   UNL A   1      40.215  25.619  28.669  1.00  0.00     0.010 A 
ATOM     13  C   UNL A   1      40.618  26.650  27.812  1.00  0.00    -0.014 A 
BRANCH  13  14
ATOM     14  C   UNL A   1      41.010  27.973  28.344  1.00  0.00     0.031 A 
ATOM     15  C   UNL A   1      42.466  28.320  28.434  1.00  0.00     0.074 A 
ATOM     16  C   UNL A   1      40.078  28.889  28.665  1.00  0.00     0.049 A 
ATOM     17  N   UNL A   1      43.033  29.378  28.951  1.00  0.00    -0.248 NA
ATOM     18  C   UNL A   1      43.408  27.358  27.839  1.00  0.00     0.031 C 
ATOM     19  C   UNL A   1      38.637  28.729  28.475  1.00  0.00     0.029 A 
ATOM     20  N   UNL A   1      40.203  30.143  29.205  1.00  0.00    -0.354 N 
ATOM     21  C   UNL A   1      44.394  29.214  28.740  1.00  0.00     0.074 A 
ATOM     22  C   UNL A   1      44.574  27.941  28.076  1.00  0.00     0.031 C 
ATOM     23  C   UNL A   1      38.016  29.843  28.893  1.00  0.00     0.029 A 
ATOM     24  C   UNL A   1      38.999  30.754  29.454  1.00  0.00     0.049 A 
ATOM     25  H   UNL A   1      41.073  30.565  29.394  1.00  0.00     0.167 HD
ATOM     26  C   UNL A   1      45.400  30.060  29.060  1.00  0.00     0.037 A 
ATOM     27  C   UNL A   1      38.713  31.894  30.110  1.00  0.00     0.037 A 
ATOM     28  C   UNL A   1      45.208  31.326  29.710  1.00  0.00     0.049 A 
ATOM     29  C   UNL A   1      39.848  32.703  30.659  1.00  0.00     0.074 A 
ATOM     30  C   UNL A   1      46.156  32.266  30.076  1.00  0.00     0.029 A 
ATOM     31  N   UNL A   1      43.975  31.827  30.100  1.00  0.00    -0.354 N 
ATOM     32  N   UNL A   1      41.135  32.517  30.504  1.00  0.00    -0.248 NA
ATOM     33  C   UNL A   1      39.494  33.861  31.489  1.00  0.00     0.031 C 
ATOM     34  C   UNL A   1      45.498  33.316  30.727  1.00  0.00     0.029 A 
ATOM     35  C   UNL A   1      44.138  33.042  30.740  1.00  0.00     0.049 A 
ATOM     36  H   UNL A   1      43.111  31.382  29.945  1.00  0.00     0.167 HD
ATOM     37  C   UNL A   1      41.750  33.551  31.190  1.00  0.00     0.074 A 
ATOM     38  C   UNL A   1      40.692  34.355  31.772  1.00  0.00     0.031 C 
ATOM     39  C   UNL A   1      43.071  33.819  31.315  1.00  0.00     0.037 A 
BRANCH  26  40
ATOM     40  C   UNL A   1      46.791  29.614  28.736  1.00  0.00     0.057 A 
ATOM     41  C   UNL A   1      47.430  29.985  27.547  1.00  0.00     0.134 A 
ATOM     42  C   UNL A   1      47.495  28.791  29.623  1.00  0.00     0.134 A 
ATOM     43  F   UNL A   1      46.798  30.751  26.645  1.00  0.00    -0.206 F 
ATOM     44  C   UNL A   1      48.718  29.538  27.244  1.00  0.00     0.040 A 
ATOM     45  C   UNL A   1      48.788  28.351  29.338  1.00  0.00     0.040 A 
ATOM     46  F   UNL A   1      46.931  28.393  30.775  1.00  0.00    -0.206 F 
ATOM     47  C   UNL A   1      49.401  28.722  28.143  1.00  0.00     0.006 A 
ENDBRANCH  26  40
BRANCH  27  48
ATOM     48  C   UNL A   1      37.304  32.278  30.374  1.00  0.00     0.057 A 
ATOM     49  C   UNL A   1      36.609  31.822  31.497  1.00  0.00     0.134 A 
ATOM     50  C   UNL A   1      36.607  33.096  29.476  1.00  0.00     0.134 A 
ATOM     51  F   UNL A   1      37.209  31.006  32.376  1.00  0.00    -0.206 F 
ATOM     52  C   UNL A   1      35.273  32.168  31.717  1.00  0.00     0.040 A 
ATOM     53  C   UNL A   1      35.280  33.466  29.691  1.00  0.00     0.040 A 
ATOM     54  F   UNL A   1      37.217  33.543  28.371  1.00  0.00    -0.206 F 
ATOM     55  C   UNL A   1      34.609  32.998  30.815  1.00  0.00     0.006 A 
ENDBRANCH  27  48
BRANCH  39  56
ATOM     56  C   UNL A   1      43.436  35.050  32.080  1.00  0.00     0.057 A 
ATOM     57  C   UNL A   1      43.621  35.021  33.466  1.00  0.00     0.134 A 
ATOM     58  C   UNL A   1      43.623  36.268  31.418  1.00  0.00     0.134 A 
ATOM     59  F   UNL A   1      43.432  33.885  34.154  1.00  0.00    -0.206 F 
ATOM     60  C   UNL A   1      43.972  36.171  34.172  1.00  0.00     0.040 A 
ATOM     61  C   UNL A   1      43.993  37.420  32.110  1.00  0.00     0.040 A 
ATOM     62  F   UNL A   1      43.458  36.354  30.089  1.00  0.00    -0.206 F 
ATOM     63  C   UNL A   1      44.166  37.374  33.492  1.00  0.00     0.006 A 
ENDBRANCH  39  56
ENDBRANCH  13  14
ENDBRANCH   6   8
ENDBRANCH   5   6
ENDBRANCH   4   5
ENDBRANCH   3   4
ENDBRANCH   2   3
ENDBRANCH   1   2
BRANCH   1  64
ATOM     64  C   UNL A   1      44.002  18.667  25.313  1.00  0.00     0.188 C 
BRANCH  64  65
ATOM     65  O   UNL A   1      44.289  19.996  24.870  1.00  0.00    -0.376 OA
BRANCH  65  66
ATOM     66  C   UNL A   1      45.594  20.500  25.142  1.00  0.00     0.202 C 
BRANCH  66  67
ATOM     67  C   UNL A   1      45.941  21.847  24.502  1.00  0.00     0.261 C 
BRANCH  67  68
ATOM     68  O   UNL A   1      46.507  22.807  25.413  1.00  0.00    -0.459 OA
BRANCH  68  69
ATOM     69  C   UNL A   1      45.674  23.814  25.741  1.00  0.00     0.345 C 
ATOM     70  O   UNL A   1      45.154  24.646  24.997  1.00  0.00    -0.246 OA
BRANCH  69  71
ATOM     71  C   UNL A   1      45.499  23.920  27.189  1.00  0.00     0.137 A 
ATOM     72  C   UNL A   1      44.333  23.444  27.800  1.00  0.00     0.023 A 
ATOM     73  C   UNL A   1      46.381  24.710  27.925  1.00  0.00     0.284 A 
ATOM     74  C   UNL A   1      44.052  23.784  29.135  1.00  0.00     0.010 A 
ATOM     75  C   UNL A   1      46.080  25.080  29.242  1.00  0.00     0.095 A 
ATOM     76  C   UNL A   1      44.906  24.626  29.867  1.00  0.00    -0.011 A 
BRANCH  73  77
ATOM     77  N   UNL A   1      47.670  25.109  27.375  1.00  0.00     0.063 N 
ATOM     78  O   UNL A   1      48.633  24.359  27.589  1.00  0.00    -0.258 OA
ATOM     79  O   UNL A   1      47.700  26.114  26.654  1.00  0.00    -0.258 OA
ENDBRANCH  73  77
BRANCH  76  80
ATOM     80  C   UNL A   1      44.628  25.024  31.257  1.00  0.00    -0.017 A 
ATOM     81  C   UNL A   1      44.509  26.372  31.628  1.00  0.00     0.012 A 
ATOM     82  C   UNL A   1      44.382  24.042  32.238  1.00  0.00     0.025 A 
ATOM     83  C   UNL A   1      44.128  26.724  32.927  1.00  0.00     0.040 A 
ATOM     84  C   UNL A   1      43.982  24.386  33.540  1.00  0.00     0.092 A 
ATOM     85  C   UNL A   1      43.862  25.731  33.865  1.00  0.00     0.135 A 
ATOM     86  F   UNL A   1      43.456  26.089  35.091  1.00  0.00    -0.206 F 
BRANCH  84  87
ATOM     87  C   UNL A   1      43.621  23.346  34.554  1.00  0.00     0.419 C 
ATOM     88  F   UNL A   1      43.918  22.078  34.164  1.00  0.00    -0.166 F 
ATOM     89  F   UNL A   1      44.242  23.540  35.752  1.00  0.00    -0.166 F 
ATOM     90  F   UNL A   1      42.286  23.336  34.846  1.00  0.00    -0.166 F 
ENDBRANCH  84  87
ENDBRANCH  76  80
ENDBRANCH  69  71
ENDBRANCH  68  69
ENDBRANCH  67  68
ENDBRANCH  66  67
ENDBRANCH  65  66
ENDBRANCH  64  65
ENDBRANCH   1  64
TORSDOF 20
ENDMDL
MODEL 2
REMARK VINA RESULT:      -9.3      5.065      9.049
REMARK SMILES O=C(OCCOCCOCCOC(=O)c1ccc(-c2ccc(F)c(C(F)(F)F)c2)cc1[N+](=O)[O-])c1ccc(-c2c3nc(c(-c4c(F)cccc4F)c4ccc([nH]4)c(-c4c(F)cccc4F)c4nc(c(-c5c(F)cccc5F)c5ccc2[nH]5)C=C4)C=C3)cc1
REMARK SMILES IDX 7 1 6 2 5 3 4 4 3 5 2 6 1 7 35 8 36 9 88 10 37 11 87 12
REMARK SMILES IDX 38 13 39 14 40 15 81 16 41 17 86 18 80 19 82 20 42 21 85 22
REMARK SMILES IDX 79 23 78 24 43 26 69 27 52 28 68 29 53 30 56 31 67 32 83 33
REMARK SMILES IDX 54 34 55 35 66 37 84 38 57 39 44 40 45 41 50 42 46 43 47 44
REMARK SMILES IDX 49 45 51 46 48 47 70 48 71 49 76 50 72 51 73 52 75 53 77 54
REMARK SMILES IDX 74 55 58 56 59 57 64 58 60 59 61 60 63 61 65 62 62 63 8 64
REMARK SMILES IDX 9 65 10 66 11 67 12 68 13 69 14 70 15 71 16 72 31 73 17 74
REMARK SMILES IDX 30 75 18 76 32 77 33 78 34 79 19 80 20 81 29 82 21 83 24 84
REMARK SMILES IDX 22 85 23 86 25 87 26 88 27 89 28 90
REMARK H PARENT 82 25 56 36
REMARK Flexibility Score: inf
ROOT
ATOM      1  C   UNL A   1      30.785  28.662  23.566  1.00  0.00     0.188 C 
ENDROOT
BRANCH   1   2
ATOM      2  O   UNL A   1      30.816  28.352  24.968  1.00  0.00    -0.376 OA
BRANCH   2   3
ATOM      3  C   UNL A   1      31.958  28.886  25.644  1.00  0.00     0.202 C 
BRANCH   3   4
ATOM      4  C   UNL A   1      31.764  30.318  26.155  1.00  0.00     0.261 C 
BRANCH   4   5
ATOM      5  O   UNL A   1      33.002  31.047  26.177  1.00  0.00    -0.460 OA
BRANCH   5   6
ATOM      6  C   UNL A   1      33.545  31.731  27.213  1.00  0.00     0.338 C 
ATOM      7  O   UNL A   1      32.964  32.734  27.628  1.00  0.00    -0.246 OA
BRANCH   6   8
ATOM      8  C   UNL A   1      34.784  31.304  27.936  1.00  0.00     0.060 A 
ATOM      9  C   UNL A   1      35.051  30.013  28.393  1.00  0.00     0.016 A 
ATOM     10  C   UNL A   1      35.784  32.278  28.104  1.00  0.00     0.016 A 
ATOM     11  C   UNL A   1      36.216  29.721  29.101  1.00  0.00     0.010 A 
ATOM     12  C   UNL A   1      36.986  31.976  28.755  1.00  0.00     0.010 A 
ATOM     13  C   UNL A   1      37.193  30.699  29.289  1.00  0.00    -0.014 A 
BRANCH  13  14
ATOM     14  C   UNL A   1      38.382  30.403  30.116  1.00  0.00     0.031 A 
ATOM     15  C   UNL A   1      39.483  29.565  29.538  1.00  0.00     0.074 A 
ATOM     16  C   UNL A   1      38.520  30.943  31.342  1.00  0.00     0.049 A 
ATOM     17  N   UNL A   1      40.563  29.108  30.113  1.00  0.00    -0.248 NA
ATOM     18  C   UNL A   1      39.362  29.217  28.112  1.00  0.00     0.031 C 
ATOM     19  C   UNL A   1      37.595  31.897  31.952  1.00  0.00     0.029 A 
ATOM     20  N   UNL A   1      39.499  30.780  32.288  1.00  0.00    -0.354 N 
ATOM     21  C   UNL A   1      41.254  28.425  29.123  1.00  0.00     0.074 A 
ATOM     22  C   UNL A   1      40.458  28.498  27.917  1.00  0.00     0.031 C 
ATOM     23  C   UNL A   1      38.054  32.230  33.169  1.00  0.00     0.029 A 
ATOM     24  C   UNL A   1      39.249  31.456  33.456  1.00  0.00     0.049 A 
ATOM     25  H   UNL A   1      40.304  30.231  32.142  1.00  0.00     0.167 HD
ATOM     26  C   UNL A   1      42.453  27.805  29.212  1.00  0.00     0.037 A 
ATOM     27  C   UNL A   1      39.880  31.417  34.645  1.00  0.00     0.037 A 
ATOM     28  C   UNL A   1      43.240  27.747  30.412  1.00  0.00     0.049 A 
ATOM     29  C   UNL A   1      41.084  30.537  34.782  1.00  0.00     0.074 A 
ATOM     30  C   UNL A   1      44.472  27.151  30.614  1.00  0.00     0.029 A 
ATOM     31  N   UNL A   1      42.861  28.305  31.624  1.00  0.00    -0.354 N 
ATOM     32  N   UNL A   1      41.704  29.849  33.857  1.00  0.00    -0.248 NA
ATOM     33  C   UNL A   1      41.660  30.409  36.127  1.00  0.00     0.031 C 
ATOM     34  C   UNL A   1      44.817  27.311  31.961  1.00  0.00     0.029 A 
ATOM     35  C   UNL A   1      43.813  28.032  32.589  1.00  0.00     0.049 A 
ATOM     36  H   UNL A   1      42.035  28.818  31.775  1.00  0.00     0.167 HD
ATOM     37  C   UNL A   1      42.765  29.228  34.497  1.00  0.00     0.074 A 
ATOM     38  C   UNL A   1      42.695  29.613  35.893  1.00  0.00     0.031 C 
ATOM     39  C   UNL A   1      43.718  28.422  33.972  1.00  0.00     0.037 A 
BRANCH  26  40
ATOM     40  C   UNL A   1      42.955  27.118  27.981  1.00  0.00     0.057 A 
ATOM     41  C   UNL A   1      43.595  27.817  26.951  1.00  0.00     0.134 A 
ATOM     42  C   UNL A   1      42.784  25.738  27.822  1.00  0.00     0.134 A 
ATOM     43  F   UNL A   1      43.765  29.145  27.033  1.00  0.00    -0.206 F 
ATOM     44  C   UNL A   1      44.034  27.168  25.795  1.00  0.00     0.040 A 
ATOM     45  C   UNL A   1      43.232  25.075  26.678  1.00  0.00     0.040 A 
ATOM     46  F   UNL A   1      42.169  25.014  28.771  1.00  0.00    -0.206 F 
ATOM     47  C   UNL A   1      43.855  25.792  25.658  1.00  0.00     0.006 A 
ENDBRANCH  26  40
BRANCH  27  48
ATOM     48  C   UNL A   1      39.328  32.145  35.815  1.00  0.00     0.057 A 
ATOM     49  C   UNL A   1      39.780  33.415  36.178  1.00  0.00     0.134 A 
ATOM     50  C   UNL A   1      38.346  31.557  36.622  1.00  0.00     0.134 A 
ATOM     51  F   UNL A   1      40.745  34.017  35.467  1.00  0.00    -0.206 F 
ATOM     52  C   UNL A   1      39.272  34.077  37.299  1.00  0.00     0.040 A 
ATOM     53  C   UNL A   1      37.815  32.210  37.733  1.00  0.00     0.040 A 
ATOM     54  F   UNL A   1      37.893  30.330  36.334  1.00  0.00    -0.206 F 
ATOM     55  C   UNL A   1      38.282  33.475  38.075  1.00  0.00     0.006 A 
ENDBRANCH  27  48
BRANCH  39  56
ATOM     56  C   UNL A   1      44.777  27.940  34.909  1.00  0.00     0.057 A 
ATOM     57  C   UNL A   1      44.647  26.729  35.598  1.00  0.00     0.134 A 
ATOM     58  C   UNL A   1      45.945  28.684  35.106  1.00  0.00     0.134 A 
ATOM     59  F   UNL A   1      43.539  25.986  35.464  1.00  0.00    -0.206 F 
ATOM     60  C   UNL A   1      45.644  26.279  36.463  1.00  0.00     0.040 A 
ATOM     61  C   UNL A   1      46.957  28.236  35.953  1.00  0.00     0.040 A 
ATOM     62  F   UNL A   1      46.122  29.853  34.471  1.00  0.00    -0.206 F 
ATOM     63  C   UNL A   1      46.807  27.031  36.636  1.00  0.00     0.006 A 
ENDBRANCH  39  56
ENDBRANCH  13  14
ENDBRANCH   6   8
ENDBRANCH   5   6
ENDBRANCH   4   5
ENDBRANCH   3   4
ENDBRANCH   2   3
ENDBRANCH   1   2
BRANCH   1  64
ATOM     64  C   UNL A   1      30.198  27.491  22.770  1.00  0.00     0.188 C 
BRANCH  64  65
ATOM     65  O   UNL A   1      30.987  27.065  21.657  1.00  0.00    -0.376 OA
BRANCH  65  66
ATOM     66  C   UNL A   1      31.914  26.008  21.889  1.00  0.00     0.202 C 
BRANCH  66  67
ATOM     67  C   UNL A   1      31.383  24.810  22.680  1.00  0.00     0.261 C 
BRANCH  67  68
ATOM     68  O   UNL A   1      32.272  23.678  22.708  1.00  0.00    -0.459 OA
BRANCH  68  69
ATOM     69  C   UNL A   1      32.536  23.215  23.946  1.00  0.00     0.345 C 
ATOM     70  O   UNL A   1      31.737  22.907  24.831  1.00  0.00    -0.246 OA
BRANCH  69  71
ATOM     71  C   UNL A   1      33.971  23.200  24.222  1.00  0.00     0.137 A 
ATOM     72  C   UNL A   1      34.739  22.067  23.927  1.00  0.00     0.023 A 
ATOM     73  C   UNL A   1      34.526  24.215  24.999  1.00  0.00     0.284 A 
ATOM     74  C   UNL A   1      36.046  21.954  24.432  1.00  0.00     0.010 A 
ATOM     75  C   UNL A   1      35.813  24.084  25.535  1.00  0.00     0.095 A 
ATOM     76  C   UNL A   1      36.594  22.947  25.263  1.00  0.00    -0.011 A 
BRANCH  73  77
ATOM     77  N   UNL A   1      33.816  25.470  25.212  1.00  0.00     0.063 N 
ATOM     78  O   UNL A   1      33.134  25.567  26.243  1.00  0.00    -0.258 OA
ATOM     79  O   UNL A   1      34.013  26.385  24.403  1.00  0.00    -0.258 OA
ENDBRANCH  73  77
BRANCH  76  80
ATOM     80  C   UNL A   1      37.947  22.849  25.832  1.00  0.00    -0.017 A 
ATOM     81  C   UNL A   1      38.526  23.908  26.546  1.00  0.00     0.012 A 
ATOM     82  C   UNL A   1      38.663  21.637  25.748  1.00  0.00     0.025 A 
ATOM     83  C   UNL A   1      39.765  23.752  27.179  1.00  0.00     0.040 A 
ATOM     84  C   UNL A   1      39.899  21.465  26.395  1.00  0.00     0.092 A 
ATOM     85  C   UNL A   1      40.432  22.534  27.104  1.00  0.00     0.135 A 
ATOM     86  F   UNL A   1      41.596  22.391  27.753  1.00  0.00    -0.206 F 
BRANCH  84  87
ATOM     87  C   UNL A   1      40.612  20.149  26.394  1.00  0.00     0.419 C 
ATOM     88  F   UNL A   1      41.827  20.189  25.786  1.00  0.00    -0.166 F 
ATOM     89  F   UNL A   1      40.822  19.662  27.650  1.00  0.00    -0.166 F 
ATOM     90  F   UNL A   1      39.912  19.170  25.748  1.00  0.00    -0.166 F 
ENDBRANCH  84  87
ENDBRANCH  76  80
ENDBRANCH  69  71
ENDBRANCH  68  69
ENDBRANCH  67  68
ENDBRANCH  66  67
ENDBRANCH  65  66
ENDBRANCH  64  65
ENDBRANCH   1  64
TORSDOF 20
ENDMDL
MODEL 3
REMARK VINA RESULT:      -9.2      6.379     11.126
REMARK SMILES O=C(OCCOCCOCCOC(=O)c1ccc(-c2ccc(F)c(C(F)(F)F)c2)cc1[N+](=O)[O-])c1ccc(-c2c3nc(c(-c4c(F)cccc4F)c4ccc([nH]4)c(-c4c(F)cccc4F)c4nc(c(-c5c(F)cccc5F)c5ccc2[nH]5)C=C4)C=C3)cc1
REMARK SMILES IDX 7 1 6 2 5 3 4 4 3 5 2 6 1 7 35 8 36 9 88 10 37 11 87 12
REMARK SMILES IDX 38 13 39 14 40 15 81 16 41 17 86 18 80 19 82 20 42 21 85 22
REMARK SMILES IDX 79 23 78 24 43 26 69 27 52 28 68 29 53 30 56 31 67 32 83 33
REMARK SMILES IDX 54 34 55 35 66 37 84 38 57 39 44 40 45 41 50 42 46 43 47 44
REMARK SMILES IDX 49 45 51 46 48 47 70 48 71 49 76 50 72 51 73 52 75 53 77 54
REMARK SMILES IDX 74 55 58 56 59 57 64 58 60 59 61 60 63 61 65 62 62 63 8 64
REMARK SMILES IDX 9 65 10 66 11 67 12 68 13 69 14 70 15 71 16 72 31 73 17 74
REMARK SMILES IDX 30 75 18 76 32 77 33 78 34 79 19 80 20 81 29 82 21 83 24 84
REMARK SMILES IDX 22 85 23 86 25 87 26 88 27 89 28 90
REMARK H PARENT 82 25 56 36
REMARK Flexibility Score: inf
ROOT
ATOM      1  C   UNL A   1      32.944  30.233  27.130  1.00  0.00     0.188 C 
ENDROOT
BRANCH   1   2
ATOM      2  O   UNL A   1      31.638  30.625  26.678  1.00  0.00    -0.376 OA
BRANCH   2   3
ATOM      3  C   UNL A   1      31.389  32.028  26.802  1.00  0.00     0.202 C 
BRANCH   3   4
ATOM      4  C   UNL A   1      32.630  32.847  27.172  1.00  0.00     0.261 C 
BRANCH   4   5
ATOM      5  O   UNL A   1      32.279  34.129  27.718  1.00  0.00    -0.460 OA
BRANCH   5   6
ATOM      6  C   UNL A   1      32.959  34.855  28.638  1.00  0.00     0.338 C 
ATOM      7  O   UNL A   1      32.499  35.941  28.991  1.00  0.00    -0.246 OA
BRANCH   6   8
ATOM      8  C   UNL A   1      34.212  34.387  29.309  1.00  0.00     0.060 A 
ATOM      9  C   UNL A   1      35.505  34.540  28.807  1.00  0.00     0.016 A 
ATOM     10  C   UNL A   1      34.068  33.804  30.581  1.00  0.00     0.016 A 
ATOM     11  C   UNL A   1      36.611  34.027  29.483  1.00  0.00     0.010 A 
ATOM     12  C   UNL A   1      35.181  33.346  31.296  1.00  0.00     0.010 A 
ATOM     13  C   UNL A   1      36.460  33.424  30.732  1.00  0.00    -0.014 A 
BRANCH  13  14
ATOM     14  C   UNL A   1      37.626  32.805  31.397  1.00  0.00     0.031 A 
ATOM     15  C   UNL A   1      38.266  31.601  30.775  1.00  0.00     0.074 A 
ATOM     16  C   UNL A   1      38.162  33.360  32.501  1.00  0.00     0.049 A 
ATOM     17  N   UNL A   1      39.232  30.849  31.233  1.00  0.00    -0.248 NA
ATOM     18  C   UNL A   1      37.769  31.206  29.447  1.00  0.00     0.031 C 
ATOM     19  C   UNL A   1      37.728  34.616  33.111  1.00  0.00     0.029 A 
ATOM     20  N   UNL A   1      39.199  32.946  33.297  1.00  0.00    -0.354 N 
ATOM     21  C   UNL A   1      39.463  29.897  30.251  1.00  0.00     0.074 A 
ATOM     22  C   UNL A   1      38.517  30.144  29.184  1.00  0.00     0.031 C 
ATOM     23  C   UNL A   1      38.494  34.866  34.184  1.00  0.00     0.029 A 
ATOM     24  C   UNL A   1      39.409  33.755  34.386  1.00  0.00     0.049 A 
ATOM     25  H   UNL A   1      39.742  32.147  33.105  1.00  0.00     0.167 HD
ATOM     26  C   UNL A   1      40.393  28.915  30.237  1.00  0.00     0.037 A 
ATOM     27  C   UNL A   1      40.209  33.596  35.457  1.00  0.00     0.037 A 
ATOM     28  C   UNL A   1      41.334  28.686  31.298  1.00  0.00     0.049 A 
ATOM     29  C   UNL A   1      41.069  32.371  35.526  1.00  0.00     0.074 A 
ATOM     30  C   UNL A   1      42.324  27.723  31.386  1.00  0.00     0.029 A 
ATOM     31  N   UNL A   1      41.394  29.431  32.466  1.00  0.00    -0.354 N 
ATOM     32  N   UNL A   1      41.245  31.444  34.618  1.00  0.00    -0.248 NA
ATOM     33  C   UNL A   1      41.820  32.159  36.769  1.00  0.00     0.031 C 
ATOM     34  C   UNL A   1      42.954  27.860  32.629  1.00  0.00     0.029 A 
ATOM     35  C   UNL A   1      42.375  28.925  33.300  1.00  0.00     0.049 A 
ATOM     36  H   UNL A   1      40.822  30.205  32.671  1.00  0.00     0.167 HD
ATOM     37  C   UNL A   1      42.153  30.550  35.165  1.00  0.00     0.074 A 
ATOM     38  C   UNL A   1      42.480  31.043  36.489  1.00  0.00     0.031 C 
ATOM     39  C   UNL A   1      42.677  29.430  34.614  1.00  0.00     0.037 A 
BRANCH  26  40
ATOM     40  C   UNL A   1      40.402  28.005  29.050  1.00  0.00     0.057 A 
ATOM     41  C   UNL A   1      41.180  28.272  27.917  1.00  0.00     0.134 A 
ATOM     42  C   UNL A   1      39.610  26.851  29.037  1.00  0.00     0.134 A 
ATOM     43  F   UNL A   1      41.940  29.376  27.859  1.00  0.00    -0.206 F 
ATOM     44  C   UNL A   1      41.157  27.430  26.804  1.00  0.00     0.040 A 
ATOM     45  C   UNL A   1      39.591  25.993  27.937  1.00  0.00     0.040 A 
ATOM     46  F   UNL A   1      38.834  26.546  30.089  1.00  0.00    -0.206 F 
ATOM     47  C   UNL A   1      40.363  26.284  26.814  1.00  0.00     0.006 A 
ENDBRANCH  26  40
BRANCH  27  48
ATOM     48  C   UNL A   1      40.156  34.556  36.587  1.00  0.00     0.057 A 
ATOM     49  C   UNL A   1      41.051  35.622  36.697  1.00  0.00     0.134 A 
ATOM     50  C   UNL A   1      39.213  34.400  37.611  1.00  0.00     0.134 A 
ATOM     51  F   UNL A   1      42.001  35.804  35.767  1.00  0.00    -0.206 F 
ATOM     52  C   UNL A   1      41.008  36.502  37.782  1.00  0.00     0.040 A 
ATOM     53  C   UNL A   1      39.144  35.279  38.691  1.00  0.00     0.040 A 
ATOM     54  F   UNL A   1      38.345  33.381  37.570  1.00  0.00    -0.206 F 
ATOM     55  C   UNL A   1      40.047  36.334  38.779  1.00  0.00     0.006 A 
ENDBRANCH  27  48
BRANCH  39  56
ATOM     56  C   UNL A   1      43.684  28.690  35.433  1.00  0.00     0.057 A 
ATOM     57  C   UNL A   1      45.051  28.976  35.347  1.00  0.00     0.134 A 
ATOM     58  C   UNL A   1      43.277  27.697  36.332  1.00  0.00     0.134 A 
ATOM     59  F   UNL A   1      45.499  29.902  34.487  1.00  0.00    -0.206 F 
ATOM     60  C   UNL A   1      45.983  28.288  36.123  1.00  0.00     0.040 A 
ATOM     61  C   UNL A   1      44.197  27.017  37.126  1.00  0.00     0.040 A 
ATOM     62  F   UNL A   1      41.978  27.382  36.455  1.00  0.00    -0.206 F 
ATOM     63  C   UNL A   1      45.555  27.310  37.021  1.00  0.00     0.006 A 
ENDBRANCH  39  56
ENDBRANCH  13  14
ENDBRANCH   6   8
ENDBRANCH   5   6
ENDBRANCH   4   5
ENDBRANCH   3   4
ENDBRANCH   2   3
ENDBRANCH   1   2
BRANCH   1  64
ATOM     64  C   UNL A   1      33.003  28.718  27.351  1.00  0.00     0.188 C 
BRANCH  64  65
ATOM     65  O   UNL A   1      33.548  27.972  26.261  1.00  0.00    -0.376 OA
BRANCH  65  66
ATOM     66  C   UNL A   1      33.992  28.713  25.128  1.00  0.00     0.202 C 
BRANCH  66  67
ATOM     67  C   UNL A   1      33.057  28.715  23.916  1.00  0.00     0.261 C 
BRANCH  67  68
ATOM     68  O   UNL A   1      31.776  28.105  24.156  1.00  0.00    -0.459 OA
BRANCH  68  69
ATOM     69  C   UNL A   1      31.479  27.095  23.314  1.00  0.00     0.345 C 
ATOM     70  O   UNL A   1      30.630  27.070  22.424  1.00  0.00    -0.246 OA
BRANCH  69  71
ATOM     71  C   UNL A   1      32.238  25.886  23.633  1.00  0.00     0.137 A 
ATOM     72  C   UNL A   1      33.260  25.446  22.784  1.00  0.00     0.023 A 
ATOM     73  C   UNL A   1      31.783  25.044  24.646  1.00  0.00     0.284 A 
ATOM     74  C   UNL A   1      33.800  24.158  22.945  1.00  0.00     0.010 A 
ATOM     75  C   UNL A   1      32.294  23.748  24.781  1.00  0.00     0.095 A 
ATOM     76  C   UNL A   1      33.309  23.281  23.929  1.00  0.00    -0.011 A 
BRANCH  73  77
ATOM     77  N   UNL A   1      30.823  25.514  25.638  1.00  0.00     0.063 N 
ATOM     78  O   UNL A   1      29.636  25.579  25.289  1.00  0.00    -0.258 OA
ATOM     79  O   UNL A   1      31.240  25.725  26.783  1.00  0.00    -0.258 OA
ENDBRANCH  73  77
BRANCH  76  80
ATOM     80  C   UNL A   1      33.831  21.916  24.108  1.00  0.00    -0.017 A 
ATOM     81  C   UNL A   1      35.046  21.672  24.765  1.00  0.00     0.012 A 
ATOM     82  C   UNL A   1      33.065  20.806  23.697  1.00  0.00     0.025 A 
ATOM     83  C   UNL A   1      35.466  20.364  25.028  1.00  0.00     0.040 A 
ATOM     84  C   UNL A   1      33.470  19.490  23.973  1.00  0.00     0.092 A 
ATOM     85  C   UNL A   1      34.673  19.290  24.638  1.00  0.00     0.135 A 
ATOM     86  F   UNL A   1      35.072  18.046  24.939  1.00  0.00    -0.206 F 
BRANCH  84  87
ATOM     87  C   UNL A   1      32.611  18.313  23.630  1.00  0.00     0.419 C 
ATOM     88  F   UNL A   1      33.315  17.226  23.217  1.00  0.00    -0.166 F 
ATOM     89  F   UNL A   1      31.840  17.901  24.676  1.00  0.00    -0.166 F 
ATOM     90  F   UNL A   1      31.727  18.581  22.624  1.00  0.00    -0.166 F 
ENDBRANCH  84  87
ENDBRANCH  76  80
ENDBRANCH  69  71
ENDBRANCH  68  69
ENDBRANCH  67  68
ENDBRANCH  66  67
ENDBRANCH  65  66
ENDBRANCH  64  65
ENDBRANCH   1  64
TORSDOF 20
ENDMDL
