MODEL 1
REMARK VINA RESULT:      -9.2      0.000      0.000
REMARK SMILES CCCC[C@@H](C)[NH2+]Cc1ccc(C(=O)OCCOCCOCCOC(=O)c2ccc(-c3c4nc(c(-c5c(F)cccc5F)c5ccc([nH]5)c(-c5c(F)cccc5F)c5nc(c(-c6c(F)cccc6F)c6ccc3[nH]6)C=C5)C=C4)cc2)cn1
REMARK SMILES IDX 17 1 16 2 15 3 13 4 14 5 12 6 9 7 10 8 82 9 11 10 81 11 8 12
REMARK SMILES IDX 7 13 5 16 6 17 4 18 3 19 2 20 1 21 18 22 19 23 20 24 21 25
REMARK SMILES IDX 22 26 23 27 24 28 25 29 26 30 27 31 28 32 80 33 29 34 79 35
REMARK SMILES IDX 30 36 31 37 32 38 73 39 33 40 78 41 72 42 74 43 34 44 77 45
REMARK SMILES IDX 71 46 70 47 35 49 61 50 44 51 60 52 45 53 48 54 59 55 75 56
REMARK SMILES IDX 46 57 47 58 58 60 76 61 49 62 36 63 37 64 42 65 38 66 39 67
REMARK SMILES IDX 41 68 43 69 40 70 62 71 63 72 68 73 64 74 65 75 67 76 69 77
REMARK SMILES IDX 66 78 50 79 51 80 56 81 52 82 53 83 55 84 57 85 54 86
REMARK H PARENT 7 14 7 15 74 48 48 59
REMARK Flexibility Score: inf
ROOT
ATOM      1  C   UNL A   1      39.469  22.957  26.827  1.00  0.00     0.202 C 
ENDROOT
BRANCH   1   2
ATOM      2  C   UNL A   1      38.223  23.502  26.113  1.00  0.00     0.261 C 
BRANCH   2   3
ATOM      3  O   UNL A   1      37.128  22.581  26.057  1.00  0.00    -0.460 OA
BRANCH   3   4
ATOM      4  C   UNL A   1      36.512  22.499  24.855  1.00  0.00     0.339 C 
ATOM      5  O   UNL A   1      37.008  22.175  23.793  1.00  0.00    -0.246 OA
BRANCH   4   6
ATOM      6  C   UNL A   1      35.062  22.658  25.031  1.00  0.00     0.078 A 
ATOM      7  C   UNL A   1      32.345  22.881  24.969  1.00  0.00     0.094 A 
ATOM      8  C   UNL A   1      33.077  23.840  25.677  1.00  0.00     0.031 A 
ATOM      9  N   UNL A   1      32.899  21.728  24.515  1.00  0.00    -0.254 NA
ATOM     10  C   UNL A   1      34.467  23.739  25.682  1.00  0.00     0.019 A 
ATOM     11  C   UNL A   1      34.247  21.650  24.538  1.00  0.00     0.127 A 
BRANCH   7  12
ATOM     12  C   UNL A   1      31.001  23.260  24.364  1.00  0.00     0.318 C 
BRANCH  12  13
ATOM     13  N   UNL A   1      30.548  24.623  24.712  1.00  0.00    -0.339 N 
ATOM     14  H   UNL A   1      29.587  24.549  25.047  1.00  0.00     0.346 HD
ATOM     15  H   UNL A   1      31.226  24.954  25.398  1.00  0.00     0.346 HD
BRANCH  13  16
ATOM     16  C   UNL A   1      30.565  25.646  23.643  1.00  0.00     0.179 C 
ATOM     17  C   UNL A   1      31.830  25.719  22.782  1.00  0.00     0.075 C 
BRANCH  16  18
ATOM     18  C   UNL A   1      30.347  27.011  24.341  1.00  0.00     0.065 C 
BRANCH  18  19
ATOM     19  C   UNL A   1      31.529  27.539  25.172  1.00  0.00     0.006 C 
BRANCH  19  20
ATOM     20  C   UNL A   1      31.568  27.070  26.627  1.00  0.00    -0.003 C 
ATOM     21  C   UNL A   1      31.723  28.217  27.608  1.00  0.00     0.004 C 
ENDBRANCH  19  20
ENDBRANCH  18  19
ENDBRANCH  16  18
ENDBRANCH  13  16
ENDBRANCH  12  13
ENDBRANCH   7  12
ENDBRANCH   4   6
ENDBRANCH   3   4
ENDBRANCH   2   3
ENDBRANCH   1   2
BRANCH   1  22
ATOM     22  O   UNL A   1      39.825  21.582  26.776  1.00  0.00    -0.376 OA
BRANCH  22  23
ATOM     23  C   UNL A   1      40.927  21.092  27.520  1.00  0.00     0.188 C 
BRANCH  23  24
ATOM     24  C   UNL A   1      42.368  21.323  27.022  1.00  0.00     0.188 C 
BRANCH  24  25
ATOM     25  O   UNL A   1      42.570  21.330  25.633  1.00  0.00    -0.376 OA
BRANCH  25  26
ATOM     26  C   UNL A   1      43.852  21.650  25.120  1.00  0.00     0.202 C 
BRANCH  26  27
ATOM     27  C   UNL A   1      44.229  22.942  24.358  1.00  0.00     0.261 C 
BRANCH  27  28
ATOM     28  O   UNL A   1      43.591  24.176  24.714  1.00  0.00    -0.460 OA
BRANCH  28  29
ATOM     29  C   UNL A   1      44.406  25.157  25.186  1.00  0.00     0.338 C 
ATOM     30  O   UNL A   1      45.460  25.531  24.711  1.00  0.00    -0.246 OA
BRANCH  29  31
ATOM     31  C   UNL A   1      43.707  25.859  26.284  1.00  0.00     0.060 A 
ATOM     32  C   UNL A   1      44.018  27.202  26.548  1.00  0.00     0.016 A 
ATOM     33  C   UNL A   1      42.765  25.187  27.061  1.00  0.00     0.016 A 
ATOM     34  C   UNL A   1      43.381  27.877  27.591  1.00  0.00     0.010 A 
ATOM     35  C   UNL A   1      42.150  25.858  28.123  1.00  0.00     0.010 A 
ATOM     36  C   UNL A   1      42.465  27.200  28.405  1.00  0.00    -0.014 A 
BRANCH  36  37
ATOM     37  C   UNL A   1      41.921  27.844  29.626  1.00  0.00     0.031 A 
ATOM     38  C   UNL A   1      40.676  28.679  29.518  1.00  0.00     0.074 A 
ATOM     39  C   UNL A   1      42.534  27.707  30.815  1.00  0.00     0.049 A 
ATOM     40  N   UNL A   1      40.082  29.411  30.425  1.00  0.00    -0.248 NA
ATOM     41  C   UNL A   1      40.015  28.693  28.202  1.00  0.00     0.031 C 
ATOM     42  C   UNL A   1      43.720  26.891  31.064  1.00  0.00     0.029 A 
ATOM     43  N   UNL A   1      42.248  28.270  32.033  1.00  0.00    -0.354 N 
ATOM     44  C   UNL A   1      38.985  29.981  29.792  1.00  0.00     0.074 A 
ATOM     45  C   UNL A   1      39.013  29.532  28.415  1.00  0.00     0.031 C 
ATOM     46  C   UNL A   1      44.072  27.021  32.355  1.00  0.00     0.029 A 
ATOM     47  C   UNL A   1      43.161  27.958  33.010  1.00  0.00     0.049 A 
ATOM     48  H   UNL A   1      41.462  28.842  32.193  1.00  0.00     0.167 HD
ATOM     49  C   UNL A   1      38.037  30.797  30.311  1.00  0.00     0.037 A 
ATOM     50  C   UNL A   1      43.268  28.404  34.278  1.00  0.00     0.037 A 
ATOM     51  C   UNL A   1      38.018  31.251  31.678  1.00  0.00     0.049 A 
ATOM     52  C   UNL A   1      42.260  29.390  34.807  1.00  0.00     0.074 A 
ATOM     53  C   UNL A   1      37.088  32.059  32.305  1.00  0.00     0.029 A 
ATOM     54  N   UNL A   1      38.985  30.947  32.625  1.00  0.00    -0.354 N 
ATOM     55  N   UNL A   1      41.208  29.900  34.212  1.00  0.00    -0.248 NA
ATOM     56  C   UNL A   1      42.458  29.867  36.184  1.00  0.00     0.031 C 
ATOM     57  C   UNL A   1      37.525  32.300  33.611  1.00  0.00     0.029 A 
ATOM     58  C   UNL A   1      38.695  31.588  33.820  1.00  0.00     0.049 A 
ATOM     59  H   UNL A   1      39.763  30.363  32.473  1.00  0.00     0.167 HD
ATOM     60  C   UNL A   1      40.607  30.735  35.147  1.00  0.00     0.074 A 
ATOM     61  C   UNL A   1      41.402  30.652  36.353  1.00  0.00     0.031 C 
ATOM     62  C   UNL A   1      39.496  31.503  35.016  1.00  0.00     0.037 A 
BRANCH  49  63
ATOM     63  C   UNL A   1      36.963  31.286  29.382  1.00  0.00     0.057 A 
ATOM     64  C   UNL A   1      36.981  32.576  28.835  1.00  0.00     0.134 A 
ATOM     65  C   UNL A   1      35.905  30.445  29.011  1.00  0.00     0.134 A 
ATOM     66  F   UNL A   1      37.958  33.437  29.156  1.00  0.00    -0.206 F 
ATOM     67  C   UNL A   1      35.969  33.023  27.982  1.00  0.00     0.040 A 
ATOM     68  C   UNL A   1      34.905  30.869  28.135  1.00  0.00     0.040 A 
ATOM     69  F   UNL A   1      35.829  29.193  29.491  1.00  0.00    -0.206 F 
ATOM     70  C   UNL A   1      34.930  32.165  27.625  1.00  0.00     0.006 A 
ENDBRANCH  49  63
BRANCH  50  71
ATOM     71  C   UNL A   1      44.388  27.936  35.136  1.00  0.00     0.057 A 
ATOM     72  C   UNL A   1      45.615  28.609  35.155  1.00  0.00     0.134 A 
ATOM     73  C   UNL A   1      44.265  26.799  35.943  1.00  0.00     0.134 A 
ATOM     74  F   UNL A   1      45.804  29.688  34.382  1.00  0.00    -0.206 F 
ATOM     75  C   UNL A   1      46.683  28.164  35.936  1.00  0.00     0.040 A 
ATOM     76  C   UNL A   1      45.315  26.358  36.751  1.00  0.00     0.040 A 
ATOM     77  F   UNL A   1      43.118  26.105  35.968  1.00  0.00    -0.206 F 
ATOM     78  C   UNL A   1      46.530  27.038  36.745  1.00  0.00     0.006 A 
ENDBRANCH  50  71
BRANCH  62  79
ATOM     79  C   UNL A   1      39.059  32.299  36.214  1.00  0.00     0.057 A 
ATOM     80  C   UNL A   1      39.481  33.618  36.422  1.00  0.00     0.134 A 
ATOM     81  C   UNL A   1      38.167  31.755  37.148  1.00  0.00     0.134 A 
ATOM     82  F   UNL A   1      40.344  34.197  35.574  1.00  0.00    -0.206 F 
ATOM     83  C   UNL A   1      39.051  34.359  37.525  1.00  0.00     0.040 A 
ATOM     84  C   UNL A   1      37.705  32.495  38.238  1.00  0.00     0.040 A 
ATOM     85  F   UNL A   1      37.713  30.500  37.007  1.00  0.00    -0.206 F 
ATOM     86  C   UNL A   1      38.153  33.799  38.432  1.00  0.00     0.006 A 
ENDBRANCH  62  79
ENDBRANCH  36  37
ENDBRANCH  29  31
ENDBRANCH  28  29
ENDBRANCH  27  28
ENDBRANCH  26  27
ENDBRANCH  25  26
ENDBRANCH  24  25
ENDBRANCH  23  24
ENDBRANCH  22  23
ENDBRANCH   1  22
TORSDOF 23
ENDMDL
MODEL 2
REMARK VINA RESULT:      -9.0      3.892      8.021
REMARK SMILES CCCC[C@@H](C)[NH2+]Cc1ccc(C(=O)OCCOCCOCCOC(=O)c2ccc(-c3c4nc(c(-c5c(F)cccc5F)c5ccc([nH]5)c(-c5c(F)cccc5F)c5nc(c(-c6c(F)cccc6F)c6ccc3[nH]6)C=C5)C=C4)cc2)cn1
REMARK SMILES IDX 17 1 16 2 15 3 13 4 14 5 12 6 9 7 10 8 82 9 11 10 81 11 8 12
REMARK SMILES IDX 7 13 5 16 6 17 4 18 3 19 2 20 1 21 18 22 19 23 20 24 21 25
REMARK SMILES IDX 22 26 23 27 24 28 25 29 26 30 27 31 28 32 80 33 29 34 79 35
REMARK SMILES IDX 30 36 31 37 32 38 73 39 33 40 78 41 72 42 74 43 34 44 77 45
REMARK SMILES IDX 71 46 70 47 35 49 61 50 44 51 60 52 45 53 48 54 59 55 75 56
REMARK SMILES IDX 46 57 47 58 58 60 76 61 49 62 36 63 37 64 42 65 38 66 39 67
REMARK SMILES IDX 41 68 43 69 40 70 62 71 63 72 68 73 64 74 65 75 67 76 69 77
REMARK SMILES IDX 66 78 50 79 51 80 56 81 52 82 53 83 55 84 57 85 54 86
REMARK H PARENT 7 14 7 15 74 48 48 59
REMARK Flexibility Score: inf
ROOT
ATOM      1  C   UNL A   1      33.342  28.643  24.830  1.00  0.00     0.202 C 
ENDROOT
BRANCH   1   2
ATOM      2  C   UNL A   1      31.953  28.917  24.235  1.00  0.00     0.261 C 
BRANCH   2   3
ATOM      3  O   UNL A   1      30.900  28.142  24.822  1.00  0.00    -0.460 OA
BRANCH   3   4
ATOM      4  C   UNL A   1      30.264  27.306  23.969  1.00  0.00     0.339 C 
ATOM      5  O   UNL A   1      29.778  27.583  22.889  1.00  0.00    -0.246 OA
BRANCH   4   6
ATOM      6  C   UNL A   1      30.419  25.919  24.431  1.00  0.00     0.078 A 
ATOM      7  C   UNL A   1      30.995  23.488  25.523  1.00  0.00     0.094 A 
ATOM      8  C   UNL A   1      30.816  23.572  24.138  1.00  0.00     0.031 A 
ATOM      9  N   UNL A   1      30.668  24.502  26.365  1.00  0.00    -0.254 NA
ATOM     10  C   UNL A   1      30.551  24.821  23.580  1.00  0.00     0.019 A 
ATOM     11  C   UNL A   1      30.406  25.700  25.801  1.00  0.00     0.127 A 
BRANCH   7  12
ATOM     12  C   UNL A   1      31.901  22.408  26.098  1.00  0.00     0.318 C 
BRANCH  12  13
ATOM     13  N   UNL A   1      31.753  21.090  25.448  1.00  0.00    -0.339 N 
ATOM     14  H   UNL A   1      31.577  20.405  26.183  1.00  0.00     0.346 HD
ATOM     15  H   UNL A   1      30.994  21.215  24.777  1.00  0.00     0.346 HD
BRANCH  13  16
ATOM     16  C   UNL A   1      32.889  20.591  24.641  1.00  0.00     0.179 C 
ATOM     17  C   UNL A   1      33.907  21.634  24.171  1.00  0.00     0.075 C 
BRANCH  16  18
ATOM     18  C   UNL A   1      32.273  19.890  23.405  1.00  0.00     0.065 C 
BRANCH  18  19
ATOM     19  C   UNL A   1      32.419  18.360  23.356  1.00  0.00     0.006 C 
BRANCH  19  20
ATOM     20  C   UNL A   1      33.689  17.802  24.001  1.00  0.00    -0.003 C 
ATOM     21  C   UNL A   1      34.223  16.579  23.280  1.00  0.00     0.004 C 
ENDBRANCH  19  20
ENDBRANCH  18  19
ENDBRANCH  16  18
ENDBRANCH  13  16
ENDBRANCH  12  13
ENDBRANCH   7  12
ENDBRANCH   4   6
ENDBRANCH   3   4
ENDBRANCH   2   3
ENDBRANCH   1   2
BRANCH   1  22
ATOM     22  O   UNL A   1      33.651  27.424  25.494  1.00  0.00    -0.376 OA
BRANCH  22  23
ATOM     23  C   UNL A   1      34.021  26.272  24.756  1.00  0.00     0.188 C 
BRANCH  23  24
ATOM     24  C   UNL A   1      34.432  24.978  25.486  1.00  0.00     0.188 C 
BRANCH  24  25
ATOM     25  O   UNL A   1      35.699  24.452  25.189  1.00  0.00    -0.376 OA
BRANCH  25  26
ATOM     26  C   UNL A   1      36.333  23.598  26.126  1.00  0.00     0.202 C 
BRANCH  26  27
ATOM     27  C   UNL A   1      37.248  22.398  25.787  1.00  0.00     0.261 C 
BRANCH  27  28
ATOM     28  O   UNL A   1      38.635  22.632  25.512  1.00  0.00    -0.460 OA
BRANCH  28  29
ATOM     29  C   UNL A   1      39.488  22.480  26.560  1.00  0.00     0.338 C 
ATOM     30  O   UNL A   1      39.902  21.438  27.028  1.00  0.00    -0.246 OA
BRANCH  29  31
ATOM     31  C   UNL A   1      40.009  23.812  26.938  1.00  0.00     0.060 A 
ATOM     32  C   UNL A   1      40.497  24.014  28.238  1.00  0.00     0.016 A 
ATOM     33  C   UNL A   1      39.998  24.858  26.018  1.00  0.00     0.016 A 
ATOM     34  C   UNL A   1      40.978  25.268  28.619  1.00  0.00     0.010 A 
ATOM     35  C   UNL A   1      40.454  26.120  26.411  1.00  0.00     0.010 A 
ATOM     36  C   UNL A   1      40.931  26.337  27.716  1.00  0.00    -0.014 A 
BRANCH  36  37
ATOM     37  C   UNL A   1      41.264  27.714  28.160  1.00  0.00     0.031 A 
ATOM     38  C   UNL A   1      42.705  28.139  28.204  1.00  0.00     0.074 A 
ATOM     39  C   UNL A   1      40.301  28.573  28.537  1.00  0.00     0.049 A 
ATOM     40  N   UNL A   1      43.233  29.250  28.650  1.00  0.00    -0.248 NA
ATOM     41  C   UNL A   1      43.684  27.173  27.680  1.00  0.00     0.031 C 
ATOM     42  C   UNL A   1      38.865  28.302  28.499  1.00  0.00     0.029 A 
ATOM     43  N   UNL A   1      40.392  29.845  29.045  1.00  0.00    -0.354 N 
ATOM     44  C   UNL A   1      44.603  29.116  28.470  1.00  0.00     0.074 A 
ATOM     45  C   UNL A   1      44.827  27.803  27.902  1.00  0.00     0.031 C 
ATOM     46  C   UNL A   1      38.209  29.372  28.981  1.00  0.00     0.029 A 
ATOM     47  C   UNL A   1      39.179  30.383  29.399  1.00  0.00     0.049 A 
ATOM     48  H   UNL A   1      41.245  30.327  29.145  1.00  0.00     0.167 HD
ATOM     49  C   UNL A   1      45.585  30.008  28.747  1.00  0.00     0.037 A 
ATOM     50  C   UNL A   1      38.888  31.545  30.018  1.00  0.00     0.037 A 
ATOM     51  C   UNL A   1      45.360  31.308  29.322  1.00  0.00     0.049 A 
ATOM     52  C   UNL A   1      40.003  32.480  30.408  1.00  0.00     0.074 A 
ATOM     53  C   UNL A   1      46.286  32.293  29.617  1.00  0.00     0.029 A 
ATOM     54  N   UNL A   1      44.121  31.800  29.706  1.00  0.00    -0.354 N 
ATOM     55  N   UNL A   1      41.294  32.360  30.206  1.00  0.00    -0.248 NA
ATOM     56  C   UNL A   1      39.621  33.710  31.117  1.00  0.00     0.031 C 
ATOM     57  C   UNL A   1      45.618  33.352  30.239  1.00  0.00     0.029 A 
ATOM     58  C   UNL A   1      44.265  33.056  30.274  1.00  0.00     0.049 A 
ATOM     59  H   UNL A   1      43.265  31.327  29.592  1.00  0.00     0.167 HD
ATOM     60  C   UNL A   1      41.872  33.506  30.739  1.00  0.00     0.074 A 
ATOM     61  C   UNL A   1      40.791  34.316  31.258  1.00  0.00     0.031 C 
ATOM     62  C   UNL A   1      43.182  33.855  30.793  1.00  0.00     0.037 A 
BRANCH  49  63
ATOM     63  C   UNL A   1      46.998  29.586  28.466  1.00  0.00     0.057 A 
ATOM     64  C   UNL A   1      47.785  28.933  29.424  1.00  0.00     0.134 A 
ATOM     65  C   UNL A   1      47.575  29.817  27.210  1.00  0.00     0.134 A 
ATOM     66  F   UNL A   1      47.301  28.690  30.651  1.00  0.00    -0.206 F 
ATOM     67  C   UNL A   1      49.104  28.557  29.155  1.00  0.00     0.040 A 
ATOM     68  C   UNL A   1      48.880  29.418  26.919  1.00  0.00     0.040 A 
ATOM     69  F   UNL A   1      46.877  30.431  26.242  1.00  0.00    -0.206 F 
ATOM     70  C   UNL A   1      49.652  28.794  27.896  1.00  0.00     0.006 A 
ENDBRANCH  49  63
BRANCH  50  71
ATOM     71  C   UNL A   1      37.475  31.885  30.329  1.00  0.00     0.057 A 
ATOM     72  C   UNL A   1      36.698  32.638  29.441  1.00  0.00     0.134 A 
ATOM     73  C   UNL A   1      36.873  31.482  31.528  1.00  0.00     0.134 A 
ATOM     74  F   UNL A   1      37.228  33.078  28.290  1.00  0.00    -0.206 F 
ATOM     75  C   UNL A   1      35.379  32.987  29.735  1.00  0.00     0.040 A 
ATOM     76  C   UNL A   1      35.546  31.799  31.823  1.00  0.00     0.040 A 
ATOM     77  F   UNL A   1      37.563  30.763  32.425  1.00  0.00    -0.206 F 
ATOM     78  C   UNL A   1      34.797  32.559  30.927  1.00  0.00     0.006 A 
ENDBRANCH  50  71
BRANCH  62  79
ATOM     79  C   UNL A   1      43.521  35.180  31.417  1.00  0.00     0.057 A 
ATOM     80  C   UNL A   1      43.741  35.317  32.793  1.00  0.00     0.134 A 
ATOM     81  C   UNL A   1      43.676  36.325  30.624  1.00  0.00     0.134 A 
ATOM     82  F   UNL A   1      43.598  34.265  33.613  1.00  0.00    -0.206 F 
ATOM     83  C   UNL A   1      44.079  36.548  33.361  1.00  0.00     0.040 A 
ATOM     84  C   UNL A   1      44.044  37.554  31.175  1.00  0.00     0.040 A 
ATOM     85  F   UNL A   1      43.491  36.265  29.296  1.00  0.00    -0.206 F 
ATOM     86  C   UNL A   1      44.240  37.669  32.549  1.00  0.00     0.006 A 
ENDBRANCH  62  79
ENDBRANCH  36  37
ENDBRANCH  29  31
ENDBRANCH  28  29
ENDBRANCH  27  28
ENDBRANCH  26  27
ENDBRANCH  25  26
ENDBRANCH  24  25
ENDBRANCH  23  24
ENDBRANCH  22  23
ENDBRANCH   1  22
TORSDOF 23
ENDMDL
MODEL 3
REMARK VINA RESULT:      -8.9      4.485      8.440
REMARK SMILES CCCC[C@@H](C)[NH2+]Cc1ccc(C(=O)OCCOCCOCCOC(=O)c2ccc(-c3c4nc(c(-c5c(F)cccc5F)c5ccc([nH]5)c(-c5c(F)cccc5F)c5nc(c(-c6c(F)cccc6F)c6ccc3[nH]6)C=C5)C=C4)cc2)cn1
REMARK SMILES IDX 17 1 16 2 15 3 13 4 14 5 12 6 9 7 10 8 82 9 11 10 81 11 8 12
REMARK SMILES IDX 7 13 5 16 6 17 4 18 3 19 2 20 1 21 18 22 19 23 20 24 21 25
REMARK SMILES IDX 22 26 23 27 24 28 25 29 26 30 27 31 28 32 80 33 29 34 79 35
REMARK SMILES IDX 30 36 31 37 32 38 73 39 33 40 78 41 72 42 74 43 34 44 77 45
REMARK SMILES IDX 71 46 70 47 35 49 61 50 44 51 60 52 45 53 48 54 59 55 75 56
REMARK SMILES IDX 46 57 47 58 58 60 76 61 49 62 36 63 37 64 42 65 38 66 39 67
REMARK SMILES IDX 41 68 43 69 40 70 62 71 63 72 68 73 64 74 65 75 67 76 69 77
REMARK SMILES IDX 66 78 50 79 51 80 56 81 52 82 53 83 55 84 57 85 54 86
REMARK H PARENT 7 14 7 15 74 48 48 59
REMARK Flexibility Score: inf
ROOT
ATOM      1  C   UNL A   1      34.370  20.090  25.044  1.00  0.00     0.202 C 
ENDROOT
BRANCH   1   2
ATOM      2  C   UNL A   1      32.881  19.748  24.888  1.00  0.00     0.261 C 
BRANCH   2   3
ATOM      3  O   UNL A   1      32.065  20.853  24.482  1.00  0.00    -0.460 OA
BRANCH   3   4
ATOM      4  C   UNL A   1      32.193  21.209  23.182  1.00  0.00     0.339 C 
ATOM      5  O   UNL A   1      31.983  20.517  22.204  1.00  0.00    -0.246 OA
BRANCH   4   6
ATOM      6  C   UNL A   1      32.428  22.657  23.088  1.00  0.00     0.078 A 
ATOM      7  C   UNL A   1      32.563  25.345  22.656  1.00  0.00     0.094 A 
ATOM      8  C   UNL A   1      33.753  24.610  22.663  1.00  0.00     0.031 A 
ATOM      9  N   UNL A   1      31.382  24.828  23.082  1.00  0.00    -0.254 NA
ATOM     10  C   UNL A   1      33.678  23.232  22.856  1.00  0.00     0.019 A 
ATOM     11  C   UNL A   1      31.335  23.492  23.270  1.00  0.00     0.127 A 
BRANCH   7  12
ATOM     12  C   UNL A   1      32.474  26.621  21.830  1.00  0.00     0.318 C 
BRANCH  12  13
ATOM     13  N   UNL A   1      31.455  27.577  22.308  1.00  0.00    -0.339 N 
ATOM     14  H   UNL A   1      30.925  27.891  21.496  1.00  0.00     0.346 HD
ATOM     15  H   UNL A   1      30.920  27.059  23.005  1.00  0.00     0.346 HD
BRANCH  13  16
ATOM     16  C   UNL A   1      31.928  28.785  23.021  1.00  0.00     0.179 C 
ATOM     17  C   UNL A   1      33.443  28.929  23.196  1.00  0.00     0.075 C 
BRANCH  16  18
ATOM     18  C   UNL A   1      31.256  28.762  24.415  1.00  0.00     0.065 C 
BRANCH  18  19
ATOM     19  C   UNL A   1      31.823  29.746  25.453  1.00  0.00     0.006 C 
BRANCH  19  20
ATOM     20  C   UNL A   1      32.177  29.134  26.810  1.00  0.00    -0.003 C 
ATOM     21  C   UNL A   1      33.583  28.565  26.847  1.00  0.00     0.004 C 
ENDBRANCH  19  20
ENDBRANCH  18  19
ENDBRANCH  16  18
ENDBRANCH  13  16
ENDBRANCH  12  13
ENDBRANCH   7  12
ENDBRANCH   4   6
ENDBRANCH   3   4
ENDBRANCH   2   3
ENDBRANCH   1   2
BRANCH   1  22
ATOM     22  O   UNL A   1      34.807  21.348  25.543  1.00  0.00    -0.376 OA
BRANCH  22  23
ATOM     23  C   UNL A   1      36.171  21.568  25.855  1.00  0.00     0.188 C 
BRANCH  23  24
ATOM     24  C   UNL A   1      37.233  21.591  24.737  1.00  0.00     0.188 C 
BRANCH  24  25
ATOM     25  O   UNL A   1      37.773  20.358  24.343  1.00  0.00    -0.376 OA
BRANCH  25  26
ATOM     26  C   UNL A   1      38.341  19.504  25.322  1.00  0.00     0.202 C 
BRANCH  26  27
ATOM     27  C   UNL A   1      39.706  19.704  26.020  1.00  0.00     0.261 C 
BRANCH  27  28
ATOM     28  O   UNL A   1      40.875  19.094  25.458  1.00  0.00    -0.460 OA
BRANCH  28  29
ATOM     29  C   UNL A   1      41.963  19.020  26.271  1.00  0.00     0.338 C 
ATOM     30  O   UNL A   1      42.567  18.021  26.603  1.00  0.00    -0.246 OA
BRANCH  29  31
ATOM     31  C   UNL A   1      42.438  20.395  26.543  1.00  0.00     0.060 A 
ATOM     32  C   UNL A   1      42.315  20.918  27.840  1.00  0.00     0.016 A 
ATOM     33  C   UNL A   1      42.982  21.167  25.519  1.00  0.00     0.016 A 
ATOM     34  C   UNL A   1      42.742  22.219  28.114  1.00  0.00     0.010 A 
ATOM     35  C   UNL A   1      43.383  22.479  25.791  1.00  0.00     0.010 A 
ATOM     36  C   UNL A   1      43.251  23.018  27.083  1.00  0.00    -0.014 A 
BRANCH  36  37
ATOM     37  C   UNL A   1      43.536  24.456  27.315  1.00  0.00     0.031 A 
ATOM     38  C   UNL A   1      44.955  24.942  27.233  1.00  0.00     0.074 A 
ATOM     39  C   UNL A   1      42.549  25.319  27.613  1.00  0.00     0.049 A 
ATOM     40  N   UNL A   1      45.447  26.126  27.494  1.00  0.00    -0.248 NA
ATOM     41  C   UNL A   1      45.957  23.953  26.803  1.00  0.00     0.031 C 
ATOM     42  C   UNL A   1      41.127  24.986  27.680  1.00  0.00     0.029 A 
ATOM     43  N   UNL A   1      42.600  26.653  27.934  1.00  0.00    -0.354 N 
ATOM     44  C   UNL A   1      46.814  26.025  27.271  1.00  0.00     0.074 A 
ATOM     45  C   UNL A   1      47.077  24.654  26.881  1.00  0.00     0.031 C 
ATOM     46  C   UNL A   1      40.441  26.086  28.039  1.00  0.00     0.029 A 
ATOM     47  C   UNL A   1      41.378  27.185  28.265  1.00  0.00     0.049 A 
ATOM     48  H   UNL A   1      43.433  27.178  27.926  1.00  0.00     0.167 HD
ATOM     49  C   UNL A   1      47.763  26.986  27.374  1.00  0.00     0.037 A 
ATOM     50  C   UNL A   1      41.057  28.409  28.729  1.00  0.00     0.037 A 
ATOM     51  C   UNL A   1      47.500  28.345  27.773  1.00  0.00     0.049 A 
ATOM     52  C   UNL A   1      42.141  29.435  28.933  1.00  0.00     0.074 A 
ATOM     53  C   UNL A   1      48.390  29.398  27.883  1.00  0.00     0.029 A 
ATOM     54  N   UNL A   1      46.255  28.834  28.142  1.00  0.00    -0.354 N 
ATOM     55  N   UNL A   1      43.428  29.342  28.690  1.00  0.00    -0.248 NA
ATOM     56  C   UNL A   1      41.730  30.736  29.480  1.00  0.00     0.031 C 
ATOM     57  C   UNL A   1      47.698  30.506  28.383  1.00  0.00     0.029 A 
ATOM     58  C   UNL A   1      46.362  30.163  28.521  1.00  0.00     0.049 A 
ATOM     59  H   UNL A   1      45.419  28.314  28.135  1.00  0.00     0.167 HD
ATOM     60  C   UNL A   1      43.972  30.575  29.030  1.00  0.00     0.074 A 
ATOM     61  C   UNL A   1      42.875  31.405  29.481  1.00  0.00     0.031 C 
ATOM     62  C   UNL A   1      45.265  30.981  28.974  1.00  0.00     0.037 A 
BRANCH  49  63
ATOM     63  C   UNL A   1      49.182  26.587  27.090  1.00  0.00     0.057 A 
ATOM     64  C   UNL A   1      50.028  26.081  28.086  1.00  0.00     0.134 A 
ATOM     65  C   UNL A   1      49.706  26.692  25.794  1.00  0.00     0.134 A 
ATOM     66  F   UNL A   1      49.596  25.964  29.350  1.00  0.00    -0.206 F 
ATOM     67  C   UNL A   1      51.351  25.725  27.811  1.00  0.00     0.040 A 
ATOM     68  C   UNL A   1      51.016  26.311  25.500  1.00  0.00     0.040 A 
ATOM     69  F   UNL A   1      48.950  27.162  24.789  1.00  0.00    -0.206 F 
ATOM     70  C   UNL A   1      51.846  25.835  26.512  1.00  0.00     0.006 A 
ENDBRANCH  49  63
BRANCH  50  71
ATOM     71  C   UNL A   1      39.644  28.732  29.056  1.00  0.00     0.057 A 
ATOM     72  C   UNL A   1      39.123  28.492  30.333  1.00  0.00     0.134 A 
ATOM     73  C   UNL A   1      38.776  29.270  28.098  1.00  0.00     0.134 A 
ATOM     74  F   UNL A   1      39.896  27.950  31.285  1.00  0.00    -0.206 F 
ATOM     75  C   UNL A   1      37.789  28.765  30.643  1.00  0.00     0.040 A 
ATOM     76  C   UNL A   1      37.448  29.575  28.402  1.00  0.00     0.040 A 
ATOM     77  F   UNL A   1      39.211  29.519  26.853  1.00  0.00    -0.206 F 
ATOM     78  C   UNL A   1      36.950  29.317  29.676  1.00  0.00     0.006 A 
ENDBRANCH  50  71
BRANCH  62  79
ATOM     79  C   UNL A   1      45.566  32.394  29.390  1.00  0.00     0.057 A 
ATOM     80  C   UNL A   1      45.963  32.714  30.695  1.00  0.00     0.134 A 
ATOM     81  C   UNL A   1      45.502  33.442  28.462  1.00  0.00     0.134 A 
ATOM     82  F   UNL A   1      46.033  31.762  31.637  1.00  0.00    -0.206 F 
ATOM     83  C   UNL A   1      46.264  34.027  31.067  1.00  0.00     0.040 A 
ATOM     84  C   UNL A   1      45.830  34.753  28.814  1.00  0.00     0.040 A 
ATOM     85  F   UNL A   1      45.139  33.208  27.192  1.00  0.00    -0.206 F 
ATOM     86  C   UNL A   1      46.206  35.049  30.122  1.00  0.00     0.006 A 
ENDBRANCH  62  79
ENDBRANCH  36  37
ENDBRANCH  29  31
ENDBRANCH  28  29
ENDBRANCH  27  28
ENDBRANCH  26  27
ENDBRANCH  25  26
ENDBRANCH  24  25
ENDBRANCH  23  24
ENDBRANCH  22  23
ENDBRANCH   1  22
TORSDOF 23
ENDMDL
