MODEL 1
REMARK VINA RESULT:     -11.4      0.000      0.000
REMARK SMILES C[C@H](C(=O)OCCOCCOCCOC(=O)c1ccc(-c2c3nc(c(-c4c(F)cccc4F)c4ccc([nH]4)c(-c4c(F)cccc4F)c4nc(c(-c5c(F)cccc5F)c5ccc2[nH]5)C=C4)C=C3)cc1)N1C(=O)C[C@@H](N2C(=O)/C(=C/c3ccccc3)SC2=S)C1=O
REMARK SMILES IDX 9 1 8 2 7 3 6 4 5 5 3 6 4 7 2 8 1 9 71 10 72 11 90 12 73 13
REMARK SMILES IDX 74 14 75 15 91 16 76 17 77 18 88 19 78 20 79 21 87 22 89 23
REMARK SMILES IDX 80 24 81 25 82 26 86 27 83 28 85 29 84 30 10 31 11 32 12 33
REMARK SMILES IDX 13 34 14 35 15 36 16 37 17 38 18 39 70 40 19 41 69 42 20 43
REMARK SMILES IDX 21 44 22 45 63 46 23 47 68 48 62 49 64 50 24 51 67 52 61 53
REMARK SMILES IDX 60 54 25 56 51 57 34 58 50 59 35 60 38 61 49 62 65 63 36 64
REMARK SMILES IDX 37 65 48 67 66 68 39 69 26 70 27 71 32 72 28 73 29 74 31 75
REMARK SMILES IDX 33 76 30 77 52 78 53 79 58 80 54 81 55 82 57 83 59 84 56 85
REMARK SMILES IDX 40 86 41 87 46 88 42 89 43 90 45 91 47 92 44 93
REMARK H PARENT 64 55 38 66
REMARK Flexibility Score: inf
ROOT
ATOM      1  C   UNL A   1      39.165  22.064  26.131  1.00  0.00     0.188 C 
ENDROOT
BRANCH   1   2
ATOM      2  O   UNL A   1      37.851  21.570  25.871  1.00  0.00    -0.376 OA
BRANCH   2   3
ATOM      3  C   UNL A   1      37.417  21.428  24.529  1.00  0.00     0.202 C 
BRANCH   3   4
ATOM      4  C   UNL A   1      36.716  22.653  23.930  1.00  0.00     0.261 C 
BRANCH   4   5
ATOM      5  O   UNL A   1      35.379  22.906  24.409  1.00  0.00    -0.462 OA
BRANCH   5   6
ATOM      6  C   UNL A   1      34.413  22.977  23.457  1.00  0.00     0.329 C 
ATOM      7  O   UNL A   1      34.611  23.335  22.299  1.00  0.00    -0.250 OA
BRANCH   6   8
ATOM      8  C   UNL A   1      33.032  22.485  23.927  1.00  0.00     0.200 C 
ATOM      9  C   UNL A   1      33.154  21.132  24.623  1.00  0.00     0.044 C 
BRANCH   8  10
ATOM     10  N   UNL A   1      32.221  23.451  24.673  1.00  0.00    -0.267 N 
ATOM     11  C   UNL A   1      32.379  23.828  25.974  1.00  0.00     0.232 C 
ATOM     12  C   UNL A   1      31.160  24.081  24.090  1.00  0.00     0.253 C 
ATOM     13  O   UNL A   1      33.077  23.287  26.818  1.00  0.00    -0.274 OA
ATOM     14  C   UNL A   1      31.498  25.008  26.276  1.00  0.00     0.136 C 
ATOM     15  C   UNL A   1      30.576  25.076  25.072  1.00  0.00     0.191 C 
ATOM     16  O   UNL A   1      30.738  23.906  22.955  1.00  0.00    -0.272 OA
BRANCH  15  17
ATOM     17  N   UNL A   1      30.488  26.362  24.374  1.00  0.00    -0.280 N 
ATOM     18  C   UNL A   1      29.237  26.838  24.016  1.00  0.00     0.266 C 
ATOM     19  C   UNL A   1      31.548  27.222  24.168  1.00  0.00     0.149 C 
ATOM     20  O   UNL A   1      28.182  26.234  24.155  1.00  0.00    -0.268 OA
ATOM     21  C   UNL A   1      29.334  28.207  23.467  1.00  0.00     0.081 C 
ATOM     22  S   UNL A   1      30.971  28.718  23.445  1.00  0.00    -0.054 SA
ATOM     23  S   UNL A   1      33.164  26.957  24.484  1.00  0.00    -0.052 S 
ATOM     24  C   UNL A   1      28.238  28.879  23.090  1.00  0.00     0.029 C 
BRANCH  24  25
ATOM     25  C   UNL A   1      28.221  30.212  22.488  1.00  0.00    -0.024 A 
ATOM     26  C   UNL A   1      28.341  31.346  23.297  1.00  0.00     0.008 A 
ATOM     27  C   UNL A   1      28.039  30.364  21.108  1.00  0.00     0.008 A 
ATOM     28  C   UNL A   1      28.305  32.620  22.725  1.00  0.00     0.001 A 
ATOM     29  C   UNL A   1      28.007  31.637  20.539  1.00  0.00     0.001 A 
ATOM     30  C   UNL A   1      28.141  32.763  21.347  1.00  0.00     0.000 A 
ENDBRANCH  24  25
ENDBRANCH  15  17
ENDBRANCH   8  10
ENDBRANCH   6   8
ENDBRANCH   5   6
ENDBRANCH   4   5
ENDBRANCH   3   4
ENDBRANCH   2   3
ENDBRANCH   1   2
BRANCH   1  31
ATOM     31  C   UNL A   1      40.357  21.098  26.174  1.00  0.00     0.188 C 
BRANCH  31  32
ATOM     32  O   UNL A   1      40.876  20.959  27.494  1.00  0.00    -0.376 OA
BRANCH  32  33
ATOM     33  C   UNL A   1      42.200  21.445  27.661  1.00  0.00     0.202 C 
BRANCH  33  34
ATOM     34  C   UNL A   1      42.171  22.902  28.126  1.00  0.00     0.261 C 
BRANCH  34  35
ATOM     35  O   UNL A   1      42.937  23.796  27.297  1.00  0.00    -0.460 OA
BRANCH  35  36
ATOM     36  C   UNL A   1      42.247  24.733  26.616  1.00  0.00     0.338 C 
ATOM     37  O   UNL A   1      41.906  24.686  25.441  1.00  0.00    -0.246 OA
BRANCH  36  38
ATOM     38  C   UNL A   1      41.839  25.792  27.560  1.00  0.00     0.060 A 
ATOM     39  C   UNL A   1      42.666  26.909  27.735  1.00  0.00     0.016 A 
ATOM     40  C   UNL A   1      40.653  25.671  28.289  1.00  0.00     0.016 A 
ATOM     41  C   UNL A   1      42.324  27.890  28.672  1.00  0.00     0.010 A 
ATOM     42  C   UNL A   1      40.320  26.647  29.232  1.00  0.00     0.010 A 
ATOM     43  C   UNL A   1      41.167  27.746  29.452  1.00  0.00    -0.014 A 
BRANCH  43  44
ATOM     44  C   UNL A   1      40.916  28.640  30.612  1.00  0.00     0.031 A 
ATOM     45  C   UNL A   1      39.841  29.688  30.496  1.00  0.00     0.074 A 
ATOM     46  C   UNL A   1      41.637  28.547  31.744  1.00  0.00     0.049 A 
ATOM     47  N   UNL A   1      39.511  30.639  31.331  1.00  0.00    -0.248 NA
ATOM     48  C   UNL A   1      39.035  29.659  29.265  1.00  0.00     0.031 C 
ATOM     49  C   UNL A   1      42.684  27.564  32.004  1.00  0.00     0.029 A 
ATOM     50  N   UNL A   1      41.604  29.315  32.882  1.00  0.00    -0.354 N 
ATOM     51  C   UNL A   1      38.464  31.324  30.728  1.00  0.00     0.074 A 
ATOM     52  C   UNL A   1      38.233  30.698  29.444  1.00  0.00     0.031 C 
ATOM     53  C   UNL A   1      43.210  27.799  33.219  1.00  0.00     0.029 A 
ATOM     54  C   UNL A   1      42.558  28.970  33.807  1.00  0.00     0.049 A 
ATOM     55  H   UNL A   1      40.957  30.044  33.023  1.00  0.00     0.167 HD
ATOM     56  C   UNL A   1      37.753  32.375  31.201  1.00  0.00     0.037 A 
ATOM     57  C   UNL A   1      42.888  29.550  34.979  1.00  0.00     0.037 A 
ATOM     58  C   UNL A   1      37.983  33.010  32.471  1.00  0.00     0.049 A 
ATOM     59  C   UNL A   1      42.134  30.768  35.451  1.00  0.00     0.074 A 
ATOM     60  C   UNL A   1      37.307  34.078  33.038  1.00  0.00     0.029 A 
ATOM     61  N   UNL A   1      38.970  32.640  33.370  1.00  0.00    -0.354 N 
ATOM     62  N   UNL A   1      41.133  31.394  34.883  1.00  0.00    -0.248 NA
ATOM     63  C   UNL A   1      42.560  31.359  36.729  1.00  0.00     0.031 C 
ATOM     64  C   UNL A   1      37.915  34.382  34.259  1.00  0.00     0.029 A 
ATOM     65  C   UNL A   1      38.937  33.472  34.477  1.00  0.00     0.049 A 
ATOM     66  H   UNL A   1      39.603  31.896  33.241  1.00  0.00     0.167 HD
ATOM     67  C   UNL A   1      40.791  32.431  35.745  1.00  0.00     0.074 A 
ATOM     68  C   UNL A   1      41.685  32.343  36.880  1.00  0.00     0.031 C 
ATOM     69  C   UNL A   1      39.824  33.370  35.608  1.00  0.00     0.037 A 
BRANCH  56  70
ATOM     70  C   UNL A   1      36.667  32.920  30.320  1.00  0.00     0.057 A 
ATOM     71  C   UNL A   1      36.940  33.821  29.283  1.00  0.00     0.134 A 
ATOM     72  C   UNL A   1      35.337  32.518  30.496  1.00  0.00     0.134 A 
ATOM     73  F   UNL A   1      38.192  34.256  29.072  1.00  0.00    -0.206 F 
ATOM     74  C   UNL A   1      35.925  34.322  28.467  1.00  0.00     0.040 A 
ATOM     75  C   UNL A   1      34.317  32.994  29.670  1.00  0.00     0.040 A 
ATOM     76  F   UNL A   1      35.009  31.655  31.468  1.00  0.00    -0.206 F 
ATOM     77  C   UNL A   1      34.610  33.904  28.656  1.00  0.00     0.006 A 
ENDBRANCH  56  70
BRANCH  57  78
ATOM     78  C   UNL A   1      44.007  29.005  35.791  1.00  0.00     0.057 A 
ATOM     79  C   UNL A   1      45.311  29.492  35.649  1.00  0.00     0.134 A 
ATOM     80  C   UNL A   1      43.805  27.959  36.698  1.00  0.00     0.134 A 
ATOM     81  F   UNL A   1      45.574  30.473  34.772  1.00  0.00    -0.206 F 
ATOM     82  C   UNL A   1      46.377  28.948  36.368  1.00  0.00     0.040 A 
ATOM     83  C   UNL A   1      44.856  27.422  37.443  1.00  0.00     0.040 A 
ATOM     84  F   UNL A   1      42.579  27.442  36.874  1.00  0.00    -0.206 F 
ATOM     85  C   UNL A   1      46.149  27.912  37.273  1.00  0.00     0.006 A 
ENDBRANCH  57  78
BRANCH  69  86
ATOM     86  C   UNL A   1      39.647  34.354  36.728  1.00  0.00     0.057 A 
ATOM     87  C   UNL A   1      38.931  34.038  37.889  1.00  0.00     0.134 A 
ATOM     88  C   UNL A   1      40.244  35.621  36.664  1.00  0.00     0.134 A 
ATOM     89  F   UNL A   1      38.326  32.847  38.011  1.00  0.00    -0.206 F 
ATOM     90  C   UNL A   1      38.797  34.951  38.937  1.00  0.00     0.040 A 
ATOM     91  C   UNL A   1      40.138  36.534  37.714  1.00  0.00     0.040 A 
ATOM     92  F   UNL A   1      40.954  35.986  35.585  1.00  0.00    -0.206 F 
ATOM     93  C   UNL A   1      39.409  36.202  38.854  1.00  0.00     0.006 A 
ENDBRANCH  69  86
ENDBRANCH  43  44
ENDBRANCH  36  38
ENDBRANCH  35  36
ENDBRANCH  34  35
ENDBRANCH  33  34
ENDBRANCH  32  33
ENDBRANCH  31  32
ENDBRANCH   1  31
TORSDOF 20
ENDMDL
MODEL 2
REMARK VINA RESULT:     -11.3      1.448      6.221
REMARK SMILES C[C@H](C(=O)OCCOCCOCCOC(=O)c1ccc(-c2c3nc(c(-c4c(F)cccc4F)c4ccc([nH]4)c(-c4c(F)cccc4F)c4nc(c(-c5c(F)cccc5F)c5ccc2[nH]5)C=C4)C=C3)cc1)N1C(=O)C[C@@H](N2C(=O)/C(=C/c3ccccc3)SC2=S)C1=O
REMARK SMILES IDX 9 1 8 2 7 3 6 4 5 5 3 6 4 7 2 8 1 9 71 10 72 11 90 12 73 13
REMARK SMILES IDX 74 14 75 15 91 16 76 17 77 18 88 19 78 20 79 21 87 22 89 23
REMARK SMILES IDX 80 24 81 25 82 26 86 27 83 28 85 29 84 30 10 31 11 32 12 33
REMARK SMILES IDX 13 34 14 35 15 36 16 37 17 38 18 39 70 40 19 41 69 42 20 43
REMARK SMILES IDX 21 44 22 45 63 46 23 47 68 48 62 49 64 50 24 51 67 52 61 53
REMARK SMILES IDX 60 54 25 56 51 57 34 58 50 59 35 60 38 61 49 62 65 63 36 64
REMARK SMILES IDX 37 65 48 67 66 68 39 69 26 70 27 71 32 72 28 73 29 74 31 75
REMARK SMILES IDX 33 76 30 77 52 78 53 79 58 80 54 81 55 82 57 83 59 84 56 85
REMARK SMILES IDX 40 86 41 87 46 88 42 89 43 90 45 91 47 92 44 93
REMARK H PARENT 64 55 38 66
REMARK Flexibility Score: inf
ROOT
ATOM      1  C   UNL A   1      39.579  22.711  26.517  1.00  0.00     0.188 C 
ENDROOT
BRANCH   1   2
ATOM      2  O   UNL A   1      38.211  22.573  26.134  1.00  0.00    -0.376 OA
BRANCH   2   3
ATOM      3  C   UNL A   1      37.832  21.496  25.294  1.00  0.00     0.202 C 
BRANCH   3   4
ATOM      4  C   UNL A   1      36.363  21.068  25.392  1.00  0.00     0.261 C 
BRANCH   4   5
ATOM      5  O   UNL A   1      35.524  21.450  24.283  1.00  0.00    -0.462 OA
BRANCH   5   6
ATOM      6  C   UNL A   1      34.261  21.836  24.603  1.00  0.00     0.329 C 
ATOM      7  O   UNL A   1      33.266  21.133  24.451  1.00  0.00    -0.250 OA
BRANCH   6   8
ATOM      8  C   UNL A   1      34.178  23.225  25.260  1.00  0.00     0.200 C 
ATOM      9  C   UNL A   1      35.105  24.209  24.552  1.00  0.00     0.044 C 
BRANCH   8  10
ATOM     10  N   UNL A   1      32.830  23.756  25.483  1.00  0.00    -0.267 N 
ATOM     11  C   UNL A   1      32.142  23.790  26.661  1.00  0.00     0.232 C 
ATOM     12  C   UNL A   1      32.099  24.280  24.457  1.00  0.00     0.253 C 
ATOM     13  O   UNL A   1      32.422  23.203  27.694  1.00  0.00    -0.274 OA
ATOM     14  C   UNL A   1      30.904  24.629  26.507  1.00  0.00     0.136 C 
ATOM     15  C   UNL A   1      30.796  24.823  25.005  1.00  0.00     0.191 C 
ATOM     16  O   UNL A   1      32.426  24.334  23.279  1.00  0.00    -0.272 OA
BRANCH  15  17
ATOM     17  N   UNL A   1      30.671  26.201  24.520  1.00  0.00    -0.280 N 
ATOM     18  C   UNL A   1      29.526  26.558  23.826  1.00  0.00     0.266 C 
ATOM     19  C   UNL A   1      31.543  27.226  24.827  1.00  0.00     0.149 C 
ATOM     20  O   UNL A   1      28.628  25.795  23.499  1.00  0.00    -0.268 OA
ATOM     21  C   UNL A   1      29.508  28.012  23.557  1.00  0.00     0.081 C 
ATOM     22  S   UNL A   1      30.929  28.743  24.181  1.00  0.00    -0.054 SA
ATOM     23  S   UNL A   1      32.995  27.134  25.639  1.00  0.00    -0.052 S 
ATOM     24  C   UNL A   1      28.474  28.585  22.927  1.00  0.00     0.029 C 
BRANCH  24  25
ATOM     25  C   UNL A   1      28.375  29.998  22.564  1.00  0.00    -0.024 A 
ATOM     26  C   UNL A   1      28.453  30.383  21.222  1.00  0.00     0.008 A 
ATOM     27  C   UNL A   1      28.247  30.977  23.557  1.00  0.00     0.008 A 
ATOM     28  C   UNL A   1      28.377  31.734  20.877  1.00  0.00     0.001 A 
ATOM     29  C   UNL A   1      28.168  32.325  23.209  1.00  0.00     0.001 A 
ATOM     30  C   UNL A   1      28.231  32.703  21.871  1.00  0.00     0.000 A 
ENDBRANCH  24  25
ENDBRANCH  15  17
ENDBRANCH   8  10
ENDBRANCH   6   8
ENDBRANCH   5   6
ENDBRANCH   4   5
ENDBRANCH   3   4
ENDBRANCH   2   3
ENDBRANCH   1   2
BRANCH   1  31
ATOM     31  C   UNL A   1      40.442  21.465  26.757  1.00  0.00     0.188 C 
BRANCH  31  32
ATOM     32  O   UNL A   1      41.816  21.800  26.936  1.00  0.00    -0.376 OA
BRANCH  32  33
ATOM     33  C   UNL A   1      42.699  21.172  26.017  1.00  0.00     0.202 C 
BRANCH  33  34
ATOM     34  C   UNL A   1      43.146  22.171  24.949  1.00  0.00     0.261 C 
BRANCH  34  35
ATOM     35  O   UNL A   1      42.808  23.538  25.251  1.00  0.00    -0.460 OA
BRANCH  35  36
ATOM     36  C   UNL A   1      43.836  24.395  25.421  1.00  0.00     0.338 C 
ATOM     37  O   UNL A   1      44.788  24.560  24.670  1.00  0.00    -0.246 OA
BRANCH  36  38
ATOM     38  C   UNL A   1      43.562  25.222  26.613  1.00  0.00     0.060 A 
ATOM     39  C   UNL A   1      42.821  24.677  27.670  1.00  0.00     0.016 A 
ATOM     40  C   UNL A   1      44.015  26.543  26.677  1.00  0.00     0.016 A 
ATOM     41  C   UNL A   1      42.500  25.469  28.777  1.00  0.00     0.010 A 
ATOM     42  C   UNL A   1      43.684  27.334  27.780  1.00  0.00     0.010 A 
ATOM     43  C   UNL A   1      42.899  26.812  28.823  1.00  0.00    -0.014 A 
BRANCH  43  44
ATOM     44  C   UNL A   1      42.366  27.730  29.862  1.00  0.00     0.031 A 
ATOM     45  C   UNL A   1      43.036  27.760  31.210  1.00  0.00     0.074 A 
ATOM     46  C   UNL A   1      41.292  28.509  29.634  1.00  0.00     0.049 A 
ATOM     47  N   UNL A   1      42.691  28.400  32.298  1.00  0.00    -0.248 NA
ATOM     48  C   UNL A   1      44.258  26.953  31.347  1.00  0.00     0.031 C 
ATOM     49  C   UNL A   1      40.567  28.602  28.371  1.00  0.00     0.029 A 
ATOM     50  N   UNL A   1      40.618  29.359  30.476  1.00  0.00    -0.354 N 
ATOM     51  C   UNL A   1      43.649  28.071  33.249  1.00  0.00     0.074 A 
ATOM     52  C   UNL A   1      44.572  27.152  32.618  1.00  0.00     0.031 C 
ATOM     53  C   UNL A   1      39.532  29.448  28.526  1.00  0.00     0.029 A 
ATOM     54  C   UNL A   1      39.506  29.928  29.907  1.00  0.00     0.049 A 
ATOM     55  H   UNL A   1      40.904  29.542  31.400  1.00  0.00     0.167 HD
ATOM     56  C   UNL A   1      43.756  28.498  34.529  1.00  0.00     0.037 A 
ATOM     57  C   UNL A   1      38.559  30.722  30.447  1.00  0.00     0.037 A 
ATOM     58  C   UNL A   1      42.837  29.403  35.167  1.00  0.00     0.049 A 
ATOM     59  C   UNL A   1      38.655  31.124  31.898  1.00  0.00     0.074 A 
ATOM     60  C   UNL A   1      42.870  29.898  36.460  1.00  0.00     0.029 A 
ATOM     61  N   UNL A   1      41.715  29.943  34.561  1.00  0.00    -0.354 N 
ATOM     62  N   UNL A   1      39.575  30.823  32.781  1.00  0.00    -0.248 NA
ATOM     63  C   UNL A   1      37.577  31.975  32.425  1.00  0.00     0.031 C 
ATOM     64  C   UNL A   1      41.742  30.703  36.649  1.00  0.00     0.029 A 
ATOM     65  C   UNL A   1      41.034  30.749  35.459  1.00  0.00     0.049 A 
ATOM     66  H   UNL A   1      41.440  29.779  33.629  1.00  0.00     0.167 HD
ATOM     67  C   UNL A   1      39.204  31.470  33.956  1.00  0.00     0.074 A 
ATOM     68  C   UNL A   1      37.981  32.188  33.669  1.00  0.00     0.031 C 
ATOM     69  C   UNL A   1      39.823  31.470  35.161  1.00  0.00     0.037 A 
BRANCH  56  70
ATOM     70  C   UNL A   1      44.905  27.967  35.335  1.00  0.00     0.057 A 
ATOM     71  C   UNL A   1      44.839  26.730  35.989  1.00  0.00     0.134 A 
ATOM     72  C   UNL A   1      46.101  28.690  35.436  1.00  0.00     0.134 A 
ATOM     73  F   UNL A   1      43.717  25.996  35.943  1.00  0.00    -0.206 F 
ATOM     74  C   UNL A   1      45.913  26.242  36.735  1.00  0.00     0.040 A 
ATOM     75  C   UNL A   1      47.189  28.201  36.160  1.00  0.00     0.040 A 
ATOM     76  F   UNL A   1      46.230  29.880  34.831  1.00  0.00    -0.206 F 
ATOM     77  C   UNL A   1      47.094  26.976  36.817  1.00  0.00     0.006 A 
ENDBRANCH  56  70
BRANCH  57  78
ATOM     78  C   UNL A   1      37.410  31.179  29.622  1.00  0.00     0.057 A 
ATOM     79  C   UNL A   1      36.289  30.365  29.424  1.00  0.00     0.134 A 
ATOM     80  C   UNL A   1      37.425  32.423  28.981  1.00  0.00     0.134 A 
ATOM     81  F   UNL A   1      36.230  29.148  29.986  1.00  0.00    -0.206 F 
ATOM     82  C   UNL A   1      35.230  30.764  28.606  1.00  0.00     0.040 A 
ATOM     83  C   UNL A   1      36.363  32.846  28.182  1.00  0.00     0.040 A 
ATOM     84  F   UNL A   1      38.474  33.246  29.125  1.00  0.00    -0.206 F 
ATOM     85  C   UNL A   1      35.264  32.012  27.986  1.00  0.00     0.006 A 
ENDBRANCH  57  78
BRANCH  69  86
ATOM     86  C   UNL A   1      39.216  32.302  36.254  1.00  0.00     0.057 A 
ATOM     87  C   UNL A   1      39.598  33.631  36.475  1.00  0.00     0.134 A 
ATOM     88  C   UNL A   1      38.199  31.780  37.065  1.00  0.00     0.134 A 
ATOM     89  F   UNL A   1      40.573  34.189  35.741  1.00  0.00    -0.206 F 
ATOM     90  C   UNL A   1      39.008  34.404  37.476  1.00  0.00     0.040 A 
ATOM     91  C   UNL A   1      37.583  32.551  38.053  1.00  0.00     0.040 A 
ATOM     92  F   UNL A   1      37.777  30.517  36.900  1.00  0.00    -0.206 F 
ATOM     93  C   UNL A   1      37.991  33.866  38.264  1.00  0.00     0.006 A 
ENDBRANCH  69  86
ENDBRANCH  43  44
ENDBRANCH  36  38
ENDBRANCH  35  36
ENDBRANCH  34  35
ENDBRANCH  33  34
ENDBRANCH  32  33
ENDBRANCH  31  32
ENDBRANCH   1  31
TORSDOF 20
ENDMDL
MODEL 3
REMARK VINA RESULT:     -11.2      1.287      2.298
REMARK SMILES C[C@H](C(=O)OCCOCCOCCOC(=O)c1ccc(-c2c3nc(c(-c4c(F)cccc4F)c4ccc([nH]4)c(-c4c(F)cccc4F)c4nc(c(-c5c(F)cccc5F)c5ccc2[nH]5)C=C4)C=C3)cc1)N1C(=O)C[C@@H](N2C(=O)/C(=C/c3ccccc3)SC2=S)C1=O
REMARK SMILES IDX 9 1 8 2 7 3 6 4 5 5 3 6 4 7 2 8 1 9 71 10 72 11 90 12 73 13
REMARK SMILES IDX 74 14 75 15 91 16 76 17 77 18 88 19 78 20 79 21 87 22 89 23
REMARK SMILES IDX 80 24 81 25 82 26 86 27 83 28 85 29 84 30 10 31 11 32 12 33
REMARK SMILES IDX 13 34 14 35 15 36 16 37 17 38 18 39 70 40 19 41 69 42 20 43
REMARK SMILES IDX 21 44 22 45 63 46 23 47 68 48 62 49 64 50 24 51 67 52 61 53
REMARK SMILES IDX 60 54 25 56 51 57 34 58 50 59 35 60 38 61 49 62 65 63 36 64
REMARK SMILES IDX 37 65 48 67 66 68 39 69 26 70 27 71 32 72 28 73 29 74 31 75
REMARK SMILES IDX 33 76 30 77 52 78 53 79 58 80 54 81 55 82 57 83 59 84 56 85
REMARK SMILES IDX 40 86 41 87 46 88 42 89 43 90 45 91 47 92 44 93
REMARK H PARENT 64 55 38 66
REMARK Flexibility Score: inf
ROOT
ATOM      1  C   UNL A   1      41.043  22.040  26.914  1.00  0.00     0.188 C 
ENDROOT
BRANCH   1   2
ATOM      2  O   UNL A   1      39.682  21.612  26.963  1.00  0.00    -0.376 OA
BRANCH   2   3
ATOM      3  C   UNL A   1      38.961  21.456  25.753  1.00  0.00     0.202 C 
BRANCH   3   4
ATOM      4  C   UNL A   1      37.747  22.378  25.586  1.00  0.00     0.261 C 
BRANCH   4   5
ATOM      5  O   UNL A   1      36.562  21.990  26.312  1.00  0.00    -0.462 OA
BRANCH   5   6
ATOM      6  C   UNL A   1      35.644  21.277  25.609  1.00  0.00     0.329 C 
ATOM      7  O   UNL A   1      35.923  20.358  24.844  1.00  0.00    -0.250 OA
BRANCH   6   8
ATOM      8  C   UNL A   1      34.185  21.662  25.911  1.00  0.00     0.200 C 
ATOM      9  C   UNL A   1      34.114  22.572  27.135  1.00  0.00     0.044 C 
BRANCH   8  10
ATOM     10  N   UNL A   1      33.397  22.152  24.777  1.00  0.00    -0.267 N 
ATOM     11  C   UNL A   1      32.513  21.442  24.019  1.00  0.00     0.232 C 
ATOM     12  C   UNL A   1      33.502  23.445  24.350  1.00  0.00     0.253 C 
ATOM     13  O   UNL A   1      32.369  20.229  23.999  1.00  0.00    -0.274 OA
ATOM     14  C   UNL A   1      31.745  22.371  23.122  1.00  0.00     0.136 C 
ATOM     15  C   UNL A   1      32.510  23.678  23.230  1.00  0.00     0.191 C 
ATOM     16  O   UNL A   1      34.253  24.303  24.795  1.00  0.00    -0.272 OA
BRANCH  15  17
ATOM     17  N   UNL A   1      31.739  24.873  23.585  1.00  0.00    -0.280 N 
ATOM     18  C   UNL A   1      31.722  25.938  22.699  1.00  0.00     0.266 C 
ATOM     19  C   UNL A   1      30.899  24.973  24.675  1.00  0.00     0.149 C 
ATOM     20  O   UNL A   1      32.371  26.010  21.664  1.00  0.00    -0.268 OA
ATOM     21  C   UNL A   1      30.775  26.980  23.150  1.00  0.00     0.081 C 
ATOM     22  S   UNL A   1      30.046  26.511  24.630  1.00  0.00    -0.054 SA
ATOM     23  S   UNL A   1      30.688  23.881  25.916  1.00  0.00    -0.052 S 
ATOM     24  C   UNL A   1      30.569  28.086  22.424  1.00  0.00     0.029 C 
BRANCH  24  25
ATOM     25  C   UNL A   1      29.699  29.201  22.798  1.00  0.00    -0.024 A 
ATOM     26  C   UNL A   1      28.470  29.377  22.154  1.00  0.00     0.008 A 
ATOM     27  C   UNL A   1      30.108  30.125  23.767  1.00  0.00     0.008 A 
ATOM     28  C   UNL A   1      27.648  30.452  22.498  1.00  0.00     0.001 A 
ATOM     29  C   UNL A   1      29.284  31.196  24.112  1.00  0.00     0.001 A 
ATOM     30  C   UNL A   1      28.055  31.358  23.478  1.00  0.00     0.000 A 
ENDBRANCH  24  25
ENDBRANCH  15  17
ENDBRANCH   8  10
ENDBRANCH   6   8
ENDBRANCH   5   6
ENDBRANCH   4   5
ENDBRANCH   3   4
ENDBRANCH   2   3
ENDBRANCH   1   2
BRANCH   1  31
ATOM     31  C   UNL A   1      42.095  21.183  26.195  1.00  0.00     0.188 C 
BRANCH  31  32
ATOM     32  O   UNL A   1      42.824  21.940  25.233  1.00  0.00    -0.376 OA
BRANCH  32  33
ATOM     33  C   UNL A   1      43.590  23.005  25.778  1.00  0.00     0.202 C 
BRANCH  33  34
ATOM     34  C   UNL A   1      43.400  24.271  24.941  1.00  0.00     0.261 C 
BRANCH  34  35
ATOM     35  O   UNL A   1      43.294  25.477  25.720  1.00  0.00    -0.460 OA
BRANCH  35  36
ATOM     36  C   UNL A   1      42.070  26.034  25.815  1.00  0.00     0.338 C 
ATOM     37  O   UNL A   1      41.158  25.949  25.003  1.00  0.00    -0.246 OA
BRANCH  36  38
ATOM     38  C   UNL A   1      41.946  26.666  27.144  1.00  0.00     0.060 A 
ATOM     39  C   UNL A   1      40.966  26.205  28.032  1.00  0.00     0.016 A 
ATOM     40  C   UNL A   1      42.779  27.728  27.503  1.00  0.00     0.016 A 
ATOM     41  C   UNL A   1      40.795  26.834  29.270  1.00  0.00     0.010 A 
ATOM     42  C   UNL A   1      42.599  28.362  28.735  1.00  0.00     0.010 A 
ATOM     43  C   UNL A   1      41.586  27.940  29.613  1.00  0.00    -0.014 A 
BRANCH  43  44
ATOM     44  C   UNL A   1      41.261  28.768  30.803  1.00  0.00     0.031 A 
ATOM     45  C   UNL A   1      40.129  29.756  30.706  1.00  0.00     0.074 A 
ATOM     46  C   UNL A   1      41.964  28.670  31.946  1.00  0.00     0.049 A 
ATOM     47  N   UNL A   1      39.728  30.651  31.572  1.00  0.00    -0.248 NA
ATOM     48  C   UNL A   1      39.350  29.733  29.458  1.00  0.00     0.031 C 
ATOM     49  C   UNL A   1      43.061  27.738  32.188  1.00  0.00     0.029 A 
ATOM     50  N   UNL A   1      41.863  29.386  33.114  1.00  0.00    -0.354 N 
ATOM     51  C   UNL A   1      38.654  31.300  30.974  1.00  0.00     0.074 A 
ATOM     52  C   UNL A   1      38.485  30.715  29.661  1.00  0.00     0.031 C 
ATOM     53  C   UNL A   1      43.548  27.952  33.424  1.00  0.00     0.029 A 
ATOM     54  C   UNL A   1      42.817  29.057  34.044  1.00  0.00     0.049 A 
ATOM     55  H   UNL A   1      41.172  30.069  33.269  1.00  0.00     0.167 HD
ATOM     56  C   UNL A   1      37.874  32.287  31.473  1.00  0.00     0.037 A 
ATOM     57  C   UNL A   1      43.090  29.606  35.246  1.00  0.00     0.037 A 
ATOM     58  C   UNL A   1      38.041  32.880  32.774  1.00  0.00     0.049 A 
ATOM     59  C   UNL A   1      42.257  30.758  35.750  1.00  0.00     0.074 A 
ATOM     60  C   UNL A   1      37.293  33.883  33.368  1.00  0.00     0.029 A 
ATOM     61  N   UNL A   1      39.031  32.531  33.678  1.00  0.00    -0.354 N 
ATOM     62  N   UNL A   1      41.232  31.349  35.186  1.00  0.00    -0.248 NA
ATOM     63  C   UNL A   1      42.623  31.318  37.061  1.00  0.00     0.031 C 
ATOM     64  C   UNL A   1      37.858  34.170  34.614  1.00  0.00     0.029 A 
ATOM     65  C   UNL A   1      38.927  33.312  34.817  1.00  0.00     0.049 A 
ATOM     66  H   UNL A   1      39.708  31.830  33.533  1.00  0.00     0.167 HD
ATOM     67  C   UNL A   1      40.814  32.327  36.082  1.00  0.00     0.074 A 
ATOM     68  C   UNL A   1      41.689  32.243  37.232  1.00  0.00     0.031 C 
ATOM     69  C   UNL A   1      39.796  33.214  35.963  1.00  0.00     0.037 A 
BRANCH  56  70
ATOM     70  C   UNL A   1      36.776  32.805  30.592  1.00  0.00     0.057 A 
ATOM     71  C   UNL A   1      37.025  33.726  29.565  1.00  0.00     0.134 A 
ATOM     72  C   UNL A   1      35.458  32.359  30.756  1.00  0.00     0.134 A 
ATOM     73  F   UNL A   1      38.263  34.203  29.366  1.00  0.00    -0.206 F 
ATOM     74  C   UNL A   1      35.999  34.201  28.748  1.00  0.00     0.040 A 
ATOM     75  C   UNL A   1      34.428  32.809  29.929  1.00  0.00     0.040 A 
ATOM     76  F   UNL A   1      35.153  31.475  31.718  1.00  0.00    -0.206 F 
ATOM     77  C   UNL A   1      34.697  33.738  28.926  1.00  0.00     0.006 A 
ENDBRANCH  56  70
BRANCH  57  78
ATOM     78  C   UNL A   1      44.222  29.092  36.059  1.00  0.00     0.057 A 
ATOM     79  C   UNL A   1      44.062  27.997  36.916  1.00  0.00     0.134 A 
ATOM     80  C   UNL A   1      45.478  29.709  36.029  1.00  0.00     0.134 A 
ATOM     81  F   UNL A   1      42.873  27.384  37.014  1.00  0.00    -0.206 F 
ATOM     82  C   UNL A   1      45.106  27.543  37.725  1.00  0.00     0.040 A 
ATOM     83  C   UNL A   1      46.538  29.250  36.812  1.00  0.00     0.040 A 
ATOM     84  F   UNL A   1      45.693  30.768  35.234  1.00  0.00    -0.206 F 
ATOM     85  C   UNL A   1      46.351  28.168  37.670  1.00  0.00     0.006 A 
ENDBRANCH  57  78
BRANCH  69  86
ATOM     86  C   UNL A   1      39.540  34.139  37.117  1.00  0.00     0.057 A 
ATOM     87  C   UNL A   1      39.970  35.471  37.111  1.00  0.00     0.134 A 
ATOM     88  C   UNL A   1      38.812  33.702  38.232  1.00  0.00     0.134 A 
ATOM     89  F   UNL A   1      40.682  35.951  36.080  1.00  0.00    -0.206 F 
ATOM     90  C   UNL A   1      39.703  36.331  38.178  1.00  0.00     0.040 A 
ATOM     91  C   UNL A   1      38.516  34.558  39.294  1.00  0.00     0.040 A 
ATOM     92  F   UNL A   1      38.361  32.439  38.299  1.00  0.00    -0.206 F 
ATOM     93  C   UNL A   1      38.966  35.876  39.271  1.00  0.00     0.006 A 
ENDBRANCH  69  86
ENDBRANCH  43  44
ENDBRANCH  36  38
ENDBRANCH  35  36
ENDBRANCH  34  35
ENDBRANCH  33  34
ENDBRANCH  32  33
ENDBRANCH  31  32
ENDBRANCH   1  31
TORSDOF 20
ENDMDL
