MODEL 1
REMARK VINA RESULT:     -10.9      0.000      0.000
REMARK SMILES CC(=O)Nc1ccc2sc(C(=O)OCCOCCOCCOC(=O)c3ccc(-c4c5nc(c(-c6c(F)cccc6F)c6ccc([nH]6)c(-c6c(F)cccc6F)c6nc(c(-c7c(F)cccc7F)c7ccc4[nH]7)C=C6)C=C5)cc3)cc2c1
REMARK SMILES IDX 18 1 17 2 16 3 15 4 14 5 13 6 11 7 12 8 10 9 5 10 6 11 81 12
REMARK SMILES IDX 7 13 80 14 8 15 79 16 9 17 4 18 1 19 2 20 3 21 19 23 20 24
REMARK SMILES IDX 21 25 22 26 23 27 24 28 25 29 26 30 78 31 27 32 77 33 28 34
REMARK SMILES IDX 29 35 30 36 71 37 31 38 76 39 70 40 72 41 32 42 75 43 69 44
REMARK SMILES IDX 68 45 33 47 59 48 42 49 58 50 43 51 46 52 57 53 73 54 44 55
REMARK SMILES IDX 45 56 56 58 74 59 47 60 34 61 35 62 40 63 36 64 37 65 39 66
REMARK SMILES IDX 41 67 38 68 60 69 61 70 66 71 62 72 63 73 65 74 67 75 64 76
REMARK SMILES IDX 48 77 49 78 54 79 50 80 51 81 53 82 55 83 52 84
REMARK H PARENT 4 22 72 46 46 57
REMARK Flexibility Score: inf
ROOT
ATOM      1  C   UNL A   1      39.953  20.615  25.957  1.00  0.00     0.188 C 
ENDROOT
BRANCH   1   2
ATOM      2  C   UNL A   1      39.032  21.836  25.770  1.00  0.00     0.188 C 
BRANCH   2   3
ATOM      3  O   UNL A   1      37.625  21.693  25.603  1.00  0.00    -0.376 OA
BRANCH   3   4
ATOM      4  C   UNL A   1      37.018  21.920  24.340  1.00  0.00     0.202 C 
BRANCH   4   5
ATOM      5  C   UNL A   1      36.489  23.329  24.059  1.00  0.00     0.261 C 
BRANCH   5   6
ATOM      6  O   UNL A   1      35.488  23.377  23.034  1.00  0.00    -0.459 OA
BRANCH   6   7
ATOM      7  C   UNL A   1      34.210  23.177  23.462  1.00  0.00     0.348 C 
ATOM      8  O   UNL A   1      33.742  22.090  23.784  1.00  0.00    -0.245 OA
BRANCH   7   9
ATOM      9  C   UNL A   1      33.513  24.431  23.647  1.00  0.00     0.113 A 
ATOM     10  C   UNL A   1      31.312  28.564  22.892  1.00  0.00     0.041 A 
ATOM     11  C   UNL A   1      31.750  28.867  24.178  1.00  0.00     0.027 A 
ATOM     12  C   UNL A   1      31.474  27.273  22.388  1.00  0.00     0.035 A 
ATOM     13  C   UNL A   1      32.421  27.912  24.952  1.00  0.00     0.022 A 
ATOM     14  C   UNL A   1      32.242  26.327  23.104  1.00  0.00    -0.005 A 
ATOM     15  C   UNL A   1      32.701  26.657  24.380  1.00  0.00     0.035 A 
ATOM     16  C   UNL A   1      32.714  25.042  22.703  1.00  0.00     0.036 A 
ATOM     17  S   UNL A   1      33.612  25.362  25.070  1.00  0.00    -0.128 S 
BRANCH  10  18
ATOM     18  N   UNL A   1      30.716  29.510  22.049  1.00  0.00    -0.326 N 
ATOM     19  C   UNL A   1      28.379  29.185  22.827  1.00  0.00     0.114 C 
ATOM     20  C   UNL A   1      29.387  29.792  21.884  1.00  0.00     0.221 C 
ATOM     21  O   UNL A   1      29.041  30.602  21.023  1.00  0.00    -0.275 OA
ATOM     22  H   UNL A   1      31.336  30.044  21.502  1.00  0.00     0.169 HD
ENDBRANCH  10  18
ENDBRANCH   7   9
ENDBRANCH   6   7
ENDBRANCH   5   6
ENDBRANCH   4   5
ENDBRANCH   3   4
ENDBRANCH   2   3
ENDBRANCH   1   2
BRANCH   1  23
ATOM     23  O   UNL A   1      41.125  20.883  26.707  1.00  0.00    -0.376 OA
BRANCH  23  24
ATOM     24  C   UNL A   1      42.342  20.389  26.169  1.00  0.00     0.202 C 
BRANCH  24  25
ATOM     25  C   UNL A   1      43.353  21.483  25.810  1.00  0.00     0.261 C 
BRANCH  25  26
ATOM     26  O   UNL A   1      42.802  22.618  25.122  1.00  0.00    -0.460 OA
BRANCH  26  27
ATOM     27  C   UNL A   1      43.568  23.729  25.058  1.00  0.00     0.338 C 
ATOM     28  O   UNL A   1      44.488  23.947  24.292  1.00  0.00    -0.246 OA
BRANCH  27  29
ATOM     29  C   UNL A   1      42.996  24.724  25.989  1.00  0.00     0.060 A 
ATOM     30  C   UNL A   1      43.636  25.959  26.143  1.00  0.00     0.016 A 
ATOM     31  C   UNL A   1      41.833  24.435  26.708  1.00  0.00     0.016 A 
ATOM     32  C   UNL A   1      43.126  26.900  27.041  1.00  0.00     0.010 A 
ATOM     33  C   UNL A   1      41.332  25.371  27.617  1.00  0.00     0.010 A 
ATOM     34  C   UNL A   1      41.990  26.598  27.806  1.00  0.00    -0.014 A 
BRANCH  34  35
ATOM     35  C   UNL A   1      41.578  27.489  28.920  1.00  0.00     0.031 A 
ATOM     36  C   UNL A   1      42.334  27.416  30.219  1.00  0.00     0.074 A 
ATOM     37  C   UNL A   1      40.550  28.346  28.789  1.00  0.00     0.049 A 
ATOM     38  N   UNL A   1      42.130  28.064  31.337  1.00  0.00    -0.248 NA
ATOM     39  C   UNL A   1      43.472  26.484  30.258  1.00  0.00     0.031 C 
ATOM     40  C   UNL A   1      39.751  28.532  27.581  1.00  0.00     0.029 A 
ATOM     41  N   UNL A   1      39.997  29.213  29.699  1.00  0.00    -0.354 N 
ATOM     42  C   UNL A   1      43.113  27.620  32.212  1.00  0.00     0.074 A 
ATOM     43  C   UNL A   1      43.894  26.627  31.505  1.00  0.00     0.031 C 
ATOM     44  C   UNL A   1      38.801  29.453  27.827  1.00  0.00     0.029 A 
ATOM     45  C   UNL A   1      38.909  29.897  29.215  1.00  0.00     0.049 A 
ATOM     46  H   UNL A   1      40.348  29.334  30.611  1.00  0.00     0.167 HD
ATOM     47  C   UNL A   1      43.352  28.009  33.487  1.00  0.00     0.037 A 
ATOM     48  C   UNL A   1      38.084  30.767  29.831  1.00  0.00     0.037 A 
ATOM     49  C   UNL A   1      42.571  28.983  34.200  1.00  0.00     0.049 A 
ATOM     50  C   UNL A   1      38.321  31.125  31.275  1.00  0.00     0.074 A 
ATOM     51  C   UNL A   1      42.746  29.453  35.490  1.00  0.00     0.029 A 
ATOM     52  N   UNL A   1      41.458  29.629  33.686  1.00  0.00    -0.354 N 
ATOM     53  N   UNL A   1      39.273  30.725  32.084  1.00  0.00    -0.248 NA
ATOM     54  C   UNL A   1      37.364  32.056  31.894  1.00  0.00     0.031 C 
ATOM     55  C   UNL A   1      41.712  30.352  35.772  1.00  0.00     0.029 A 
ATOM     56  C   UNL A   1      40.919  30.474  34.642  1.00  0.00     0.049 A 
ATOM     57  H   UNL A   1      41.103  29.505  32.777  1.00  0.00     0.167 HD
ATOM     58  C   UNL A   1      39.047  31.375  33.292  1.00  0.00     0.074 A 
ATOM     59  C   UNL A   1      37.872  32.202  33.110  1.00  0.00     0.031 C 
ATOM     60  C   UNL A   1      39.753  31.297  34.447  1.00  0.00     0.037 A 
BRANCH  47  61
ATOM     61  C   UNL A   1      44.499  27.352  34.197  1.00  0.00     0.057 A 
ATOM     62  C   UNL A   1      44.366  26.099  34.809  1.00  0.00     0.134 A 
ATOM     63  C   UNL A   1      45.751  27.975  34.259  1.00  0.00     0.134 A 
ATOM     64  F   UNL A   1      43.187  25.460  34.799  1.00  0.00    -0.206 F 
ATOM     65  C   UNL A   1      45.432  25.501  35.482  1.00  0.00     0.040 A 
ATOM     66  C   UNL A   1      46.831  27.375  34.908  1.00  0.00     0.040 A 
ATOM     67  F   UNL A   1      45.945  29.174  33.691  1.00  0.00    -0.206 F 
ATOM     68  C   UNL A   1      46.671  26.137  35.527  1.00  0.00     0.006 A 
ENDBRANCH  47  61
BRANCH  48  69
ATOM     69  C   UNL A   1      36.945  31.363  29.091  1.00  0.00     0.057 A 
ATOM     70  C   UNL A   1      36.985  32.690  28.648  1.00  0.00     0.134 A 
ATOM     71  C   UNL A   1      35.782  30.629  28.828  1.00  0.00     0.134 A 
ATOM     72  F   UNL A   1      38.061  33.451  28.894  1.00  0.00    -0.206 F 
ATOM     73  C   UNL A   1      35.905  33.271  27.981  1.00  0.00     0.040 A 
ATOM     74  C   UNL A   1      34.703  31.190  28.142  1.00  0.00     0.040 A 
ATOM     75  F   UNL A   1      35.681  29.354  29.231  1.00  0.00    -0.206 F 
ATOM     76  C   UNL A   1      34.762  32.518  27.722  1.00  0.00     0.006 A 
ENDBRANCH  48  69
BRANCH  60  77
ATOM     77  C   UNL A   1      39.298  32.150  35.594  1.00  0.00     0.057 A 
ATOM     78  C   UNL A   1      39.706  33.483  35.732  1.00  0.00     0.134 A 
ATOM     79  C   UNL A   1      38.405  31.645  36.548  1.00  0.00     0.134 A 
ATOM     80  F   UNL A   1      40.570  34.024  34.860  1.00  0.00    -0.206 F 
ATOM     81  C   UNL A   1      39.255  34.277  36.789  1.00  0.00     0.040 A 
ATOM     82  C   UNL A   1      37.929  32.436  37.594  1.00  0.00     0.040 A 
ATOM     83  F   UNL A   1      37.969  30.379  36.468  1.00  0.00    -0.206 F 
ATOM     84  C   UNL A   1      38.357  33.756  37.719  1.00  0.00     0.006 A 
ENDBRANCH  60  77
ENDBRANCH  34  35
ENDBRANCH  27  29
ENDBRANCH  26  27
ENDBRANCH  25  26
ENDBRANCH  24  25
ENDBRANCH  23  24
ENDBRANCH   1  23
TORSDOF 18
ENDMDL
MODEL 2
REMARK VINA RESULT:     -10.7      4.646      9.210
REMARK SMILES CC(=O)Nc1ccc2sc(C(=O)OCCOCCOCCOC(=O)c3ccc(-c4c5nc(c(-c6c(F)cccc6F)c6ccc([nH]6)c(-c6c(F)cccc6F)c6nc(c(-c7c(F)cccc7F)c7ccc4[nH]7)C=C6)C=C5)cc3)cc2c1
REMARK SMILES IDX 18 1 17 2 16 3 15 4 14 5 13 6 11 7 12 8 10 9 5 10 6 11 81 12
REMARK SMILES IDX 7 13 80 14 8 15 79 16 9 17 4 18 1 19 2 20 3 21 19 23 20 24
REMARK SMILES IDX 21 25 22 26 23 27 24 28 25 29 26 30 78 31 27 32 77 33 28 34
REMARK SMILES IDX 29 35 30 36 71 37 31 38 76 39 70 40 72 41 32 42 75 43 69 44
REMARK SMILES IDX 68 45 33 47 59 48 42 49 58 50 43 51 46 52 57 53 73 54 44 55
REMARK SMILES IDX 45 56 56 58 74 59 47 60 34 61 35 62 40 63 36 64 37 65 39 66
REMARK SMILES IDX 41 67 38 68 60 69 61 70 66 71 62 72 63 73 65 74 67 75 64 76
REMARK SMILES IDX 48 77 49 78 54 79 50 80 51 81 53 82 55 83 52 84
REMARK H PARENT 4 22 72 46 46 57
REMARK Flexibility Score: inf
ROOT
ATOM      1  C   UNL A   1      42.765  19.048  26.249  1.00  0.00     0.188 C 
ENDROOT
BRANCH   1   2
ATOM      2  C   UNL A   1      43.772  18.784  25.112  1.00  0.00     0.188 C 
BRANCH   2   3
ATOM      3  O   UNL A   1      45.012  18.125  25.350  1.00  0.00    -0.376 OA
BRANCH   3   4
ATOM      4  C   UNL A   1      46.194  18.871  25.598  1.00  0.00     0.202 C 
BRANCH   4   5
ATOM      5  C   UNL A   1      46.444  20.099  24.718  1.00  0.00     0.261 C 
BRANCH   5   6
ATOM      6  O   UNL A   1      46.248  21.347  25.398  1.00  0.00    -0.459 OA
BRANCH   6   7
ATOM      7  C   UNL A   1      45.355  22.192  24.812  1.00  0.00     0.348 C 
ATOM      8  O   UNL A   1      44.559  21.872  23.935  1.00  0.00    -0.245 OA
BRANCH   7   9
ATOM      9  C   UNL A   1      45.345  23.484  25.464  1.00  0.00     0.113 A 
ATOM     10  C   UNL A   1      45.879  28.098  26.421  1.00  0.00     0.041 A 
ATOM     11  C   UNL A   1      45.913  27.671  27.745  1.00  0.00     0.027 A 
ATOM     12  C   UNL A   1      45.560  27.194  25.407  1.00  0.00     0.035 A 
ATOM     13  C   UNL A   1      45.703  26.326  28.072  1.00  0.00     0.022 A 
ATOM     14  C   UNL A   1      45.454  25.815  25.698  1.00  0.00    -0.005 A 
ATOM     15  C   UNL A   1      45.520  25.400  27.029  1.00  0.00     0.035 A 
ATOM     16  C   UNL A   1      45.347  24.700  24.815  1.00  0.00     0.036 A 
ATOM     17  S   UNL A   1      45.366  23.684  27.156  1.00  0.00    -0.128 S 
BRANCH  10  18
ATOM     18  N   UNL A   1      46.169  29.413  26.038  1.00  0.00    -0.326 N 
ATOM     19  C   UNL A   1      44.221  30.490  27.141  1.00  0.00     0.114 C 
ATOM     20  C   UNL A   1      45.427  30.546  26.238  1.00  0.00     0.221 C 
ATOM     21  O   UNL A   1      45.802  31.611  25.746  1.00  0.00    -0.275 OA
ATOM     22  H   UNL A   1      47.021  29.540  25.561  1.00  0.00     0.169 HD
ENDBRANCH  10  18
ENDBRANCH   7   9
ENDBRANCH   6   7
ENDBRANCH   5   6
ENDBRANCH   4   5
ENDBRANCH   3   4
ENDBRANCH   2   3
ENDBRANCH   1   2
BRANCH   1  23
ATOM     23  O   UNL A   1      41.887  20.134  26.005  1.00  0.00    -0.376 OA
BRANCH  23  24
ATOM     24  C   UNL A   1      42.159  21.334  26.713  1.00  0.00     0.202 C 
BRANCH  24  25
ATOM     25  C   UNL A   1      41.813  22.607  25.934  1.00  0.00     0.261 C 
BRANCH  25  26
ATOM     26  O   UNL A   1      41.500  23.751  26.747  1.00  0.00    -0.460 OA
BRANCH  26  27
ATOM     27  C   UNL A   1      41.750  24.968  26.217  1.00  0.00     0.338 C 
ATOM     28  O   UNL A   1      42.087  25.220  25.075  1.00  0.00    -0.246 OA
BRANCH  27  29
ATOM     29  C   UNL A   1      41.392  25.982  27.230  1.00  0.00     0.060 A 
ATOM     30  C   UNL A   1      42.138  27.164  27.304  1.00  0.00     0.016 A 
ATOM     31  C   UNL A   1      40.325  25.762  28.105  1.00  0.00     0.016 A 
ATOM     32  C   UNL A   1      41.832  28.120  28.276  1.00  0.00     0.010 A 
ATOM     33  C   UNL A   1      40.028  26.714  29.086  1.00  0.00     0.010 A 
ATOM     34  C   UNL A   1      40.796  27.886  29.192  1.00  0.00    -0.014 A 
BRANCH  34  35
ATOM     35  C   UNL A   1      40.614  28.780  30.362  1.00  0.00     0.031 A 
ATOM     36  C   UNL A   1      39.550  29.842  30.300  1.00  0.00     0.074 A 
ATOM     37  C   UNL A   1      41.379  28.661  31.462  1.00  0.00     0.049 A 
ATOM     38  N   UNL A   1      39.238  30.759  31.180  1.00  0.00    -0.248 NA
ATOM     39  C   UNL A   1      38.730  29.871  29.079  1.00  0.00     0.031 C 
ATOM     40  C   UNL A   1      42.427  27.663  31.660  1.00  0.00     0.029 A 
ATOM     41  N   UNL A   1      41.395  29.404  32.617  1.00  0.00    -0.354 N 
ATOM     42  C   UNL A   1      38.186  31.473  30.620  1.00  0.00     0.074 A 
ATOM     43  C   UNL A   1      37.934  30.902  29.314  1.00  0.00     0.031 C 
ATOM     44  C   UNL A   1      42.992  27.861  32.865  1.00  0.00     0.029 A 
ATOM     45  C   UNL A   1      42.365  29.015  33.507  1.00  0.00     0.049 A 
ATOM     46  H   UNL A   1      40.769  30.144  32.790  1.00  0.00     0.167 HD
ATOM     47  C   UNL A   1      37.487  32.506  31.147  1.00  0.00     0.037 A 
ATOM     48  C   UNL A   1      42.717  29.544  34.696  1.00  0.00     0.037 A 
ATOM     49  C   UNL A   1      37.743  33.088  32.437  1.00  0.00     0.049 A 
ATOM     50  C   UNL A   1      41.977  30.744  35.228  1.00  0.00     0.074 A 
ATOM     51  C   UNL A   1      37.077  34.127  33.062  1.00  0.00     0.029 A 
ATOM     52  N   UNL A   1      38.755  32.687  33.294  1.00  0.00    -0.354 N 
ATOM     53  N   UNL A   1      40.962  31.390  34.706  1.00  0.00    -0.248 NA
ATOM     54  C   UNL A   1      42.434  31.289  36.516  1.00  0.00     0.031 C 
ATOM     55  C   UNL A   1      37.714  34.384  34.281  1.00  0.00     0.029 A 
ATOM     56  C   UNL A   1      38.749  33.475  34.433  1.00  0.00     0.049 A 
ATOM     57  H   UNL A   1      39.385  31.951  33.120  1.00  0.00     0.167 HD
ATOM     58  C   UNL A   1      40.643  32.396  35.611  1.00  0.00     0.074 A 
ATOM     59  C   UNL A   1      41.567  32.271  36.719  1.00  0.00     0.031 C 
ATOM     60  C   UNL A   1      39.670  33.336  35.533  1.00  0.00     0.037 A 
BRANCH  47  61
ATOM     61  C   UNL A   1      36.388  33.085  30.306  1.00  0.00     0.057 A 
ATOM     62  C   UNL A   1      35.041  32.784  30.546  1.00  0.00     0.134 A 
ATOM     63  C   UNL A   1      36.680  33.960  29.253  1.00  0.00     0.134 A 
ATOM     64  F   UNL A   1      34.697  31.939  31.529  1.00  0.00    -0.206 F 
ATOM     65  C   UNL A   1      34.024  33.313  29.750  1.00  0.00     0.040 A 
ATOM     66  C   UNL A   1      35.670  34.514  28.466  1.00  0.00     0.040 A 
ATOM     67  F   UNL A   1      37.949  34.290  28.973  1.00  0.00    -0.206 F 
ATOM     68  C   UNL A   1      34.337  34.186  28.710  1.00  0.00     0.006 A 
ENDBRANCH  47  61
BRANCH  48  69
ATOM     69  C   UNL A   1      43.834  28.950  35.472  1.00  0.00     0.057 A 
ATOM     70  C   UNL A   1      43.596  27.982  36.455  1.00  0.00     0.134 A 
ATOM     71  C   UNL A   1      45.159  29.352  35.267  1.00  0.00     0.134 A 
ATOM     72  F   UNL A   1      42.345  27.578  36.715  1.00  0.00    -0.206 F 
ATOM     73  C   UNL A   1      44.636  27.443  37.215  1.00  0.00     0.040 A 
ATOM     74  C   UNL A   1      46.211  28.805  36.005  1.00  0.00     0.040 A 
ATOM     75  F   UNL A   1      45.450  30.279  34.344  1.00  0.00    -0.206 F 
ATOM     76  C   UNL A   1      45.948  27.851  36.986  1.00  0.00     0.006 A 
ENDBRANCH  48  69
BRANCH  60  77
ATOM     77  C   UNL A   1      39.527  34.282  36.688  1.00  0.00     0.057 A 
ATOM     78  C   UNL A   1      38.839  33.926  37.855  1.00  0.00     0.134 A 
ATOM     79  C   UNL A   1      40.125  35.549  36.651  1.00  0.00     0.134 A 
ATOM     80  F   UNL A   1      38.233  32.734  37.951  1.00  0.00    -0.206 F 
ATOM     81  C   UNL A   1      38.736  34.804  38.937  1.00  0.00     0.040 A 
ATOM     82  C   UNL A   1      40.049  36.425  37.733  1.00  0.00     0.040 A 
ATOM     83  F   UNL A   1      40.807  35.947  35.566  1.00  0.00    -0.206 F 
ATOM     84  C   UNL A   1      39.349  36.055  38.880  1.00  0.00     0.006 A 
ENDBRANCH  60  77
ENDBRANCH  34  35
ENDBRANCH  27  29
ENDBRANCH  26  27
ENDBRANCH  25  26
ENDBRANCH  24  25
ENDBRANCH  23  24
ENDBRANCH   1  23
TORSDOF 18
ENDMDL
MODEL 3
REMARK VINA RESULT:     -10.7      3.197      8.558
REMARK SMILES CC(=O)Nc1ccc2sc(C(=O)OCCOCCOCCOC(=O)c3ccc(-c4c5nc(c(-c6c(F)cccc6F)c6ccc([nH]6)c(-c6c(F)cccc6F)c6nc(c(-c7c(F)cccc7F)c7ccc4[nH]7)C=C6)C=C5)cc3)cc2c1
REMARK SMILES IDX 18 1 17 2 16 3 15 4 14 5 13 6 11 7 12 8 10 9 5 10 6 11 81 12
REMARK SMILES IDX 7 13 80 14 8 15 79 16 9 17 4 18 1 19 2 20 3 21 19 23 20 24
REMARK SMILES IDX 21 25 22 26 23 27 24 28 25 29 26 30 78 31 27 32 77 33 28 34
REMARK SMILES IDX 29 35 30 36 71 37 31 38 76 39 70 40 72 41 32 42 75 43 69 44
REMARK SMILES IDX 68 45 33 47 59 48 42 49 58 50 43 51 46 52 57 53 73 54 44 55
REMARK SMILES IDX 45 56 56 58 74 59 47 60 34 61 35 62 40 63 36 64 37 65 39 66
REMARK SMILES IDX 41 67 38 68 60 69 61 70 66 71 62 72 63 73 65 74 67 75 64 76
REMARK SMILES IDX 48 77 49 78 54 79 50 80 51 81 53 82 55 83 52 84
REMARK H PARENT 4 22 72 46 46 57
REMARK Flexibility Score: inf
ROOT
ATOM      1  C   UNL A   1      32.678  29.731  25.254  1.00  0.00     0.188 C 
ENDROOT
BRANCH   1   2
ATOM      2  C   UNL A   1      31.419  29.044  24.688  1.00  0.00     0.188 C 
BRANCH   2   3
ATOM      3  O   UNL A   1      31.057  27.719  25.065  1.00  0.00    -0.376 OA
BRANCH   3   4
ATOM      4  C   UNL A   1      30.556  26.803  24.103  1.00  0.00     0.202 C 
BRANCH   4   5
ATOM      5  C   UNL A   1      31.099  26.919  22.676  1.00  0.00     0.261 C 
BRANCH   5   6
ATOM      6  O   UNL A   1      31.359  25.653  22.053  1.00  0.00    -0.459 OA
BRANCH   6   7
ATOM      7  C   UNL A   1      32.676  25.358  21.868  1.00  0.00     0.348 C 
ATOM      8  O   UNL A   1      33.438  25.982  21.137  1.00  0.00    -0.245 OA
BRANCH   7   9
ATOM      9  C   UNL A   1      33.113  24.311  22.767  1.00  0.00     0.113 A 
ATOM     10  C   UNL A   1      33.300  20.397  25.438  1.00  0.00     0.041 A 
ATOM     11  C   UNL A   1      34.225  21.124  26.182  1.00  0.00     0.027 A 
ATOM     12  C   UNL A   1      32.828  20.905  24.227  1.00  0.00     0.035 A 
ATOM     13  C   UNL A   1      34.638  22.396  25.769  1.00  0.00     0.022 A 
ATOM     14  C   UNL A   1      33.144  22.229  23.846  1.00  0.00    -0.005 A 
ATOM     15  C   UNL A   1      34.051  22.955  24.619  1.00  0.00     0.035 A 
ATOM     16  C   UNL A   1      32.621  23.023  22.782  1.00  0.00     0.036 A 
ATOM     17  S   UNL A   1      34.293  24.539  23.974  1.00  0.00    -0.128 S 
BRANCH  10  18
ATOM     18  N   UNL A   1      32.791  19.161  25.855  1.00  0.00    -0.326 N 
ATOM     19  C   UNL A   1      34.180  17.739  24.366  1.00  0.00     0.114 C 
ATOM     20  C   UNL A   1      33.061  17.914  25.362  1.00  0.00     0.221 C 
ATOM     21  O   UNL A   1      32.444  16.941  25.799  1.00  0.00    -0.275 OA
ATOM     22  H   UNL A   1      32.153  19.194  26.604  1.00  0.00     0.169 HD
ENDBRANCH  10  18
ENDBRANCH   7   9
ENDBRANCH   6   7
ENDBRANCH   5   6
ENDBRANCH   4   5
ENDBRANCH   3   4
ENDBRANCH   2   3
ENDBRANCH   1   2
BRANCH   1  23
ATOM     23  O   UNL A   1      32.431  30.553  26.382  1.00  0.00    -0.376 OA
BRANCH  23  24
ATOM     24  C   UNL A   1      31.378  31.496  26.254  1.00  0.00     0.202 C 
BRANCH  24  25
ATOM     25  C   UNL A   1      31.782  32.931  26.608  1.00  0.00     0.261 C 
BRANCH  25  26
ATOM     26  O   UNL A   1      32.331  33.101  27.926  1.00  0.00    -0.460 OA
BRANCH  26  27
ATOM     27  C   UNL A   1      33.358  33.970  28.056  1.00  0.00     0.338 C 
ATOM     28  O   UNL A   1      33.312  35.183  27.978  1.00  0.00    -0.246 OA
BRANCH  27  29
ATOM     29  C   UNL A   1      34.548  33.199  28.470  1.00  0.00     0.060 A 
ATOM     30  C   UNL A   1      34.404  31.844  28.793  1.00  0.00     0.016 A 
ATOM     31  C   UNL A   1      35.801  33.814  28.541  1.00  0.00     0.016 A 
ATOM     32  C   UNL A   1      35.514  31.108  29.214  1.00  0.00     0.010 A 
ATOM     33  C   UNL A   1      36.908  33.079  28.976  1.00  0.00     0.010 A 
ATOM     34  C   UNL A   1      36.765  31.729  29.339  1.00  0.00    -0.014 A 
BRANCH  34  35
ATOM     35  C   UNL A   1      37.890  31.022  30.000  1.00  0.00     0.031 A 
ATOM     36  C   UNL A   1      38.178  31.319  31.447  1.00  0.00     0.074 A 
ATOM     37  C   UNL A   1      38.651  30.136  29.334  1.00  0.00     0.049 A 
ATOM     38  N   UNL A   1      39.128  30.856  32.218  1.00  0.00    -0.248 NA
ATOM     39  C   UNL A   1      37.268  32.267  32.110  1.00  0.00     0.031 C 
ATOM     40  C   UNL A   1      38.467  29.742  27.939  1.00  0.00     0.029 A 
ATOM     41  N   UNL A   1      39.745  29.417  29.748  1.00  0.00    -0.354 N 
ATOM     42  C   UNL A   1      38.931  31.455  33.456  1.00  0.00     0.074 A 
ATOM     43  C   UNL A   1      37.790  32.335  33.325  1.00  0.00     0.031 C 
ATOM     44  C   UNL A   1      39.423  28.856  27.609  1.00  0.00     0.029 A 
ATOM     45  C   UNL A   1      40.301  28.643  28.759  1.00  0.00     0.049 A 
ATOM     46  H   UNL A   1      40.096  29.452  30.667  1.00  0.00     0.167 HD
ATOM     47  C   UNL A   1      39.631  31.281  34.602  1.00  0.00     0.037 A 
ATOM     48  C   UNL A   1      41.404  27.869  28.777  1.00  0.00     0.037 A 
ATOM     49  C   UNL A   1      40.775  30.420  34.735  1.00  0.00     0.049 A 
ATOM     50  C   UNL A   1      42.214  27.753  30.042  1.00  0.00     0.074 A 
ATOM     51  C   UNL A   1      41.540  30.169  35.861  1.00  0.00     0.029 A 
ATOM     52  N   UNL A   1      41.326  29.679  33.702  1.00  0.00    -0.354 N 
ATOM     53  N   UNL A   1      42.000  28.297  31.216  1.00  0.00    -0.248 NA
ATOM     54  C   UNL A   1      43.423  26.916  29.982  1.00  0.00     0.031 C 
ATOM     55  C   UNL A   1      42.581  29.308  35.498  1.00  0.00     0.029 A 
ATOM     56  C   UNL A   1      42.438  28.989  34.156  1.00  0.00     0.049 A 
ATOM     57  H   UNL A   1      40.979  29.648  32.782  1.00  0.00     0.167 HD
ATOM     58  C   UNL A   1      43.027  27.847  32.038  1.00  0.00     0.074 A 
ATOM     59  C   UNL A   1      43.860  26.979  31.232  1.00  0.00     0.031 C 
ATOM     60  C   UNL A   1      43.256  28.124  33.346  1.00  0.00     0.037 A 
BRANCH  47  61
ATOM     61  C   UNL A   1      39.183  32.066  35.800  1.00  0.00     0.057 A 
ATOM     62  C   UNL A   1      38.303  31.524  36.747  1.00  0.00     0.134 A 
ATOM     63  C   UNL A   1      39.643  33.370  36.013  1.00  0.00     0.134 A 
ATOM     64  F   UNL A   1      37.814  30.286  36.591  1.00  0.00    -0.206 F 
ATOM     65  C   UNL A   1      37.878  32.265  37.851  1.00  0.00     0.040 A 
ATOM     66  C   UNL A   1      39.242  34.111  37.125  1.00  0.00     0.040 A 
ATOM     67  F   UNL A   1      40.488  33.945  35.144  1.00  0.00    -0.206 F 
ATOM     68  C   UNL A   1      38.352  33.561  38.046  1.00  0.00     0.006 A 
ENDBRANCH  47  61
BRANCH  48  69
ATOM     69  C   UNL A   1      41.820  27.140  27.554  1.00  0.00     0.057 A 
ATOM     70  C   UNL A   1      42.579  27.769  26.560  1.00  0.00     0.134 A 
ATOM     71  C   UNL A   1      41.450  25.807  27.338  1.00  0.00     0.134 A 
ATOM     72  F   UNL A   1      42.940  29.052  26.698  1.00  0.00    -0.206 F 
ATOM     73  C   UNL A   1      42.946  27.102  25.390  1.00  0.00     0.040 A 
ATOM     74  C   UNL A   1      41.828  25.121  26.182  1.00  0.00     0.040 A 
ATOM     75  F   UNL A   1      40.718  25.152  28.250  1.00  0.00    -0.206 F 
ATOM     76  C   UNL A   1      42.574  25.772  25.201  1.00  0.00     0.006 A 
ENDBRANCH  48  69
BRANCH  60  77
ATOM     77  C   UNL A   1      44.432  27.459  33.998  1.00  0.00     0.057 A 
ATOM     78  C   UNL A   1      44.334  26.189  34.581  1.00  0.00     0.134 A 
ATOM     79  C   UNL A   1      45.689  28.078  34.003  1.00  0.00     0.134 A 
ATOM     80  F   UNL A   1      43.157  25.548  34.622  1.00  0.00    -0.206 F 
ATOM     81  C   UNL A   1      45.442  25.566  35.161  1.00  0.00     0.040 A 
ATOM     82  C   UNL A   1      46.807  27.456  34.558  1.00  0.00     0.040 A 
ATOM     83  F   UNL A   1      45.851  29.290  33.452  1.00  0.00    -0.206 F 
ATOM     84  C   UNL A   1      46.685  26.197  35.144  1.00  0.00     0.006 A 
ENDBRANCH  60  77
ENDBRANCH  34  35
ENDBRANCH  27  29
ENDBRANCH  26  27
ENDBRANCH  25  26
ENDBRANCH  24  25
ENDBRANCH  23  24
ENDBRANCH   1  23
TORSDOF 18
ENDMDL
