MODEL 1
REMARK VINA RESULT:      -9.0      0.000      0.000
REMARK SMILES O=C(CCCN1C(=O)C(=O)/C(=C(\[O-])c2ccccc2)[C@H]1c1ccc([N+](=O)[O-])cc1)OCCOCCOCCOC(=O)c1ccc(-c2c3nc(c(-c4c(F)cccc4F)c4ccc([nH]4)c(-c4c(F)cccc4F)c4nc(c(-c5c(F)cccc5F)c5ccc2[nH]5)C=C4)C=C3)cc1
REMARK SMILES IDX 33 1 32 2 31 3 30 4 2 5 1 6 3 7 4 8 5 9 6 10 7 11 20 12 8 13
REMARK SMILES IDX 9 14 11 15 10 16 12 17 13 18 21 19 22 20 29 21 23 22 28 23
REMARK SMILES IDX 24 24 25 25 26 26 27 27 14 28 15 29 19 30 16 31 18 32 17 33
REMARK SMILES IDX 34 34 35 35 36 36 37 37 38 38 39 39 40 40 41 41 42 42 43 43
REMARK SMILES IDX 95 44 44 45 94 46 45 47 46 48 47 49 88 50 48 51 93 52 87 53
REMARK SMILES IDX 89 54 49 55 92 56 86 57 85 58 50 60 76 61 59 62 75 63 60 64
REMARK SMILES IDX 63 65 74 66 90 67 61 68 62 69 73 71 91 72 64 73 51 74 52 75
REMARK SMILES IDX 57 76 53 77 54 78 56 79 58 80 55 81 77 82 78 83 83 84 79 85
REMARK SMILES IDX 80 86 82 87 84 88 81 89 65 90 66 91 71 92 67 93 68 94 70 95
REMARK SMILES IDX 72 96 69 97
REMARK H PARENT 89 59 63 70
REMARK Flexibility Score: inf
ROOT
ATOM      1  O   UNL A   1      39.674  24.282  27.998  1.00  0.00    -0.376 OA
ENDROOT
BRANCH   1   2
ATOM      2  C   UNL A   1      40.236  23.293  27.156  1.00  0.00     0.202 C 
BRANCH   2   3
ATOM      3  C   UNL A   1      39.291  22.296  26.474  1.00  0.00     0.261 C 
BRANCH   3   4
ATOM      4  O   UNL A   1      38.186  22.896  25.775  1.00  0.00    -0.463 OA
BRANCH   4   5
ATOM      5  C   UNL A   1      37.328  22.063  25.145  1.00  0.00     0.305 C 
ATOM      6  O   UNL A   1      37.396  20.846  25.252  1.00  0.00    -0.252 OA
BRANCH   5   7
ATOM      7  C   UNL A   1      36.287  22.792  24.315  1.00  0.00     0.124 C 
BRANCH   7   8
ATOM      8  C   UNL A   1      34.848  22.822  24.854  1.00  0.00     0.033 C 
BRANCH   8   9
ATOM      9  C   UNL A   1      34.435  23.722  26.049  1.00  0.00     0.121 C 
BRANCH   9  10
ATOM     10  N   UNL A   1      33.040  24.145  26.196  1.00  0.00    -0.325 N 
ATOM     11  C   UNL A   1      32.084  23.436  26.891  1.00  0.00     0.295 C 
ATOM     12  C   UNL A   1      32.520  25.408  25.645  1.00  0.00     0.150 C 
ATOM     13  O   UNL A   1      32.201  22.421  27.545  1.00  0.00    -0.265 OA
ATOM     14  C   UNL A   1      30.746  24.116  26.603  1.00  0.00     0.248 C 
ATOM     15  C   UNL A   1      31.018  25.277  25.729  1.00  0.00     0.025 C 
ATOM     16  O   UNL A   1      29.647  23.750  26.970  1.00  0.00    -0.283 OA
ATOM     17  C   UNL A   1      30.014  25.980  25.167  1.00  0.00    -0.092 C 
ATOM     18  O   UNL A   1      28.680  25.664  25.378  1.00  0.00    -0.872 OA
BRANCH  12  19
ATOM     19  C   UNL A   1      33.098  26.702  26.222  1.00  0.00    -0.020 A 
ATOM     20  C   UNL A   1      32.567  27.324  27.371  1.00  0.00     0.013 A 
ATOM     21  C   UNL A   1      34.061  27.413  25.479  1.00  0.00     0.013 A 
ATOM     22  C   UNL A   1      32.888  28.648  27.692  1.00  0.00     0.086 A 
ATOM     23  C   UNL A   1      34.416  28.724  25.813  1.00  0.00     0.086 A 
ATOM     24  C   UNL A   1      33.795  29.351  26.897  1.00  0.00     0.269 A 
BRANCH  24  25
ATOM     25  N   UNL A   1      34.054  30.771  27.163  1.00  0.00     0.062 N 
ATOM     26  O   UNL A   1      33.077  31.526  27.266  1.00  0.00    -0.258 OA
ATOM     27  O   UNL A   1      35.237  31.132  27.251  1.00  0.00    -0.258 OA
ENDBRANCH  24  25
ENDBRANCH  12  19
BRANCH  17  28
ATOM     28  C   UNL A   1      30.173  27.189  24.326  1.00  0.00    -0.033 A 
ATOM     29  C   UNL A   1      30.140  27.047  22.928  1.00  0.00     0.007 A 
ATOM     30  C   UNL A   1      30.417  28.465  24.848  1.00  0.00     0.007 A 
ATOM     31  C   UNL A   1      30.355  28.139  22.083  1.00  0.00     0.001 A 
ATOM     32  C   UNL A   1      30.654  29.556  24.005  1.00  0.00     0.001 A 
ATOM     33  C   UNL A   1      30.623  29.394  22.623  1.00  0.00     0.000 A 
ENDBRANCH  17  28
ENDBRANCH   9  10
ENDBRANCH   8   9
ENDBRANCH   7   8
ENDBRANCH   5   7
ENDBRANCH   4   5
ENDBRANCH   3   4
ENDBRANCH   2   3
ENDBRANCH   1   2
BRANCH   1  34
ATOM     34  C   UNL A   1      39.275  25.508  27.405  1.00  0.00     0.188 C 
BRANCH  34  35
ATOM     35  C   UNL A   1      40.317  26.636  27.327  1.00  0.00     0.188 C 
BRANCH  35  36
ATOM     36  O   UNL A   1      40.844  26.955  26.050  1.00  0.00    -0.376 OA
BRANCH  36  37
ATOM     37  C   UNL A   1      41.773  26.086  25.408  1.00  0.00     0.202 C 
BRANCH  37  38
ATOM     38  C   UNL A   1      43.290  26.320  25.425  1.00  0.00     0.261 C 
BRANCH  38  39
ATOM     39  O   UNL A   1      43.952  25.760  26.572  1.00  0.00    -0.460 OA
BRANCH  39  40
ATOM     40  C   UNL A   1      44.734  26.641  27.247  1.00  0.00     0.338 C 
ATOM     41  O   UNL A   1      45.916  26.881  27.060  1.00  0.00    -0.246 OA
BRANCH  40  42
ATOM     42  C   UNL A   1      43.930  27.427  28.190  1.00  0.00     0.060 A 
ATOM     43  C   UNL A   1      44.054  28.821  28.171  1.00  0.00     0.016 A 
ATOM     44  C   UNL A   1      43.208  26.786  29.196  1.00  0.00     0.016 A 
ATOM     45  C   UNL A   1      43.455  29.585  29.168  1.00  0.00     0.010 A 
ATOM     46  C   UNL A   1      42.627  27.551  30.209  1.00  0.00     0.010 A 
ATOM     47  C   UNL A   1      42.772  28.950  30.212  1.00  0.00    -0.014 A 
BRANCH  47  48
ATOM     48  C   UNL A   1      42.335  29.745  31.378  1.00  0.00     0.031 A 
ATOM     49  C   UNL A   1      41.032  30.490  31.301  1.00  0.00     0.074 A 
ATOM     50  C   UNL A   1      43.084  29.778  32.492  1.00  0.00     0.049 A 
ATOM     51  N   UNL A   1      40.473  31.275  32.185  1.00  0.00    -0.248 NA
ATOM     52  C   UNL A   1      40.251  30.323  30.064  1.00  0.00     0.031 C 
ATOM     53  C   UNL A   1      44.339  29.054  32.686  1.00  0.00     0.029 A 
ATOM     54  N   UNL A   1      42.901  30.460  33.668  1.00  0.00    -0.354 N 
ATOM     55  C   UNL A   1      39.279  31.695  31.614  1.00  0.00     0.074 A 
ATOM     56  C   UNL A   1      39.200  31.094  30.300  1.00  0.00     0.031 C 
ATOM     57  C   UNL A   1      44.829  29.352  33.901  1.00  0.00     0.029 A 
ATOM     58  C   UNL A   1      43.938  30.309  34.554  1.00  0.00     0.049 A 
ATOM     59  H   UNL A   1      42.104  31.005  33.858  1.00  0.00     0.167 HD
ATOM     60  C   UNL A   1      38.336  32.510  32.142  1.00  0.00     0.037 A 
ATOM     61  C   UNL A   1      44.152  30.905  35.743  1.00  0.00     0.037 A 
ATOM     62  C   UNL A   1      38.434  33.113  33.444  1.00  0.00     0.049 A 
ATOM     63  C   UNL A   1      43.127  31.875  36.267  1.00  0.00     0.074 A 
ATOM     64  C   UNL A   1      37.527  33.940  34.082  1.00  0.00     0.029 A 
ATOM     65  N   UNL A   1      39.516  32.966  34.300  1.00  0.00    -0.354 N 
ATOM     66  N   UNL A   1      41.983  32.237  35.739  1.00  0.00    -0.248 NA
ATOM     67  C   UNL A   1      43.424  32.523  37.553  1.00  0.00     0.031 C 
ATOM     68  C   UNL A   1      38.083  34.338  35.302  1.00  0.00     0.029 A 
ATOM     69  C   UNL A   1      39.314  33.716  35.447  1.00  0.00     0.049 A 
ATOM     70  H   UNL A   1      40.308  32.412  34.119  1.00  0.00     0.167 HD
ATOM     71  C   UNL A   1      41.415  33.134  36.635  1.00  0.00     0.074 A 
ATOM     72  C   UNL A   1      42.331  33.245  37.751  1.00  0.00     0.031 C 
ATOM     73  C   UNL A   1      40.241  33.808  36.545  1.00  0.00     0.037 A 
BRANCH  60  74
ATOM     74  C   UNL A   1      37.133  32.822  31.303  1.00  0.00     0.057 A 
ATOM     75  C   UNL A   1      37.162  33.801  30.302  1.00  0.00     0.134 A 
ATOM     76  C   UNL A   1      35.945  32.097  31.466  1.00  0.00     0.134 A 
ATOM     77  F   UNL A   1      38.263  34.539  30.105  1.00  0.00    -0.206 F 
ATOM     78  C   UNL A   1      36.048  34.054  29.498  1.00  0.00     0.040 A 
ATOM     79  C   UNL A   1      34.834  32.326  30.653  1.00  0.00     0.040 A 
ATOM     80  F   UNL A   1      35.851  31.145  32.406  1.00  0.00    -0.206 F 
ATOM     81  C   UNL A   1      34.882  33.309  29.668  1.00  0.00     0.006 A 
ENDBRANCH  60  74
BRANCH  61  82
ATOM     82  C   UNL A   1      45.401  30.638  36.501  1.00  0.00     0.057 A 
ATOM     83  C   UNL A   1      45.503  29.558  37.385  1.00  0.00     0.134 A 
ATOM     84  C   UNL A   1      46.511  31.486  36.393  1.00  0.00     0.134 A 
ATOM     85  F   UNL A   1      44.465  28.723  37.552  1.00  0.00    -0.206 F 
ATOM     86  C   UNL A   1      46.650  29.344  38.150  1.00  0.00     0.040 A 
ATOM     87  C   UNL A   1      47.675  31.269  37.131  1.00  0.00     0.040 A 
ATOM     88  F   UNL A   1      46.479  32.542  35.567  1.00  0.00    -0.206 F 
ATOM     89  C   UNL A   1      47.743  30.200  38.023  1.00  0.00     0.006 A 
ENDBRANCH  61  82
BRANCH  73  90
ATOM     90  C   UNL A   1      39.877  34.705  37.691  1.00  0.00     0.057 A 
ATOM     91  C   UNL A   1      40.109  36.085  37.649  1.00  0.00     0.134 A 
ATOM     92  C   UNL A   1      39.250  34.187  38.831  1.00  0.00     0.134 A 
ATOM     93  F   UNL A   1      40.718  36.641  36.590  1.00  0.00    -0.206 F 
ATOM     94  C   UNL A   1      39.751  36.916  38.711  1.00  0.00     0.040 A 
ATOM     95  C   UNL A   1      38.862  35.012  39.887  1.00  0.00     0.040 A 
ATOM     96  F   UNL A   1      38.990  32.875  38.930  1.00  0.00    -0.206 F 
ATOM     97  C   UNL A   1      39.117  36.381  39.831  1.00  0.00     0.006 A 
ENDBRANCH  73  90
ENDBRANCH  47  48
ENDBRANCH  40  42
ENDBRANCH  39  40
ENDBRANCH  38  39
ENDBRANCH  37  38
ENDBRANCH  36  37
ENDBRANCH  35  36
ENDBRANCH  34  35
ENDBRANCH   1  34
TORSDOF 23
ENDMDL
MODEL 2
REMARK VINA RESULT:      -8.4      6.134     11.707
REMARK SMILES O=C(CCCN1C(=O)C(=O)/C(=C(\[O-])c2ccccc2)[C@H]1c1ccc([N+](=O)[O-])cc1)OCCOCCOCCOC(=O)c1ccc(-c2c3nc(c(-c4c(F)cccc4F)c4ccc([nH]4)c(-c4c(F)cccc4F)c4nc(c(-c5c(F)cccc5F)c5ccc2[nH]5)C=C4)C=C3)cc1
REMARK SMILES IDX 33 1 32 2 31 3 30 4 2 5 1 6 3 7 4 8 5 9 6 10 7 11 20 12 8 13
REMARK SMILES IDX 9 14 11 15 10 16 12 17 13 18 21 19 22 20 29 21 23 22 28 23
REMARK SMILES IDX 24 24 25 25 26 26 27 27 14 28 15 29 19 30 16 31 18 32 17 33
REMARK SMILES IDX 34 34 35 35 36 36 37 37 38 38 39 39 40 40 41 41 42 42 43 43
REMARK SMILES IDX 95 44 44 45 94 46 45 47 46 48 47 49 88 50 48 51 93 52 87 53
REMARK SMILES IDX 89 54 49 55 92 56 86 57 85 58 50 60 76 61 59 62 75 63 60 64
REMARK SMILES IDX 63 65 74 66 90 67 61 68 62 69 73 71 91 72 64 73 51 74 52 75
REMARK SMILES IDX 57 76 53 77 54 78 56 79 58 80 55 81 77 82 78 83 83 84 79 85
REMARK SMILES IDX 80 86 82 87 84 88 81 89 65 90 66 91 71 92 67 93 68 94 70 95
REMARK SMILES IDX 72 96 69 97
REMARK H PARENT 89 59 63 70
REMARK Flexibility Score: inf
ROOT
ATOM      1  O   UNL A   1      51.976  25.231  34.685  1.00  0.00    -0.376 OA
ENDROOT
BRANCH   1   2
ATOM      2  C   UNL A   1      50.930  26.085  34.263  1.00  0.00     0.202 C 
BRANCH   2   3
ATOM      3  C   UNL A   1      50.223  25.770  32.938  1.00  0.00     0.261 C 
BRANCH   3   4
ATOM      4  O   UNL A   1      51.066  25.843  31.775  1.00  0.00    -0.463 OA
BRANCH   4   5
ATOM      5  C   UNL A   1      51.071  27.008  31.088  1.00  0.00     0.305 C 
ATOM      6  O   UNL A   1      51.711  27.984  31.454  1.00  0.00    -0.252 OA
BRANCH   5   7
ATOM      7  C   UNL A   1      50.219  26.965  29.832  1.00  0.00     0.124 C 
BRANCH   7   8
ATOM      8  C   UNL A   1      49.313  25.739  29.634  1.00  0.00     0.033 C 
BRANCH   8   9
ATOM      9  C   UNL A   1      49.048  25.131  28.231  1.00  0.00     0.121 C 
BRANCH   9  10
ATOM     10  N   UNL A   1      48.547  25.984  27.150  1.00  0.00    -0.325 N 
ATOM     11  C   UNL A   1      49.309  26.410  26.083  1.00  0.00     0.295 C 
ATOM     12  C   UNL A   1      47.150  26.444  27.069  1.00  0.00     0.150 C 
ATOM     13  O   UNL A   1      50.453  26.131  25.793  1.00  0.00    -0.265 OA
ATOM     14  C   UNL A   1      48.465  27.440  25.332  1.00  0.00     0.248 C 
ATOM     15  C   UNL A   1      47.163  27.537  26.026  1.00  0.00     0.025 C 
ATOM     16  O   UNL A   1      48.807  28.105  24.374  1.00  0.00    -0.283 OA
ATOM     17  C   UNL A   1      46.264  28.485  25.696  1.00  0.00    -0.092 C 
ATOM     18  O   UNL A   1      46.500  29.413  24.692  1.00  0.00    -0.872 OA
BRANCH  12  19
ATOM     19  C   UNL A   1      46.080  25.368  26.875  1.00  0.00    -0.020 A 
ATOM     20  C   UNL A   1      45.967  24.614  25.689  1.00  0.00     0.013 A 
ATOM     21  C   UNL A   1      45.044  25.255  27.824  1.00  0.00     0.013 A 
ATOM     22  C   UNL A   1      44.810  23.879  25.405  1.00  0.00     0.086 A 
ATOM     23  C   UNL A   1      43.900  24.494  27.564  1.00  0.00     0.086 A 
ATOM     24  C   UNL A   1      43.770  23.841  26.335  1.00  0.00     0.269 A 
BRANCH  24  25
ATOM     25  N   UNL A   1      42.512  23.163  26.000  1.00  0.00     0.062 N 
ATOM     26  O   UNL A   1      42.520  22.374  25.045  1.00  0.00    -0.258 OA
ATOM     27  O   UNL A   1      41.513  23.435  26.682  1.00  0.00    -0.258 OA
ENDBRANCH  24  25
ENDBRANCH  12  19
BRANCH  17  28
ATOM     28  C   UNL A   1      44.914  28.636  26.285  1.00  0.00    -0.033 A 
ATOM     29  C   UNL A   1      44.717  29.604  27.285  1.00  0.00     0.007 A 
ATOM     30  C   UNL A   1      43.828  27.820  25.944  1.00  0.00     0.007 A 
ATOM     31  C   UNL A   1      43.484  29.744  27.927  1.00  0.00     0.001 A 
ATOM     32  C   UNL A   1      42.598  27.942  26.600  1.00  0.00     0.001 A 
ATOM     33  C   UNL A   1      42.426  28.904  27.591  1.00  0.00     0.000 A 
ENDBRANCH  17  28
ENDBRANCH   9  10
ENDBRANCH   8   9
ENDBRANCH   7   8
ENDBRANCH   5   7
ENDBRANCH   4   5
ENDBRANCH   3   4
ENDBRANCH   2   3
ENDBRANCH   1   2
BRANCH   1  34
ATOM     34  C   UNL A   1      51.719  23.835  34.715  1.00  0.00     0.188 C 
BRANCH  34  35
ATOM     35  C   UNL A   1      50.697  23.319  35.741  1.00  0.00     0.188 C 
BRANCH  35  36
ATOM     36  O   UNL A   1      49.877  22.228  35.358  1.00  0.00    -0.376 OA
BRANCH  36  37
ATOM     37  C   UNL A   1      48.792  22.416  34.453  1.00  0.00     0.202 C 
BRANCH  37  38
ATOM     38  C   UNL A   1      47.335  22.090  34.810  1.00  0.00     0.261 C 
BRANCH  38  39
ATOM     39  O   UNL A   1      46.474  23.242  34.848  1.00  0.00    -0.460 OA
BRANCH  39  40
ATOM     40  C   UNL A   1      45.221  23.015  34.382  1.00  0.00     0.338 C 
ATOM     41  O   UNL A   1      44.555  21.999  34.505  1.00  0.00    -0.246 OA
BRANCH  40  42
ATOM     42  C   UNL A   1      44.656  24.238  33.802  1.00  0.00     0.060 A 
ATOM     43  C   UNL A   1      44.546  24.327  32.409  1.00  0.00     0.016 A 
ATOM     44  C   UNL A   1      44.412  25.347  34.612  1.00  0.00     0.016 A 
ATOM     45  C   UNL A   1      44.193  25.535  31.816  1.00  0.00     0.010 A 
ATOM     46  C   UNL A   1      44.081  26.565  34.014  1.00  0.00     0.010 A 
ATOM     47  C   UNL A   1      43.996  26.668  32.615  1.00  0.00    -0.014 A 
BRANCH  47  48
ATOM     48  C   UNL A   1      43.844  27.988  31.970  1.00  0.00     0.031 A 
ATOM     49  C   UNL A   1      45.065  28.675  31.425  1.00  0.00     0.074 A 
ATOM     50  C   UNL A   1      42.629  28.549  31.856  1.00  0.00     0.049 A 
ATOM     51  N   UNL A   1      45.171  29.846  30.854  1.00  0.00    -0.248 NA
ATOM     52  C   UNL A   1      46.336  27.939  31.531  1.00  0.00     0.031 C 
ATOM     53  C   UNL A   1      41.377  27.945  32.308  1.00  0.00     0.029 A 
ATOM     54  N   UNL A   1      42.252  29.759  31.333  1.00  0.00    -0.354 N 
ATOM     55  C   UNL A   1      46.515  29.989  30.534  1.00  0.00     0.074 A 
ATOM     56  C   UNL A   1      47.191  28.794  30.989  1.00  0.00     0.031 C 
ATOM     57  C   UNL A   1      40.370  28.802  32.069  1.00  0.00     0.029 A 
ATOM     58  C   UNL A   1      40.912  30.022  31.474  1.00  0.00     0.049 A 
ATOM     59  H   UNL A   1      42.881  30.380  30.900  1.00  0.00     0.167 HD
ATOM     60  C   UNL A   1      47.126  31.027  29.917  1.00  0.00     0.037 A 
ATOM     61  C   UNL A   1      40.216  31.138  31.184  1.00  0.00     0.037 A 
ATOM     62  C   UNL A   1      46.445  32.218  29.483  1.00  0.00     0.049 A 
ATOM     63  C   UNL A   1      40.938  32.311  30.578  1.00  0.00     0.074 A 
ATOM     64  C   UNL A   1      46.966  33.321  28.832  1.00  0.00     0.029 A 
ATOM     65  N   UNL A   1      45.093  32.465  29.675  1.00  0.00    -0.354 N 
ATOM     66  N   UNL A   1      42.201  32.424  30.243  1.00  0.00    -0.248 NA
ATOM     67  C   UNL A   1      40.139  33.516  30.310  1.00  0.00     0.031 C 
ATOM     68  C   UNL A   1      45.941  34.260  28.677  1.00  0.00     0.029 A 
ATOM     69  C   UNL A   1      44.770  33.719  29.185  1.00  0.00     0.049 A 
ATOM     70  H   UNL A   1      44.459  31.841  30.096  1.00  0.00     0.167 HD
ATOM     71  C   UNL A   1      42.342  33.697  29.706  1.00  0.00     0.074 A 
ATOM     72  C   UNL A   1      41.032  34.312  29.742  1.00  0.00     0.031 C 
ATOM     73  C   UNL A   1      43.456  34.308  29.229  1.00  0.00     0.037 A 
BRANCH  60  74
ATOM     74  C   UNL A   1      48.607  30.938  29.701  1.00  0.00     0.057 A 
ATOM     75  C   UNL A   1      49.155  30.606  28.456  1.00  0.00     0.134 A 
ATOM     76  C   UNL A   1      49.497  31.238  30.741  1.00  0.00     0.134 A 
ATOM     77  F   UNL A   1      48.359  30.294  27.423  1.00  0.00    -0.206 F 
ATOM     78  C   UNL A   1      50.537  30.567  28.255  1.00  0.00     0.040 A 
ATOM     79  C   UNL A   1      50.879  31.224  30.545  1.00  0.00     0.040 A 
ATOM     80  F   UNL A   1      49.037  31.564  31.958  1.00  0.00    -0.206 F 
ATOM     81  C   UNL A   1      51.403  30.885  29.300  1.00  0.00     0.006 A 
ENDBRANCH  60  74
BRANCH  61  82
ATOM     82  C   UNL A   1      38.767  31.220  31.499  1.00  0.00     0.057 A 
ATOM     83  C   UNL A   1      37.793  30.922  30.537  1.00  0.00     0.134 A 
ATOM     84  C   UNL A   1      38.319  31.642  32.756  1.00  0.00     0.134 A 
ATOM     85  F   UNL A   1      38.157  30.536  29.305  1.00  0.00    -0.206 F 
ATOM     86  C   UNL A   1      36.431  31.064  30.808  1.00  0.00     0.040 A 
ATOM     87  C   UNL A   1      36.960  31.762  33.050  1.00  0.00     0.040 A 
ATOM     88  F   UNL A   1      39.199  31.947  33.721  1.00  0.00    -0.206 F 
ATOM     89  C   UNL A   1      36.010  31.483  32.069  1.00  0.00     0.006 A 
ENDBRANCH  61  82
BRANCH  73  90
ATOM     90  C   UNL A   1      43.297  35.698  28.690  1.00  0.00     0.057 A 
ATOM     91  C   UNL A   1      43.449  36.827  29.504  1.00  0.00     0.134 A 
ATOM     92  C   UNL A   1      43.028  35.910  27.331  1.00  0.00     0.134 A 
ATOM     93  F   UNL A   1      43.695  36.691  30.816  1.00  0.00    -0.206 F 
ATOM     94  C   UNL A   1      43.319  38.118  28.991  1.00  0.00     0.040 A 
ATOM     95  C   UNL A   1      42.923  37.196  26.802  1.00  0.00     0.040 A 
ATOM     96  F   UNL A   1      42.881  34.872  26.495  1.00  0.00    -0.206 F 
ATOM     97  C   UNL A   1      43.063  38.305  27.634  1.00  0.00     0.006 A 
ENDBRANCH  73  90
ENDBRANCH  47  48
ENDBRANCH  40  42
ENDBRANCH  39  40
ENDBRANCH  38  39
ENDBRANCH  37  38
ENDBRANCH  36  37
ENDBRANCH  35  36
ENDBRANCH  34  35
ENDBRANCH   1  34
TORSDOF 23
ENDMDL
MODEL 3
REMARK VINA RESULT:      -8.4      6.225     11.462
REMARK SMILES O=C(CCCN1C(=O)C(=O)/C(=C(\[O-])c2ccccc2)[C@H]1c1ccc([N+](=O)[O-])cc1)OCCOCCOCCOC(=O)c1ccc(-c2c3nc(c(-c4c(F)cccc4F)c4ccc([nH]4)c(-c4c(F)cccc4F)c4nc(c(-c5c(F)cccc5F)c5ccc2[nH]5)C=C4)C=C3)cc1
REMARK SMILES IDX 33 1 32 2 31 3 30 4 2 5 1 6 3 7 4 8 5 9 6 10 7 11 20 12 8 13
REMARK SMILES IDX 9 14 11 15 10 16 12 17 13 18 21 19 22 20 29 21 23 22 28 23
REMARK SMILES IDX 24 24 25 25 26 26 27 27 14 28 15 29 19 30 16 31 18 32 17 33
REMARK SMILES IDX 34 34 35 35 36 36 37 37 38 38 39 39 40 40 41 41 42 42 43 43
REMARK SMILES IDX 95 44 44 45 94 46 45 47 46 48 47 49 88 50 48 51 93 52 87 53
REMARK SMILES IDX 89 54 49 55 92 56 86 57 85 58 50 60 76 61 59 62 75 63 60 64
REMARK SMILES IDX 63 65 74 66 90 67 61 68 62 69 73 71 91 72 64 73 51 74 52 75
REMARK SMILES IDX 57 76 53 77 54 78 56 79 58 80 55 81 77 82 78 83 83 84 79 85
REMARK SMILES IDX 80 86 82 87 84 88 81 89 65 90 66 91 71 92 67 93 68 94 70 95
REMARK SMILES IDX 72 96 69 97
REMARK H PARENT 89 59 63 70
REMARK Flexibility Score: inf
ROOT
ATOM      1  O   UNL A   1      41.115  28.745  28.153  1.00  0.00    -0.376 OA
ENDROOT
BRANCH   1   2
ATOM      2  C   UNL A   1      41.071  28.563  29.556  1.00  0.00     0.202 C 
BRANCH   2   3
ATOM      3  C   UNL A   1      42.003  27.520  30.184  1.00  0.00     0.261 C 
BRANCH   3   4
ATOM      4  O   UNL A   1      43.036  28.064  31.024  1.00  0.00    -0.463 OA
BRANCH   4   5
ATOM      5  C   UNL A   1      42.810  28.065  32.357  1.00  0.00     0.305 C 
ATOM      6  O   UNL A   1      43.324  27.250  33.112  1.00  0.00    -0.252 OA
BRANCH   5   7
ATOM      7  C   UNL A   1      41.874  29.173  32.804  1.00  0.00     0.124 C 
BRANCH   7   8
ATOM      8  C   UNL A   1      40.800  28.815  33.845  1.00  0.00     0.033 C 
BRANCH   8   9
ATOM      9  C   UNL A   1      40.508  29.721  35.070  1.00  0.00     0.121 C 
BRANCH   9  10
ATOM     10  N   UNL A   1      39.570  30.840  34.942  1.00  0.00    -0.325 N 
ATOM     11  C   UNL A   1      38.666  31.209  35.916  1.00  0.00     0.295 C 
ATOM     12  C   UNL A   1      39.526  31.722  33.764  1.00  0.00     0.150 C 
ATOM     13  O   UNL A   1      38.515  30.765  37.034  1.00  0.00    -0.265 OA
ATOM     14  C   UNL A   1      37.756  32.262  35.284  1.00  0.00     0.248 C 
ATOM     15  C   UNL A   1      38.231  32.488  33.902  1.00  0.00     0.025 C 
ATOM     16  O   UNL A   1      36.783  32.785  35.792  1.00  0.00    -0.283 OA
ATOM     17  C   UNL A   1      37.527  33.244  33.036  1.00  0.00    -0.092 C 
ATOM     18  O   UNL A   1      36.331  33.852  33.386  1.00  0.00    -0.872 OA
BRANCH  12  19
ATOM     19  C   UNL A   1      40.766  32.576  33.494  1.00  0.00    -0.020 A 
ATOM     20  C   UNL A   1      41.285  33.481  34.443  1.00  0.00     0.013 A 
ATOM     21  C   UNL A   1      41.298  32.619  32.190  1.00  0.00     0.013 A 
ATOM     22  C   UNL A   1      42.203  34.471  34.074  1.00  0.00     0.086 A 
ATOM     23  C   UNL A   1      42.243  33.581  31.821  1.00  0.00     0.086 A 
ATOM     24  C   UNL A   1      42.661  34.532  32.757  1.00  0.00     0.269 A 
BRANCH  24  25
ATOM     25  N   UNL A   1      43.539  35.630  32.337  1.00  0.00     0.062 N 
ATOM     26  O   UNL A   1      44.641  35.335  31.854  1.00  0.00    -0.258 OA
ATOM     27  O   UNL A   1      43.131  36.789  32.506  1.00  0.00    -0.258 OA
ENDBRANCH  24  25
ENDBRANCH  12  19
BRANCH  17  28
ATOM     28  C   UNL A   1      37.938  33.580  31.654  1.00  0.00    -0.033 A 
ATOM     29  C   UNL A   1      37.633  32.678  30.620  1.00  0.00     0.007 A 
ATOM     30  C   UNL A   1      38.674  34.725  31.325  1.00  0.00     0.007 A 
ATOM     31  C   UNL A   1      38.058  32.907  29.308  1.00  0.00     0.001 A 
ATOM     32  C   UNL A   1      39.119  34.947  30.017  1.00  0.00     0.001 A 
ATOM     33  C   UNL A   1      38.811  34.038  29.009  1.00  0.00     0.000 A 
ENDBRANCH  17  28
ENDBRANCH   9  10
ENDBRANCH   8   9
ENDBRANCH   7   8
ENDBRANCH   5   7
ENDBRANCH   4   5
ENDBRANCH   3   4
ENDBRANCH   2   3
ENDBRANCH   1   2
BRANCH   1  34
ATOM     34  C   UNL A   1      40.811  27.628  27.331  1.00  0.00     0.188 C 
BRANCH  34  35
ATOM     35  C   UNL A   1      39.627  26.738  27.744  1.00  0.00     0.188 C 
BRANCH  35  36
ATOM     36  O   UNL A   1      39.922  25.436  28.224  1.00  0.00    -0.376 OA
BRANCH  36  37
ATOM     37  C   UNL A   1      39.382  24.285  27.580  1.00  0.00     0.202 C 
BRANCH  37  38
ATOM     38  C   UNL A   1      40.241  23.094  27.132  1.00  0.00     0.261 C 
BRANCH  38  39
ATOM     39  O   UNL A   1      41.193  23.418  26.103  1.00  0.00    -0.460 OA
BRANCH  39  40
ATOM     40  C   UNL A   1      42.487  23.240  26.467  1.00  0.00     0.338 C 
ATOM     41  O   UNL A   1      43.081  22.183  26.611  1.00  0.00    -0.246 OA
BRANCH  40  42
ATOM     42  C   UNL A   1      43.185  24.529  26.538  1.00  0.00     0.060 A 
ATOM     43  C   UNL A   1      43.582  25.140  25.342  1.00  0.00     0.016 A 
ATOM     44  C   UNL A   1      43.602  25.030  27.770  1.00  0.00     0.016 A 
ATOM     45  C   UNL A   1      44.406  26.260  25.374  1.00  0.00     0.010 A 
ATOM     46  C   UNL A   1      44.448  26.141  27.802  1.00  0.00     0.010 A 
ATOM     47  C   UNL A   1      44.872  26.742  26.604  1.00  0.00    -0.014 A 
BRANCH  47  48
ATOM     48  C   UNL A   1      45.918  27.785  26.620  1.00  0.00     0.031 A 
ATOM     49  C   UNL A   1      45.505  29.226  26.720  1.00  0.00     0.074 A 
ATOM     50  C   UNL A   1      47.216  27.442  26.568  1.00  0.00     0.049 A 
ATOM     51  N   UNL A   1      46.246  30.304  26.715  1.00  0.00    -0.248 NA
ATOM     52  C   UNL A   1      44.062  29.489  26.851  1.00  0.00     0.031 C 
ATOM     53  C   UNL A   1      47.724  26.072  26.517  1.00  0.00     0.029 A 
ATOM     54  N   UNL A   1      48.343  28.223  26.538  1.00  0.00    -0.354 N 
ATOM     55  C   UNL A   1      45.364  31.368  26.841  1.00  0.00     0.074 A 
ATOM     56  C   UNL A   1      44.030  30.812  26.903  1.00  0.00     0.031 C 
ATOM     57  C   UNL A   1      49.065  26.109  26.433  1.00  0.00     0.029 A 
ATOM     58  C   UNL A   1      49.503  27.503  26.396  1.00  0.00     0.049 A 
ATOM     59  H   UNL A   1      48.322  29.204  26.610  1.00  0.00     0.167 HD
ATOM     60  C   UNL A   1      45.646  32.691  26.898  1.00  0.00     0.037 A 
ATOM     61  C   UNL A   1      50.769  27.929  26.222  1.00  0.00     0.037 A 
ATOM     62  C   UNL A   1      46.976  33.233  26.819  1.00  0.00     0.049 A 
ATOM     63  C   UNL A   1      51.043  29.410  26.203  1.00  0.00     0.074 A 
ATOM     64  C   UNL A   1      47.374  34.556  26.886  1.00  0.00     0.029 A 
ATOM     65  N   UNL A   1      48.125  32.475  26.640  1.00  0.00    -0.354 N 
ATOM     66  N   UNL A   1      50.209  30.409  26.361  1.00  0.00    -0.248 NA
ATOM     67  C   UNL A   1      52.436  29.823  25.978  1.00  0.00     0.031 C 
ATOM     68  C   UNL A   1      48.759  34.604  26.692  1.00  0.00     0.029 A 
ATOM     69  C   UNL A   1      49.229  33.307  26.558  1.00  0.00     0.049 A 
ATOM     70  H   UNL A   1      48.150  31.493  26.580  1.00  0.00     0.167 HD
ATOM     71  C   UNL A   1      50.976  31.564  26.278  1.00  0.00     0.074 A 
ATOM     72  C   UNL A   1      52.345  31.141  26.076  1.00  0.00     0.031 C 
ATOM     73  C   UNL A   1      50.584  32.861  26.359  1.00  0.00     0.037 A 
BRANCH  60  74
ATOM     74  C   UNL A   1      44.497  33.646  27.021  1.00  0.00     0.057 A 
ATOM     75  C   UNL A   1      43.990  34.037  28.267  1.00  0.00     0.134 A 
ATOM     76  C   UNL A   1      43.923  34.221  25.879  1.00  0.00     0.134 A 
ATOM     77  F   UNL A   1      44.484  33.514  29.397  1.00  0.00    -0.206 F 
ATOM     78  C   UNL A   1      42.946  34.960  28.371  1.00  0.00     0.040 A 
ATOM     79  C   UNL A   1      42.896  35.160  25.973  1.00  0.00     0.040 A 
ATOM     80  F   UNL A   1      44.364  33.889  24.656  1.00  0.00    -0.206 F 
ATOM     81  C   UNL A   1      42.402  35.530  27.221  1.00  0.00     0.006 A 
ENDBRANCH  60  74
BRANCH  61  82
ATOM     82  C   UNL A   1      51.867  26.952  26.011  1.00  0.00     0.057 A 
ATOM     83  C   UNL A   1      52.136  26.419  24.745  1.00  0.00     0.134 A 
ATOM     84  C   UNL A   1      52.646  26.493  27.080  1.00  0.00     0.134 A 
ATOM     85  F   UNL A   1      51.409  26.799  23.684  1.00  0.00    -0.206 F 
ATOM     86  C   UNL A   1      53.122  25.449  24.555  1.00  0.00     0.040 A 
ATOM     87  C   UNL A   1      53.654  25.545  26.900  1.00  0.00     0.040 A 
ATOM     88  F   UNL A   1      52.437  26.960  28.320  1.00  0.00    -0.206 F 
ATOM     89  C   UNL A   1      53.887  25.011  25.634  1.00  0.00     0.006 A 
ENDBRANCH  61  82
BRANCH  73  90
ATOM     90  C   UNL A   1      51.653  33.907  26.250  1.00  0.00     0.057 A 
ATOM     91  C   UNL A   1      52.275  34.446  27.383  1.00  0.00     0.134 A 
ATOM     92  C   UNL A   1      52.094  34.349  24.996  1.00  0.00     0.134 A 
ATOM     93  F   UNL A   1      51.889  34.073  28.613  1.00  0.00    -0.206 F 
ATOM     94  C   UNL A   1      53.282  35.405  27.273  1.00  0.00     0.040 A 
ATOM     95  C   UNL A   1      53.120  35.287  24.874  1.00  0.00     0.040 A 
ATOM     96  F   UNL A   1      51.548  33.865  23.871  1.00  0.00    -0.206 F 
ATOM     97  C   UNL A   1      53.713  35.822  26.015  1.00  0.00     0.006 A 
ENDBRANCH  73  90
ENDBRANCH  47  48
ENDBRANCH  40  42
ENDBRANCH  39  40
ENDBRANCH  38  39
ENDBRANCH  37  38
ENDBRANCH  36  37
ENDBRANCH  35  36
ENDBRANCH  34  35
ENDBRANCH   1  34
TORSDOF 23
ENDMDL
