MODEL 1
REMARK VINA RESULT:     -12.6      0.000      0.000
REMARK SMILES Cc1ccc(-c2cn3c(n2)sc2cc(C(=O)OCCOCCOCCOC(=O)c4ccc(-c5c6nc(c(-c7c(F)cccc7F)c7ccc([nH]7)c(-c7c(F)cccc7F)c7nc(c(-c8c(F)cccc8F)c8ccc5[nH]8)C=C7)C=C6)cc4)ccc23)cc1
REMARK SMILES IDX 22 1 21 2 20 3 19 4 18 5 17 6 15 7 16 8 14 9 6 10 7 11 10 12
REMARK SMILES IDX 8 13 9 14 85 15 11 16 12 17 84 18 13 19 83 20 5 21 1 22 2 23
REMARK SMILES IDX 3 24 87 25 4 26 86 27 23 28 24 29 25 30 26 31 27 32 28 33
REMARK SMILES IDX 29 34 30 35 82 36 31 37 81 38 32 39 33 40 34 41 75 42 35 43
REMARK SMILES IDX 80 44 74 45 76 46 36 47 79 48 73 49 72 50 37 52 63 53 46 54
REMARK SMILES IDX 62 55 47 56 50 57 61 58 77 59 48 60 49 61 60 63 78 64 51 65
REMARK SMILES IDX 38 66 39 67 44 68 40 69 41 70 43 71 45 72 42 73 64 74 65 75
REMARK SMILES IDX 70 76 66 77 67 78 69 79 71 80 68 81 52 82 53 83 58 84 54 85
REMARK SMILES IDX 55 86 57 87 59 88 56 89
REMARK H PARENT 76 51 50 62
REMARK Flexibility Score: inf
ROOT
ATOM      1  C   UNL A   1      33.811  28.442  26.691  1.00  0.00     0.188 C 
ENDROOT
BRANCH   1   2
ATOM      2  C   UNL A   1      32.511  27.858  27.191  1.00  0.00     0.188 C 
BRANCH   2   3
ATOM      3  O   UNL A   1      31.829  27.420  26.013  1.00  0.00    -0.376 OA
BRANCH   3   4
ATOM      4  C   UNL A   1      30.594  26.684  26.062  1.00  0.00     0.202 C 
BRANCH   4   5
ATOM      5  C   UNL A   1      30.360  25.050  26.469  1.00  0.00     0.261 C 
BRANCH   5   6
ATOM      6  O   UNL A   1      31.249  23.916  27.250  1.00  0.00    -0.460 OA
BRANCH   6   7
ATOM      7  C   UNL A   1      32.405  23.189  27.081  1.00  0.00     0.338 C 
ATOM      8  O   UNL A   1      32.766  22.260  27.777  1.00  0.00    -0.246 OA
BRANCH   7   9
ATOM      9  C   UNL A   1      33.438  23.374  26.032  1.00  0.00     0.061 A 
ATOM     10  C   UNL A   1      32.015  26.883  22.215  1.00  0.00     0.090 A 
ATOM     11  C   UNL A   1      33.241  26.907  22.870  1.00  0.00     0.123 A 
ATOM     12  N   UNL A   1      31.851  25.697  21.512  1.00  0.00    -0.219 NA
ATOM     13  N   UNL A   1      33.640  25.593  22.823  1.00  0.00    -0.290 N 
ATOM     14  C   UNL A   1      32.844  24.949  21.916  1.00  0.00     0.195 A 
ATOM     15  C   UNL A   1      34.196  24.780  23.826  1.00  0.00     0.065 A 
ATOM     16  S   UNL A   1      32.906  23.214  22.072  1.00  0.00    -0.096 S 
ATOM     17  C   UNL A   1      33.652  23.477  23.694  1.00  0.00     0.056 A 
ATOM     18  C   UNL A   1      34.655  25.290  25.020  1.00  0.00     0.029 A 
ATOM     19  C   UNL A   1      33.260  22.753  24.813  1.00  0.00     0.037 A 
ATOM     20  C   UNL A   1      34.261  24.568  26.142  1.00  0.00     0.018 A 
BRANCH  10  21
ATOM     21  C   UNL A   1      30.913  27.824  22.399  1.00  0.00     0.002 A 
ATOM     22  C   UNL A   1      27.691  30.503  23.491  1.00  0.00     0.044 C 
ATOM     23  C   UNL A   1      28.803  29.577  23.097  1.00  0.00    -0.051 A 
ATOM     24  C   UNL A   1      30.041  30.081  22.683  1.00  0.00     0.004 A 
ATOM     25  C   UNL A   1      28.614  28.193  23.127  1.00  0.00     0.004 A 
ATOM     26  C   UNL A   1      31.088  29.214  22.343  1.00  0.00     0.010 A 
ATOM     27  C   UNL A   1      29.662  27.329  22.794  1.00  0.00     0.010 A 
ENDBRANCH  10  21
ENDBRANCH   7   9
ENDBRANCH   6   7
ENDBRANCH   5   6
ENDBRANCH   4   5
ENDBRANCH   3   4
ENDBRANCH   2   3
ENDBRANCH   1   2
BRANCH   1  28
ATOM     28  O   UNL A   1      34.169  29.423  27.661  1.00  0.00    -0.376 OA
BRANCH  28  29
ATOM     29  C   UNL A   1      33.758  30.735  27.350  1.00  0.00     0.202 C 
BRANCH  29  30
ATOM     30  C   UNL A   1      34.726  31.765  27.943  1.00  0.00     0.261 C 
BRANCH  30  31
ATOM     31  O   UNL A   1      35.337  31.223  29.143  1.00  0.00    -0.460 OA
BRANCH  31  32
ATOM     32  C   UNL A   1      36.720  31.175  29.186  1.00  0.00     0.338 C 
ATOM     33  O   UNL A   1      37.445  32.118  29.141  1.00  0.00    -0.246 OA
BRANCH  32  34
ATOM     34  C   UNL A   1      37.174  29.737  28.999  1.00  0.00     0.060 A 
ATOM     35  C   UNL A   1      37.642  28.924  30.044  1.00  0.00     0.016 A 
ATOM     36  C   UNL A   1      37.548  29.363  27.748  1.00  0.00     0.016 A 
ATOM     37  C   UNL A   1      38.629  27.879  29.818  1.00  0.00     0.010 A 
ATOM     38  C   UNL A   1      38.676  28.546  27.676  1.00  0.00     0.010 A 
ATOM     39  C   UNL A   1      39.280  27.712  28.602  1.00  0.00    -0.014 A 
BRANCH  39  40
ATOM     40  C   UNL A   1      40.656  27.007  28.264  1.00  0.00     0.031 A 
ATOM     41  C   UNL A   1      40.980  25.493  27.939  1.00  0.00     0.074 A 
ATOM     42  C   UNL A   1      41.772  27.759  28.211  1.00  0.00     0.049 A 
ATOM     43  N   UNL A   1      41.461  24.585  28.759  1.00  0.00    -0.248 NA
ATOM     44  C   UNL A   1      40.779  24.877  26.600  1.00  0.00     0.031 C 
ATOM     45  C   UNL A   1      43.136  27.289  27.977  1.00  0.00     0.029 A 
ATOM     46  N   UNL A   1      41.923  29.075  28.645  1.00  0.00    -0.354 N 
ATOM     47  C   UNL A   1      41.596  23.391  28.021  1.00  0.00     0.074 A 
ATOM     48  C   UNL A   1      40.901  23.575  26.794  1.00  0.00     0.031 C 
ATOM     49  C   UNL A   1      43.962  28.114  28.642  1.00  0.00     0.029 A 
ATOM     50  C   UNL A   1      43.134  29.080  29.355  1.00  0.00     0.049 A 
ATOM     51  H   UNL A   1      41.315  29.833  28.487  1.00  0.00     0.167 HD
ATOM     52  C   UNL A   1      42.604  22.470  28.116  1.00  0.00     0.037 A 
ATOM     53  C   UNL A   1      43.128  29.323  30.694  1.00  0.00     0.037 A 
ATOM     54  C   UNL A   1      43.706  23.057  28.834  1.00  0.00     0.049 A 
ATOM     55  C   UNL A   1      43.702  28.173  31.488  1.00  0.00     0.074 A 
ATOM     56  C   UNL A   1      44.825  23.723  28.363  1.00  0.00     0.029 A 
ATOM     57  N   UNL A   1      43.566  23.384  30.167  1.00  0.00    -0.354 N 
ATOM     58  N   UNL A   1      43.832  26.954  31.035  1.00  0.00    -0.248 NA
ATOM     59  C   UNL A   1      44.168  28.313  32.863  1.00  0.00     0.031 C 
ATOM     60  C   UNL A   1      45.314  24.533  29.409  1.00  0.00     0.029 A 
ATOM     61  C   UNL A   1      44.514  24.321  30.517  1.00  0.00     0.049 A 
ATOM     62  H   UNL A   1      42.890  23.007  30.775  1.00  0.00     0.167 HD
ATOM     63  C   UNL A   1      44.351  26.161  32.026  1.00  0.00     0.074 A 
ATOM     64  C   UNL A   1      44.565  27.061  33.141  1.00  0.00     0.031 C 
ATOM     65  C   UNL A   1      44.564  24.822  31.870  1.00  0.00     0.037 A 
BRANCH  52  66
ATOM     66  C   UNL A   1      42.728  21.323  27.105  1.00  0.00     0.057 A 
ATOM     67  C   UNL A   1      42.041  20.105  27.238  1.00  0.00     0.134 A 
ATOM     68  C   UNL A   1      43.583  21.383  25.981  1.00  0.00     0.134 A 
ATOM     69  F   UNL A   1      41.108  19.923  28.181  1.00  0.00    -0.206 F 
ATOM     70  C   UNL A   1      42.281  18.998  26.406  1.00  0.00     0.040 A 
ATOM     71  C   UNL A   1      43.858  20.275  25.159  1.00  0.00     0.040 A 
ATOM     72  F   UNL A   1      44.230  22.519  25.671  1.00  0.00    -0.206 F 
ATOM     73  C   UNL A   1      43.214  19.067  25.381  1.00  0.00     0.006 A 
ENDBRANCH  52  66
BRANCH  53  74
ATOM     74  C   UNL A   1      42.061  30.272  31.158  1.00  0.00     0.057 A 
ATOM     75  C   UNL A   1      42.088  31.606  30.687  1.00  0.00     0.134 A 
ATOM     76  C   UNL A   1      40.889  29.875  31.810  1.00  0.00     0.134 A 
ATOM     77  F   UNL A   1      43.178  32.080  30.062  1.00  0.00    -0.206 F 
ATOM     78  C   UNL A   1      40.972  32.448  30.738  1.00  0.00     0.040 A 
ATOM     79  C   UNL A   1      39.769  30.724  31.894  1.00  0.00     0.040 A 
ATOM     80  F   UNL A   1      40.737  28.613  32.238  1.00  0.00    -0.206 F 
ATOM     81  C   UNL A   1      39.800  32.001  31.330  1.00  0.00     0.006 A 
ENDBRANCH  53  74
BRANCH  65  82
ATOM     82  C   UNL A   1      44.909  23.861  32.972  1.00  0.00     0.057 A 
ATOM     83  C   UNL A   1      46.146  23.855  33.626  1.00  0.00     0.134 A 
ATOM     84  C   UNL A   1      43.923  23.012  33.521  1.00  0.00     0.134 A 
ATOM     85  F   UNL A   1      47.125  24.701  33.276  1.00  0.00    -0.206 F 
ATOM     86  C   UNL A   1      46.410  23.012  34.712  1.00  0.00     0.040 A 
ATOM     87  C   UNL A   1      44.158  22.208  34.638  1.00  0.00     0.040 A 
ATOM     88  F   UNL A   1      42.682  22.952  33.014  1.00  0.00    -0.206 F 
ATOM     89  C   UNL A   1      45.413  22.192  35.226  1.00  0.00     0.006 A 
ENDBRANCH  65  82
ENDBRANCH  39  40
ENDBRANCH  32  34
ENDBRANCH  31  32
ENDBRANCH  30  31
ENDBRANCH  29  30
ENDBRANCH  28  29
ENDBRANCH   1  28
TORSDOF 18
ENDMDL
MODEL 2
REMARK VINA RESULT:     -12.4      1.851      4.174
REMARK SMILES Cc1ccc(-c2cn3c(n2)sc2cc(C(=O)OCCOCCOCCOC(=O)c4ccc(-c5c6nc(c(-c7c(F)cccc7F)c7ccc([nH]7)c(-c7c(F)cccc7F)c7nc(c(-c8c(F)cccc8F)c8ccc5[nH]8)C=C7)C=C6)cc4)ccc23)cc1
REMARK SMILES IDX 22 1 21 2 20 3 19 4 18 5 17 6 15 7 16 8 14 9 6 10 7 11 10 12
REMARK SMILES IDX 8 13 9 14 85 15 11 16 12 17 84 18 13 19 83 20 5 21 1 22 2 23
REMARK SMILES IDX 3 24 87 25 4 26 86 27 23 28 24 29 25 30 26 31 27 32 28 33
REMARK SMILES IDX 29 34 30 35 82 36 31 37 81 38 32 39 33 40 34 41 75 42 35 43
REMARK SMILES IDX 80 44 74 45 76 46 36 47 79 48 73 49 72 50 37 52 63 53 46 54
REMARK SMILES IDX 62 55 47 56 50 57 61 58 77 59 48 60 49 61 60 63 78 64 51 65
REMARK SMILES IDX 38 66 39 67 44 68 40 69 41 70 43 71 45 72 42 73 64 74 65 75
REMARK SMILES IDX 70 76 66 77 67 78 69 79 71 80 68 81 52 82 53 83 58 84 54 85
REMARK SMILES IDX 55 86 57 87 59 88 56 89
REMARK H PARENT 76 51 50 62
REMARK Flexibility Score: inf
ROOT
ATOM      1  C   UNL A   1      34.037  34.254  29.498  1.00  0.00     0.188 C 
ENDROOT
BRANCH   1   2
ATOM      2  C   UNL A   1      34.142  33.702  28.096  1.00  0.00     0.188 C 
BRANCH   2   3
ATOM      3  O   UNL A   1      33.298  32.547  28.094  1.00  0.00    -0.376 OA
BRANCH   3   4
ATOM      4  C   UNL A   1      33.712  31.286  27.540  1.00  0.00     0.202 C 
BRANCH   4   5
ATOM      5  C   UNL A   1      33.000  30.413  26.266  1.00  0.00     0.261 C 
BRANCH   5   6
ATOM      6  O   UNL A   1      32.670  28.831  25.993  1.00  0.00    -0.460 OA
BRANCH   6   7
ATOM      7  C   UNL A   1      31.727  27.885  26.321  1.00  0.00     0.338 C 
ATOM      8  O   UNL A   1      31.241  27.721  27.423  1.00  0.00    -0.246 OA
BRANCH   7   9
ATOM      9  C   UNL A   1      31.108  26.882  25.420  1.00  0.00     0.061 A 
ATOM     10  C   UNL A   1      34.471  22.949  23.960  1.00  0.00     0.090 A 
ATOM     11  C   UNL A   1      33.183  22.729  24.438  1.00  0.00     0.123 A 
ATOM     12  N   UNL A   1      34.443  23.680  22.779  1.00  0.00    -0.219 NA
ATOM     13  N   UNL A   1      32.432  23.624  23.717  1.00  0.00    -0.290 N 
ATOM     14  C   UNL A   1      33.201  24.073  22.679  1.00  0.00     0.195 A 
ATOM     15  C   UNL A   1      31.414  24.497  24.140  1.00  0.00     0.065 A 
ATOM     16  S   UNL A   1      32.576  25.530  21.953  1.00  0.00    -0.096 S 
ATOM     17  C   UNL A   1      31.550  25.716  23.428  1.00  0.00     0.056 A 
ATOM     18  C   UNL A   1      30.838  24.412  25.387  1.00  0.00     0.029 A 
ATOM     19  C   UNL A   1      31.399  26.937  24.072  1.00  0.00     0.037 A 
ATOM     20  C   UNL A   1      30.688  25.633  26.036  1.00  0.00     0.018 A 
BRANCH  10  21
ATOM     21  C   UNL A   1      35.719  22.691  24.672  1.00  0.00     0.002 A 
ATOM     22  C   UNL A   1      39.661  21.894  26.279  1.00  0.00     0.044 C 
ATOM     23  C   UNL A   1      38.289  22.169  25.737  1.00  0.00    -0.051 A 
ATOM     24  C   UNL A   1      37.722  23.444  25.837  1.00  0.00     0.004 A 
ATOM     25  C   UNL A   1      37.551  21.148  25.134  1.00  0.00     0.004 A 
ATOM     26  C   UNL A   1      36.453  23.705  25.304  1.00  0.00     0.010 A 
ATOM     27  C   UNL A   1      36.287  21.411  24.598  1.00  0.00     0.010 A 
ENDBRANCH  10  21
ENDBRANCH   7   9
ENDBRANCH   6   7
ENDBRANCH   5   6
ENDBRANCH   4   5
ENDBRANCH   3   4
ENDBRANCH   2   3
ENDBRANCH   1   2
BRANCH   1  28
ATOM     28  O   UNL A   1      35.277  33.918  30.117  1.00  0.00    -0.376 OA
BRANCH  28  29
ATOM     29  C   UNL A   1      36.415  34.152  29.319  1.00  0.00     0.202 C 
BRANCH  29  30
ATOM     30  C   UNL A   1      37.444  33.030  29.494  1.00  0.00     0.261 C 
BRANCH  30  31
ATOM     31  O   UNL A   1      36.928  31.802  28.915  1.00  0.00    -0.460 OA
BRANCH  31  32
ATOM     32  C   UNL A   1      36.563  30.792  29.787  1.00  0.00     0.338 C 
ATOM     33  O   UNL A   1      35.973  30.943  30.811  1.00  0.00    -0.246 OA
BRANCH  32  34
ATOM     34  C   UNL A   1      37.281  29.511  29.396  1.00  0.00     0.060 A 
ATOM     35  C   UNL A   1      37.743  28.561  30.321  1.00  0.00     0.016 A 
ATOM     36  C   UNL A   1      37.873  29.481  28.174  1.00  0.00     0.016 A 
ATOM     37  C   UNL A   1      38.917  27.743  30.058  1.00  0.00     0.010 A 
ATOM     38  C   UNL A   1      39.126  28.869  28.128  1.00  0.00     0.010 A 
ATOM     39  C   UNL A   1      39.740  27.945  28.957  1.00  0.00    -0.014 A 
BRANCH  39  40
ATOM     40  C   UNL A   1      41.250  27.536  28.716  1.00  0.00     0.031 A 
ATOM     41  C   UNL A   1      41.868  26.213  28.107  1.00  0.00     0.074 A 
ATOM     42  C   UNL A   1      42.218  28.413  29.043  1.00  0.00     0.049 A 
ATOM     43  N   UNL A   1      42.376  25.192  28.764  1.00  0.00    -0.248 NA
ATOM     44  C   UNL A   1      41.968  25.946  26.647  1.00  0.00     0.031 C 
ATOM     45  C   UNL A   1      43.660  28.199  28.954  1.00  0.00     0.029 A 
ATOM     46  N   UNL A   1      42.080  29.579  29.793  1.00  0.00    -0.354 N 
ATOM     47  C   UNL A   1      42.815  24.259  27.802  1.00  0.00     0.074 A 
ATOM     48  C   UNL A   1      42.281  24.664  26.548  1.00  0.00     0.031 C 
ATOM     49  C   UNL A   1      44.231  28.923  29.932  1.00  0.00     0.029 A 
ATOM     50  C   UNL A   1      43.159  29.555  30.691  1.00  0.00     0.049 A 
ATOM     51  H   UNL A   1      41.380  30.267  29.712  1.00  0.00     0.167 HD
ATOM     52  C   UNL A   1      43.941  23.483  27.858  1.00  0.00     0.037 A 
ATOM     53  C   UNL A   1      42.921  29.438  32.027  1.00  0.00     0.037 A 
ATOM     54  C   UNL A   1      44.814  24.000  28.880  1.00  0.00     0.049 A 
ATOM     55  C   UNL A   1      43.564  28.206  32.617  1.00  0.00     0.074 A 
ATOM     56  C   UNL A   1      45.859  24.904  28.789  1.00  0.00     0.029 A 
ATOM     57  N   UNL A   1      44.432  23.949  30.205  1.00  0.00    -0.354 N 
ATOM     58  N   UNL A   1      43.962  27.174  31.922  1.00  0.00    -0.248 NA
ATOM     59  C   UNL A   1      43.799  28.043  34.047  1.00  0.00     0.031 C 
ATOM     60  C   UNL A   1      46.049  25.470  30.066  1.00  0.00     0.029 A 
ATOM     61  C   UNL A   1      45.148  24.877  30.931  1.00  0.00     0.049 A 
ATOM     62  H   UNL A   1      43.751  23.343  30.576  1.00  0.00     0.167 HD
ATOM     63  C   UNL A   1      44.462  26.224  32.775  1.00  0.00     0.074 A 
ATOM     64  C   UNL A   1      44.360  26.823  34.090  1.00  0.00     0.031 C 
ATOM     65  C   UNL A   1      44.920  25.011  32.350  1.00  0.00     0.037 A 
BRANCH  52  66
ATOM     66  C   UNL A   1      44.400  22.664  26.646  1.00  0.00     0.057 A 
ATOM     67  C   UNL A   1      43.853  21.414  26.311  1.00  0.00     0.134 A 
ATOM     68  C   UNL A   1      45.447  23.082  25.792  1.00  0.00     0.134 A 
ATOM     69  F   UNL A   1      42.781  20.924  26.946  1.00  0.00    -0.206 F 
ATOM     70  C   UNL A   1      44.386  20.592  25.302  1.00  0.00     0.040 A 
ATOM     71  C   UNL A   1      46.011  22.259  24.801  1.00  0.00     0.040 A 
ATOM     72  F   UNL A   1      46.000  24.299  25.930  1.00  0.00    -0.206 F 
ATOM     73  C   UNL A   1      45.488  20.997  24.563  1.00  0.00     0.006 A 
ENDBRANCH  52  66
BRANCH  53  74
ATOM     74  C   UNL A   1      41.654  30.089  32.500  1.00  0.00     0.057 A 
ATOM     75  C   UNL A   1      40.577  29.264  32.904  1.00  0.00     0.134 A 
ATOM     76  C   UNL A   1      41.542  31.444  32.824  1.00  0.00     0.134 A 
ATOM     77  F   UNL A   1      40.590  27.950  32.623  1.00  0.00    -0.206 F 
ATOM     78  C   UNL A   1      39.525  29.729  33.698  1.00  0.00     0.040 A 
ATOM     79  C   UNL A   1      40.471  31.931  33.598  1.00  0.00     0.040 A 
ATOM     80  F   UNL A   1      42.535  32.300  32.542  1.00  0.00    -0.206 F 
ATOM     81  C   UNL A   1      39.479  31.067  34.063  1.00  0.00     0.006 A 
ENDBRANCH  53  74
BRANCH  65  82
ATOM     82  C   UNL A   1      45.263  23.849  33.239  1.00  0.00     0.057 A 
ATOM     83  C   UNL A   1      46.511  23.695  33.853  1.00  0.00     0.134 A 
ATOM     84  C   UNL A   1      44.268  22.928  33.636  1.00  0.00     0.134 A 
ATOM     85  F   UNL A   1      47.502  24.574  33.651  1.00  0.00    -0.206 F 
ATOM     86  C   UNL A   1      46.776  22.654  34.749  1.00  0.00     0.040 A 
ATOM     87  C   UNL A   1      44.505  21.920  34.571  1.00  0.00     0.040 A 
ATOM     88  F   UNL A   1      43.017  22.990  33.154  1.00  0.00    -0.206 F 
ATOM     89  C   UNL A   1      45.769  21.768  35.118  1.00  0.00     0.006 A 
ENDBRANCH  65  82
ENDBRANCH  39  40
ENDBRANCH  32  34
ENDBRANCH  31  32
ENDBRANCH  30  31
ENDBRANCH  29  30
ENDBRANCH  28  29
ENDBRANCH   1  28
TORSDOF 18
ENDMDL
MODEL 3
REMARK VINA RESULT:     -12.3      3.879      9.359
REMARK SMILES Cc1ccc(-c2cn3c(n2)sc2cc(C(=O)OCCOCCOCCOC(=O)c4ccc(-c5c6nc(c(-c7c(F)cccc7F)c7ccc([nH]7)c(-c7c(F)cccc7F)c7nc(c(-c8c(F)cccc8F)c8ccc5[nH]8)C=C7)C=C6)cc4)ccc23)cc1
REMARK SMILES IDX 22 1 21 2 20 3 19 4 18 5 17 6 15 7 16 8 14 9 6 10 7 11 10 12
REMARK SMILES IDX 8 13 9 14 85 15 11 16 12 17 84 18 13 19 83 20 5 21 1 22 2 23
REMARK SMILES IDX 3 24 87 25 4 26 86 27 23 28 24 29 25 30 26 31 27 32 28 33
REMARK SMILES IDX 29 34 30 35 82 36 31 37 81 38 32 39 33 40 34 41 75 42 35 43
REMARK SMILES IDX 80 44 74 45 76 46 36 47 79 48 73 49 72 50 37 52 63 53 46 54
REMARK SMILES IDX 62 55 47 56 50 57 61 58 77 59 48 60 49 61 60 63 78 64 51 65
REMARK SMILES IDX 38 66 39 67 44 68 40 69 41 70 43 71 45 72 42 73 64 74 65 75
REMARK SMILES IDX 70 76 66 77 67 78 69 79 71 80 68 81 52 82 53 83 58 84 54 85
REMARK SMILES IDX 55 86 57 87 59 88 56 89
REMARK H PARENT 76 51 50 62
REMARK Flexibility Score: inf
ROOT
ATOM      1  C   UNL A   1      41.730  20.270  26.705  1.00  0.00     0.188 C 
ENDROOT
BRANCH   1   2
ATOM      2  C   UNL A   1      40.287  20.115  26.285  1.00  0.00     0.188 C 
BRANCH   2   3
ATOM      3  O   UNL A   1      39.653  21.329  26.698  1.00  0.00    -0.376 OA
BRANCH   3   4
ATOM      4  C   UNL A   1      38.969  22.197  25.777  1.00  0.00     0.202 C 
BRANCH   4   5
ATOM      5  C   UNL A   1      37.507  23.033  26.010  1.00  0.00     0.261 C 
BRANCH   5   6
ATOM      6  O   UNL A   1      35.935  22.728  25.662  1.00  0.00    -0.460 OA
BRANCH   6   7
ATOM      7  C   UNL A   1      35.139  21.696  25.221  1.00  0.00     0.338 C 
ATOM      8  O   UNL A   1      35.458  20.524  25.177  1.00  0.00    -0.246 OA
BRANCH   7   9
ATOM      9  C   UNL A   1      33.746  21.786  24.717  1.00  0.00     0.061 A 
ATOM     10  C   UNL A   1      31.429  26.545  25.660  1.00  0.00     0.090 A 
ATOM     11  C   UNL A   1      31.415  25.908  24.424  1.00  0.00     0.123 A 
ATOM     12  N   UNL A   1      30.782  25.779  26.620  1.00  0.00    -0.219 NA
ATOM     13  N   UNL A   1      31.059  24.622  24.746  1.00  0.00    -0.290 N 
ATOM     14  C   UNL A   1      30.588  24.629  26.030  1.00  0.00     0.195 A 
ATOM     15  C   UNL A   1      31.591  23.398  24.302  1.00  0.00     0.065 A 
ATOM     16  S   UNL A   1      30.530  23.038  26.739  1.00  0.00    -0.096 S 
ATOM     17  C   UNL A   1      31.613  22.500  25.398  1.00  0.00     0.056 A 
ATOM     18  C   UNL A   1      32.460  23.313  23.237  1.00  0.00     0.029 A 
ATOM     19  C   UNL A   1      32.709  21.676  25.620  1.00  0.00     0.037 A 
ATOM     20  C   UNL A   1      33.560  22.491  23.458  1.00  0.00     0.018 A 
BRANCH  10  21
ATOM     21  C   UNL A   1      32.206  27.728  26.019  1.00  0.00     0.002 A 
ATOM     22  C   UNL A   1      34.277  31.190  27.595  1.00  0.00     0.044 C 
ATOM     23  C   UNL A   1      33.565  29.994  27.035  1.00  0.00    -0.051 A 
ATOM     24  C   UNL A   1      34.253  28.801  26.791  1.00  0.00     0.004 A 
ATOM     25  C   UNL A   1      32.202  30.060  26.736  1.00  0.00     0.004 A 
ATOM     26  C   UNL A   1      33.580  27.677  26.295  1.00  0.00     0.010 A 
ATOM     27  C   UNL A   1      31.530  28.936  26.246  1.00  0.00     0.010 A 
ENDBRANCH  10  21
ENDBRANCH   7   9
ENDBRANCH   6   7
ENDBRANCH   5   6
ENDBRANCH   4   5
ENDBRANCH   3   4
ENDBRANCH   2   3
ENDBRANCH   1   2
BRANCH   1  28
ATOM     28  O   UNL A   1      42.306  21.131  25.726  1.00  0.00    -0.376 OA
BRANCH  28  29
ATOM     29  C   UNL A   1      43.419  21.870  26.175  1.00  0.00     0.202 C 
BRANCH  29  30
ATOM     30  C   UNL A   1      42.991  22.942  27.183  1.00  0.00     0.261 C 
BRANCH  30  31
ATOM     31  O   UNL A   1      41.876  23.700  26.644  1.00  0.00    -0.460 OA
BRANCH  31  32
ATOM     32  C   UNL A   1      42.169  24.883  25.990  1.00  0.00     0.338 C 
ATOM     33  O   UNL A   1      43.184  25.121  25.413  1.00  0.00    -0.246 OA
BRANCH  32  34
ATOM     34  C   UNL A   1      41.135  25.931  26.367  1.00  0.00     0.060 A 
ATOM     35  C   UNL A   1      41.166  27.259  25.910  1.00  0.00     0.016 A 
ATOM     36  C   UNL A   1      40.418  25.714  27.500  1.00  0.00     0.016 A 
ATOM     37  C   UNL A   1      40.642  28.356  26.708  1.00  0.00     0.010 A 
ATOM     38  C   UNL A   1      40.202  26.836  28.300  1.00  0.00     0.010 A 
ATOM     39  C   UNL A   1      40.217  28.193  28.021  1.00  0.00    -0.014 A 
BRANCH  39  40
ATOM     40  C   UNL A   1      40.069  29.249  29.190  1.00  0.00     0.031 A 
ATOM     41  C   UNL A   1      38.948  30.335  29.454  1.00  0.00     0.074 A 
ATOM     42  C   UNL A   1      41.000  29.274  30.162  1.00  0.00     0.049 A 
ATOM     43  N   UNL A   1      39.000  31.620  29.177  1.00  0.00    -0.248 NA
ATOM     44  C   UNL A   1      37.637  30.030  30.086  1.00  0.00     0.031 C 
ATOM     45  C   UNL A   1      41.072  30.208  31.283  1.00  0.00     0.029 A 
ATOM     46  N   UNL A   1      42.235  28.628  30.162  1.00  0.00    -0.354 N 
ATOM     47  C   UNL A   1      37.780  32.185  29.604  1.00  0.00     0.074 A 
ATOM     48  C   UNL A   1      36.896  31.108  29.891  1.00  0.00     0.031 C 
ATOM     49  C   UNL A   1      42.372  30.371  31.584  1.00  0.00     0.029 A 
ATOM     50  C   UNL A   1      43.144  29.595  30.621  1.00  0.00     0.049 A 
ATOM     51  H   UNL A   1      42.427  27.699  29.898  1.00  0.00     0.167 HD
ATOM     52  C   UNL A   1      37.596  33.408  30.189  1.00  0.00     0.037 A 
ATOM     53  C   UNL A   1      44.114  30.057  29.786  1.00  0.00     0.037 A 
ATOM     54  C   UNL A   1      38.870  33.909  30.633  1.00  0.00     0.049 A 
ATOM     55  C   UNL A   1      44.018  31.548  29.565  1.00  0.00     0.074 A 
ATOM     56  C   UNL A   1      39.493  33.798  31.865  1.00  0.00     0.029 A 
ATOM     57  N   UNL A   1      39.843  34.238  29.711  1.00  0.00    -0.354 N 
ATOM     58  N   UNL A   1      42.951  32.263  29.802  1.00  0.00    -0.248 NA
ATOM     59  C   UNL A   1      45.125  32.346  29.051  1.00  0.00     0.031 C 
ATOM     60  C   UNL A   1      40.877  33.978  31.663  1.00  0.00     0.029 A 
ATOM     61  C   UNL A   1      41.079  34.237  30.320  1.00  0.00     0.049 A 
ATOM     62  H   UNL A   1      39.679  34.442  28.762  1.00  0.00     0.167 HD
ATOM     63  C   UNL A   1      43.199  33.567  29.458  1.00  0.00     0.074 A 
ATOM     64  C   UNL A   1      44.579  33.572  29.015  1.00  0.00     0.031 C 
ATOM     65  C   UNL A   1      42.260  34.552  29.551  1.00  0.00     0.037 A 
BRANCH  52  66
ATOM     66  C   UNL A   1      36.241  33.803  30.788  1.00  0.00     0.057 A 
ATOM     67  C   UNL A   1      35.196  34.355  30.028  1.00  0.00     0.134 A 
ATOM     68  C   UNL A   1      35.951  33.688  32.167  1.00  0.00     0.134 A 
ATOM     69  F   UNL A   1      35.262  34.428  28.693  1.00  0.00    -0.206 F 
ATOM     70  C   UNL A   1      34.021  34.869  30.604  1.00  0.00     0.040 A 
ATOM     71  C   UNL A   1      34.796  34.226  32.761  1.00  0.00     0.040 A 
ATOM     72  F   UNL A   1      36.817  33.090  33.002  1.00  0.00    -0.206 F 
ATOM     73  C   UNL A   1      33.828  34.836  31.977  1.00  0.00     0.006 A 
ENDBRANCH  52  66
BRANCH  53  74
ATOM     74  C   UNL A   1      44.630  29.048  28.800  1.00  0.00     0.057 A 
ATOM     75  C   UNL A   1      44.226  29.152  27.448  1.00  0.00     0.134 A 
ATOM     76  C   UNL A   1      45.687  28.170  29.059  1.00  0.00     0.134 A 
ATOM     77  F   UNL A   1      43.209  29.960  27.106  1.00  0.00    -0.206 F 
ATOM     78  C   UNL A   1      44.917  28.530  26.403  1.00  0.00     0.040 A 
ATOM     79  C   UNL A   1      46.371  27.514  28.018  1.00  0.00     0.040 A 
ATOM     80  F   UNL A   1      46.187  28.046  30.297  1.00  0.00    -0.206 F 
ATOM     81  C   UNL A   1      46.007  27.720  26.686  1.00  0.00     0.006 A 
ENDBRANCH  53  74
BRANCH  65  82
ATOM     82  C   UNL A   1      42.389  35.937  28.983  1.00  0.00     0.057 A 
ATOM     83  C   UNL A   1      43.121  36.955  29.603  1.00  0.00     0.134 A 
ATOM     84  C   UNL A   1      41.908  36.231  27.688  1.00  0.00     0.134 A 
ATOM     85  F   UNL A   1      43.731  36.760  30.781  1.00  0.00    -0.206 F 
ATOM     86  C   UNL A   1      43.304  38.209  29.009  1.00  0.00     0.040 A 
ATOM     87  C   UNL A   1      42.131  37.459  27.063  1.00  0.00     0.040 A 
ATOM     88  F   UNL A   1      41.226  35.328  26.967  1.00  0.00    -0.206 F 
ATOM     89  C   UNL A   1      42.817  38.461  27.731  1.00  0.00     0.006 A 
ENDBRANCH  65  82
ENDBRANCH  39  40
ENDBRANCH  32  34
ENDBRANCH  31  32
ENDBRANCH  30  31
ENDBRANCH  29  30
ENDBRANCH  28  29
ENDBRANCH   1  28
TORSDOF 18
ENDMDL
