MODEL 1
REMARK VINA RESULT:     -10.3      0.000      0.000
REMARK SMILES C[NH2+][C@]1(C(=O)OCCOCCOCCOC(=O)c2ccc(-c3c4nc(c(-c5c(F)cccc5F)c5ccc([nH]5)c(-c5c(F)cccc5F)c5nc(c(-c6c(F)cccc6F)c6ccc3[nH]6)C=C5)C=C4)cc2)CCC[C@@H]1CC[N@H+]1CCC[C@H]([NH+](C)C)C1
REMARK SMILES IDX 10 1 9 2 8 3 7 4 6 5 4 6 5 7 3 8 72 9 75 10 73 11 74 12 2 13
REMARK SMILES IDX 1 14 76 17 77 18 78 19 79 20 86 21 80 23 82 24 81 25 83 26
REMARK SMILES IDX 84 27 85 28 11 30 12 31 13 32 14 33 15 34 16 35 17 36 18 37
REMARK SMILES IDX 19 38 71 39 20 40 70 41 21 42 22 43 23 44 64 45 24 46 69 47
REMARK SMILES IDX 63 48 65 49 25 50 68 51 62 52 61 53 26 55 52 56 35 57 51 58
REMARK SMILES IDX 36 59 39 60 50 61 66 62 37 63 38 64 49 66 67 67 40 68 27 69
REMARK SMILES IDX 28 70 33 71 29 72 30 73 32 74 34 75 31 76 53 77 54 78 59 79
REMARK SMILES IDX 55 80 56 81 58 82 60 83 57 84 41 85 42 86 47 87 43 88 44 89
REMARK SMILES IDX 46 90 48 91 45 92
REMARK H PARENT 2 15 2 16 78 22 83 29 65 54 39 65
REMARK Flexibility Score: inf
ROOT
ATOM      1  C   UNL A   1      41.205  20.086  27.251  1.00  0.00     0.188 C 
ENDROOT
BRANCH   1   2
ATOM      2  O   UNL A   1      40.364  21.227  27.204  1.00  0.00    -0.376 OA
BRANCH   2   3
ATOM      3  C   UNL A   1      39.414  21.356  26.159  1.00  0.00     0.202 C 
BRANCH   3   4
ATOM      4  C   UNL A   1      38.753  22.712  25.870  1.00  0.00     0.261 C 
BRANCH   4   5
ATOM      5  O   UNL A   1      37.344  22.859  26.165  1.00  0.00    -0.459 OA
BRANCH   5   6
ATOM      6  C   UNL A   1      36.494  22.415  25.195  1.00  0.00     0.368 C 
ATOM      7  O   UNL A   1      36.886  22.125  24.063  1.00  0.00    -0.245 OA
BRANCH   6   8
ATOM      8  C   UNL A   1      34.968  22.333  25.608  1.00  0.00     0.197 C 
ATOM      9  C   UNL A   1      34.622  21.665  26.958  1.00  0.00     0.081 C 
ATOM     10  C   UNL A   1      34.504  23.787  25.918  1.00  0.00     0.068 C 
ATOM     11  C   UNL A   1      33.316  22.306  27.439  1.00  0.00     0.008 C 
ATOM     12  C   UNL A   1      33.201  23.647  26.716  1.00  0.00     0.011 C 
BRANCH   8  13
ATOM     13  N   UNL A   1      34.341  21.597  24.483  1.00  0.00    -0.334 N 
ATOM     14  C   UNL A   1      33.871  20.243  24.620  1.00  0.00     0.331 C 
ATOM     15  H   UNL A   1      33.533  22.149  24.196  1.00  0.00     0.347 HD
ATOM     16  H   UNL A   1      35.123  21.486  23.839  1.00  0.00     0.347 HD
ENDBRANCH   8  13
BRANCH  10  17
ATOM     17  C   UNL A   1      34.431  24.704  24.690  1.00  0.00     0.072 C 
BRANCH  17  18
ATOM     18  C   UNL A   1      33.080  24.735  23.950  1.00  0.00     0.262 C 
BRANCH  18  19
ATOM     19  N   UNL A   1      32.382  26.019  23.772  1.00  0.00    -0.330 N 
ATOM     20  C   UNL A   1      31.379  26.074  22.715  1.00  0.00     0.262 C 
ATOM     21  C   UNL A   1      31.749  26.442  25.031  1.00  0.00     0.327 C 
ATOM     22  H   UNL A   1      33.126  26.652  23.481  1.00  0.00     0.348 HD
ATOM     23  C   UNL A   1      30.769  27.465  22.513  1.00  0.00     0.068 C 
ATOM     24  C   UNL A   1      31.297  27.929  24.982  1.00  0.00     0.239 C 
ATOM     25  C   UNL A   1      30.318  28.123  23.805  1.00  0.00     0.077 C 
BRANCH  24  26
ATOM     26  N   UNL A   1      32.369  28.957  25.066  1.00  0.00    -0.333 N 
ATOM     27  C   UNL A   1      31.887  30.163  25.746  1.00  0.00     0.332 C 
ATOM     28  C   UNL A   1      33.622  28.529  25.687  1.00  0.00     0.332 C 
ATOM     29  H   UNL A   1      32.594  29.147  24.091  1.00  0.00     0.348 HD
ENDBRANCH  24  26
ENDBRANCH  18  19
ENDBRANCH  17  18
ENDBRANCH  10  17
ENDBRANCH   6   8
ENDBRANCH   5   6
ENDBRANCH   4   5
ENDBRANCH   3   4
ENDBRANCH   2   3
ENDBRANCH   1   2
BRANCH   1  30
ATOM     30  C   UNL A   1      41.733  19.494  25.934  1.00  0.00     0.188 C 
BRANCH  30  31
ATOM     31  O   UNL A   1      43.106  19.211  25.900  1.00  0.00    -0.376 OA
BRANCH  31  32
ATOM     32  C   UNL A   1      43.972  20.083  25.202  1.00  0.00     0.202 C 
BRANCH  32  33
ATOM     33  C   UNL A   1      44.387  21.474  25.728  1.00  0.00     0.261 C 
BRANCH  33  34
ATOM     34  O   UNL A   1      43.404  22.520  25.771  1.00  0.00    -0.460 OA
BRANCH  34  35
ATOM     35  C   UNL A   1      43.755  23.747  25.318  1.00  0.00     0.338 C 
ATOM     36  O   UNL A   1      44.315  24.005  24.264  1.00  0.00    -0.246 OA
BRANCH  35  37
ATOM     37  C   UNL A   1      43.107  24.756  26.196  1.00  0.00     0.060 A 
ATOM     38  C   UNL A   1      43.599  26.074  26.209  1.00  0.00     0.016 A 
ATOM     39  C   UNL A   1      41.997  24.419  26.972  1.00  0.00     0.016 A 
ATOM     40  C   UNL A   1      43.001  27.045  27.017  1.00  0.00     0.010 A 
ATOM     41  C   UNL A   1      41.421  25.383  27.806  1.00  0.00     0.010 A 
ATOM     42  C   UNL A   1      41.938  26.692  27.857  1.00  0.00    -0.014 A 
BRANCH  42  43
ATOM     43  C   UNL A   1      41.512  27.607  28.947  1.00  0.00     0.031 A 
ATOM     44  C   UNL A   1      42.248  27.535  30.258  1.00  0.00     0.074 A 
ATOM     45  C   UNL A   1      40.502  28.482  28.795  1.00  0.00     0.049 A 
ATOM     46  N   UNL A   1      42.007  28.150  31.387  1.00  0.00    -0.248 NA
ATOM     47  C   UNL A   1      43.416  26.640  30.298  1.00  0.00     0.031 C 
ATOM     48  C   UNL A   1      39.739  28.696  27.568  1.00  0.00     0.029 A 
ATOM     49  N   UNL A   1      39.934  29.347  29.701  1.00  0.00    -0.354 N 
ATOM     50  C   UNL A   1      42.981  27.706  32.272  1.00  0.00     0.074 A 
ATOM     51  C   UNL A   1      43.800  26.750  31.560  1.00  0.00     0.031 C 
ATOM     52  C   UNL A   1      38.787  29.617  27.803  1.00  0.00     0.029 A 
ATOM     53  C   UNL A   1      38.849  30.029  29.206  1.00  0.00     0.049 A 
ATOM     54  H   UNL A   1      40.274  29.467  30.617  1.00  0.00     0.167 HD
ATOM     55  C   UNL A   1      43.182  28.064  33.563  1.00  0.00     0.037 A 
ATOM     56  C   UNL A   1      37.987  30.862  29.823  1.00  0.00     0.037 A 
ATOM     57  C   UNL A   1      42.365  29.009  34.277  1.00  0.00     0.049 A 
ATOM     58  C   UNL A   1      38.175  31.177  31.287  1.00  0.00     0.074 A 
ATOM     59  C   UNL A   1      42.497  29.446  35.584  1.00  0.00     0.029 A 
ATOM     60  N   UNL A   1      41.257  29.653  33.749  1.00  0.00    -0.354 N 
ATOM     61  N   UNL A   1      39.108  30.769  32.112  1.00  0.00    -0.248 NA
ATOM     62  C   UNL A   1      37.184  32.073  31.906  1.00  0.00     0.031 C 
ATOM     63  C   UNL A   1      41.432  30.309  35.864  1.00  0.00     0.029 A 
ATOM     64  C   UNL A   1      40.678  30.462  34.712  1.00  0.00     0.049 A 
ATOM     65  H   UNL A   1      40.930  29.551  32.826  1.00  0.00     0.167 HD
ATOM     66  C   UNL A   1      38.840  31.384  33.331  1.00  0.00     0.074 A 
ATOM     67  C   UNL A   1      37.661  32.201  33.136  1.00  0.00     0.031 C 
ATOM     68  C   UNL A   1      39.511  31.282  34.506  1.00  0.00     0.037 A 
BRANCH  55  69
ATOM     69  C   UNL A   1      44.312  27.400  34.297  1.00  0.00     0.057 A 
ATOM     70  C   UNL A   1      45.588  27.973  34.373  1.00  0.00     0.134 A 
ATOM     71  C   UNL A   1      44.111  26.182  34.958  1.00  0.00     0.134 A 
ATOM     72  F   UNL A   1      45.853  29.130  33.748  1.00  0.00    -0.206 F 
ATOM     73  C   UNL A   1      46.630  27.345  35.058  1.00  0.00     0.040 A 
ATOM     74  C   UNL A   1      45.135  25.559  35.671  1.00  0.00     0.040 A 
ATOM     75  F   UNL A   1      42.912  25.579  34.928  1.00  0.00    -0.206 F 
ATOM     76  C   UNL A   1      46.402  26.138  35.716  1.00  0.00     0.006 A 
ENDBRANCH  55  69
BRANCH  56  77
ATOM     77  C   UNL A   1      36.845  31.449  29.074  1.00  0.00     0.057 A 
ATOM     78  C   UNL A   1      36.858  32.785  28.657  1.00  0.00     0.134 A 
ATOM     79  C   UNL A   1      35.695  30.699  28.792  1.00  0.00     0.134 A 
ATOM     80  F   UNL A   1      37.916  33.565  28.924  1.00  0.00    -0.206 F 
ATOM     81  C   UNL A   1      35.765  33.361  28.007  1.00  0.00     0.040 A 
ATOM     82  C   UNL A   1      34.607  31.253  28.115  1.00  0.00     0.040 A 
ATOM     83  F   UNL A   1      35.614  29.414  29.169  1.00  0.00    -0.206 F 
ATOM     84  C   UNL A   1      34.636  32.591  27.728  1.00  0.00     0.006 A 
ENDBRANCH  56  77
BRANCH  68  85
ATOM     85  C   UNL A   1      39.024  32.112  35.661  1.00  0.00     0.057 A 
ATOM     86  C   UNL A   1      38.206  31.584  36.668  1.00  0.00     0.134 A 
ATOM     87  C   UNL A   1      39.423  33.451  35.792  1.00  0.00     0.134 A 
ATOM     88  F   UNL A   1      37.780  30.314  36.601  1.00  0.00    -0.206 F 
ATOM     89  C   UNL A   1      37.780  32.363  37.746  1.00  0.00     0.040 A 
ATOM     90  C   UNL A   1      39.029  34.230  36.881  1.00  0.00     0.040 A 
ATOM     91  F   UNL A   1      40.217  34.018  34.871  1.00  0.00    -0.206 F 
ATOM     92  C   UNL A   1      38.200  33.687  37.859  1.00  0.00     0.006 A 
ENDBRANCH  68  85
ENDBRANCH  42  43
ENDBRANCH  35  37
ENDBRANCH  34  35
ENDBRANCH  33  34
ENDBRANCH  32  33
ENDBRANCH  31  32
ENDBRANCH  30  31
ENDBRANCH   1  30
TORSDOF 22
ENDMDL
MODEL 2
REMARK VINA RESULT:      -9.9      3.138      8.212
REMARK SMILES C[NH2+][C@]1(C(=O)OCCOCCOCCOC(=O)c2ccc(-c3c4nc(c(-c5c(F)cccc5F)c5ccc([nH]5)c(-c5c(F)cccc5F)c5nc(c(-c6c(F)cccc6F)c6ccc3[nH]6)C=C5)C=C4)cc2)CCC[C@@H]1CC[N@H+]1CCC[C@H]([NH+](C)C)C1
REMARK SMILES IDX 10 1 9 2 8 3 7 4 6 5 4 6 5 7 3 8 72 9 75 10 73 11 74 12 2 13
REMARK SMILES IDX 1 14 76 17 77 18 78 19 79 20 86 21 80 23 82 24 81 25 83 26
REMARK SMILES IDX 84 27 85 28 11 30 12 31 13 32 14 33 15 34 16 35 17 36 18 37
REMARK SMILES IDX 19 38 71 39 20 40 70 41 21 42 22 43 23 44 64 45 24 46 69 47
REMARK SMILES IDX 63 48 65 49 25 50 68 51 62 52 61 53 26 55 52 56 35 57 51 58
REMARK SMILES IDX 36 59 39 60 50 61 66 62 37 63 38 64 49 66 67 67 40 68 27 69
REMARK SMILES IDX 28 70 33 71 29 72 30 73 32 74 34 75 31 76 53 77 54 78 59 79
REMARK SMILES IDX 55 80 56 81 58 82 60 83 57 84 41 85 42 86 47 87 43 88 44 89
REMARK SMILES IDX 46 90 48 91 45 92
REMARK H PARENT 2 15 2 16 78 22 83 29 65 54 39 65
REMARK Flexibility Score: inf
ROOT
ATOM      1  C   UNL A   1      30.415  26.040  24.636  1.00  0.00     0.188 C 
ENDROOT
BRANCH   1   2
ATOM      2  O   UNL A   1      30.631  25.671  23.284  1.00  0.00    -0.376 OA
BRANCH   2   3
ATOM      3  C   UNL A   1      31.499  26.448  22.474  1.00  0.00     0.202 C 
BRANCH   3   4
ATOM      4  C   UNL A   1      32.456  25.769  21.483  1.00  0.00     0.261 C 
BRANCH   4   5
ATOM      5  O   UNL A   1      33.679  25.195  22.004  1.00  0.00    -0.459 OA
BRANCH   5   6
ATOM      6  C   UNL A   1      33.585  23.899  22.420  1.00  0.00     0.368 C 
ATOM      7  O   UNL A   1      33.275  22.985  21.653  1.00  0.00    -0.245 OA
BRANCH   6   8
ATOM      8  C   UNL A   1      33.863  23.654  23.960  1.00  0.00     0.197 C 
ATOM      9  C   UNL A   1      34.175  24.885  24.839  1.00  0.00     0.081 C 
ATOM     10  C   UNL A   1      32.513  23.219  24.600  1.00  0.00     0.068 C 
ATOM     11  C   UNL A   1      33.713  24.535  26.258  1.00  0.00     0.008 C 
ATOM     12  C   UNL A   1      32.688  23.411  26.113  1.00  0.00     0.011 C 
BRANCH   8  13
ATOM     13  N   UNL A   1      35.004  22.705  23.961  1.00  0.00    -0.334 N 
ATOM     14  C   UNL A   1      36.255  23.010  23.318  1.00  0.00     0.331 C 
ATOM     15  H   UNL A   1      35.225  22.527  24.941  1.00  0.00     0.347 HD
ATOM     16  H   UNL A   1      34.649  21.944  23.384  1.00  0.00     0.347 HD
ENDBRANCH   8  13
BRANCH  10  17
ATOM     17  C   UNL A   1      32.020  21.833  24.163  1.00  0.00     0.072 C 
BRANCH  17  18
ATOM     18  C   UNL A   1      32.354  20.668  25.113  1.00  0.00     0.262 C 
BRANCH  18  19
ATOM     19  N   UNL A   1      32.724  19.358  24.550  1.00  0.00    -0.330 N 
ATOM     20  C   UNL A   1      32.193  19.044  23.229  1.00  0.00     0.262 C 
ATOM     21  C   UNL A   1      34.186  19.207  24.508  1.00  0.00     0.327 C 
ATOM     22  H   UNL A   1      32.284  18.696  25.190  1.00  0.00     0.348 HD
ATOM     23  C   UNL A   1      32.526  17.627  22.750  1.00  0.00     0.068 C 
ATOM     24  C   UNL A   1      34.610  17.735  24.244  1.00  0.00     0.239 C 
ATOM     25  C   UNL A   1      33.990  17.259  22.914  1.00  0.00     0.077 C 
BRANCH  24  26
ATOM     26  N   UNL A   1      34.450  16.780  25.374  1.00  0.00    -0.333 N 
ATOM     27  C   UNL A   1      33.190  16.040  25.262  1.00  0.00     0.332 C 
ATOM     28  C   UNL A   1      35.544  15.830  25.572  1.00  0.00     0.332 C 
ATOM     29  H   UNL A   1      34.454  17.382  26.197  1.00  0.00     0.348 HD
ENDBRANCH  24  26
ENDBRANCH  18  19
ENDBRANCH  17  18
ENDBRANCH  10  17
ENDBRANCH   6   8
ENDBRANCH   5   6
ENDBRANCH   4   5
ENDBRANCH   3   4
ENDBRANCH   2   3
ENDBRANCH   1   2
BRANCH   1  30
ATOM     30  C   UNL A   1      31.225  27.203  25.230  1.00  0.00     0.188 C 
BRANCH  30  31
ATOM     31  O   UNL A   1      31.427  27.159  26.617  1.00  0.00    -0.376 OA
BRANCH  31  32
ATOM     32  C   UNL A   1      31.697  28.359  27.313  1.00  0.00     0.202 C 
BRANCH  32  33
ATOM     33  C   UNL A   1      31.774  29.741  26.630  1.00  0.00     0.261 C 
BRANCH  33  34
ATOM     34  O   UNL A   1      33.065  30.313  26.366  1.00  0.00    -0.460 OA
BRANCH  34  35
ATOM     35  C   UNL A   1      33.450  31.388  27.093  1.00  0.00     0.338 C 
ATOM     36  O   UNL A   1      32.771  32.364  27.371  1.00  0.00    -0.246 OA
BRANCH  35  37
ATOM     37  C   UNL A   1      34.756  31.065  27.723  1.00  0.00     0.060 A 
ATOM     38  C   UNL A   1      35.074  29.724  28.001  1.00  0.00     0.016 A 
ATOM     39  C   UNL A   1      35.681  32.073  28.003  1.00  0.00     0.016 A 
ATOM     40  C   UNL A   1      36.300  29.392  28.583  1.00  0.00     0.010 A 
ATOM     41  C   UNL A   1      36.894  31.743  28.617  1.00  0.00     0.010 A 
ATOM     42  C   UNL A   1      37.197  30.406  28.939  1.00  0.00    -0.014 A 
BRANCH  42  43
ATOM     43  C   UNL A   1      38.339  30.110  29.843  1.00  0.00     0.031 A 
ATOM     44  C   UNL A   1      39.403  29.166  29.350  1.00  0.00     0.074 A 
ATOM     45  C   UNL A   1      38.443  30.653  31.069  1.00  0.00     0.049 A 
ATOM     46  N   UNL A   1      40.439  28.672  29.979  1.00  0.00    -0.248 NA
ATOM     47  C   UNL A   1      39.275  28.715  27.955  1.00  0.00     0.031 C 
ATOM     48  C   UNL A   1      37.517  31.620  31.651  1.00  0.00     0.029 A 
ATOM     49  N   UNL A   1      39.379  30.445  32.054  1.00  0.00    -0.354 N 
ATOM     50  C   UNL A   1      41.075  27.844  29.063  1.00  0.00     0.074 A 
ATOM     51  C   UNL A   1      40.295  27.879  27.844  1.00  0.00     0.031 C 
ATOM     52  C   UNL A   1      37.919  31.907  32.903  1.00  0.00     0.029 A 
ATOM     53  C   UNL A   1      39.107  31.115  33.222  1.00  0.00     0.049 A 
ATOM     54  H   UNL A   1      40.170  29.872  31.934  1.00  0.00     0.167 HD
ATOM     55  C   UNL A   1      42.209  27.121  29.217  1.00  0.00     0.037 A 
ATOM     56  C   UNL A   1      39.727  31.068  34.419  1.00  0.00     0.037 A 
ATOM     57  C   UNL A   1      42.983  27.077  30.430  1.00  0.00     0.049 A 
ATOM     58  C   UNL A   1      40.938  30.185  34.597  1.00  0.00     0.074 A 
ATOM     59  C   UNL A   1      44.154  26.383  30.680  1.00  0.00     0.029 A 
ATOM     60  N   UNL A   1      42.655  27.745  31.599  1.00  0.00    -0.354 N 
ATOM     61  N   UNL A   1      41.544  29.420  33.721  1.00  0.00    -0.248 NA
ATOM     62  C   UNL A   1      41.550  30.159  35.935  1.00  0.00     0.031 C 
ATOM     63  C   UNL A   1      44.502  26.585  32.019  1.00  0.00     0.029 A 
ATOM     64  C   UNL A   1      43.587  27.457  32.584  1.00  0.00     0.049 A 
ATOM     65  H   UNL A   1      41.877  28.337  31.714  1.00  0.00     0.167 HD
ATOM     66  C   UNL A   1      42.626  28.854  34.389  1.00  0.00     0.074 A 
ATOM     67  C   UNL A   1      42.599  29.372  35.741  1.00  0.00     0.031 C 
ATOM     68  C   UNL A   1      43.559  27.987  33.923  1.00  0.00     0.037 A 
BRANCH  55  69
ATOM     69  C   UNL A   1      42.661  26.287  28.053  1.00  0.00     0.057 A 
ATOM     70  C   UNL A   1      42.218  24.972  27.862  1.00  0.00     0.134 A 
ATOM     71  C   UNL A   1      43.534  26.819  27.095  1.00  0.00     0.134 A 
ATOM     72  F   UNL A   1      41.394  24.396  28.751  1.00  0.00    -0.206 F 
ATOM     73  C   UNL A   1      42.646  24.208  26.775  1.00  0.00     0.040 A 
ATOM     74  C   UNL A   1      43.946  26.076  25.988  1.00  0.00     0.040 A 
ATOM     75  F   UNL A   1      43.995  28.074  27.214  1.00  0.00    -0.206 F 
ATOM     76  C   UNL A   1      43.507  24.763  25.830  1.00  0.00     0.006 A 
ENDBRANCH  55  69
BRANCH  56  77
ATOM     77  C   UNL A   1      39.208  31.862  35.563  1.00  0.00     0.057 A 
ATOM     78  C   UNL A   1      39.672  33.158  35.819  1.00  0.00     0.134 A 
ATOM     79  C   UNL A   1      38.266  31.331  36.454  1.00  0.00     0.134 A 
ATOM     80  F   UNL A   1      40.597  33.713  35.022  1.00  0.00    -0.206 F 
ATOM     81  C   UNL A   1      39.235  33.888  36.927  1.00  0.00     0.040 A 
ATOM     82  C   UNL A   1      37.798  32.060  37.547  1.00  0.00     0.040 A 
ATOM     83  F   UNL A   1      37.785  30.091  36.271  1.00  0.00    -0.206 F 
ATOM     84  C   UNL A   1      38.289  33.340  37.792  1.00  0.00     0.006 A 
ENDBRANCH  56  77
BRANCH  68  85
ATOM     85  C   UNL A   1      44.661  27.578  34.862  1.00  0.00     0.057 A 
ATOM     86  C   UNL A   1      44.624  26.375  35.579  1.00  0.00     0.134 A 
ATOM     87  C   UNL A   1      45.801  28.382  35.011  1.00  0.00     0.134 A 
ATOM     88  F   UNL A   1      43.561  25.563  35.490  1.00  0.00    -0.206 F 
ATOM     89  C   UNL A   1      45.667  26.000  36.429  1.00  0.00     0.040 A 
ATOM     90  C   UNL A   1      46.862  28.003  35.834  1.00  0.00     0.040 A 
ATOM     91  F   UNL A   1      45.908  29.542  34.344  1.00  0.00    -0.206 F 
ATOM     92  C   UNL A   1      46.794  26.811  36.551  1.00  0.00     0.006 A 
ENDBRANCH  68  85
ENDBRANCH  42  43
ENDBRANCH  35  37
ENDBRANCH  34  35
ENDBRANCH  33  34
ENDBRANCH  32  33
ENDBRANCH  31  32
ENDBRANCH  30  31
ENDBRANCH   1  30
TORSDOF 22
ENDMDL
MODEL 3
REMARK VINA RESULT:      -9.6      4.226      9.383
REMARK SMILES C[NH2+][C@]1(C(=O)OCCOCCOCCOC(=O)c2ccc(-c3c4nc(c(-c5c(F)cccc5F)c5ccc([nH]5)c(-c5c(F)cccc5F)c5nc(c(-c6c(F)cccc6F)c6ccc3[nH]6)C=C5)C=C4)cc2)CCC[C@@H]1CC[N@H+]1CCC[C@H]([NH+](C)C)C1
REMARK SMILES IDX 10 1 9 2 8 3 7 4 6 5 4 6 5 7 3 8 72 9 75 10 73 11 74 12 2 13
REMARK SMILES IDX 1 14 76 17 77 18 78 19 79 20 86 21 80 23 82 24 81 25 83 26
REMARK SMILES IDX 84 27 85 28 11 30 12 31 13 32 14 33 15 34 16 35 17 36 18 37
REMARK SMILES IDX 19 38 71 39 20 40 70 41 21 42 22 43 23 44 64 45 24 46 69 47
REMARK SMILES IDX 63 48 65 49 25 50 68 51 62 52 61 53 26 55 52 56 35 57 51 58
REMARK SMILES IDX 36 59 39 60 50 61 66 62 37 63 38 64 49 66 67 67 40 68 27 69
REMARK SMILES IDX 28 70 33 71 29 72 30 73 32 74 34 75 31 76 53 77 54 78 59 79
REMARK SMILES IDX 55 80 56 81 58 82 60 83 57 84 41 85 42 86 47 87 43 88 44 89
REMARK SMILES IDX 46 90 48 91 45 92
REMARK H PARENT 2 15 2 16 78 22 83 29 65 54 39 65
REMARK Flexibility Score: inf
ROOT
ATOM      1  C   UNL A   1      30.086  28.169  23.134  1.00  0.00     0.188 C 
ENDROOT
BRANCH   1   2
ATOM      2  O   UNL A   1      30.524  27.220  22.175  1.00  0.00    -0.376 OA
BRANCH   2   3
ATOM      3  C   UNL A   1      31.910  27.085  21.903  1.00  0.00     0.202 C 
BRANCH   3   4
ATOM      4  C   UNL A   1      32.521  25.700  21.643  1.00  0.00     0.261 C 
BRANCH   4   5
ATOM      5  O   UNL A   1      33.654  25.294  22.447  1.00  0.00    -0.459 OA
BRANCH   5   6
ATOM      6  C   UNL A   1      33.803  23.948  22.610  1.00  0.00     0.368 C 
ATOM      7  O   UNL A   1      33.484  23.143  21.733  1.00  0.00    -0.245 OA
BRANCH   6   8
ATOM      8  C   UNL A   1      34.376  23.488  24.012  1.00  0.00     0.197 C 
ATOM      9  C   UNL A   1      35.012  24.565  24.918  1.00  0.00     0.081 C 
ATOM     10  C   UNL A   1      33.154  23.101  24.896  1.00  0.00     0.068 C 
ATOM     11  C   UNL A   1      34.829  24.084  26.362  1.00  0.00     0.008 C 
ATOM     12  C   UNL A   1      33.673  23.086  26.340  1.00  0.00     0.011 C 
BRANCH   8  13
ATOM     13  N   UNL A   1      35.372  22.446  23.658  1.00  0.00    -0.334 N 
ATOM     14  C   UNL A   1      36.730  22.771  23.310  1.00  0.00     0.331 C 
ATOM     15  H   UNL A   1      35.426  21.820  24.461  1.00  0.00     0.347 HD
ATOM     16  H   UNL A   1      35.005  22.094  22.774  1.00  0.00     0.347 HD
ENDBRANCH   8  13
BRANCH  10  17
ATOM     17  C   UNL A   1      32.420  21.832  24.444  1.00  0.00     0.072 C 
BRANCH  17  18
ATOM     18  C   UNL A   1      32.612  20.589  25.333  1.00  0.00     0.262 C 
BRANCH  18  19
ATOM     19  N   UNL A   1      32.894  19.287  24.706  1.00  0.00    -0.330 N 
ATOM     20  C   UNL A   1      32.262  19.036  23.415  1.00  0.00     0.262 C 
ATOM     21  C   UNL A   1      34.343  19.087  24.557  1.00  0.00     0.327 C 
ATOM     22  H   UNL A   1      32.475  18.620  25.353  1.00  0.00     0.348 HD
ATOM     23  C   UNL A   1      32.510  17.625  22.871  1.00  0.00     0.068 C 
ATOM     24  C   UNL A   1      34.693  17.611  24.219  1.00  0.00     0.239 C 
ATOM     25  C   UNL A   1      33.967  17.201  22.921  1.00  0.00     0.077 C 
BRANCH  24  26
ATOM     26  N   UNL A   1      34.576  16.624  25.327  1.00  0.00    -0.333 N 
ATOM     27  C   UNL A   1      33.475  15.689  25.083  1.00  0.00     0.332 C 
ATOM     28  C   UNL A   1      35.785  15.865  25.642  1.00  0.00     0.332 C 
ATOM     29  H   UNL A   1      34.394  17.206  26.145  1.00  0.00     0.348 HD
ENDBRANCH  24  26
ENDBRANCH  18  19
ENDBRANCH  17  18
ENDBRANCH  10  17
ENDBRANCH   6   8
ENDBRANCH   5   6
ENDBRANCH   4   5
ENDBRANCH   3   4
ENDBRANCH   2   3
ENDBRANCH   1   2
BRANCH   1  30
ATOM     30  C   UNL A   1      31.066  29.251  23.614  1.00  0.00     0.188 C 
BRANCH  30  31
ATOM     31  O   UNL A   1      31.127  29.446  25.001  1.00  0.00    -0.376 OA
BRANCH  31  32
ATOM     32  C   UNL A   1      32.358  29.813  25.591  1.00  0.00     0.202 C 
BRANCH  32  33
ATOM     33  C   UNL A   1      32.476  30.435  26.998  1.00  0.00     0.261 C 
BRANCH  33  34
ATOM     34  O   UNL A   1      33.572  30.040  27.841  1.00  0.00    -0.460 OA
BRANCH  34  35
ATOM     35  C   UNL A   1      34.441  30.994  28.249  1.00  0.00     0.338 C 
ATOM     36  O   UNL A   1      34.165  32.122  28.629  1.00  0.00    -0.246 OA
BRANCH  35  37
ATOM     37  C   UNL A   1      35.772  30.354  28.412  1.00  0.00     0.060 A 
ATOM     38  C   UNL A   1      36.164  29.895  29.682  1.00  0.00     0.016 A 
ATOM     39  C   UNL A   1      36.614  30.171  27.313  1.00  0.00     0.016 A 
ATOM     40  C   UNL A   1      37.406  29.279  29.859  1.00  0.00     0.010 A 
ATOM     41  C   UNL A   1      37.871  29.585  27.499  1.00  0.00     0.010 A 
ATOM     42  C   UNL A   1      38.287  29.165  28.777  1.00  0.00    -0.014 A 
BRANCH  42  43
ATOM     43  C   UNL A   1      39.714  28.823  29.008  1.00  0.00     0.031 A 
ATOM     44  C   UNL A   1      40.607  29.881  29.601  1.00  0.00     0.074 A 
ATOM     45  C   UNL A   1      40.221  27.614  28.705  1.00  0.00     0.049 A 
ATOM     46  N   UNL A   1      41.899  29.866  29.805  1.00  0.00    -0.248 NA
ATOM     47  C   UNL A   1      39.946  31.130  30.014  1.00  0.00     0.031 C 
ATOM     48  C   UNL A   1      39.463  26.483  28.179  1.00  0.00     0.029 A 
ATOM     49  N   UNL A   1      41.512  27.148  28.787  1.00  0.00    -0.354 N 
ATOM     50  C   UNL A   1      42.206  31.104  30.356  1.00  0.00     0.074 A 
ATOM     51  C   UNL A   1      40.972  31.856  30.429  1.00  0.00     0.031 C 
ATOM     52  C   UNL A   1      40.307  25.458  27.962  1.00  0.00     0.029 A 
ATOM     53  C   UNL A   1      41.668  25.874  28.299  1.00  0.00     0.049 A 
ATOM     54  H   UNL A   1      42.253  27.677  29.161  1.00  0.00     0.167 HD
ATOM     55  C   UNL A   1      43.407  31.574  30.770  1.00  0.00     0.037 A 
ATOM     56  C   UNL A   1      42.786  25.142  28.116  1.00  0.00     0.037 A 
ATOM     57  C   UNL A   1      44.638  30.831  30.692  1.00  0.00     0.049 A 
ATOM     58  C   UNL A   1      44.127  25.720  28.499  1.00  0.00     0.074 A 
ATOM     59  C   UNL A   1      45.903  31.218  31.097  1.00  0.00     0.029 A 
ATOM     60  N   UNL A   1      44.758  29.557  30.162  1.00  0.00    -0.354 N 
ATOM     61  N   UNL A   1      44.407  26.882  29.037  1.00  0.00    -0.248 NA
ATOM     62  C   UNL A   1      45.309  24.879  28.248  1.00  0.00     0.031 C 
ATOM     63  C   UNL A   1      46.799  30.200  30.758  1.00  0.00     0.029 A 
ATOM     64  C   UNL A   1      46.082  29.152  30.203  1.00  0.00     0.049 A 
ATOM     65  H   UNL A   1      44.014  29.018  29.810  1.00  0.00     0.167 HD
ATOM     66  C   UNL A   1      45.786  26.897  29.222  1.00  0.00     0.074 A 
ATOM     67  C   UNL A   1      46.285  25.623  28.749  1.00  0.00     0.031 C 
ATOM     68  C   UNL A   1      46.568  27.877  29.741  1.00  0.00     0.037 A 
BRANCH  55  69
ATOM     69  C   UNL A   1      43.451  32.974  31.312  1.00  0.00     0.057 A 
ATOM     70  C   UNL A   1      43.628  34.088  30.482  1.00  0.00     0.134 A 
ATOM     71  C   UNL A   1      43.289  33.210  32.683  1.00  0.00     0.134 A 
ATOM     72  F   UNL A   1      43.807  33.931  29.161  1.00  0.00    -0.206 F 
ATOM     73  C   UNL A   1      43.669  35.384  30.998  1.00  0.00     0.040 A 
ATOM     74  C   UNL A   1      43.296  34.502  33.208  1.00  0.00     0.040 A 
ATOM     75  F   UNL A   1      43.111  32.188  33.535  1.00  0.00    -0.206 F 
ATOM     76  C   UNL A   1      43.494  35.594  32.365  1.00  0.00     0.006 A 
ENDBRANCH  55  69
BRANCH  56  77
ATOM     77  C   UNL A   1      42.703  23.784  27.518  1.00  0.00     0.057 A 
ATOM     78  C   UNL A   1      42.807  23.590  26.135  1.00  0.00     0.134 A 
ATOM     79  C   UNL A   1      42.477  22.650  28.309  1.00  0.00     0.134 A 
ATOM     80  F   UNL A   1      42.993  24.638  25.319  1.00  0.00    -0.206 F 
ATOM     81  C   UNL A   1      42.669  22.325  25.559  1.00  0.00     0.040 A 
ATOM     82  C   UNL A   1      42.367  21.376  27.751  1.00  0.00     0.040 A 
ATOM     83  F   UNL A   1      42.360  22.765  29.641  1.00  0.00    -0.206 F 
ATOM     84  C   UNL A   1      42.455  21.211  26.370  1.00  0.00     0.006 A 
ENDBRANCH  56  77
BRANCH  68  85
ATOM     85  C   UNL A   1      48.040  27.597  29.875  1.00  0.00     0.057 A 
ATOM     86  C   UNL A   1      48.966  27.985  28.898  1.00  0.00     0.134 A 
ATOM     87  C   UNL A   1      48.542  26.971  31.025  1.00  0.00     0.134 A 
ATOM     88  F   UNL A   1      48.554  28.581  27.769  1.00  0.00    -0.206 F 
ATOM     89  C   UNL A   1      50.332  27.738  29.048  1.00  0.00     0.040 A 
ATOM     90  C   UNL A   1      49.908  26.746  31.200  1.00  0.00     0.040 A 
ATOM     91  F   UNL A   1      47.713  26.583  32.006  1.00  0.00    -0.206 F 
ATOM     92  C   UNL A   1      50.807  27.124  30.206  1.00  0.00     0.006 A 
ENDBRANCH  68  85
ENDBRANCH  42  43
ENDBRANCH  35  37
ENDBRANCH  34  35
ENDBRANCH  33  34
ENDBRANCH  32  33
ENDBRANCH  31  32
ENDBRANCH  30  31
ENDBRANCH   1  30
TORSDOF 22
ENDMDL
