MODEL 1
REMARK VINA RESULT:     -11.0      0.000      0.000
REMARK SMILES O=C(OCCOCCOCCOC(=O)c1ccc(-c2c3nc(c(-c4c(F)cccc4F)c4ccc([nH]4)c(-c4c(F)cccc4F)c4nc(c(-c5c(F)cccc5F)c5ccc2[nH]5)C=C4)C=C3)cc1)c1ccc(Cc2nc3ccccc3s2)cc1
REMARK SMILES IDX 7 1 6 2 5 3 4 4 3 5 2 6 1 7 69 8 70 9 84 10 71 11 83 12
REMARK SMILES IDX 72 13 73 14 74 15 75 16 82 17 76 18 81 19 77 20 80 21 78 22
REMARK SMILES IDX 79 23 8 24 9 25 10 26 11 27 12 28 13 29 14 30 15 31 16 32
REMARK SMILES IDX 68 33 17 34 67 35 18 36 19 37 20 38 61 39 21 40 66 41 60 42
REMARK SMILES IDX 62 43 22 44 65 45 59 46 58 47 23 49 49 50 32 51 48 52 33 53
REMARK SMILES IDX 36 54 47 55 63 56 34 57 35 58 46 60 64 61 37 62 24 63 25 64
REMARK SMILES IDX 30 65 26 66 27 67 29 68 31 69 28 70 50 71 51 72 56 73 52 74
REMARK SMILES IDX 53 75 55 76 57 77 54 78 38 79 39 80 44 81 40 82 41 83 43 84
REMARK SMILES IDX 45 85 42 86
REMARK H PARENT 62 48 36 59
REMARK Flexibility Score: inf
ROOT
ATOM      1  C   UNL A   1      42.476  19.287  26.225  1.00  0.00     0.188 C 
ENDROOT
BRANCH   1   2
ATOM      2  O   UNL A   1      41.159  19.014  25.728  1.00  0.00    -0.376 OA
BRANCH   2   3
ATOM      3  C   UNL A   1      40.128  19.796  26.323  1.00  0.00     0.202 C 
BRANCH   3   4
ATOM      4  C   UNL A   1      40.242  21.309  26.104  1.00  0.00     0.261 C 
BRANCH   4   5
ATOM      5  O   UNL A   1      39.119  21.869  25.399  1.00  0.00    -0.460 OA
BRANCH   5   6
ATOM      6  C   UNL A   1      38.173  22.672  25.947  1.00  0.00     0.338 C 
ATOM      7  O   UNL A   1      38.482  23.661  26.600  1.00  0.00    -0.246 OA
BRANCH   6   8
ATOM      8  C   UNL A   1      36.743  22.410  25.684  1.00  0.00     0.060 A 
ATOM      9  C   UNL A   1      36.313  21.273  24.995  1.00  0.00     0.016 A 
ATOM     10  C   UNL A   1      35.806  23.293  26.226  1.00  0.00     0.016 A 
ATOM     11  C   UNL A   1      34.954  21.074  24.757  1.00  0.00     0.005 A 
ATOM     12  C   UNL A   1      34.444  23.081  26.009  1.00  0.00     0.005 A 
ATOM     13  C   UNL A   1      34.009  21.985  25.248  1.00  0.00    -0.041 A 
BRANCH  13  14
ATOM     14  C   UNL A   1      32.552  21.859  24.848  1.00  0.00     0.103 C 
BRANCH  14  15
ATOM     15  C   UNL A   1      32.027  23.152  24.285  1.00  0.00     0.098 A 
ATOM     16  N   UNL A   1      31.040  23.845  24.816  1.00  0.00    -0.241 NA
ATOM     17  S   UNL A   1      32.717  23.830  22.866  1.00  0.00    -0.118 S 
ATOM     18  C   UNL A   1      30.837  25.011  24.113  1.00  0.00     0.082 A 
ATOM     19  C   UNL A   1      31.658  25.186  22.999  1.00  0.00     0.055 A 
ATOM     20  C   UNL A   1      29.893  26.005  24.434  1.00  0.00     0.030 A 
ATOM     21  C   UNL A   1      31.558  26.325  22.185  1.00  0.00     0.021 A 
ATOM     22  C   UNL A   1      29.790  27.145  23.636  1.00  0.00     0.002 A 
ATOM     23  C   UNL A   1      30.612  27.300  22.524  1.00  0.00     0.002 A 
ENDBRANCH  14  15
ENDBRANCH  13  14
ENDBRANCH   6   8
ENDBRANCH   5   6
ENDBRANCH   4   5
ENDBRANCH   3   4
ENDBRANCH   2   3
ENDBRANCH   1   2
BRANCH   1  24
ATOM     24  C   UNL A   1      43.493  18.965  25.128  1.00  0.00     0.188 C 
BRANCH  24  25
ATOM     25  O   UNL A   1      44.204  20.102  24.630  1.00  0.00    -0.376 OA
BRANCH  25  26
ATOM     26  C   UNL A   1      45.246  20.623  25.452  1.00  0.00     0.202 C 
BRANCH  26  27
ATOM     27  C   UNL A   1      45.429  22.141  25.413  1.00  0.00     0.261 C 
BRANCH  27  28
ATOM     28  O   UNL A   1      44.454  22.879  26.172  1.00  0.00    -0.460 OA
BRANCH  28  29
ATOM     29  C   UNL A   1      43.452  23.414  25.441  1.00  0.00     0.338 C 
ATOM     30  O   UNL A   1      43.109  23.112  24.303  1.00  0.00    -0.246 OA
BRANCH  29  31
ATOM     31  C   UNL A   1      42.806  24.514  26.168  1.00  0.00     0.060 A 
ATOM     32  C   UNL A   1      43.208  25.834  25.935  1.00  0.00     0.016 A 
ATOM     33  C   UNL A   1      41.961  24.205  27.236  1.00  0.00     0.016 A 
ATOM     34  C   UNL A   1      42.804  26.846  26.811  1.00  0.00     0.010 A 
ATOM     35  C   UNL A   1      41.557  25.219  28.106  1.00  0.00     0.010 A 
ATOM     36  C   UNL A   1      42.011  26.539  27.925  1.00  0.00    -0.014 A 
BRANCH  36  37
ATOM     37  C   UNL A   1      41.735  27.535  28.992  1.00  0.00     0.031 A 
ATOM     38  C   UNL A   1      42.501  27.464  30.284  1.00  0.00     0.074 A 
ATOM     39  C   UNL A   1      40.755  28.444  28.854  1.00  0.00     0.049 A 
ATOM     40  N   UNL A   1      42.280  28.080  31.417  1.00  0.00    -0.248 NA
ATOM     41  C   UNL A   1      43.670  26.571  30.300  1.00  0.00     0.031 C 
ATOM     42  C   UNL A   1      39.970  28.657  27.643  1.00  0.00     0.029 A 
ATOM     43  N   UNL A   1      40.227  29.327  29.763  1.00  0.00    -0.354 N 
ATOM     44  C   UNL A   1      43.265  27.634  32.289  1.00  0.00     0.074 A 
ATOM     45  C   UNL A   1      44.076  26.683  31.556  1.00  0.00     0.031 C 
ATOM     46  C   UNL A   1      39.022  29.574  27.898  1.00  0.00     0.029 A 
ATOM     47  C   UNL A   1      39.114  29.981  29.299  1.00  0.00     0.049 A 
ATOM     48  H   UNL A   1      40.609  29.476  30.658  1.00  0.00     0.167 HD
ATOM     49  C   UNL A   1      43.476  27.985  33.581  1.00  0.00     0.037 A 
ATOM     50  C   UNL A   1      38.242  30.783  29.939  1.00  0.00     0.037 A 
ATOM     51  C   UNL A   1      42.682  28.940  34.307  1.00  0.00     0.049 A 
ATOM     52  C   UNL A   1      38.450  31.113  31.391  1.00  0.00     0.074 A 
ATOM     53  C   UNL A   1      42.849  29.392  35.605  1.00  0.00     0.029 A 
ATOM     54  N   UNL A   1      41.566  29.587  33.799  1.00  0.00    -0.354 N 
ATOM     55  N   UNL A   1      39.391  30.699  32.203  1.00  0.00    -0.248 NA
ATOM     56  C   UNL A   1      37.476  32.021  32.015  1.00  0.00     0.031 C 
ATOM     57  C   UNL A   1      41.808  30.281  35.896  1.00  0.00     0.029 A 
ATOM     58  C   UNL A   1      41.018  30.412  34.766  1.00  0.00     0.049 A 
ATOM     59  H   UNL A   1      41.215  29.475  32.886  1.00  0.00     0.167 HD
ATOM     60  C   UNL A   1      39.143  31.318  33.423  1.00  0.00     0.074 A 
ATOM     61  C   UNL A   1      37.960  32.133  33.245  1.00  0.00     0.031 C 
ATOM     62  C   UNL A   1      39.841  31.225  34.580  1.00  0.00     0.037 A 
BRANCH  49  63
ATOM     63  C   UNL A   1      44.600  27.302  34.302  1.00  0.00     0.057 A 
ATOM     64  C   UNL A   1      45.892  27.838  34.341  1.00  0.00     0.134 A 
ATOM     65  C   UNL A   1      44.377  26.097  34.980  1.00  0.00     0.134 A 
ATOM     66  F   UNL A   1      46.171  28.984  33.701  1.00  0.00    -0.206 F 
ATOM     67  C   UNL A   1      46.932  27.187  35.008  1.00  0.00     0.040 A 
ATOM     68  C   UNL A   1      45.402  25.448  35.670  1.00  0.00     0.040 A 
ATOM     69  F   UNL A   1      43.160  25.533  34.988  1.00  0.00    -0.206 F 
ATOM     70  C   UNL A   1      46.686  25.990  35.678  1.00  0.00     0.006 A 
ENDBRANCH  49  63
BRANCH  50  71
ATOM     71  C   UNL A   1      37.066  31.306  29.202  1.00  0.00     0.057 A 
ATOM     72  C   UNL A   1      37.054  32.606  28.688  1.00  0.00     0.134 A 
ATOM     73  C   UNL A   1      35.938  30.507  28.975  1.00  0.00     0.134 A 
ATOM     74  F   UNL A   1      38.099  33.422  28.891  1.00  0.00    -0.206 F 
ATOM     75  C   UNL A   1      35.958  33.097  27.977  1.00  0.00     0.040 A 
ATOM     76  C   UNL A   1      34.843  30.979  28.252  1.00  0.00     0.040 A 
ATOM     77  F   UNL A   1      35.897  29.246  29.433  1.00  0.00    -0.206 F 
ATOM     78  C   UNL A   1      34.851  32.280  27.752  1.00  0.00     0.006 A 
ENDBRANCH  50  71
BRANCH  62  79
ATOM     79  C   UNL A   1      39.372  32.048  35.743  1.00  0.00     0.057 A 
ATOM     80  C   UNL A   1      39.844  33.347  35.967  1.00  0.00     0.134 A 
ATOM     81  C   UNL A   1      38.393  31.555  36.615  1.00  0.00     0.134 A 
ATOM     82  F   UNL A   1      40.791  33.872  35.175  1.00  0.00    -0.206 F 
ATOM     83  C   UNL A   1      39.364  34.124  37.023  1.00  0.00     0.040 A 
ATOM     84  C   UNL A   1      37.892  32.328  37.663  1.00  0.00     0.040 A 
ATOM     85  F   UNL A   1      37.895  30.320  36.451  1.00  0.00    -0.206 F 
ATOM     86  C   UNL A   1      38.379  33.618  37.870  1.00  0.00     0.006 A 
ENDBRANCH  62  79
ENDBRANCH  36  37
ENDBRANCH  29  31
ENDBRANCH  28  29
ENDBRANCH  27  28
ENDBRANCH  26  27
ENDBRANCH  25  26
ENDBRANCH  24  25
ENDBRANCH   1  24
TORSDOF 19
ENDMDL
MODEL 2
REMARK VINA RESULT:     -10.7      1.286      6.371
REMARK SMILES O=C(OCCOCCOCCOC(=O)c1ccc(-c2c3nc(c(-c4c(F)cccc4F)c4ccc([nH]4)c(-c4c(F)cccc4F)c4nc(c(-c5c(F)cccc5F)c5ccc2[nH]5)C=C4)C=C3)cc1)c1ccc(Cc2nc3ccccc3s2)cc1
REMARK SMILES IDX 7 1 6 2 5 3 4 4 3 5 2 6 1 7 69 8 70 9 84 10 71 11 83 12
REMARK SMILES IDX 72 13 73 14 74 15 75 16 82 17 76 18 81 19 77 20 80 21 78 22
REMARK SMILES IDX 79 23 8 24 9 25 10 26 11 27 12 28 13 29 14 30 15 31 16 32
REMARK SMILES IDX 68 33 17 34 67 35 18 36 19 37 20 38 61 39 21 40 66 41 60 42
REMARK SMILES IDX 62 43 22 44 65 45 59 46 58 47 23 49 49 50 32 51 48 52 33 53
REMARK SMILES IDX 36 54 47 55 63 56 34 57 35 58 46 60 64 61 37 62 24 63 25 64
REMARK SMILES IDX 30 65 26 66 27 67 29 68 31 69 28 70 50 71 51 72 56 73 52 74
REMARK SMILES IDX 53 75 55 76 57 77 54 78 38 79 39 80 44 81 40 82 41 83 43 84
REMARK SMILES IDX 45 85 42 86
REMARK H PARENT 62 48 36 59
REMARK Flexibility Score: inf
ROOT
ATOM      1  C   UNL A   1      44.516  19.252  24.469  1.00  0.00     0.188 C 
ENDROOT
BRANCH   1   2
ATOM      2  O   UNL A   1      43.170  19.473  24.907  1.00  0.00    -0.376 OA
BRANCH   2   3
ATOM      3  C   UNL A   1      43.051  20.290  26.067  1.00  0.00     0.202 C 
BRANCH   3   4
ATOM      4  C   UNL A   1      42.077  21.468  25.942  1.00  0.00     0.261 C 
BRANCH   4   5
ATOM      5  O   UNL A   1      40.905  21.327  26.766  1.00  0.00    -0.460 OA
BRANCH   5   6
ATOM      6  C   UNL A   1      39.971  22.290  26.967  1.00  0.00     0.338 C 
ATOM      7  O   UNL A   1      40.110  23.137  27.842  1.00  0.00    -0.246 OA
BRANCH   6   8
ATOM      8  C   UNL A   1      38.804  22.385  26.065  1.00  0.00     0.060 A 
ATOM      9  C   UNL A   1      38.363  21.296  25.309  1.00  0.00     0.016 A 
ATOM     10  C   UNL A   1      38.083  23.581  26.052  1.00  0.00     0.016 A 
ATOM     11  C   UNL A   1      37.266  21.435  24.460  1.00  0.00     0.005 A 
ATOM     12  C   UNL A   1      36.970  23.713  25.220  1.00  0.00     0.005 A 
ATOM     13  C   UNL A   1      36.570  22.649  24.396  1.00  0.00    -0.041 A 
BRANCH  13  14
ATOM     14  C   UNL A   1      35.487  22.851  23.355  1.00  0.00     0.103 C 
BRANCH  14  15
ATOM     15  C   UNL A   1      34.263  23.487  23.957  1.00  0.00     0.098 A 
ATOM     16  N   UNL A   1      33.340  22.829  24.628  1.00  0.00    -0.241 NA
ATOM     17  S   UNL A   1      33.993  25.176  23.803  1.00  0.00    -0.118 S 
ATOM     18  C   UNL A   1      32.384  23.696  25.107  1.00  0.00     0.082 A 
ATOM     19  C   UNL A   1      32.561  25.034  24.756  1.00  0.00     0.055 A 
ATOM     20  C   UNL A   1      31.280  23.335  25.904  1.00  0.00     0.030 A 
ATOM     21  C   UNL A   1      31.661  26.027  25.170  1.00  0.00     0.021 A 
ATOM     22  C   UNL A   1      30.382  24.316  26.328  1.00  0.00     0.002 A 
ATOM     23  C   UNL A   1      30.571  25.646  25.961  1.00  0.00     0.002 A 
ENDBRANCH  14  15
ENDBRANCH  13  14
ENDBRANCH   6   8
ENDBRANCH   5   6
ENDBRANCH   4   5
ENDBRANCH   3   4
ENDBRANCH   2   3
ENDBRANCH   1   2
BRANCH   1  24
ATOM     24  C   UNL A   1      45.469  20.006  25.399  1.00  0.00     0.188 C 
BRANCH  24  25
ATOM     25  O   UNL A   1      46.397  20.862  24.726  1.00  0.00    -0.376 OA
BRANCH  25  26
ATOM     26  C   UNL A   1      45.937  22.165  24.375  1.00  0.00     0.202 C 
BRANCH  26  27
ATOM     27  C   UNL A   1      45.566  23.079  25.545  1.00  0.00     0.261 C 
BRANCH  27  28
ATOM     28  O   UNL A   1      44.448  23.948  25.292  1.00  0.00    -0.460 OA
BRANCH  28  29
ATOM     29  C   UNL A   1      44.738  25.267  25.315  1.00  0.00     0.338 C 
ATOM     30  O   UNL A   1      45.660  25.843  24.748  1.00  0.00    -0.246 OA
BRANCH  29  31
ATOM     31  C   UNL A   1      43.813  25.989  26.198  1.00  0.00     0.060 A 
ATOM     32  C   UNL A   1      43.984  27.361  26.412  1.00  0.00     0.016 A 
ATOM     33  C   UNL A   1      42.920  25.252  26.979  1.00  0.00     0.016 A 
ATOM     34  C   UNL A   1      43.295  27.991  27.454  1.00  0.00     0.010 A 
ATOM     35  C   UNL A   1      42.230  25.885  28.014  1.00  0.00     0.010 A 
ATOM     36  C   UNL A   1      42.446  27.250  28.287  1.00  0.00    -0.014 A 
BRANCH  36  37
ATOM     37  C   UNL A   1      41.862  27.824  29.525  1.00  0.00     0.031 A 
ATOM     38  C   UNL A   1      40.618  28.663  29.435  1.00  0.00     0.074 A 
ATOM     39  C   UNL A   1      42.475  27.676  30.712  1.00  0.00     0.049 A 
ATOM     40  N   UNL A   1      40.066  29.433  30.339  1.00  0.00    -0.248 NA
ATOM     41  C   UNL A   1      39.906  28.636  28.149  1.00  0.00     0.031 C 
ATOM     42  C   UNL A   1      43.654  26.852  30.954  1.00  0.00     0.029 A 
ATOM     43  N   UNL A   1      42.208  28.255  31.928  1.00  0.00    -0.354 N 
ATOM     44  C   UNL A   1      38.955  29.999  29.726  1.00  0.00     0.074 A 
ATOM     45  C   UNL A   1      38.921  29.496  28.368  1.00  0.00     0.031 C 
ATOM     46  C   UNL A   1      44.045  27.018  32.228  1.00  0.00     0.029 A 
ATOM     47  C   UNL A   1      43.163  27.988  32.876  1.00  0.00     0.049 A 
ATOM     48  H   UNL A   1      41.412  28.806  32.103  1.00  0.00     0.167 HD
ATOM     49  C   UNL A   1      38.046  30.859  30.247  1.00  0.00     0.037 A 
ATOM     50  C   UNL A   1      43.336  28.497  34.111  1.00  0.00     0.037 A 
ATOM     51  C   UNL A   1      38.068  31.349  31.600  1.00  0.00     0.049 A 
ATOM     52  C   UNL A   1      42.356  29.501  34.653  1.00  0.00     0.074 A 
ATOM     53  C   UNL A   1      37.163  32.187  32.228  1.00  0.00     0.029 A 
ATOM     54  N   UNL A   1      39.049  31.049  32.531  1.00  0.00    -0.354 N 
ATOM     55  N   UNL A   1      41.303  30.020  34.074  1.00  0.00    -0.248 NA
ATOM     56  C   UNL A   1      42.589  29.989  36.021  1.00  0.00     0.031 C 
ATOM     57  C   UNL A   1      37.621  32.428  33.529  1.00  0.00     0.029 A 
ATOM     58  C   UNL A   1      38.788  31.708  33.721  1.00  0.00     0.049 A 
ATOM     59  H   UNL A   1      39.818  30.456  32.371  1.00  0.00     0.167 HD
ATOM     60  C   UNL A   1      40.729  30.870  35.013  1.00  0.00     0.074 A 
ATOM     61  C   UNL A   1      41.555  30.800  36.199  1.00  0.00     0.031 C 
ATOM     62  C   UNL A   1      39.613  31.630  34.901  1.00  0.00     0.037 A 
BRANCH  49  63
ATOM     63  C   UNL A   1      36.964  31.350  29.332  1.00  0.00     0.057 A 
ATOM     64  C   UNL A   1      35.872  30.549  28.976  1.00  0.00     0.134 A 
ATOM     65  C   UNL A   1      37.011  32.650  28.813  1.00  0.00     0.134 A 
ATOM     66  F   UNL A   1      35.776  29.291  29.431  1.00  0.00    -0.206 F 
ATOM     67  C   UNL A   1      34.877  31.015  28.115  1.00  0.00     0.040 A 
ATOM     68  C   UNL A   1      36.010  33.135  27.970  1.00  0.00     0.040 A 
ATOM     69  F   UNL A   1      38.026  33.471  29.120  1.00  0.00    -0.206 F 
ATOM     70  C   UNL A   1      34.943  32.313  27.613  1.00  0.00     0.006 A 
ENDBRANCH  49  63
BRANCH  50  71
ATOM     71  C   UNL A   1      44.515  28.079  34.907  1.00  0.00     0.057 A 
ATOM     72  C   UNL A   1      44.486  26.919  35.687  1.00  0.00     0.134 A 
ATOM     73  C   UNL A   1      45.704  28.817  34.885  1.00  0.00     0.134 A 
ATOM     74  F   UNL A   1      43.368  26.182  35.761  1.00  0.00    -0.206 F 
ATOM     75  C   UNL A   1      45.598  26.509  36.424  1.00  0.00     0.040 A 
ATOM     76  C   UNL A   1      46.829  28.411  35.603  1.00  0.00     0.040 A 
ATOM     77  F   UNL A   1      45.796  29.933  34.145  1.00  0.00    -0.206 F 
ATOM     78  C   UNL A   1      46.777  27.254  36.377  1.00  0.00     0.006 A 
ENDBRANCH  50  71
BRANCH  62  79
ATOM     79  C   UNL A   1      39.191  32.425  36.100  1.00  0.00     0.057 A 
ATOM     80  C   UNL A   1      38.327  31.899  37.068  1.00  0.00     0.134 A 
ATOM     81  C   UNL A   1      39.703  33.710  36.318  1.00  0.00     0.134 A 
ATOM     82  F   UNL A   1      37.793  30.679  36.912  1.00  0.00    -0.206 F 
ATOM     83  C   UNL A   1      37.980  32.629  38.207  1.00  0.00     0.040 A 
ATOM     84  C   UNL A   1      39.378  34.442  37.461  1.00  0.00     0.040 A 
ATOM     85  F   UNL A   1      40.540  34.269  35.431  1.00  0.00    -0.206 F 
ATOM     86  C   UNL A   1      38.512  33.901  38.409  1.00  0.00     0.006 A 
ENDBRANCH  62  79
ENDBRANCH  36  37
ENDBRANCH  29  31
ENDBRANCH  28  29
ENDBRANCH  27  28
ENDBRANCH  26  27
ENDBRANCH  25  26
ENDBRANCH  24  25
ENDBRANCH   1  24
TORSDOF 19
ENDMDL
MODEL 3
REMARK VINA RESULT:     -10.5      5.101     10.741
REMARK SMILES O=C(OCCOCCOCCOC(=O)c1ccc(-c2c3nc(c(-c4c(F)cccc4F)c4ccc([nH]4)c(-c4c(F)cccc4F)c4nc(c(-c5c(F)cccc5F)c5ccc2[nH]5)C=C4)C=C3)cc1)c1ccc(Cc2nc3ccccc3s2)cc1
REMARK SMILES IDX 7 1 6 2 5 3 4 4 3 5 2 6 1 7 69 8 70 9 84 10 71 11 83 12
REMARK SMILES IDX 72 13 73 14 74 15 75 16 82 17 76 18 81 19 77 20 80 21 78 22
REMARK SMILES IDX 79 23 8 24 9 25 10 26 11 27 12 28 13 29 14 30 15 31 16 32
REMARK SMILES IDX 68 33 17 34 67 35 18 36 19 37 20 38 61 39 21 40 66 41 60 42
REMARK SMILES IDX 62 43 22 44 65 45 59 46 58 47 23 49 49 50 32 51 48 52 33 53
REMARK SMILES IDX 36 54 47 55 63 56 34 57 35 58 46 60 64 61 37 62 24 63 25 64
REMARK SMILES IDX 30 65 26 66 27 67 29 68 31 69 28 70 50 71 51 72 56 73 52 74
REMARK SMILES IDX 53 75 55 76 57 77 54 78 38 79 39 80 44 81 40 82 41 83 43 84
REMARK SMILES IDX 45 85 42 86
REMARK H PARENT 62 48 36 59
REMARK Flexibility Score: inf
ROOT
ATOM      1  C   UNL A   1      32.883  36.095  30.847  1.00  0.00     0.188 C 
ENDROOT
BRANCH   1   2
ATOM      2  O   UNL A   1      32.912  34.886  30.075  1.00  0.00    -0.376 OA
BRANCH   2   3
ATOM      3  C   UNL A   1      33.358  35.051  28.734  1.00  0.00     0.202 C 
BRANCH   3   4
ATOM      4  C   UNL A   1      34.399  34.029  28.259  1.00  0.00     0.261 C 
BRANCH   4   5
ATOM      5  O   UNL A   1      33.993  32.664  28.466  1.00  0.00    -0.460 OA
BRANCH   5   6
ATOM      6  C   UNL A   1      34.583  31.579  27.904  1.00  0.00     0.338 C 
ATOM      7  O   UNL A   1      35.791  31.397  27.992  1.00  0.00    -0.246 OA
BRANCH   6   8
ATOM      8  C   UNL A   1      33.753  30.547  27.249  1.00  0.00     0.060 A 
ATOM      9  C   UNL A   1      32.440  30.799  26.846  1.00  0.00     0.016 A 
ATOM     10  C   UNL A   1      34.350  29.319  26.954  1.00  0.00     0.016 A 
ATOM     11  C   UNL A   1      31.689  29.790  26.244  1.00  0.00     0.005 A 
ATOM     12  C   UNL A   1      33.606  28.317  26.329  1.00  0.00     0.005 A 
ATOM     13  C   UNL A   1      32.261  28.535  25.995  1.00  0.00    -0.041 A 
BRANCH  13  14
ATOM     14  C   UNL A   1      31.398  27.392  25.497  1.00  0.00     0.103 C 
BRANCH  14  15
ATOM     15  C   UNL A   1      32.220  26.155  25.252  1.00  0.00     0.098 A 
ATOM     16  N   UNL A   1      32.890  25.918  24.143  1.00  0.00    -0.241 NA
ATOM     17  S   UNL A   1      32.344  24.937  26.457  1.00  0.00    -0.118 S 
ATOM     18  C   UNL A   1      33.595  24.740  24.248  1.00  0.00     0.082 A 
ATOM     19  C   UNL A   1      33.422  24.047  25.446  1.00  0.00     0.055 A 
ATOM     20  C   UNL A   1      34.451  24.209  23.264  1.00  0.00     0.030 A 
ATOM     21  C   UNL A   1      34.075  22.828  25.690  1.00  0.00     0.021 A 
ATOM     22  C   UNL A   1      35.110  23.002  23.499  1.00  0.00     0.002 A 
ATOM     23  C   UNL A   1      34.920  22.320  24.697  1.00  0.00     0.002 A 
ENDBRANCH  14  15
ENDBRANCH  13  14
ENDBRANCH   6   8
ENDBRANCH   5   6
ENDBRANCH   4   5
ENDBRANCH   3   4
ENDBRANCH   2   3
ENDBRANCH   1   2
BRANCH   1  24
ATOM     24  C   UNL A   1      33.343  35.781  32.272  1.00  0.00     0.188 C 
BRANCH  24  25
ATOM     25  O   UNL A   1      33.031  34.457  32.715  1.00  0.00    -0.376 OA
BRANCH  25  26
ATOM     26  C   UNL A   1      34.080  33.720  33.338  1.00  0.00     0.202 C 
BRANCH  26  27
ATOM     27  C   UNL A   1      35.162  33.179  32.400  1.00  0.00     0.261 C 
BRANCH  27  28
ATOM     28  O   UNL A   1      35.521  31.805  32.633  1.00  0.00    -0.460 OA
BRANCH  28  29
ATOM     29  C   UNL A   1      36.707  31.626  33.253  1.00  0.00     0.338 C 
ATOM     30  O   UNL A   1      37.054  32.056  34.348  1.00  0.00    -0.246 OA
BRANCH  29  31
ATOM     31  C   UNL A   1      37.631  30.863  32.404  1.00  0.00     0.060 A 
ATOM     32  C   UNL A   1      38.831  30.384  32.937  1.00  0.00     0.016 A 
ATOM     33  C   UNL A   1      37.396  30.826  31.027  1.00  0.00     0.016 A 
ATOM     34  C   UNL A   1      39.830  29.910  32.080  1.00  0.00     0.010 A 
ATOM     35  C   UNL A   1      38.394  30.348  30.176  1.00  0.00     0.010 A 
ATOM     36  C   UNL A   1      39.634  29.928  30.692  1.00  0.00    -0.014 A 
BRANCH  36  37
ATOM     37  C   UNL A   1      40.736  29.637  29.739  1.00  0.00     0.031 A 
ATOM     38  C   UNL A   1      40.861  28.258  29.153  1.00  0.00     0.074 A 
ATOM     39  C   UNL A   1      41.670  30.563  29.458  1.00  0.00     0.049 A 
ATOM     40  N   UNL A   1      41.852  27.726  28.483  1.00  0.00    -0.248 NA
ATOM     41  C   UNL A   1      39.717  27.357  29.358  1.00  0.00     0.031 C 
ATOM     42  C   UNL A   1      41.645  31.948  29.913  1.00  0.00     0.029 A 
ATOM     43  N   UNL A   1      42.844  30.455  28.755  1.00  0.00    -0.354 N 
ATOM     44  C   UNL A   1      41.463  26.422  28.206  1.00  0.00     0.074 A 
ATOM     45  C   UNL A   1      40.152  26.239  28.794  1.00  0.00     0.031 C 
ATOM     46  C   UNL A   1      42.780  32.552  29.524  1.00  0.00     0.029 A 
ATOM     47  C   UNL A   1      43.622  31.582  28.825  1.00  0.00     0.049 A 
ATOM     48  H   UNL A   1      43.101  29.650  28.251  1.00  0.00     0.167 HD
ATOM     49  C   UNL A   1      42.136  25.464  27.524  1.00  0.00     0.037 A 
ATOM     50  C   UNL A   1      44.886  31.799  28.414  1.00  0.00     0.037 A 
ATOM     51  C   UNL A   1      43.432  25.645  26.925  1.00  0.00     0.049 A 
ATOM     52  C   UNL A   1      45.646  30.705  27.716  1.00  0.00     0.074 A 
ATOM     53  C   UNL A   1      44.170  24.746  26.176  1.00  0.00     0.029 A 
ATOM     54  N   UNL A   1      44.185  26.806  27.014  1.00  0.00    -0.354 N 
ATOM     55  N   UNL A   1      45.267  29.481  27.445  1.00  0.00    -0.248 NA
ATOM     56  C   UNL A   1      47.010  31.024  27.265  1.00  0.00     0.031 C 
ATOM     57  C   UNL A   1      45.390  25.348  25.847  1.00  0.00     0.029 A 
ATOM     58  C   UNL A   1      45.393  26.636  26.357  1.00  0.00     0.049 A 
ATOM     59  H   UNL A   1      43.904  27.628  27.475  1.00  0.00     0.167 HD
ATOM     60  C   UNL A   1      46.328  28.893  26.766  1.00  0.00     0.074 A 
ATOM     61  C   UNL A   1      47.370  29.894  26.671  1.00  0.00     0.031 C 
ATOM     62  C   UNL A   1      46.423  27.639  26.261  1.00  0.00     0.037 A 
BRANCH  49  63
ATOM     63  C   UNL A   1      41.488  24.115  27.416  1.00  0.00     0.057 A 
ATOM     64  C   UNL A   1      40.421  23.871  26.543  1.00  0.00     0.134 A 
ATOM     65  C   UNL A   1      41.952  23.043  28.189  1.00  0.00     0.134 A 
ATOM     66  F   UNL A   1      39.925  24.861  25.785  1.00  0.00    -0.206 F 
ATOM     67  C   UNL A   1      39.820  22.614  26.460  1.00  0.00     0.040 A 
ATOM     68  C   UNL A   1      41.375  21.775  28.097  1.00  0.00     0.040 A 
ATOM     69  F   UNL A   1      42.975  23.208  29.040  1.00  0.00    -0.206 F 
ATOM     70  C   UNL A   1      40.300  21.561  27.237  1.00  0.00     0.006 A 
ENDBRANCH  49  63
BRANCH  50  71
ATOM     71  C   UNL A   1      45.521  33.111  28.687  1.00  0.00     0.057 A 
ATOM     72  C   UNL A   1      45.441  34.158  27.763  1.00  0.00     0.134 A 
ATOM     73  C   UNL A   1      46.199  33.353  29.887  1.00  0.00     0.134 A 
ATOM     74  F   UNL A   1      44.820  33.978  26.589  1.00  0.00    -0.206 F 
ATOM     75  C   UNL A   1      46.019  35.402  28.023  1.00  0.00     0.040 A 
ATOM     76  C   UNL A   1      46.767  34.596  30.167  1.00  0.00     0.040 A 
ATOM     77  F   UNL A   1      46.297  32.390  30.817  1.00  0.00    -0.206 F 
ATOM     78  C   UNL A   1      46.680  35.625  29.231  1.00  0.00     0.006 A 
ENDBRANCH  50  71
BRANCH  62  79
ATOM     79  C   UNL A   1      47.680  27.280  25.526  1.00  0.00     0.057 A 
ATOM     80  C   UNL A   1      48.780  26.710  26.178  1.00  0.00     0.134 A 
ATOM     81  C   UNL A   1      47.767  27.452  24.139  1.00  0.00     0.134 A 
ATOM     82  F   UNL A   1      48.764  26.530  27.507  1.00  0.00    -0.206 F 
ATOM     83  C   UNL A   1      49.927  26.332  25.476  1.00  0.00     0.040 A 
ATOM     84  C   UNL A   1      48.900  27.062  23.424  1.00  0.00     0.040 A 
ATOM     85  F   UNL A   1      46.745  27.987  23.454  1.00  0.00    -0.206 F 
ATOM     86  C   UNL A   1      49.986  26.501  24.094  1.00  0.00     0.006 A 
ENDBRANCH  62  79
ENDBRANCH  36  37
ENDBRANCH  29  31
ENDBRANCH  28  29
ENDBRANCH  27  28
ENDBRANCH  26  27
ENDBRANCH  25  26
ENDBRANCH  24  25
ENDBRANCH   1  24
TORSDOF 19
ENDMDL
