MODEL 1
REMARK VINA RESULT:     -10.1      0.000      0.000
REMARK SMILES CCC1CN(c2cc(F)ccc2C(=O)OCCOCCOCCOC(=O)c2ccc(-c3c4nc(c(-c5c(F)cccc5F)c5ccc([nH]5)c(-c5c(F)cccc5F)c5nc(c(-c6c(F)cccc6F)c6ccc3[nH]6)C=C5)C=C4)cc2)C1
REMARK SMILES IDX 19 1 18 2 17 3 16 4 15 5 13 6 14 7 12 8 6 9 7 10 8 11 11 12
REMARK SMILES IDX 9 13 10 14 5 15 3 16 4 17 81 18 2 19 1 20 20 21 21 22 22 23
REMARK SMILES IDX 23 24 24 25 25 26 26 27 27 28 28 29 80 30 29 31 79 32 30 33
REMARK SMILES IDX 31 34 32 35 73 36 33 37 78 38 72 39 74 40 34 41 77 42 71 43
REMARK SMILES IDX 70 44 35 46 61 47 44 48 60 49 45 50 48 51 59 52 75 53 46 54
REMARK SMILES IDX 47 55 58 57 76 58 49 59 36 60 37 61 42 62 38 63 39 64 41 65
REMARK SMILES IDX 43 66 40 67 62 68 63 69 68 70 64 71 65 72 67 73 69 74 66 75
REMARK SMILES IDX 50 76 51 77 56 78 52 79 53 80 55 81 57 82 54 83
REMARK H PARENT 74 45 48 56
REMARK Flexibility Score: inf
ROOT
ATOM      1  C   UNL A   1      34.063  31.769  27.975  1.00  0.00     0.188 C 
ENDROOT
BRANCH   1   2
ATOM      2  O   UNL A   1      34.921  30.636  27.962  1.00  0.00    -0.376 OA
BRANCH   2   3
ATOM      3  C   UNL A   1      34.630  29.561  27.072  1.00  0.00     0.202 C 
BRANCH   3   4
ATOM      4  C   UNL A   1      33.464  28.613  27.387  1.00  0.00     0.261 C 
BRANCH   4   5
ATOM      5  O   UNL A   1      32.766  28.164  26.214  1.00  0.00    -0.460 OA
BRANCH   5   6
ATOM      6  C   UNL A   1      32.162  26.953  26.292  1.00  0.00     0.340 C 
ATOM      7  O   UNL A   1      31.220  26.655  27.008  1.00  0.00    -0.246 OA
BRANCH   6   8
ATOM      8  C   UNL A   1      32.641  26.077  25.196  1.00  0.00     0.083 A 
ATOM      9  C   UNL A   1      32.069  26.027  23.911  1.00  0.00     0.054 A 
ATOM     10  C   UNL A   1      32.567  25.061  23.014  1.00  0.00     0.066 A 
ATOM     11  C   UNL A   1      33.597  24.197  23.378  1.00  0.00     0.125 A 
ATOM     12  C   UNL A   1      33.671  25.181  25.558  1.00  0.00     0.021 A 
ATOM     13  F   UNL A   1      34.065  23.315  22.486  1.00  0.00    -0.207 F 
ATOM     14  C   UNL A   1      34.149  24.241  24.648  1.00  0.00     0.040 A 
BRANCH   9  15
ATOM     15  N   UNL A   1      31.061  26.881  23.447  1.00  0.00    -0.370 N 
ATOM     16  C   UNL A   1      29.546  28.025  22.676  1.00  0.00     0.028 C 
ATOM     17  C   UNL A   1      31.041  28.234  23.006  1.00  0.00     0.122 C 
ATOM     18  C   UNL A   1      29.642  26.755  23.540  1.00  0.00     0.122 C 
BRANCH  16  19
ATOM     19  C   UNL A   1      28.490  29.075  23.002  1.00  0.00     0.004 C 
ATOM     20  C   UNL A   1      28.174  30.019  21.856  1.00  0.00     0.004 C 
ENDBRANCH  16  19
ENDBRANCH   9  15
ENDBRANCH   6   8
ENDBRANCH   5   6
ENDBRANCH   4   5
ENDBRANCH   3   4
ENDBRANCH   2   3
ENDBRANCH   1   2
BRANCH   1  21
ATOM     21  C   UNL A   1      34.659  33.173  28.224  1.00  0.00     0.188 C 
BRANCH  21  22
ATOM     22  O   UNL A   1      33.935  33.992  29.108  1.00  0.00    -0.376 OA
BRANCH  22  23
ATOM     23  C   UNL A   1      34.472  34.335  30.373  1.00  0.00     0.202 C 
BRANCH  23  24
ATOM     24  C   UNL A   1      34.225  33.581  31.698  1.00  0.00     0.261 C 
BRANCH  24  25
ATOM     25  O   UNL A   1      34.803  32.285  31.869  1.00  0.00    -0.460 OA
BRANCH  25  26
ATOM     26  C   UNL A   1      35.897  32.220  32.667  1.00  0.00     0.338 C 
ATOM     27  O   UNL A   1      35.984  32.552  33.834  1.00  0.00    -0.246 OA
BRANCH  26  28
ATOM     28  C   UNL A   1      36.957  31.497  31.939  1.00  0.00     0.060 A 
ATOM     29  C   UNL A   1      37.927  30.802  32.674  1.00  0.00     0.016 A 
ATOM     30  C   UNL A   1      37.003  31.519  30.544  1.00  0.00     0.016 A 
ATOM     31  C   UNL A   1      38.959  30.137  32.012  1.00  0.00     0.010 A 
ATOM     32  C   UNL A   1      38.051  30.873  29.884  1.00  0.00     0.010 A 
ATOM     33  C   UNL A   1      39.047  30.200  30.614  1.00  0.00    -0.014 A 
BRANCH  33  34
ATOM     34  C   UNL A   1      40.259  29.696  29.925  1.00  0.00     0.031 A 
ATOM     35  C   UNL A   1      41.414  30.635  29.715  1.00  0.00     0.074 A 
ATOM     36  C   UNL A   1      40.341  28.422  29.503  1.00  0.00     0.049 A 
ATOM     37  N   UNL A   1      42.543  30.433  29.086  1.00  0.00    -0.248 NA
ATOM     38  C   UNL A   1      41.275  31.982  30.291  1.00  0.00     0.031 C 
ATOM     39  C   UNL A   1      39.310  27.403  29.687  1.00  0.00     0.029 A 
ATOM     40  N   UNL A   1      41.341  27.772  28.822  1.00  0.00    -0.354 N 
ATOM     41  C   UNL A   1      43.247  31.626  29.188  1.00  0.00     0.074 A 
ATOM     42  C   UNL A   1      42.407  32.556  29.911  1.00  0.00     0.031 C 
ATOM     43  C   UNL A   1      39.729  26.256  29.124  1.00  0.00     0.029 A 
ATOM     44  C   UNL A   1      41.039  26.470  28.508  1.00  0.00     0.049 A 
ATOM     45  H   UNL A   1      42.195  28.200  28.582  1.00  0.00     0.167 HD
ATOM     46  C   UNL A   1      44.486  31.915  28.728  1.00  0.00     0.037 A 
ATOM     47  C   UNL A   1      41.728  25.563  27.788  1.00  0.00     0.037 A 
ATOM     48  C   UNL A   1      45.321  30.989  28.010  1.00  0.00     0.049 A 
ATOM     49  C   UNL A   1      43.069  25.936  27.211  1.00  0.00     0.074 A 
ATOM     50  C   UNL A   1      46.598  31.189  27.518  1.00  0.00     0.029 A 
ATOM     51  N   UNL A   1      44.959  29.694  27.673  1.00  0.00    -0.354 N 
ATOM     52  N   UNL A   1      43.733  27.061  27.324  1.00  0.00    -0.248 NA
ATOM     53  C   UNL A   1      43.757  24.915  26.405  1.00  0.00     0.031 C 
ATOM     54  C   UNL A   1      46.988  30.035  26.834  1.00  0.00     0.029 A 
ATOM     55  C   UNL A   1      45.979  29.093  26.954  1.00  0.00     0.049 A 
ATOM     56  H   UNL A   1      44.105  29.265  27.910  1.00  0.00     0.167 HD
ATOM     57  C   UNL A   1      44.923  26.875  26.628  1.00  0.00     0.074 A 
ATOM     58  C   UNL A   1      44.895  25.526  26.105  1.00  0.00     0.031 C 
ATOM     59  C   UNL A   1      45.945  27.746  26.442  1.00  0.00     0.037 A 
BRANCH  46  60
ATOM     60  C   UNL A   1      45.018  33.297  28.973  1.00  0.00     0.057 A 
ATOM     61  C   UNL A   1      45.786  33.573  30.112  1.00  0.00     0.134 A 
ATOM     62  C   UNL A   1      44.714  34.367  28.124  1.00  0.00     0.134 A 
ATOM     63  F   UNL A   1      46.111  32.592  30.969  1.00  0.00    -0.206 F 
ATOM     64  C   UNL A   1      46.216  34.867  30.407  1.00  0.00     0.040 A 
ATOM     65  C   UNL A   1      45.160  35.662  28.394  1.00  0.00     0.040 A 
ATOM     66  F   UNL A   1      43.994  34.167  27.010  1.00  0.00    -0.206 F 
ATOM     67  C   UNL A   1      45.905  35.916  29.545  1.00  0.00     0.006 A 
ENDBRANCH  46  60
BRANCH  47  68
ATOM     68  C   UNL A   1      41.157  24.210  27.567  1.00  0.00     0.057 A 
ATOM     69  C   UNL A   1      41.641  23.091  28.257  1.00  0.00     0.134 A 
ATOM     70  C   UNL A   1      40.120  24.002  26.650  1.00  0.00     0.134 A 
ATOM     71  F   UNL A   1      42.631  23.224  29.151  1.00  0.00    -0.206 F 
ATOM     72  C   UNL A   1      41.130  21.812  28.028  1.00  0.00     0.040 A 
ATOM     73  C   UNL A   1      39.582  22.732  26.430  1.00  0.00     0.040 A 
ATOM     74  F   UNL A   1      39.597  25.037  25.978  1.00  0.00    -0.206 F 
ATOM     75  C   UNL A   1      40.094  21.632  27.114  1.00  0.00     0.006 A 
ENDBRANCH  47  68
BRANCH  59  76
ATOM     76  C   UNL A   1      47.140  27.274  25.663  1.00  0.00     0.057 A 
ATOM     77  C   UNL A   1      48.201  26.625  26.309  1.00  0.00     0.134 A 
ATOM     78  C   UNL A   1      47.284  27.544  24.296  1.00  0.00     0.134 A 
ATOM     79  F   UNL A   1      48.134  26.348  27.620  1.00  0.00    -0.206 F 
ATOM     80  C   UNL A   1      49.369  26.279  25.628  1.00  0.00     0.040 A 
ATOM     81  C   UNL A   1      48.436  27.177  23.598  1.00  0.00     0.040 A 
ATOM     82  F   UNL A   1      46.303  28.156  23.617  1.00  0.00    -0.206 F 
ATOM     83  C   UNL A   1      49.488  26.553  24.267  1.00  0.00     0.006 A 
ENDBRANCH  59  76
ENDBRANCH  33  34
ENDBRANCH  26  28
ENDBRANCH  25  26
ENDBRANCH  24  25
ENDBRANCH  23  24
ENDBRANCH  22  23
ENDBRANCH  21  22
ENDBRANCH   1  21
TORSDOF 19
ENDMDL
MODEL 2
REMARK VINA RESULT:     -10.0      5.030      9.979
REMARK SMILES CCC1CN(c2cc(F)ccc2C(=O)OCCOCCOCCOC(=O)c2ccc(-c3c4nc(c(-c5c(F)cccc5F)c5ccc([nH]5)c(-c5c(F)cccc5F)c5nc(c(-c6c(F)cccc6F)c6ccc3[nH]6)C=C5)C=C4)cc2)C1
REMARK SMILES IDX 19 1 18 2 17 3 16 4 15 5 13 6 14 7 12 8 6 9 7 10 8 11 11 12
REMARK SMILES IDX 9 13 10 14 5 15 3 16 4 17 81 18 2 19 1 20 20 21 21 22 22 23
REMARK SMILES IDX 23 24 24 25 25 26 26 27 27 28 28 29 80 30 29 31 79 32 30 33
REMARK SMILES IDX 31 34 32 35 73 36 33 37 78 38 72 39 74 40 34 41 77 42 71 43
REMARK SMILES IDX 70 44 35 46 61 47 44 48 60 49 45 50 48 51 59 52 75 53 46 54
REMARK SMILES IDX 47 55 58 57 76 58 49 59 36 60 37 61 42 62 38 63 39 64 41 65
REMARK SMILES IDX 43 66 40 67 62 68 63 69 68 70 64 71 65 72 67 73 69 74 66 75
REMARK SMILES IDX 50 76 51 77 56 78 52 79 53 80 55 81 57 82 54 83
REMARK H PARENT 74 45 48 56
REMARK Flexibility Score: inf
ROOT
ATOM      1  C   UNL A   1      40.407  20.349  26.668  1.00  0.00     0.188 C 
ENDROOT
BRANCH   1   2
ATOM      2  O   UNL A   1      39.760  21.449  26.040  1.00  0.00    -0.376 OA
BRANCH   2   3
ATOM      3  C   UNL A   1      38.470  21.254  25.467  1.00  0.00     0.202 C 
BRANCH   3   4
ATOM      4  C   UNL A   1      37.409  22.356  25.601  1.00  0.00     0.261 C 
BRANCH   4   5
ATOM      5  O   UNL A   1      36.214  22.087  24.850  1.00  0.00    -0.460 OA
BRANCH   5   6
ATOM      6  C   UNL A   1      35.121  21.710  25.559  1.00  0.00     0.340 C 
ATOM      7  O   UNL A   1      34.642  22.292  26.518  1.00  0.00    -0.246 OA
BRANCH   6   8
ATOM      8  C   UNL A   1      34.420  20.607  24.860  1.00  0.00     0.083 A 
ATOM      9  C   UNL A   1      33.163  20.733  24.238  1.00  0.00     0.054 A 
ATOM     10  C   UNL A   1      32.578  19.564  23.712  1.00  0.00     0.066 A 
ATOM     11  C   UNL A   1      33.222  18.332  23.791  1.00  0.00     0.125 A 
ATOM     12  C   UNL A   1      35.053  19.348  24.950  1.00  0.00     0.021 A 
ATOM     13  F   UNL A   1      32.648  17.251  23.250  1.00  0.00    -0.207 F 
ATOM     14  C   UNL A   1      34.454  18.210  24.415  1.00  0.00     0.040 A 
BRANCH   9  15
ATOM     15  N   UNL A   1      32.463  21.935  24.078  1.00  0.00    -0.370 N 
ATOM     16  C   UNL A   1      31.566  23.758  23.815  1.00  0.00     0.028 C 
ATOM     17  C   UNL A   1      31.501  22.627  24.866  1.00  0.00     0.122 C 
ATOM     18  C   UNL A   1      32.270  22.732  22.910  1.00  0.00     0.122 C 
BRANCH  16  19
ATOM     19  C   UNL A   1      30.315  24.468  23.310  1.00  0.00     0.004 C 
ATOM     20  C   UNL A   1      30.086  25.839  23.921  1.00  0.00     0.004 C 
ENDBRANCH  16  19
ENDBRANCH   9  15
ENDBRANCH   6   8
ENDBRANCH   5   6
ENDBRANCH   4   5
ENDBRANCH   3   4
ENDBRANCH   2   3
ENDBRANCH   1   2
BRANCH   1  21
ATOM     21  C   UNL A   1      41.949  20.323  26.759  1.00  0.00     0.188 C 
BRANCH  21  22
ATOM     22  O   UNL A   1      42.622  19.984  25.571  1.00  0.00    -0.376 OA
BRANCH  22  23
ATOM     23  C   UNL A   1      43.986  20.326  25.396  1.00  0.00     0.202 C 
BRANCH  23  24
ATOM     24  C   UNL A   1      44.544  21.748  25.176  1.00  0.00     0.261 C 
BRANCH  24  25
ATOM     25  O   UNL A   1      44.087  22.804  26.024  1.00  0.00    -0.460 OA
BRANCH  25  26
ATOM     26  C   UNL A   1      44.224  24.062  25.538  1.00  0.00     0.338 C 
ATOM     27  O   UNL A   1      44.693  24.396  24.467  1.00  0.00    -0.246 OA
BRANCH  26  28
ATOM     28  C   UNL A   1      43.534  24.989  26.457  1.00  0.00     0.060 A 
ATOM     29  C   UNL A   1      43.951  26.326  26.504  1.00  0.00     0.016 A 
ATOM     30  C   UNL A   1      42.497  24.539  27.275  1.00  0.00     0.016 A 
ATOM     31  C   UNL A   1      43.339  27.216  27.387  1.00  0.00     0.010 A 
ATOM     32  C   UNL A   1      41.901  25.426  28.175  1.00  0.00     0.010 A 
ATOM     33  C   UNL A   1      42.335  26.761  28.253  1.00  0.00    -0.014 A 
BRANCH  33  34
ATOM     34  C   UNL A   1      41.845  27.637  29.344  1.00  0.00     0.031 A 
ATOM     35  C   UNL A   1      42.558  27.610  30.667  1.00  0.00     0.074 A 
ATOM     36  C   UNL A   1      40.793  28.454  29.162  1.00  0.00     0.049 A 
ATOM     37  N   UNL A   1      42.271  28.239  31.778  1.00  0.00    -0.248 NA
ATOM     38  C   UNL A   1      43.755  26.756  30.749  1.00  0.00     0.031 C 
ATOM     39  C   UNL A   1      40.047  28.607  27.915  1.00  0.00     0.029 A 
ATOM     40  N   UNL A   1      40.166  29.306  30.038  1.00  0.00    -0.354 N 
ATOM     41  C   UNL A   1      43.247  27.857  32.688  1.00  0.00     0.074 A 
ATOM     42  C   UNL A   1      44.116  26.918  32.013  1.00  0.00     0.031 C 
ATOM     43  C   UNL A   1      39.056  29.493  28.108  1.00  0.00     0.029 A 
ATOM     44  C   UNL A   1      39.074  29.943  29.501  1.00  0.00     0.049 A 
ATOM     45  H   UNL A   1      40.471  29.448  30.963  1.00  0.00     0.167 HD
ATOM     46  C   UNL A   1      43.409  28.261  33.969  1.00  0.00     0.037 A 
ATOM     47  C   UNL A   1      38.179  30.773  30.072  1.00  0.00     0.037 A 
ATOM     48  C   UNL A   1      42.544  29.195  34.640  1.00  0.00     0.049 A 
ATOM     49  C   UNL A   1      38.329  31.141  31.526  1.00  0.00     0.074 A 
ATOM     50  C   UNL A   1      42.638  29.677  35.933  1.00  0.00     0.029 A 
ATOM     51  N   UNL A   1      41.423  29.783  34.074  1.00  0.00    -0.354 N 
ATOM     52  N   UNL A   1      39.263  30.787  32.375  1.00  0.00    -0.248 NA
ATOM     53  C   UNL A   1      37.302  32.023  32.101  1.00  0.00     0.031 C 
ATOM     54  C   UNL A   1      41.543  30.510  36.170  1.00  0.00     0.029 A 
ATOM     55  C   UNL A   1      40.800  30.599  35.005  1.00  0.00     0.049 A 
ATOM     56  H   UNL A   1      41.114  29.641  33.150  1.00  0.00     0.167 HD
ATOM     57  C   UNL A   1      38.950  31.420  33.574  1.00  0.00     0.074 A 
ATOM     58  C   UNL A   1      37.748  32.190  33.339  1.00  0.00     0.031 C 
ATOM     59  C   UNL A   1      39.605  31.368  34.760  1.00  0.00     0.037 A 
BRANCH  46  60
ATOM     60  C   UNL A   1      44.558  27.687  34.745  1.00  0.00     0.057 A 
ATOM     61  C   UNL A   1      45.802  28.331  34.756  1.00  0.00     0.134 A 
ATOM     62  C   UNL A   1      44.456  26.465  35.420  1.00  0.00     0.134 A 
ATOM     63  F   UNL A   1      45.967  29.504  34.125  1.00  0.00    -0.206 F 
ATOM     64  C   UNL A   1      46.909  27.770  35.395  1.00  0.00     0.040 A 
ATOM     65  C   UNL A   1      45.549  25.906  36.085  1.00  0.00     0.040 A 
ATOM     66  F   UNL A   1      43.290  25.804  35.459  1.00  0.00    -0.206 F 
ATOM     67  C   UNL A   1      46.783  26.555  36.064  1.00  0.00     0.006 A 
ENDBRANCH  46  60
BRANCH  47  68
ATOM     68  C   UNL A   1      37.054  31.311  29.266  1.00  0.00     0.057 A 
ATOM     69  C   UNL A   1      35.937  30.525  28.952  1.00  0.00     0.134 A 
ATOM     70  C   UNL A   1      37.073  32.624  28.781  1.00  0.00     0.134 A 
ATOM     71  F   UNL A   1      35.857  29.260  29.389  1.00  0.00    -0.206 F 
ATOM     72  C   UNL A   1      34.894  31.017  28.167  1.00  0.00     0.040 A 
ATOM     73  C   UNL A   1      36.024  33.137  28.016  1.00  0.00     0.040 A 
ATOM     74  F   UNL A   1      38.102  33.434  29.070  1.00  0.00    -0.206 F 
ATOM     75  C   UNL A   1      34.934  32.329  27.700  1.00  0.00     0.006 A 
ENDBRANCH  47  68
BRANCH  59  76
ATOM     76  C   UNL A   1      39.062  32.180  35.901  1.00  0.00     0.057 A 
ATOM     77  C   UNL A   1      39.472  33.506  36.091  1.00  0.00     0.134 A 
ATOM     78  C   UNL A   1      38.210  31.624  36.864  1.00  0.00     0.134 A 
ATOM     79  F   UNL A   1      40.298  34.096  35.213  1.00  0.00    -0.206 F 
ATOM     80  C   UNL A   1      39.069  34.244  37.204  1.00  0.00     0.040 A 
ATOM     81  C   UNL A   1      37.777  32.362  37.968  1.00  0.00     0.040 A 
ATOM     82  F   UNL A   1      37.774  30.361  36.738  1.00  0.00    -0.206 F 
ATOM     83  C   UNL A   1      38.217  33.671  38.146  1.00  0.00     0.006 A 
ENDBRANCH  59  76
ENDBRANCH  33  34
ENDBRANCH  26  28
ENDBRANCH  25  26
ENDBRANCH  24  25
ENDBRANCH  23  24
ENDBRANCH  22  23
ENDBRANCH  21  22
ENDBRANCH   1  21
TORSDOF 19
ENDMDL
MODEL 3
REMARK VINA RESULT:     -10.0      4.865      9.894
REMARK SMILES CCC1CN(c2cc(F)ccc2C(=O)OCCOCCOCCOC(=O)c2ccc(-c3c4nc(c(-c5c(F)cccc5F)c5ccc([nH]5)c(-c5c(F)cccc5F)c5nc(c(-c6c(F)cccc6F)c6ccc3[nH]6)C=C5)C=C4)cc2)C1
REMARK SMILES IDX 19 1 18 2 17 3 16 4 15 5 13 6 14 7 12 8 6 9 7 10 8 11 11 12
REMARK SMILES IDX 9 13 10 14 5 15 3 16 4 17 81 18 2 19 1 20 20 21 21 22 22 23
REMARK SMILES IDX 23 24 24 25 25 26 26 27 27 28 28 29 80 30 29 31 79 32 30 33
REMARK SMILES IDX 31 34 32 35 73 36 33 37 78 38 72 39 74 40 34 41 77 42 71 43
REMARK SMILES IDX 70 44 35 46 61 47 44 48 60 49 45 50 48 51 59 52 75 53 46 54
REMARK SMILES IDX 47 55 58 57 76 58 49 59 36 60 37 61 42 62 38 63 39 64 41 65
REMARK SMILES IDX 43 66 40 67 62 68 63 69 68 70 64 71 65 72 67 73 69 74 66 75
REMARK SMILES IDX 50 76 51 77 56 78 52 79 53 80 55 81 57 82 54 83
REMARK H PARENT 74 45 48 56
REMARK Flexibility Score: inf
ROOT
ATOM      1  C   UNL A   1      39.369  22.022  26.162  1.00  0.00     0.188 C 
ENDROOT
BRANCH   1   2
ATOM      2  O   UNL A   1      39.060  23.321  26.651  1.00  0.00    -0.376 OA
BRANCH   2   3
ATOM      3  C   UNL A   1      37.799  23.898  26.325  1.00  0.00     0.202 C 
BRANCH   3   4
ATOM      4  C   UNL A   1      37.140  23.564  24.979  1.00  0.00     0.261 C 
BRANCH   4   5
ATOM      5  O   UNL A   1      35.728  23.318  25.084  1.00  0.00    -0.460 OA
BRANCH   5   6
ATOM      6  C   UNL A   1      34.929  23.965  24.201  1.00  0.00     0.340 C 
ATOM      7  O   UNL A   1      35.110  24.068  22.998  1.00  0.00    -0.246 OA
BRANCH   6   8
ATOM      8  C   UNL A   1      33.650  24.335  24.852  1.00  0.00     0.083 A 
ATOM      9  C   UNL A   1      32.571  23.451  25.041  1.00  0.00     0.054 A 
ATOM     10  C   UNL A   1      31.380  23.985  25.575  1.00  0.00     0.066 A 
ATOM     11  C   UNL A   1      31.278  25.330  25.917  1.00  0.00     0.125 A 
ATOM     12  C   UNL A   1      33.526  25.702  25.184  1.00  0.00     0.021 A 
ATOM     13  F   UNL A   1      30.141  25.791  26.453  1.00  0.00    -0.207 F 
ATOM     14  C   UNL A   1      32.339  26.199  25.718  1.00  0.00     0.040 A 
BRANCH   9  15
ATOM     15  N   UNL A   1      32.598  22.079  24.764  1.00  0.00    -0.370 N 
ATOM     16  C   UNL A   1      32.518  20.091  24.277  1.00  0.00     0.028 C 
ATOM     17  C   UNL A   1      32.700  20.913  25.573  1.00  0.00     0.122 C 
ATOM     18  C   UNL A   1      32.826  21.400  23.529  1.00  0.00     0.122 C 
BRANCH  16  19
ATOM     19  C   UNL A   1      33.351  18.848  23.982  1.00  0.00     0.004 C 
ATOM     20  C   UNL A   1      32.675  17.850  23.059  1.00  0.00     0.004 C 
ENDBRANCH  16  19
ENDBRANCH   9  15
ENDBRANCH   6   8
ENDBRANCH   5   6
ENDBRANCH   4   5
ENDBRANCH   3   4
ENDBRANCH   2   3
ENDBRANCH   1   2
BRANCH   1  21
ATOM     21  C   UNL A   1      40.490  21.201  26.838  1.00  0.00     0.188 C 
BRANCH  21  22
ATOM     22  O   UNL A   1      41.176  20.304  26.000  1.00  0.00    -0.376 OA
BRANCH  22  23
ATOM     23  C   UNL A   1      42.592  20.253  26.009  1.00  0.00     0.202 C 
BRANCH  23  24
ATOM     24  C   UNL A   1      43.543  21.358  25.502  1.00  0.00     0.261 C 
BRANCH  24  25
ATOM     25  O   UNL A   1      43.842  22.457  26.366  1.00  0.00    -0.460 OA
BRANCH  25  26
ATOM     26  C   UNL A   1      43.949  23.671  25.772  1.00  0.00     0.338 C 
ATOM     27  O   UNL A   1      44.352  23.914  24.651  1.00  0.00    -0.246 OA
BRANCH  26  28
ATOM     28  C   UNL A   1      43.317  24.673  26.652  1.00  0.00     0.060 A 
ATOM     29  C   UNL A   1      43.844  25.971  26.685  1.00  0.00     0.016 A 
ATOM     30  C   UNL A   1      42.224  24.329  27.450  1.00  0.00     0.016 A 
ATOM     31  C   UNL A   1      43.287  26.928  27.532  1.00  0.00     0.010 A 
ATOM     32  C   UNL A   1      41.682  25.283  28.315  1.00  0.00     0.010 A 
ATOM     33  C   UNL A   1      42.225  26.579  28.378  1.00  0.00    -0.014 A 
BRANCH  33  34
ATOM     34  C   UNL A   1      41.783  27.516  29.438  1.00  0.00     0.031 A 
ATOM     35  C   UNL A   1      42.513  27.519  30.751  1.00  0.00     0.074 A 
ATOM     36  C   UNL A   1      40.758  28.363  29.236  1.00  0.00     0.049 A 
ATOM     37  N   UNL A   1      42.266  28.205  31.838  1.00  0.00    -0.248 NA
ATOM     38  C   UNL A   1      43.680  26.627  30.853  1.00  0.00     0.031 C 
ATOM     39  C   UNL A   1      40.000  28.490  27.993  1.00  0.00     0.029 A 
ATOM     40  N   UNL A   1      40.174  29.273  30.083  1.00  0.00    -0.354 N 
ATOM     41  C   UNL A   1      43.241  27.826  32.751  1.00  0.00     0.074 A 
ATOM     42  C   UNL A   1      44.066  26.829  32.105  1.00  0.00     0.031 C 
ATOM     43  C   UNL A   1      39.043  29.419  28.162  1.00  0.00     0.029 A 
ATOM     44  C   UNL A   1      39.098  29.926  29.533  1.00  0.00     0.049 A 
ATOM     45  H   UNL A   1      40.497  29.442  30.997  1.00  0.00     0.167 HD
ATOM     46  C   UNL A   1      43.435  28.278  34.011  1.00  0.00     0.037 A 
ATOM     47  C   UNL A   1      38.242  30.810  30.081  1.00  0.00     0.037 A 
ATOM     48  C   UNL A   1      42.614  29.269  34.653  1.00  0.00     0.049 A 
ATOM     49  C   UNL A   1      38.426  31.233  31.515  1.00  0.00     0.074 A 
ATOM     50  C   UNL A   1      42.745  29.801  35.924  1.00  0.00     0.029 A 
ATOM     51  N   UNL A   1      41.507  29.872  34.078  1.00  0.00    -0.354 N 
ATOM     52  N   UNL A   1      39.359  30.882  32.367  1.00  0.00    -0.248 NA
ATOM     53  C   UNL A   1      37.439  32.176  32.066  1.00  0.00     0.031 C 
ATOM     54  C   UNL A   1      41.684  30.682  36.139  1.00  0.00     0.029 A 
ATOM     55  C   UNL A   1      40.927  30.749  34.981  1.00  0.00     0.049 A 
ATOM     56  H   UNL A   1      41.180  29.704  33.165  1.00  0.00     0.167 HD
ATOM     57  C   UNL A   1      39.087  31.575  33.541  1.00  0.00     0.074 A 
ATOM     58  C   UNL A   1      37.909  32.377  33.290  1.00  0.00     0.031 C 
ATOM     59  C   UNL A   1      39.757  31.549  34.720  1.00  0.00     0.037 A 
BRANCH  46  60
ATOM     60  C   UNL A   1      44.575  27.695  34.795  1.00  0.00     0.057 A 
ATOM     61  C   UNL A   1      44.383  26.562  35.596  1.00  0.00     0.134 A 
ATOM     62  C   UNL A   1      45.841  28.293  34.814  1.00  0.00     0.134 A 
ATOM     63  F   UNL A   1      43.193  25.942  35.625  1.00  0.00    -0.206 F 
ATOM     64  C   UNL A   1      45.404  26.056  36.402  1.00  0.00     0.040 A 
ATOM     65  C   UNL A   1      46.878  27.781  35.596  1.00  0.00     0.040 A 
ATOM     66  F   UNL A   1      46.094  29.373  34.059  1.00  0.00    -0.206 F 
ATOM     67  C   UNL A   1      46.656  26.665  36.401  1.00  0.00     0.006 A 
ENDBRANCH  46  60
BRANCH  47  68
ATOM     68  C   UNL A   1      37.124  31.355  29.267  1.00  0.00     0.057 A 
ATOM     69  C   UNL A   1      37.177  32.645  28.725  1.00  0.00     0.134 A 
ATOM     70  C   UNL A   1      35.972  30.600  29.022  1.00  0.00     0.134 A 
ATOM     71  F   UNL A   1      38.255  33.418  28.921  1.00  0.00    -0.206 F 
ATOM     72  C   UNL A   1      36.115  33.173  27.988  1.00  0.00     0.040 A 
ATOM     73  C   UNL A   1      34.913  31.106  28.265  1.00  0.00     0.040 A 
ATOM     74  F   UNL A   1      35.873  29.348  29.492  1.00  0.00    -0.206 F 
ATOM     75  C   UNL A   1      34.980  32.400  27.754  1.00  0.00     0.006 A 
ENDBRANCH  47  68
BRANCH  59  76
ATOM     76  C   UNL A   1      39.259  32.427  35.833  1.00  0.00     0.057 A 
ATOM     77  C   UNL A   1      39.736  33.738  35.974  1.00  0.00     0.134 A 
ATOM     78  C   UNL A   1      38.385  31.950  36.817  1.00  0.00     0.134 A 
ATOM     79  F   UNL A   1      40.587  34.254  35.073  1.00  0.00    -0.206 F 
ATOM     80  C   UNL A   1      39.375  34.534  37.061  1.00  0.00     0.040 A 
ATOM     81  C   UNL A   1      37.995  32.747  37.895  1.00  0.00     0.040 A 
ATOM     82  F   UNL A   1      37.886  30.707  36.737  1.00  0.00    -0.206 F 
ATOM     83  C   UNL A   1      38.500  34.038  38.025  1.00  0.00     0.006 A 
ENDBRANCH  59  76
ENDBRANCH  33  34
ENDBRANCH  26  28
ENDBRANCH  25  26
ENDBRANCH  24  25
ENDBRANCH  23  24
ENDBRANCH  22  23
ENDBRANCH  21  22
ENDBRANCH   1  21
TORSDOF 19
ENDMDL
