MODEL 1
REMARK VINA RESULT:      -9.7      0.000      0.000
REMARK SMILES CC[C@H](C)[C@@H](Nc1ccc(Cl)c(Br)c1)C(=O)OCCOCCOCCOC(=O)c1ccc(-c2c3nc(c(-c4c(F)cccc4F)c4ccc([nH]4)c(-c4c(F)cccc4F)c4nc(c(-c5c(F)cccc5F)c5ccc2[nH]5)C=C4)C=C3)cc1
REMARK SMILES IDX 21 1 20 2 19 3 18 4 17 5 15 6 16 7 5 8 3 9 4 10 2 11 1 12
REMARK SMILES IDX 6 13 7 15 8 16 14 17 9 18 12 19 10 20 13 21 11 22 22 23
REMARK SMILES IDX 23 24 24 25 25 26 26 27 27 28 28 29 29 30 30 31 82 32 31 33
REMARK SMILES IDX 81 34 32 35 33 36 34 37 75 38 35 39 80 40 74 41 76 42 36 43
REMARK SMILES IDX 79 44 73 45 72 46 37 48 63 49 46 50 62 51 47 52 50 53 61 54
REMARK SMILES IDX 77 55 48 56 49 57 60 59 78 60 51 61 38 62 39 63 44 64 40 65
REMARK SMILES IDX 41 66 43 67 45 68 42 69 64 70 65 71 70 72 66 73 67 74 69 75
REMARK SMILES IDX 71 76 68 77 52 78 53 79 58 80 54 81 55 82 57 83 59 84 56 85
REMARK H PARENT 6 14 76 47 50 58
REMARK Flexibility Score: inf
ROOT
ATOM      1  C   UNL A   1      38.425  21.944  25.729  1.00  0.00     0.188 C 
ENDROOT
BRANCH   1   2
ATOM      2  O   UNL A   1      37.968  23.274  25.558  1.00  0.00    -0.376 OA
BRANCH   2   3
ATOM      3  C   UNL A   1      36.748  23.483  24.881  1.00  0.00     0.202 C 
BRANCH   3   4
ATOM      4  C   UNL A   1      35.508  23.683  25.748  1.00  0.00     0.261 C 
BRANCH   4   5
ATOM      5  O   UNL A   1      35.057  22.529  26.486  1.00  0.00    -0.462 OA
BRANCH   5   6
ATOM      6  C   UNL A   1      33.742  22.528  26.871  1.00  0.00     0.328 C 
ATOM      7  O   UNL A   1      33.353  22.232  27.999  1.00  0.00    -0.250 OA
BRANCH   6   8
ATOM      8  C   UNL A   1      32.766  22.804  25.689  1.00  0.00     0.192 C 
BRANCH   8   9
ATOM      9  C   UNL A   1      32.375  21.510  24.904  1.00  0.00     0.019 C 
ATOM     10  C   UNL A   1      32.578  21.617  23.384  1.00  0.00     0.010 C 
BRANCH   9  11
ATOM     11  C   UNL A   1      33.110  20.246  25.422  1.00  0.00     0.002 C 
ATOM     12  C   UNL A   1      33.190  19.056  24.472  1.00  0.00     0.004 C 
ENDBRANCH   9  11
ENDBRANCH   8   9
BRANCH   8  13
ATOM     13  N   UNL A   1      31.560  23.571  26.120  1.00  0.00    -0.372 N 
ATOM     14  H   UNL A   1      30.845  23.098  26.604  1.00  0.00     0.161 HD
BRANCH  13  15
ATOM     15  C   UNL A   1      31.411  24.925  25.864  1.00  0.00     0.036 A 
ATOM     16  C   UNL A   1      30.315  25.417  25.146  1.00  0.00     0.027 A 
ATOM     17  C   UNL A   1      32.451  25.806  26.178  1.00  0.00     0.043 A 
ATOM     18  C   UNL A   1      30.297  26.731  24.670  1.00  0.00     0.024 A 
ATOM     19  C   UNL A   1      32.434  27.128  25.716  1.00  0.00     0.038 A 
ATOM     20  C   UNL A   1      31.369  27.583  24.934  1.00  0.00     0.055 A 
ATOM     21  Br  UNL A   1      33.927  28.222  26.148  1.00  0.00    -0.049 Br
ATOM     22  Cl  UNL A   1      31.333  29.154  24.218  1.00  0.00    -0.083 Cl
ENDBRANCH  13  15
ENDBRANCH   8  13
ENDBRANCH   6   8
ENDBRANCH   5   6
ENDBRANCH   4   5
ENDBRANCH   3   4
ENDBRANCH   2   3
ENDBRANCH   1   2
BRANCH   1  23
ATOM     23  C   UNL A   1      39.771  21.653  26.428  1.00  0.00     0.188 C 
BRANCH  23  24
ATOM     24  O   UNL A   1      40.519  20.505  26.077  1.00  0.00    -0.376 OA
BRANCH  24  25
ATOM     25  C   UNL A   1      41.883  20.446  26.462  1.00  0.00     0.202 C 
BRANCH  25  26
ATOM     26  C   UNL A   1      42.854  21.362  25.710  1.00  0.00     0.261 C 
BRANCH  26  27
ATOM     27  O   UNL A   1      43.269  22.511  26.482  1.00  0.00    -0.460 OA
BRANCH  27  28
ATOM     28  C   UNL A   1      43.267  23.707  25.845  1.00  0.00     0.338 C 
ATOM     29  O   UNL A   1      43.532  23.911  24.667  1.00  0.00    -0.246 OA
BRANCH  28  30
ATOM     30  C   UNL A   1      42.706  24.760  26.722  1.00  0.00     0.060 A 
ATOM     31  C   UNL A   1      41.601  24.527  27.536  1.00  0.00     0.016 A 
ATOM     32  C   UNL A   1      43.348  26.006  26.761  1.00  0.00     0.016 A 
ATOM     33  C   UNL A   1      41.163  25.532  28.411  1.00  0.00     0.010 A 
ATOM     34  C   UNL A   1      42.906  27.013  27.629  1.00  0.00     0.010 A 
ATOM     35  C   UNL A   1      41.822  26.778  28.483  1.00  0.00    -0.014 A 
BRANCH  35  36
ATOM     36  C   UNL A   1      41.466  27.748  29.558  1.00  0.00     0.031 A 
ATOM     37  C   UNL A   1      40.318  28.710  29.432  1.00  0.00     0.074 A 
ATOM     38  C   UNL A   1      42.216  27.763  30.678  1.00  0.00     0.049 A 
ATOM     39  N   UNL A   1      39.806  29.502  30.343  1.00  0.00    -0.248 NA
ATOM     40  C   UNL A   1      39.677  28.813  28.116  1.00  0.00     0.031 C 
ATOM     41  C   UNL A   1      43.411  26.946  30.897  1.00  0.00     0.029 A 
ATOM     42  N   UNL A   1      42.080  28.474  31.844  1.00  0.00    -0.354 N 
ATOM     43  C   UNL A   1      38.759  30.174  29.724  1.00  0.00     0.074 A 
ATOM     44  C   UNL A   1      38.759  29.747  28.338  1.00  0.00     0.031 C 
ATOM     45  C   UNL A   1      43.869  27.163  32.141  1.00  0.00     0.029 A 
ATOM     46  C   UNL A   1      43.015  28.148  32.798  1.00  0.00     0.049 A 
ATOM     47  H   UNL A   1      41.381  29.152  31.985  1.00  0.00     0.167 HD
ATOM     48  C   UNL A   1      37.867  31.046  30.263  1.00  0.00     0.037 A 
ATOM     49  C   UNL A   1      43.161  28.576  34.067  1.00  0.00     0.037 A 
ATOM     50  C   UNL A   1      37.892  31.498  31.634  1.00  0.00     0.049 A 
ATOM     51  C   UNL A   1      42.176  29.560  34.633  1.00  0.00     0.074 A 
ATOM     52  C   UNL A   1      37.003  32.339  32.285  1.00  0.00     0.029 A 
ATOM     53  N   UNL A   1      38.869  31.167  32.562  1.00  0.00    -0.354 N 
ATOM     54  N   UNL A   1      41.118  30.093  34.072  1.00  0.00    -0.248 NA
ATOM     55  C   UNL A   1      42.402  29.993  36.020  1.00  0.00     0.031 C 
ATOM     56  C   UNL A   1      37.473  32.562  33.584  1.00  0.00     0.029 A 
ATOM     57  C   UNL A   1      38.622  31.811  33.767  1.00  0.00     0.049 A 
ATOM     58  H   UNL A   1      39.628  30.563  32.391  1.00  0.00     0.167 HD
ATOM     59  C   UNL A   1      40.540  30.902  35.041  1.00  0.00     0.074 A 
ATOM     60  C   UNL A   1      41.349  30.769  36.235  1.00  0.00     0.031 C 
ATOM     61  C   UNL A   1      39.437  31.686  34.950  1.00  0.00     0.037 A 
BRANCH  48  62
ATOM     62  C   UNL A   1      36.775  31.563  29.366  1.00  0.00     0.057 A 
ATOM     63  C   UNL A   1      35.708  30.744  28.973  1.00  0.00     0.134 A 
ATOM     64  C   UNL A   1      36.807  32.865  28.848  1.00  0.00     0.134 A 
ATOM     65  F   UNL A   1      35.622  29.477  29.409  1.00  0.00    -0.206 F 
ATOM     66  C   UNL A   1      34.711  31.203  28.109  1.00  0.00     0.040 A 
ATOM     67  C   UNL A   1      35.799  33.346  28.009  1.00  0.00     0.040 A 
ATOM     68  F   UNL A   1      37.802  33.703  29.176  1.00  0.00    -0.206 F 
ATOM     69  C   UNL A   1      34.749  32.512  27.633  1.00  0.00     0.006 A 
ENDBRANCH  48  62
BRANCH  49  70
ATOM     70  C   UNL A   1      44.264  28.045  34.909  1.00  0.00     0.057 A 
ATOM     71  C   UNL A   1      44.155  26.812  35.562  1.00  0.00     0.134 A 
ATOM     72  C   UNL A   1      45.464  28.751  35.059  1.00  0.00     0.134 A 
ATOM     73  F   UNL A   1      43.029  26.090  35.465  1.00  0.00    -0.206 F 
ATOM     74  C   UNL A   1      45.198  26.300  36.335  1.00  0.00     0.040 A 
ATOM     75  C   UNL A   1      46.526  28.238  35.805  1.00  0.00     0.040 A 
ATOM     76  F   UNL A   1      45.635  29.930  34.444  1.00  0.00    -0.206 F 
ATOM     77  C   UNL A   1      46.392  27.009  36.450  1.00  0.00     0.006 A 
ENDBRANCH  49  70
BRANCH  61  78
ATOM     78  C   UNL A   1      39.032  32.442  36.185  1.00  0.00     0.057 A 
ATOM     79  C   UNL A   1      38.153  31.872  37.116  1.00  0.00     0.134 A 
ATOM     80  C   UNL A   1      39.510  33.730  36.459  1.00  0.00     0.134 A 
ATOM     81  F   UNL A   1      37.650  30.645  36.917  1.00  0.00    -0.206 F 
ATOM     82  C   UNL A   1      37.768  32.553  38.273  1.00  0.00     0.040 A 
ATOM     83  C   UNL A   1      39.159  34.409  37.629  1.00  0.00     0.040 A 
ATOM     84  F   UNL A   1      40.367  34.331  35.619  1.00  0.00    -0.206 F 
ATOM     85  C   UNL A   1      38.282  33.821  38.538  1.00  0.00     0.006 A 
ENDBRANCH  61  78
ENDBRANCH  35  36
ENDBRANCH  28  30
ENDBRANCH  27  28
ENDBRANCH  26  27
ENDBRANCH  25  26
ENDBRANCH  24  25
ENDBRANCH  23  24
ENDBRANCH   1  23
TORSDOF 21
ENDMDL
MODEL 2
REMARK VINA RESULT:      -9.7      4.005      7.682
REMARK SMILES CC[C@H](C)[C@@H](Nc1ccc(Cl)c(Br)c1)C(=O)OCCOCCOCCOC(=O)c1ccc(-c2c3nc(c(-c4c(F)cccc4F)c4ccc([nH]4)c(-c4c(F)cccc4F)c4nc(c(-c5c(F)cccc5F)c5ccc2[nH]5)C=C4)C=C3)cc1
REMARK SMILES IDX 21 1 20 2 19 3 18 4 17 5 15 6 16 7 5 8 3 9 4 10 2 11 1 12
REMARK SMILES IDX 6 13 7 15 8 16 14 17 9 18 12 19 10 20 13 21 11 22 22 23
REMARK SMILES IDX 23 24 24 25 25 26 26 27 27 28 28 29 29 30 30 31 82 32 31 33
REMARK SMILES IDX 81 34 32 35 33 36 34 37 75 38 35 39 80 40 74 41 76 42 36 43
REMARK SMILES IDX 79 44 73 45 72 46 37 48 63 49 46 50 62 51 47 52 50 53 61 54
REMARK SMILES IDX 77 55 48 56 49 57 60 59 78 60 51 61 38 62 39 63 44 64 40 65
REMARK SMILES IDX 41 66 43 67 45 68 42 69 64 70 65 71 70 72 66 73 67 74 69 75
REMARK SMILES IDX 71 76 68 77 52 78 53 79 58 80 54 81 55 82 57 83 59 84 56 85
REMARK H PARENT 6 14 76 47 50 58
REMARK Flexibility Score: inf
ROOT
ATOM      1  C   UNL A   1      36.767  23.335  26.055  1.00  0.00     0.188 C 
ENDROOT
BRANCH   1   2
ATOM      2  O   UNL A   1      35.683  22.844  25.286  1.00  0.00    -0.376 OA
BRANCH   2   3
ATOM      3  C   UNL A   1      35.239  21.524  25.518  1.00  0.00     0.202 C 
BRANCH   3   4
ATOM      4  C   UNL A   1      34.112  21.349  26.532  1.00  0.00     0.261 C 
BRANCH   4   5
ATOM      5  O   UNL A   1      32.796  21.742  26.093  1.00  0.00    -0.462 OA
BRANCH   5   6
ATOM      6  C   UNL A   1      32.328  22.939  26.568  1.00  0.00     0.328 C 
ATOM      7  O   UNL A   1      31.900  23.110  27.707  1.00  0.00    -0.250 OA
BRANCH   6   8
ATOM      8  C   UNL A   1      32.259  24.039  25.467  1.00  0.00     0.192 C 
BRANCH   8   9
ATOM      9  C   UNL A   1      32.089  23.455  24.027  1.00  0.00     0.019 C 
ATOM     10  C   UNL A   1      30.703  23.705  23.412  1.00  0.00     0.010 C 
BRANCH   9  11
ATOM     11  C   UNL A   1      33.176  23.957  23.041  1.00  0.00     0.002 C 
ATOM     12  C   UNL A   1      32.811  25.145  22.157  1.00  0.00     0.004 C 
ENDBRANCH   9  11
ENDBRANCH   8   9
BRANCH   8  13
ATOM     13  N   UNL A   1      31.223  25.072  25.766  1.00  0.00    -0.372 N 
ATOM     14  H   UNL A   1      30.313  24.778  25.999  1.00  0.00     0.161 HD
BRANCH  13  15
ATOM     15  C   UNL A   1      31.498  26.431  25.727  1.00  0.00     0.036 A 
ATOM     16  C   UNL A   1      32.116  27.083  26.801  1.00  0.00     0.027 A 
ATOM     17  C   UNL A   1      31.006  27.205  24.672  1.00  0.00     0.043 A 
ATOM     18  C   UNL A   1      32.158  28.478  26.868  1.00  0.00     0.024 A 
ATOM     19  C   UNL A   1      31.057  28.603  24.725  1.00  0.00     0.038 A 
ATOM     20  C   UNL A   1      31.607  29.242  25.840  1.00  0.00     0.055 A 
ATOM     21  Br  UNL A   1      30.304  29.560  23.266  1.00  0.00    -0.049 Br
ATOM     22  Cl  UNL A   1      31.590  30.957  26.043  1.00  0.00    -0.083 Cl
ENDBRANCH  13  15
ENDBRANCH   8  13
ENDBRANCH   6   8
ENDBRANCH   5   6
ENDBRANCH   4   5
ENDBRANCH   3   4
ENDBRANCH   2   3
ENDBRANCH   1   2
BRANCH   1  23
ATOM     23  C   UNL A   1      38.218  22.914  25.736  1.00  0.00     0.188 C 
BRANCH  23  24
ATOM     24  O   UNL A   1      38.713  21.671  26.195  1.00  0.00    -0.376 OA
BRANCH  24  25
ATOM     25  C   UNL A   1      38.743  20.581  25.288  1.00  0.00     0.202 C 
BRANCH  25  26
ATOM     26  C   UNL A   1      39.549  19.349  25.713  1.00  0.00     0.261 C 
BRANCH  26  27
ATOM     27  O   UNL A   1      40.909  19.360  25.226  1.00  0.00    -0.460 OA
BRANCH  27  28
ATOM     28  C   UNL A   1      41.890  19.451  26.156  1.00  0.00     0.338 C 
ATOM     29  O   UNL A   1      42.712  18.589  26.440  1.00  0.00    -0.246 OA
BRANCH  28  30
ATOM     30  C   UNL A   1      41.979  20.833  26.682  1.00  0.00     0.060 A 
ATOM     31  C   UNL A   1      41.805  21.117  28.034  1.00  0.00     0.016 A 
ATOM     32  C   UNL A   1      42.299  21.866  25.789  1.00  0.00     0.016 A 
ATOM     33  C   UNL A   1      41.985  22.431  28.491  1.00  0.00     0.010 A 
ATOM     34  C   UNL A   1      42.470  23.179  26.245  1.00  0.00     0.010 A 
ATOM     35  C   UNL A   1      42.339  23.472  27.608  1.00  0.00    -0.014 A 
BRANCH  35  36
ATOM     36  C   UNL A   1      42.722  24.808  28.146  1.00  0.00     0.031 A 
ATOM     37  C   UNL A   1      44.152  25.207  28.382  1.00  0.00     0.074 A 
ATOM     38  C   UNL A   1      41.739  25.683  28.442  1.00  0.00     0.049 A 
ATOM     39  N   UNL A   1      44.635  26.383  28.704  1.00  0.00    -0.248 NA
ATOM     40  C   UNL A   1      45.166  24.152  28.262  1.00  0.00     0.031 C 
ATOM     41  C   UNL A   1      40.307  25.397  28.345  1.00  0.00     0.029 A 
ATOM     42  N   UNL A   1      41.791  26.988  28.867  1.00  0.00    -0.354 N 
ATOM     43  C   UNL A   1      46.013  26.221  28.792  1.00  0.00     0.074 A 
ATOM     44  C   UNL A   1      46.278  24.815  28.560  1.00  0.00     0.031 C 
ATOM     45  C   UNL A   1      39.616  26.508  28.650  1.00  0.00     0.029 A 
ATOM     46  C   UNL A   1      40.554  27.575  28.983  1.00  0.00     0.049 A 
ATOM     47  H   UNL A   1      42.632  27.457  29.068  1.00  0.00     0.167 HD
ATOM     48  C   UNL A   1      46.969  27.159  29.021  1.00  0.00     0.037 A 
ATOM     49  C   UNL A   1      40.208  28.838  29.303  1.00  0.00     0.037 A 
ATOM     50  C   UNL A   1      46.700  28.553  29.289  1.00  0.00     0.049 A 
ATOM     51  C   UNL A   1      41.284  29.852  29.577  1.00  0.00     0.074 A 
ATOM     52  C   UNL A   1      47.602  29.587  29.483  1.00  0.00     0.029 A 
ATOM     53  N   UNL A   1      45.435  29.105  29.425  1.00  0.00    -0.354 N 
ATOM     54  N   UNL A   1      42.587  29.712  29.535  1.00  0.00    -0.248 NA
ATOM     55  C   UNL A   1      40.836  31.207  29.931  1.00  0.00     0.031 C 
ATOM     56  C   UNL A   1      46.886  30.749  29.793  1.00  0.00     0.029 A 
ATOM     57  C   UNL A   1      45.534  30.456  29.732  1.00  0.00     0.049 A 
ATOM     58  H   UNL A   1      44.589  28.611  29.321  1.00  0.00     0.167 HD
ATOM     59  C   UNL A   1      43.113  30.963  29.833  1.00  0.00     0.074 A 
ATOM     60  C   UNL A   1      41.988  31.855  30.026  1.00  0.00     0.031 C 
ATOM     61  C   UNL A   1      44.412  31.339  29.936  1.00  0.00     0.037 A 
BRANCH  48  62
ATOM     62  C   UNL A   1      48.404  26.709  28.979  1.00  0.00     0.057 A 
ATOM     63  C   UNL A   1      49.070  26.294  30.141  1.00  0.00     0.134 A 
ATOM     64  C   UNL A   1      49.147  26.735  27.791  1.00  0.00     0.134 A 
ATOM     65  F   UNL A   1      48.431  26.264  31.321  1.00  0.00    -0.206 F 
ATOM     66  C   UNL A   1      50.414  25.912  30.119  1.00  0.00     0.040 A 
ATOM     67  C   UNL A   1      50.482  26.326  27.750  1.00  0.00     0.040 A 
ATOM     68  F   UNL A   1      48.577  27.128  26.642  1.00  0.00    -0.206 F 
ATOM     69  C   UNL A   1      51.120  25.918  28.918  1.00  0.00     0.006 A 
ENDBRANCH  48  62
BRANCH  49  70
ATOM     70  C   UNL A   1      38.776  29.230  29.343  1.00  0.00     0.057 A 
ATOM     71  C   UNL A   1      38.112  29.687  28.200  1.00  0.00     0.134 A 
ATOM     72  C   UNL A   1      38.032  29.132  30.526  1.00  0.00     0.134 A 
ATOM     73  F   UNL A   1      38.770  29.811  27.038  1.00  0.00    -0.206 F 
ATOM     74  C   UNL A   1      36.761  30.035  28.229  1.00  0.00     0.040 A 
ATOM     75  C   UNL A   1      36.673  29.448  30.563  1.00  0.00     0.040 A 
ATOM     76  F   UNL A   1      38.608  28.683  31.651  1.00  0.00    -0.206 F 
ATOM     77  C   UNL A   1      36.035  29.905  29.412  1.00  0.00     0.006 A 
ENDBRANCH  49  70
BRANCH  61  78
ATOM     78  C   UNL A   1      44.682  32.784  30.253  1.00  0.00     0.057 A 
ATOM     79  C   UNL A   1      44.791  33.732  29.227  1.00  0.00     0.134 A 
ATOM     80  C   UNL A   1      44.833  33.241  31.569  1.00  0.00     0.134 A 
ATOM     81  F   UNL A   1      44.664  33.366  27.943  1.00  0.00    -0.206 F 
ATOM     82  C   UNL A   1      45.034  35.081  29.498  1.00  0.00     0.040 A 
ATOM     83  C   UNL A   1      45.045  34.592  31.855  1.00  0.00     0.040 A 
ATOM     84  F   UNL A   1      44.726  32.391  32.601  1.00  0.00    -0.206 F 
ATOM     85  C   UNL A   1      45.150  35.516  30.817  1.00  0.00     0.006 A 
ENDBRANCH  61  78
ENDBRANCH  35  36
ENDBRANCH  28  30
ENDBRANCH  27  28
ENDBRANCH  26  27
ENDBRANCH  25  26
ENDBRANCH  24  25
ENDBRANCH  23  24
ENDBRANCH   1  23
TORSDOF 21
ENDMDL
MODEL 3
REMARK VINA RESULT:      -9.5      1.928      2.831
REMARK SMILES CC[C@H](C)[C@@H](Nc1ccc(Cl)c(Br)c1)C(=O)OCCOCCOCCOC(=O)c1ccc(-c2c3nc(c(-c4c(F)cccc4F)c4ccc([nH]4)c(-c4c(F)cccc4F)c4nc(c(-c5c(F)cccc5F)c5ccc2[nH]5)C=C4)C=C3)cc1
REMARK SMILES IDX 21 1 20 2 19 3 18 4 17 5 15 6 16 7 5 8 3 9 4 10 2 11 1 12
REMARK SMILES IDX 6 13 7 15 8 16 14 17 9 18 12 19 10 20 13 21 11 22 22 23
REMARK SMILES IDX 23 24 24 25 25 26 26 27 27 28 28 29 29 30 30 31 82 32 31 33
REMARK SMILES IDX 81 34 32 35 33 36 34 37 75 38 35 39 80 40 74 41 76 42 36 43
REMARK SMILES IDX 79 44 73 45 72 46 37 48 63 49 46 50 62 51 47 52 50 53 61 54
REMARK SMILES IDX 77 55 48 56 49 57 60 59 78 60 51 61 38 62 39 63 44 64 40 65
REMARK SMILES IDX 41 66 43 67 45 68 42 69 64 70 65 71 70 72 66 73 67 74 69 75
REMARK SMILES IDX 71 76 68 77 52 78 53 79 58 80 54 81 55 82 57 83 59 84 56 85
REMARK H PARENT 6 14 76 47 50 58
REMARK Flexibility Score: inf
ROOT
ATOM      1  C   UNL A   1      36.749  21.702  24.713  1.00  0.00     0.188 C 
ENDROOT
BRANCH   1   2
ATOM      2  O   UNL A   1      35.525  21.249  25.262  1.00  0.00    -0.376 OA
BRANCH   2   3
ATOM      3  C   UNL A   1      35.110  21.775  26.505  1.00  0.00     0.202 C 
BRANCH   3   4
ATOM      4  C   UNL A   1      33.674  22.283  26.589  1.00  0.00     0.261 C 
BRANCH   4   5
ATOM      5  O   UNL A   1      33.481  23.687  26.323  1.00  0.00    -0.462 OA
BRANCH   5   6
ATOM      6  C   UNL A   1      32.231  24.062  25.908  1.00  0.00     0.328 C 
ATOM      7  O   UNL A   1      31.195  23.477  26.216  1.00  0.00    -0.250 OA
BRANCH   6   8
ATOM      8  C   UNL A   1      32.263  25.233  24.880  1.00  0.00     0.192 C 
BRANCH   8   9
ATOM      9  C   UNL A   1      31.662  24.844  23.490  1.00  0.00     0.019 C 
ATOM     10  C   UNL A   1      31.653  25.994  22.470  1.00  0.00     0.010 C 
BRANCH   9  11
ATOM     11  C   UNL A   1      32.361  23.614  22.855  1.00  0.00     0.002 C 
ATOM     12  C   UNL A   1      33.886  23.607  22.859  1.00  0.00     0.004 C 
ENDBRANCH   9  11
ENDBRANCH   8   9
BRANCH   8  13
ATOM     13  N   UNL A   1      31.636  26.476  25.421  1.00  0.00    -0.372 N 
ATOM     14  H   UNL A   1      30.665  26.488  25.578  1.00  0.00     0.161 HD
BRANCH  13  15
ATOM     15  C   UNL A   1      32.375  27.614  25.709  1.00  0.00     0.036 A 
ATOM     16  C   UNL A   1      33.722  27.536  26.079  1.00  0.00     0.027 A 
ATOM     17  C   UNL A   1      31.730  28.851  25.795  1.00  0.00     0.043 A 
ATOM     18  C   UNL A   1      34.386  28.644  26.613  1.00  0.00     0.024 A 
ATOM     19  C   UNL A   1      32.393  29.970  26.316  1.00  0.00     0.038 A 
ATOM     20  C   UNL A   1      33.716  29.858  26.755  1.00  0.00     0.055 A 
ATOM     21  Br  UNL A   1      31.406  31.587  26.446  1.00  0.00    -0.049 Br
ATOM     22  Cl  UNL A   1      34.561  31.150  27.528  1.00  0.00    -0.083 Cl
ENDBRANCH  13  15
ENDBRANCH   8  13
ENDBRANCH   6   8
ENDBRANCH   5   6
ENDBRANCH   4   5
ENDBRANCH   3   4
ENDBRANCH   2   3
ENDBRANCH   1   2
BRANCH   1  23
ATOM     23  C   UNL A   1      38.087  21.039  25.107  1.00  0.00     0.188 C 
BRANCH  23  24
ATOM     24  O   UNL A   1      38.735  21.408  26.309  1.00  0.00    -0.376 OA
BRANCH  24  25
ATOM     25  C   UNL A   1      40.152  21.441  26.328  1.00  0.00     0.202 C 
BRANCH  25  26
ATOM     26  C   UNL A   1      40.807  22.618  27.059  1.00  0.00     0.261 C 
BRANCH  26  27
ATOM     27  O   UNL A   1      40.747  23.856  26.316  1.00  0.00    -0.460 OA
BRANCH  27  28
ATOM     28  C   UNL A   1      39.645  24.624  26.498  1.00  0.00     0.338 C 
ATOM     29  O   UNL A   1      38.548  24.467  25.979  1.00  0.00    -0.246 OA
BRANCH  28  30
ATOM     30  C   UNL A   1      39.873  25.607  27.583  1.00  0.00     0.060 A 
ATOM     31  C   UNL A   1      40.832  26.611  27.475  1.00  0.00     0.016 A 
ATOM     32  C   UNL A   1      39.057  25.543  28.722  1.00  0.00     0.016 A 
ATOM     33  C   UNL A   1      40.946  27.568  28.495  1.00  0.00     0.010 A 
ATOM     34  C   UNL A   1      39.178  26.494  29.744  1.00  0.00     0.010 A 
ATOM     35  C   UNL A   1      40.109  27.533  29.630  1.00  0.00    -0.014 A 
BRANCH  35  36
ATOM     36  C   UNL A   1      40.113  28.670  30.594  1.00  0.00     0.031 A 
ATOM     37  C   UNL A   1      39.160  29.828  30.484  1.00  0.00     0.074 A 
ATOM     38  C   UNL A   1      41.017  28.657  31.593  1.00  0.00     0.049 A 
ATOM     39  N   UNL A   1      38.953  30.806  31.333  1.00  0.00    -0.248 NA
ATOM     40  C   UNL A   1      38.352  29.911  29.261  1.00  0.00     0.031 C 
ATOM     41  C   UNL A   1      42.057  27.642  31.769  1.00  0.00     0.029 A 
ATOM     42  N   UNL A   1      41.200  29.508  32.655  1.00  0.00    -0.354 N 
ATOM     43  C   UNL A   1      37.967  31.605  30.766  1.00  0.00     0.074 A 
ATOM     44  C   UNL A   1      37.671  31.033  29.466  1.00  0.00     0.031 C 
ATOM     45  C   UNL A   1      42.735  27.899  32.898  1.00  0.00     0.029 A 
ATOM     46  C   UNL A   1      42.194  29.106  33.515  1.00  0.00     0.049 A 
ATOM     47  H   UNL A   1      40.671  30.327  32.788  1.00  0.00     0.167 HD
ATOM     48  C   UNL A   1      37.349  32.696  31.287  1.00  0.00     0.037 A 
ATOM     49  C   UNL A   1      42.614  29.635  34.681  1.00  0.00     0.037 A 
ATOM     50  C   UNL A   1      37.672  33.286  32.566  1.00  0.00     0.049 A 
ATOM     51  C   UNL A   1      41.931  30.859  35.225  1.00  0.00     0.074 A 
ATOM     52  C   UNL A   1      37.069  34.360  33.201  1.00  0.00     0.029 A 
ATOM     53  N   UNL A   1      38.702  32.867  33.396  1.00  0.00    -0.354 N 
ATOM     54  N   UNL A   1      40.918  31.531  34.736  1.00  0.00    -0.248 NA
ATOM     55  C   UNL A   1      42.447  31.390  36.496  1.00  0.00     0.031 C 
ATOM     56  C   UNL A   1      37.768  34.627  34.383  1.00  0.00     0.029 A 
ATOM     57  C   UNL A   1      38.770  33.681  34.519  1.00  0.00     0.049 A 
ATOM     58  H   UNL A   1      39.298  32.105  33.215  1.00  0.00     0.167 HD
ATOM     59  C   UNL A   1      40.659  32.546  35.649  1.00  0.00     0.074 A 
ATOM     60  C   UNL A   1      41.605  32.385  36.734  1.00  0.00     0.031 C 
ATOM     61  C   UNL A   1      39.722  33.525  35.592  1.00  0.00     0.037 A 
BRANCH  48  62
ATOM     62  C   UNL A   1      36.247  33.322  30.476  1.00  0.00     0.057 A 
ATOM     63  C   UNL A   1      34.899  33.100  30.787  1.00  0.00     0.134 A 
ATOM     64  C   UNL A   1      36.523  34.111  29.350  1.00  0.00     0.134 A 
ATOM     65  F   UNL A   1      34.557  32.337  31.838  1.00  0.00    -0.206 F 
ATOM     66  C   UNL A   1      33.869  33.645  30.016  1.00  0.00     0.040 A 
ATOM     67  C   UNL A   1      35.502  34.687  28.590  1.00  0.00     0.040 A 
ATOM     68  F   UNL A   1      37.790  34.360  28.989  1.00  0.00    -0.206 F 
ATOM     69  C   UNL A   1      34.170  34.450  28.920  1.00  0.00     0.006 A 
ENDBRANCH  48  62
BRANCH  49  70
ATOM     70  C   UNL A   1      43.715  28.988  35.439  1.00  0.00     0.057 A 
ATOM     71  C   UNL A   1      43.462  27.982  36.379  1.00  0.00     0.134 A 
ATOM     72  C   UNL A   1      45.051  29.345  35.220  1.00  0.00     0.134 A 
ATOM     73  F   UNL A   1      42.203  27.600  36.640  1.00  0.00    -0.206 F 
ATOM     74  C   UNL A   1      44.496  27.356  37.075  1.00  0.00     0.040 A 
ATOM     75  C   UNL A   1      46.098  28.706  35.888  1.00  0.00     0.040 A 
ATOM     76  F   UNL A   1      45.360  30.289  34.319  1.00  0.00    -0.206 F 
ATOM     77  C   UNL A   1      45.820  27.711  36.823  1.00  0.00     0.006 A 
ENDBRANCH  49  70
BRANCH  61  78
ATOM     78  C   UNL A   1      39.663  34.483  36.750  1.00  0.00     0.057 A 
ATOM     79  C   UNL A   1      40.330  35.713  36.694  1.00  0.00     0.134 A 
ATOM     80  C   UNL A   1      38.948  34.192  37.920  1.00  0.00     0.134 A 
ATOM     81  F   UNL A   1      41.040  36.057  35.608  1.00  0.00    -0.206 F 
ATOM     82  C   UNL A   1      40.284  36.621  37.755  1.00  0.00     0.040 A 
ATOM     83  C   UNL A   1      38.869  35.105  38.975  1.00  0.00     0.040 A 
ATOM     84  F   UNL A   1      38.274  33.038  38.036  1.00  0.00    -0.206 F 
ATOM     85  C   UNL A   1      39.542  36.322  38.895  1.00  0.00     0.006 A 
ENDBRANCH  61  78
ENDBRANCH  35  36
ENDBRANCH  28  30
ENDBRANCH  27  28
ENDBRANCH  26  27
ENDBRANCH  25  26
ENDBRANCH  24  25
ENDBRANCH  23  24
ENDBRANCH   1  23
TORSDOF 21
ENDMDL
