MODEL 1
REMARK VINA RESULT:     -10.1      0.000      0.000
REMARK SMILES O=C(OCCOCCOCCOC(=O)c1cn2ccccc2n1)c1ccc(-c2c3nc(c(-c4c(F)cccc4F)c4ccc([nH]4)c(-c4c(F)cccc4F)c4nc(c(-c5c(F)cccc5F)c5ccc2[nH]5)C=C4)C=C3)cc1
REMARK SMILES IDX 7 1 6 2 5 3 4 4 3 5 2 6 1 7 24 8 25 9 77 10 26 11 76 12
REMARK SMILES IDX 27 13 28 14 29 15 70 16 30 17 75 18 69 19 71 20 31 21 74 22
REMARK SMILES IDX 68 23 67 24 32 26 58 27 41 28 57 29 42 30 45 31 56 32 72 33
REMARK SMILES IDX 43 34 44 35 55 37 73 38 46 39 33 40 34 41 39 42 35 43 36 44
REMARK SMILES IDX 38 45 40 46 37 47 59 48 60 49 65 50 61 51 62 52 64 53 66 54
REMARK SMILES IDX 63 55 47 56 48 57 53 58 49 59 50 60 52 61 54 62 51 63 8 64
REMARK SMILES IDX 9 65 10 66 11 67 12 68 13 69 14 70 15 71 16 72 23 73 17 74
REMARK SMILES IDX 22 75 18 76 21 77 19 78 20 79
REMARK H PARENT 71 25 45 36
REMARK Flexibility Score: inf
ROOT
ATOM      1  C   UNL A   1      31.906  29.364  27.291  1.00  0.00     0.188 C 
ENDROOT
BRANCH   1   2
ATOM      2  O   UNL A   1      32.277  30.556  26.584  1.00  0.00    -0.376 OA
BRANCH   2   3
ATOM      3  C   UNL A   1      31.379  31.651  26.786  1.00  0.00     0.202 C 
BRANCH   3   4
ATOM      4  C   UNL A   1      31.993  33.031  26.517  1.00  0.00     0.261 C 
BRANCH   4   5
ATOM      5  O   UNL A   1      32.050  33.831  27.708  1.00  0.00    -0.460 OA
BRANCH   5   6
ATOM      6  C   UNL A   1      33.145  34.337  28.329  1.00  0.00     0.338 C 
ATOM      7  O   UNL A   1      33.150  35.533  28.622  1.00  0.00    -0.246 OA
BRANCH   6   8
ATOM      8  C   UNL A   1      34.331  33.517  28.735  1.00  0.00     0.060 A 
ATOM      9  C   UNL A   1      34.297  32.173  29.109  1.00  0.00     0.016 A 
ATOM     10  C   UNL A   1      35.586  34.152  28.695  1.00  0.00     0.016 A 
ATOM     11  C   UNL A   1      35.438  31.522  29.571  1.00  0.00     0.010 A 
ATOM     12  C   UNL A   1      36.751  33.483  29.090  1.00  0.00     0.010 A 
ATOM     13  C   UNL A   1      36.670  32.176  29.579  1.00  0.00    -0.014 A 
BRANCH  13  14
ATOM     14  C   UNL A   1      37.830  31.503  30.203  1.00  0.00     0.031 A 
ATOM     15  C   UNL A   1      38.114  31.746  31.656  1.00  0.00     0.074 A 
ATOM     16  C   UNL A   1      38.533  30.589  29.510  1.00  0.00     0.049 A 
ATOM     17  N   UNL A   1      39.062  31.252  32.408  1.00  0.00    -0.248 NA
ATOM     18  C   UNL A   1      37.194  32.652  32.363  1.00  0.00     0.031 C 
ATOM     19  C   UNL A   1      38.270  30.199  28.125  1.00  0.00     0.029 A 
ATOM     20  N   UNL A   1      39.587  29.799  29.886  1.00  0.00    -0.354 N 
ATOM     21  C   UNL A   1      38.852  31.784  33.673  1.00  0.00     0.074 A 
ATOM     22  C   UNL A   1      37.706  32.661  33.585  1.00  0.00     0.031 C 
ATOM     23  C   UNL A   1      39.127  29.227  27.774  1.00  0.00     0.029 A 
ATOM     24  C   UNL A   1      40.030  28.967  28.888  1.00  0.00     0.049 A 
ATOM     25  H   UNL A   1      39.988  29.825  30.785  1.00  0.00     0.167 HD
ATOM     26  C   UNL A   1      39.548  31.553  34.811  1.00  0.00     0.037 A 
ATOM     27  C   UNL A   1      41.063  28.104  28.872  1.00  0.00     0.037 A 
ATOM     28  C   UNL A   1      40.695  30.691  34.887  1.00  0.00     0.049 A 
ATOM     29  C   UNL A   1      41.887  27.946  30.118  1.00  0.00     0.074 A 
ATOM     30  C   UNL A   1      41.527  30.446  35.964  1.00  0.00     0.029 A 
ATOM     31  N   UNL A   1      41.166  29.924  33.831  1.00  0.00    -0.354 N 
ATOM     32  N   UNL A   1      41.721  28.507  31.292  1.00  0.00    -0.248 NA
ATOM     33  C   UNL A   1      43.042  27.043  30.037  1.00  0.00     0.031 C 
ATOM     34  C   UNL A   1      42.520  29.550  35.550  1.00  0.00     0.029 A 
ATOM     35  C   UNL A   1      42.285  29.213  34.226  1.00  0.00     0.049 A 
ATOM     36  H   UNL A   1      40.765  29.891  32.932  1.00  0.00     0.167 HD
ATOM     37  C   UNL A   1      42.743  28.019  32.092  1.00  0.00     0.074 A 
ATOM     38  C   UNL A   1      43.512  27.101  31.275  1.00  0.00     0.031 C 
ATOM     39  C   UNL A   1      43.026  28.307  33.386  1.00  0.00     0.037 A 
BRANCH  26  40
ATOM     40  C   UNL A   1      39.095  32.284  36.038  1.00  0.00     0.057 A 
ATOM     41  C   UNL A   1      38.194  31.714  36.945  1.00  0.00     0.134 A 
ATOM     42  C   UNL A   1      39.535  33.588  36.294  1.00  0.00     0.134 A 
ATOM     43  F   UNL A   1      37.714  30.477  36.741  1.00  0.00    -0.206 F 
ATOM     44  C   UNL A   1      37.726  32.424  38.053  1.00  0.00     0.040 A 
ATOM     45  C   UNL A   1      39.089  34.302  37.407  1.00  0.00     0.040 A 
ATOM     46  F   UNL A   1      40.393  34.195  35.459  1.00  0.00    -0.206 F 
ATOM     47  C   UNL A   1      38.176  33.723  38.286  1.00  0.00     0.006 A 
ENDBRANCH  26  40
BRANCH  27  48
ATOM     48  C   UNL A   1      41.393  27.358  27.632  1.00  0.00     0.057 A 
ATOM     49  C   UNL A   1      42.189  27.921  26.630  1.00  0.00     0.134 A 
ATOM     50  C   UNL A   1      40.903  26.062  27.415  1.00  0.00     0.134 A 
ATOM     51  F   UNL A   1      42.670  29.166  26.771  1.00  0.00    -0.206 F 
ATOM     52  C   UNL A   1      42.477  27.231  25.452  1.00  0.00     0.040 A 
ATOM     53  C   UNL A   1      41.200  25.353  26.250  1.00  0.00     0.040 A 
ATOM     54  F   UNL A   1      40.138  25.462  28.338  1.00  0.00    -0.206 F 
ATOM     55  C   UNL A   1      41.985  25.940  25.262  1.00  0.00     0.006 A 
ENDBRANCH  27  48
BRANCH  39  56
ATOM     56  C   UNL A   1      44.206  27.610  33.988  1.00  0.00     0.057 A 
ATOM     57  C   UNL A   1      45.471  28.207  34.021  1.00  0.00     0.134 A 
ATOM     58  C   UNL A   1      44.066  26.343  34.566  1.00  0.00     0.134 A 
ATOM     59  F   UNL A   1      45.668  29.414  33.469  1.00  0.00    -0.206 F 
ATOM     60  C   UNL A   1      46.564  27.559  34.596  1.00  0.00     0.040 A 
ATOM     61  C   UNL A   1      45.148  25.693  35.160  1.00  0.00     0.040 A 
ATOM     62  F   UNL A   1      42.876  25.722  34.568  1.00  0.00    -0.206 F 
ATOM     63  C   UNL A   1      46.402  26.301  35.173  1.00  0.00     0.006 A 
ENDBRANCH  39  56
ENDBRANCH  13  14
ENDBRANCH   6   8
ENDBRANCH   5   6
ENDBRANCH   4   5
ENDBRANCH   3   4
ENDBRANCH   2   3
ENDBRANCH   1   2
BRANCH   1  64
ATOM     64  C   UNL A   1      32.167  28.111  26.448  1.00  0.00     0.188 C 
BRANCH  64  65
ATOM     65  O   UNL A   1      33.193  28.264  25.458  1.00  0.00    -0.376 OA
BRANCH  65  66
ATOM     66  C   UNL A   1      33.802  27.064  24.983  1.00  0.00     0.202 C 
BRANCH  66  67
ATOM     67  C   UNL A   1      33.346  26.609  23.596  1.00  0.00     0.261 C 
BRANCH  67  68
ATOM     68  O   UNL A   1      32.578  27.604  22.907  1.00  0.00    -0.458 OA
BRANCH  68  69
ATOM     69  C   UNL A   1      31.232  27.391  22.911  1.00  0.00     0.358 C 
ATOM     70  O   UNL A   1      30.709  26.277  22.960  1.00  0.00    -0.244 OA
BRANCH  69  71
ATOM     71  C   UNL A   1      30.432  28.607  22.779  1.00  0.00     0.167 A 
ATOM     72  C   UNL A   1      30.271  29.529  23.797  1.00  0.00     0.128 A 
ATOM     73  N   UNL A   1      29.775  29.044  21.635  1.00  0.00    -0.222 NA
ATOM     74  N   UNL A   1      29.530  30.549  23.274  1.00  0.00    -0.306 N 
ATOM     75  C   UNL A   1      29.280  30.230  21.944  1.00  0.00     0.137 A 
ATOM     76  C   UNL A   1      29.077  31.707  23.898  1.00  0.00     0.093 A 
ATOM     77  C   UNL A   1      28.558  31.197  21.183  1.00  0.00     0.048 A 
ATOM     78  C   UNL A   1      28.370  32.599  23.186  1.00  0.00     0.018 A 
ATOM     79  C   UNL A   1      28.127  32.330  21.775  1.00  0.00     0.005 A 
ENDBRANCH  69  71
ENDBRANCH  68  69
ENDBRANCH  67  68
ENDBRANCH  66  67
ENDBRANCH  65  66
ENDBRANCH  64  65
ENDBRANCH   1  64
TORSDOF 17
ENDMDL
MODEL 2
REMARK VINA RESULT:      -9.9      6.089     10.837
REMARK SMILES O=C(OCCOCCOCCOC(=O)c1cn2ccccc2n1)c1ccc(-c2c3nc(c(-c4c(F)cccc4F)c4ccc([nH]4)c(-c4c(F)cccc4F)c4nc(c(-c5c(F)cccc5F)c5ccc2[nH]5)C=C4)C=C3)cc1
REMARK SMILES IDX 7 1 6 2 5 3 4 4 3 5 2 6 1 7 24 8 25 9 77 10 26 11 76 12
REMARK SMILES IDX 27 13 28 14 29 15 70 16 30 17 75 18 69 19 71 20 31 21 74 22
REMARK SMILES IDX 68 23 67 24 32 26 58 27 41 28 57 29 42 30 45 31 56 32 72 33
REMARK SMILES IDX 43 34 44 35 55 37 73 38 46 39 33 40 34 41 39 42 35 43 36 44
REMARK SMILES IDX 38 45 40 46 37 47 59 48 60 49 65 50 61 51 62 52 64 53 66 54
REMARK SMILES IDX 63 55 47 56 48 57 53 58 49 59 50 60 52 61 54 62 51 63 8 64
REMARK SMILES IDX 9 65 10 66 11 67 12 68 13 69 14 70 15 71 16 72 23 73 17 74
REMARK SMILES IDX 22 75 18 76 21 77 19 78 20 79
REMARK H PARENT 71 25 45 36
REMARK Flexibility Score: inf
ROOT
ATOM      1  C   UNL A   1      37.539  22.234  25.293  1.00  0.00     0.188 C 
ENDROOT
BRANCH   1   2
ATOM      2  O   UNL A   1      37.299  21.190  24.339  1.00  0.00    -0.376 OA
BRANCH   2   3
ATOM      3  C   UNL A   1      37.943  19.954  24.660  1.00  0.00     0.202 C 
BRANCH   3   4
ATOM      4  C   UNL A   1      38.933  20.041  25.828  1.00  0.00     0.261 C 
BRANCH   4   5
ATOM      5  O   UNL A   1      40.016  19.110  25.681  1.00  0.00    -0.460 OA
BRANCH   5   6
ATOM      6  C   UNL A   1      41.322  19.281  26.007  1.00  0.00     0.338 C 
ATOM      7  O   UNL A   1      42.094  18.337  25.838  1.00  0.00    -0.246 OA
BRANCH   6   8
ATOM      8  C   UNL A   1      41.898  20.571  26.505  1.00  0.00     0.060 A 
ATOM      9  C   UNL A   1      42.087  20.910  27.845  1.00  0.00     0.016 A 
ATOM     10  C   UNL A   1      42.320  21.495  25.532  1.00  0.00     0.016 A 
ATOM     11  C   UNL A   1      42.535  22.175  28.214  1.00  0.00     0.010 A 
ATOM     12  C   UNL A   1      42.839  22.745  25.894  1.00  0.00     0.010 A 
ATOM     13  C   UNL A   1      42.900  23.108  27.243  1.00  0.00    -0.014 A 
BRANCH  13  14
ATOM     14  C   UNL A   1      43.238  24.484  27.666  1.00  0.00     0.031 A 
ATOM     15  C   UNL A   1      44.667  24.935  27.594  1.00  0.00     0.074 A 
ATOM     16  C   UNL A   1      42.259  25.352  27.982  1.00  0.00     0.049 A 
ATOM     17  N   UNL A   1      45.184  26.096  27.898  1.00  0.00    -0.248 NA
ATOM     18  C   UNL A   1      45.641  23.952  27.094  1.00  0.00     0.031 C 
ATOM     19  C   UNL A   1      40.829  25.045  27.978  1.00  0.00     0.029 A 
ATOM     20  N   UNL A   1      42.317  26.675  28.333  1.00  0.00    -0.354 N 
ATOM     21  C   UNL A   1      46.541  25.984  27.624  1.00  0.00     0.074 A 
ATOM     22  C   UNL A   1      46.774  24.635  27.157  1.00  0.00     0.031 C 
ATOM     23  C   UNL A   1      40.143  26.156  28.289  1.00  0.00     0.029 A 
ATOM     24  C   UNL A   1      41.084  27.233  28.567  1.00  0.00     0.049 A 
ATOM     25  H   UNL A   1      43.160  27.177  28.410  1.00  0.00     0.167 HD
ATOM     26  C   UNL A   1      47.505  26.926  27.741  1.00  0.00     0.037 A 
ATOM     27  C   UNL A   1      40.757  28.471  28.979  1.00  0.00     0.037 A 
ATOM     28  C   UNL A   1      47.267  28.261  28.219  1.00  0.00     0.049 A 
ATOM     29  C   UNL A   1      41.857  29.468  29.206  1.00  0.00     0.074 A 
ATOM     30  C   UNL A   1      48.178  29.273  28.458  1.00  0.00     0.029 A 
ATOM     31  N   UNL A   1      46.012  28.767  28.526  1.00  0.00    -0.354 N 
ATOM     32  N   UNL A   1      43.146  29.331  29.009  1.00  0.00    -0.248 NA
ATOM     33  C   UNL A   1      41.460  30.787  29.716  1.00  0.00     0.031 C 
ATOM     34  C   UNL A   1      47.475  30.385  28.937  1.00  0.00     0.029 A 
ATOM     35  C   UNL A   1      46.125  30.075  28.964  1.00  0.00     0.049 A 
ATOM     36  H   UNL A   1      45.166  28.269  28.446  1.00  0.00     0.167 HD
ATOM     37  C   UNL A   1      43.715  30.546  29.361  1.00  0.00     0.074 A 
ATOM     38  C   UNL A   1      42.627  31.415  29.765  1.00  0.00     0.031 C 
ATOM     39  C   UNL A   1      45.020  30.911  29.358  1.00  0.00     0.037 A 
BRANCH  26  40
ATOM     40  C   UNL A   1      48.900  26.513  27.381  1.00  0.00     0.057 A 
ATOM     41  C   UNL A   1      49.408  26.685  26.088  1.00  0.00     0.134 A 
ATOM     42  C   UNL A   1      49.728  25.899  28.328  1.00  0.00     0.134 A 
ATOM     43  F   UNL A   1      48.653  27.241  25.128  1.00  0.00    -0.206 F 
ATOM     44  C   UNL A   1      50.686  26.239  25.741  1.00  0.00     0.040 A 
ATOM     45  C   UNL A   1      51.013  25.465  27.999  1.00  0.00     0.040 A 
ATOM     46  F   UNL A   1      49.297  25.697  29.582  1.00  0.00    -0.206 F 
ATOM     47  C   UNL A   1      51.492  25.628  26.701  1.00  0.00     0.006 A 
ENDBRANCH  26  40
BRANCH  27  48
ATOM     48  C   UNL A   1      39.337  28.821  29.235  1.00  0.00     0.057 A 
ATOM     49  C   UNL A   1      38.748  28.613  30.486  1.00  0.00     0.134 A 
ATOM     50  C   UNL A   1      38.531  29.360  28.224  1.00  0.00     0.134 A 
ATOM     51  F   UNL A   1      39.463  28.081  31.489  1.00  0.00    -0.206 F 
ATOM     52  C   UNL A   1      37.406  28.917  30.721  1.00  0.00     0.040 A 
ATOM     53  C   UNL A   1      37.192  29.687  28.450  1.00  0.00     0.040 A 
ATOM     54  F   UNL A   1      39.034  29.589  27.002  1.00  0.00    -0.206 F 
ATOM     55  C   UNL A   1      36.625  29.459  29.701  1.00  0.00     0.006 A 
ENDBRANCH  27  48
BRANCH  39  56
ATOM     56  C   UNL A   1      45.328  32.310  29.791  1.00  0.00     0.057 A 
ATOM     57  C   UNL A   1      45.671  32.608  31.115  1.00  0.00     0.134 A 
ATOM     58  C   UNL A   1      45.311  33.362  28.868  1.00  0.00     0.134 A 
ATOM     59  F   UNL A   1      45.689  31.642  32.046  1.00  0.00    -0.206 F 
ATOM     60  C   UNL A   1      45.971  33.911  31.511  1.00  0.00     0.040 A 
ATOM     61  C   UNL A   1      45.627  34.666  29.248  1.00  0.00     0.040 A 
ATOM     62  F   UNL A   1      44.993  33.137  27.583  1.00  0.00    -0.206 F 
ATOM     63  C   UNL A   1      45.956  34.943  30.574  1.00  0.00     0.006 A 
ENDBRANCH  39  56
ENDBRANCH  13  14
ENDBRANCH   6   8
ENDBRANCH   5   6
ENDBRANCH   4   5
ENDBRANCH   3   4
ENDBRANCH   2   3
ENDBRANCH   1   2
BRANCH   1  64
ATOM     64  C   UNL A   1      36.329  23.166  25.417  1.00  0.00     0.188 C 
BRANCH  64  65
ATOM     65  O   UNL A   1      35.504  22.920  26.564  1.00  0.00    -0.376 OA
BRANCH  65  66
ATOM     66  C   UNL A   1      34.180  23.450  26.519  1.00  0.00     0.202 C 
BRANCH  66  67
ATOM     67  C   UNL A   1      33.067  22.447  26.825  1.00  0.00     0.261 C 
BRANCH  67  68
ATOM     68  O   UNL A   1      32.145  22.289  25.738  1.00  0.00    -0.458 OA
BRANCH  68  69
ATOM     69  C   UNL A   1      32.684  21.754  24.606  1.00  0.00     0.358 C 
ATOM     70  O   UNL A   1      32.880  22.387  23.568  1.00  0.00    -0.244 OA
BRANCH  69  71
ATOM     71  C   UNL A   1      32.958  20.321  24.692  1.00  0.00     0.167 A 
ATOM     72  C   UNL A   1      34.204  19.766  24.466  1.00  0.00     0.128 A 
ATOM     73  N   UNL A   1      32.056  19.328  25.056  1.00  0.00    -0.222 NA
ATOM     74  N   UNL A   1      34.078  18.430  24.711  1.00  0.00    -0.306 N 
ATOM     75  C   UNL A   1      32.761  18.211  25.104  1.00  0.00     0.137 A 
ATOM     76  C   UNL A   1      35.038  17.428  24.605  1.00  0.00     0.093 A 
ATOM     77  C   UNL A   1      32.420  16.874  25.466  1.00  0.00     0.048 A 
ATOM     78  C   UNL A   1      34.702  16.166  24.916  1.00  0.00     0.018 A 
ATOM     79  C   UNL A   1      33.348  15.898  25.380  1.00  0.00     0.005 A 
ENDBRANCH  69  71
ENDBRANCH  68  69
ENDBRANCH  67  68
ENDBRANCH  66  67
ENDBRANCH  65  66
ENDBRANCH  64  65
ENDBRANCH   1  64
TORSDOF 17
ENDMDL
MODEL 3
REMARK VINA RESULT:      -9.8      4.408      7.619
REMARK SMILES O=C(OCCOCCOCCOC(=O)c1cn2ccccc2n1)c1ccc(-c2c3nc(c(-c4c(F)cccc4F)c4ccc([nH]4)c(-c4c(F)cccc4F)c4nc(c(-c5c(F)cccc5F)c5ccc2[nH]5)C=C4)C=C3)cc1
REMARK SMILES IDX 7 1 6 2 5 3 4 4 3 5 2 6 1 7 24 8 25 9 77 10 26 11 76 12
REMARK SMILES IDX 27 13 28 14 29 15 70 16 30 17 75 18 69 19 71 20 31 21 74 22
REMARK SMILES IDX 68 23 67 24 32 26 58 27 41 28 57 29 42 30 45 31 56 32 72 33
REMARK SMILES IDX 43 34 44 35 55 37 73 38 46 39 33 40 34 41 39 42 35 43 36 44
REMARK SMILES IDX 38 45 40 46 37 47 59 48 60 49 65 50 61 51 62 52 64 53 66 54
REMARK SMILES IDX 63 55 47 56 48 57 53 58 49 59 50 60 52 61 54 62 51 63 8 64
REMARK SMILES IDX 9 65 10 66 11 67 12 68 13 69 14 70 15 71 16 72 23 73 17 74
REMARK SMILES IDX 22 75 18 76 21 77 19 78 20 79
REMARK H PARENT 71 25 45 36
REMARK Flexibility Score: inf
ROOT
ATOM      1  C   UNL A   1      33.830  36.719  28.615  1.00  0.00     0.188 C 
ENDROOT
BRANCH   1   2
ATOM      2  O   UNL A   1      34.431  35.581  27.979  1.00  0.00    -0.376 OA
BRANCH   2   3
ATOM      3  C   UNL A   1      34.518  34.429  28.821  1.00  0.00     0.202 C 
BRANCH   3   4
ATOM      4  C   UNL A   1      33.891  33.162  28.226  1.00  0.00     0.261 C 
BRANCH   4   5
ATOM      5  O   UNL A   1      34.342  31.976  28.898  1.00  0.00    -0.460 OA
BRANCH   5   6
ATOM      6  C   UNL A   1      34.687  30.781  28.355  1.00  0.00     0.338 C 
ATOM      7  O   UNL A   1      33.864  30.203  27.646  1.00  0.00    -0.246 OA
BRANCH   6   8
ATOM      8  C   UNL A   1      36.035  30.147  28.516  1.00  0.00     0.060 A 
ATOM      9  C   UNL A   1      36.478  29.461  29.647  1.00  0.00     0.016 A 
ATOM     10  C   UNL A   1      36.906  30.219  27.413  1.00  0.00     0.016 A 
ATOM     11  C   UNL A   1      37.786  28.994  29.743  1.00  0.00     0.010 A 
ATOM     12  C   UNL A   1      38.200  29.689  27.475  1.00  0.00     0.010 A 
ATOM     13  C   UNL A   1      38.662  29.117  28.664  1.00  0.00    -0.014 A 
BRANCH  13  14
ATOM     14  C   UNL A   1      40.079  28.737  28.849  1.00  0.00     0.031 A 
ATOM     15  C   UNL A   1      40.991  29.671  29.588  1.00  0.00     0.074 A 
ATOM     16  C   UNL A   1      40.504  27.516  28.476  1.00  0.00     0.049 A 
ATOM     17  N   UNL A   1      42.258  29.535  29.878  1.00  0.00    -0.248 NA
ATOM     18  C   UNL A   1      40.389  30.919  30.086  1.00  0.00     0.031 C 
ATOM     19  C   UNL A   1      39.671  26.491  27.848  1.00  0.00     0.029 A 
ATOM     20  N   UNL A   1      41.731  26.919  28.602  1.00  0.00    -0.354 N 
ATOM     21  C   UNL A   1      42.604  30.675  30.591  1.00  0.00     0.074 A 
ATOM     22  C   UNL A   1      41.424  31.507  30.667  1.00  0.00     0.031 C 
ATOM     23  C   UNL A   1      40.405  25.383  27.664  1.00  0.00     0.029 A 
ATOM     24  C   UNL A   1      41.769  25.638  28.108  1.00  0.00     0.049 A 
ATOM     25  H   UNL A   1      42.509  27.365  29.007  1.00  0.00     0.167 HD
ATOM     26  C   UNL A   1      43.797  30.994  31.143  1.00  0.00     0.037 A 
ATOM     27  C   UNL A   1      42.798  24.777  28.011  1.00  0.00     0.037 A 
ATOM     28  C   UNL A   1      44.969  30.167  31.051  1.00  0.00     0.049 A 
ATOM     29  C   UNL A   1      44.141  25.198  28.535  1.00  0.00     0.074 A 
ATOM     30  C   UNL A   1      46.252  30.425  31.498  1.00  0.00     0.029 A 
ATOM     31  N   UNL A   1      44.991  28.907  30.469  1.00  0.00    -0.354 N 
ATOM     32  N   UNL A   1      44.475  26.309  29.147  1.00  0.00    -0.248 NA
ATOM     33  C   UNL A   1      45.249  24.253  28.350  1.00  0.00     0.031 C 
ATOM     34  C   UNL A   1      47.057  29.330  31.162  1.00  0.00     0.029 A 
ATOM     35  C   UNL A   1      46.268  28.379  30.535  1.00  0.00     0.049 A 
ATOM     36  H   UNL A   1      44.214  28.456  30.067  1.00  0.00     0.167 HD
ATOM     37  C   UNL A   1      45.827  26.194  29.431  1.00  0.00     0.074 A 
ATOM     38  C   UNL A   1      46.248  24.896  28.940  1.00  0.00     0.031 C 
ATOM     39  C   UNL A   1      46.652  27.083  30.036  1.00  0.00     0.037 A 
BRANCH  26  40
ATOM     40  C   UNL A   1      43.882  32.311  31.852  1.00  0.00     0.057 A 
ATOM     41  C   UNL A   1      44.204  33.493  31.173  1.00  0.00     0.134 A 
ATOM     42  C   UNL A   1      43.678  32.392  33.235  1.00  0.00     0.134 A 
ATOM     43  F   UNL A   1      44.438  33.477  29.852  1.00  0.00    -0.206 F 
ATOM     44  C   UNL A   1      44.344  34.707  31.850  1.00  0.00     0.040 A 
ATOM     45  C   UNL A   1      43.798  33.602  33.919  1.00  0.00     0.040 A 
ATOM     46  F   UNL A   1      43.376  31.293  33.944  1.00  0.00    -0.206 F 
ATOM     47  C   UNL A   1      44.139  34.762  33.228  1.00  0.00     0.006 A 
ENDBRANCH  26  40
BRANCH  27  48
ATOM     48  C   UNL A   1      42.606  23.455  27.363  1.00  0.00     0.057 A 
ATOM     49  C   UNL A   1      42.819  23.275  25.993  1.00  0.00     0.134 A 
ATOM     50  C   UNL A   1      42.188  22.341  28.103  1.00  0.00     0.134 A 
ATOM     51  F   UNL A   1      43.201  24.309  25.227  1.00  0.00    -0.206 F 
ATOM     52  C   UNL A   1      42.612  22.039  25.377  1.00  0.00     0.040 A 
ATOM     53  C   UNL A   1      41.996  21.094  27.504  1.00  0.00     0.040 A 
ATOM     54  F   UNL A   1      41.970  22.443  29.422  1.00  0.00    -0.206 F 
ATOM     55  C   UNL A   1      42.203  20.943  26.135  1.00  0.00     0.006 A 
ENDBRANCH  27  48
BRANCH  39  56
ATOM     56  C   UNL A   1      48.079  26.667  30.208  1.00  0.00     0.057 A 
ATOM     57  C   UNL A   1      49.057  26.998  29.263  1.00  0.00     0.134 A 
ATOM     58  C   UNL A   1      48.483  25.957  31.345  1.00  0.00     0.134 A 
ATOM     59  F   UNL A   1      48.725  27.665  28.148  1.00  0.00    -0.206 F 
ATOM     60  C   UNL A   1      50.389  26.621  29.435  1.00  0.00     0.040 A 
ATOM     61  C   UNL A   1      49.815  25.590  31.536  1.00  0.00     0.040 A 
ATOM     62  F   UNL A   1      47.591  25.614  32.287  1.00  0.00    -0.206 F 
ATOM     63  C   UNL A   1      50.771  25.920  30.578  1.00  0.00     0.006 A 
ENDBRANCH  39  56
ENDBRANCH  13  14
ENDBRANCH   6   8
ENDBRANCH   5   6
ENDBRANCH   4   5
ENDBRANCH   3   4
ENDBRANCH   2   3
ENDBRANCH   1   2
BRANCH   1  64
ATOM     64  C   UNL A   1      32.822  36.292  29.687  1.00  0.00     0.188 C 
BRANCH  64  65
ATOM     65  O   UNL A   1      32.678  37.220  30.771  1.00  0.00    -0.376 OA
BRANCH  65  66
ATOM     66  C   UNL A   1      33.513  37.002  31.907  1.00  0.00     0.202 C 
BRANCH  66  67
ATOM     67  C   UNL A   1      33.420  35.606  32.525  1.00  0.00     0.261 C 
BRANCH  67  68
ATOM     68  O   UNL A   1      34.626  34.848  32.371  1.00  0.00    -0.458 OA
BRANCH  68  69
ATOM     69  C   UNL A   1      34.556  33.565  32.826  1.00  0.00     0.358 C 
ATOM     70  O   UNL A   1      33.506  32.990  33.115  1.00  0.00    -0.244 OA
BRANCH  69  71
ATOM     71  C   UNL A   1      35.856  32.926  33.017  1.00  0.00     0.167 A 
ATOM     72  C   UNL A   1      36.971  33.588  33.499  1.00  0.00     0.128 A 
ATOM     73  N   UNL A   1      36.158  31.585  32.806  1.00  0.00    -0.222 NA
ATOM     74  N   UNL A   1      37.956  32.651  33.606  1.00  0.00    -0.306 N 
ATOM     75  C   UNL A   1      37.407  31.437  33.208  1.00  0.00     0.137 A 
ATOM     76  C   UNL A   1      39.274  32.814  34.022  1.00  0.00     0.093 A 
ATOM     77  C   UNL A   1      38.259  30.295  33.295  1.00  0.00     0.048 A 
ATOM     78  C   UNL A   1      40.081  31.742  34.071  1.00  0.00     0.018 A 
ATOM     79  C   UNL A   1      39.535  30.441  33.711  1.00  0.00     0.005 A 
ENDBRANCH  69  71
ENDBRANCH  68  69
ENDBRANCH  67  68
ENDBRANCH  66  67
ENDBRANCH  65  66
ENDBRANCH  64  65
ENDBRANCH   1  64
TORSDOF 17
ENDMDL
