MODEL 1
REMARK VINA RESULT:      -7.9      0.000      0.000
REMARK SMILES COc1ccc([C@H]2CC(c3ccc(S(C)(=O)=O)cc3)=NN2c2ccc(C(=O)OCCOCCOCCOC(=O)c3ccc(-c4c5nc(c(-c6c(F)cccc6F)c6ccc([nH]6)c(-c6c(F)cccc6F)c6nc(c(-c7c(F)cccc7F)c7ccc4[nH]7)C=C6)C=C5)cc3)cc2)cc1OC
REMARK SMILES IDX 32 1 31 2 30 3 29 4 28 5 26 6 27 7 25 8 22 9 23 10 95 11
REMARK SMILES IDX 24 12 94 13 21 14 7 15 8 16 9 17 20 18 6 19 3 20 4 21 97 22
REMARK SMILES IDX 5 23 96 24 2 25 1 26 98 27 99 28 10 29 11 30 19 31 12 32
REMARK SMILES IDX 18 33 13 34 14 35 15 36 16 37 17 38 33 39 34 40 35 41 36 42
REMARK SMILES IDX 37 43 38 44 39 45 40 46 41 47 93 48 42 49 92 50 43 51 44 52
REMARK SMILES IDX 45 53 86 54 46 55 91 56 85 57 87 58 47 59 90 60 84 61 83 62
REMARK SMILES IDX 48 64 74 65 57 66 73 67 58 68 61 69 72 70 88 71 59 72 60 73
REMARK SMILES IDX 71 75 89 76 62 77 49 78 50 79 55 80 51 81 52 82 54 83 56 84
REMARK SMILES IDX 53 85 75 86 76 87 81 88 77 89 78 90 80 91 82 92 79 93 63 94
REMARK SMILES IDX 64 95 69 96 65 97 66 98 68 99 70 100 67 101
REMARK H PARENT 87 63 61 74
REMARK Flexibility Score: inf
ROOT
ATOM      1  C   UNL A   1      35.458  34.056  29.878  1.00  0.00     0.188 C 
ENDROOT
BRANCH   1   2
ATOM      2  O   UNL A   1      34.950  34.231  28.571  1.00  0.00    -0.376 OA
BRANCH   2   3
ATOM      3  C   UNL A   1      33.843  33.470  28.118  1.00  0.00     0.202 C 
BRANCH   3   4
ATOM      4  C   UNL A   1      33.896  31.954  27.864  1.00  0.00     0.261 C 
BRANCH   4   5
ATOM      5  O   UNL A   1      35.178  31.398  27.547  1.00  0.00    -0.460 OA
BRANCH   5   6
ATOM      6  C   UNL A   1      35.375  30.125  27.977  1.00  0.00     0.338 C 
ATOM      7  O   UNL A   1      34.759  29.133  27.624  1.00  0.00    -0.246 OA
BRANCH   6   8
ATOM      8  C   UNL A   1      36.584  30.054  28.826  1.00  0.00     0.060 A 
ATOM      9  C   UNL A   1      38.995  29.838  30.260  1.00  0.00     0.060 A 
ATOM     10  C   UNL A   1      38.889  30.717  29.176  1.00  0.00     0.029 A 
ATOM     11  C   UNL A   1      37.846  29.139  30.666  1.00  0.00     0.029 A 
ATOM     12  C   UNL A   1      37.704  30.801  28.441  1.00  0.00     0.018 A 
ATOM     13  C   UNL A   1      36.637  29.257  29.971  1.00  0.00     0.018 A 
BRANCH   9  14
ATOM     14  N   UNL A   1      40.227  29.584  30.857  1.00  0.00    -0.257 N 
ATOM     15  C   UNL A   1      40.995  28.369  30.557  1.00  0.00     0.144 C 
ATOM     16  C   UNL A   1      42.322  28.629  31.277  1.00  0.00     0.091 C 
ATOM     17  C   UNL A   1      42.097  30.037  31.761  1.00  0.00     0.071 C 
ATOM     18  N   UNL A   1      40.937  30.555  31.498  1.00  0.00    -0.176 NA
BRANCH  15  19
ATOM     19  C   UNL A   1      41.166  28.131  29.059  1.00  0.00    -0.019 A 
ATOM     20  C   UNL A   1      41.606  27.602  26.317  1.00  0.00     0.160 A 
ATOM     21  C   UNL A   1      42.263  28.663  26.952  1.00  0.00     0.051 A 
ATOM     22  C   UNL A   1      40.720  26.799  27.042  1.00  0.00     0.161 A 
ATOM     23  C   UNL A   1      42.040  28.931  28.309  1.00  0.00     0.010 A 
ATOM     24  C   UNL A   1      40.515  27.072  28.403  1.00  0.00     0.056 A 
BRANCH  20  25
ATOM     25  O   UNL A   1      41.985  27.276  25.042  1.00  0.00    -0.493 OA
ATOM     26  C   UNL A   1      43.048  26.326  25.006  1.00  0.00     0.278 C 
ENDBRANCH  20  25
BRANCH  22  27
ATOM     27  O   UNL A   1      40.021  25.703  26.610  1.00  0.00    -0.493 OA
ATOM     28  C   UNL A   1      39.557  24.784  27.585  1.00  0.00     0.278 C 
ENDBRANCH  22  27
ENDBRANCH  15  19
BRANCH  17  29
ATOM     29  C   UNL A   1      43.137  30.714  32.550  1.00  0.00    -0.002 A 
ATOM     30  C   UNL A   1      42.765  31.757  33.407  1.00  0.00     0.011 A 
ATOM     31  C   UNL A   1      44.464  30.279  32.493  1.00  0.00     0.011 A 
ATOM     32  C   UNL A   1      43.722  32.354  34.232  1.00  0.00     0.021 A 
ATOM     33  C   UNL A   1      45.428  30.892  33.299  1.00  0.00     0.021 A 
ATOM     34  C   UNL A   1      45.053  31.924  34.166  1.00  0.00     0.067 A 
BRANCH  34  35
ATOM     35  S   UNL A   1      46.262  32.660  35.245  1.00  0.00     0.175 S 
ATOM     36  C   UNL A   1      45.794  32.125  36.870  1.00  0.00     0.163 C 
ATOM     37  O   UNL A   1      47.538  32.058  34.914  1.00  0.00    -0.224 OA
ATOM     38  O   UNL A   1      46.080  34.099  35.190  1.00  0.00    -0.224 OA
ENDBRANCH  34  35
ENDBRANCH  17  29
ENDBRANCH   9  14
ENDBRANCH   6   8
ENDBRANCH   5   6
ENDBRANCH   4   5
ENDBRANCH   3   4
ENDBRANCH   2   3
ENDBRANCH   1   2
BRANCH   1  39
ATOM     39  C   UNL A   1      34.500  33.803  31.059  1.00  0.00     0.188 C 
BRANCH  39  40
ATOM     40  O   UNL A   1      34.236  34.870  31.938  1.00  0.00    -0.376 OA
BRANCH  40  41
ATOM     41  C   UNL A   1      34.990  35.040  33.125  1.00  0.00     0.202 C 
BRANCH  41  42
ATOM     42  C   UNL A   1      36.262  34.263  33.521  1.00  0.00     0.261 C 
BRANCH  42  43
ATOM     43  O   UNL A   1      37.489  34.589  32.869  1.00  0.00    -0.460 OA
BRANCH  43  44
ATOM     44  C   UNL A   1      38.058  33.589  32.158  1.00  0.00     0.338 C 
ATOM     45  O   UNL A   1      37.617  32.463  31.965  1.00  0.00    -0.246 OA
BRANCH  44  46
ATOM     46  C   UNL A   1      39.264  34.108  31.496  1.00  0.00     0.060 A 
ATOM     47  C   UNL A   1      39.254  34.283  30.105  1.00  0.00     0.016 A 
ATOM     48  C   UNL A   1      40.410  34.388  32.242  1.00  0.00     0.016 A 
ATOM     49  C   UNL A   1      40.402  34.725  29.452  1.00  0.00     0.010 A 
ATOM     50  C   UNL A   1      41.566  34.811  31.582  1.00  0.00     0.010 A 
ATOM     51  C   UNL A   1      41.575  34.955  30.182  1.00  0.00    -0.014 A 
BRANCH  51  52
ATOM     52  C   UNL A   1      42.857  35.179  29.474  1.00  0.00     0.031 A 
ATOM     53  C   UNL A   1      43.726  33.992  29.164  1.00  0.00     0.074 A 
ATOM     54  C   UNL A   1      43.244  36.412  29.106  1.00  0.00     0.049 A 
ATOM     55  N   UNL A   1      44.910  33.948  28.609  1.00  0.00    -0.248 NA
ATOM     56  C   UNL A   1      43.184  32.677  29.540  1.00  0.00     0.031 C 
ATOM     57  C   UNL A   1      42.471  37.635  29.303  1.00  0.00     0.029 A 
ATOM     58  N   UNL A   1      44.397  36.833  28.492  1.00  0.00    -0.354 N 
ATOM     59  C   UNL A   1      45.257  32.603  28.572  1.00  0.00     0.074 A 
ATOM     60  C   UNL A   1      44.177  31.871  29.198  1.00  0.00     0.031 C 
ATOM     61  C   UNL A   1      43.174  38.675  28.821  1.00  0.00     0.029 A 
ATOM     62  C   UNL A   1      44.460  38.193  28.319  1.00  0.00     0.049 A 
ATOM     63  H   UNL A   1      45.110  36.218  28.204  1.00  0.00     0.167 HD
ATOM     64  C   UNL A   1      46.369  32.028  28.056  1.00  0.00     0.037 A 
ATOM     65  C   UNL A   1      45.453  38.959  27.827  1.00  0.00     0.037 A 
ATOM     66  C   UNL A   1      47.452  32.762  27.452  1.00  0.00     0.049 A 
ATOM     67  C   UNL A   1      46.728  38.310  27.355  1.00  0.00     0.074 A 
ATOM     68  C   UNL A   1      48.620  32.275  26.895  1.00  0.00     0.029 A 
ATOM     69  N   UNL A   1      47.504  34.145  27.344  1.00  0.00    -0.354 N 
ATOM     70  N   UNL A   1      47.042  37.038  27.303  1.00  0.00    -0.248 NA
ATOM     71  C   UNL A   1      47.789  39.208  26.875  1.00  0.00     0.031 C 
ATOM     72  C   UNL A   1      49.406  33.365  26.503  1.00  0.00     0.029 A 
ATOM     73  C   UNL A   1      48.699  34.530  26.756  1.00  0.00     0.049 A 
ATOM     74  H   UNL A   1      46.796  34.762  27.641  1.00  0.00     0.167 HD
ATOM     75  C   UNL A   1      48.318  36.980  26.752  1.00  0.00     0.074 A 
ATOM     76  C   UNL A   1      48.715  38.346  26.482  1.00  0.00     0.031 C 
ATOM     77  C   UNL A   1      49.085  35.893  26.489  1.00  0.00     0.037 A 
BRANCH  64  78
ATOM     78  C   UNL A   1      46.479  30.534  28.165  1.00  0.00     0.057 A 
ATOM     79  C   UNL A   1      47.011  29.908  29.302  1.00  0.00     0.134 A 
ATOM     80  C   UNL A   1      46.060  29.710  27.113  1.00  0.00     0.134 A 
ATOM     81  F   UNL A   1      47.445  30.639  30.340  1.00  0.00    -0.206 F 
ATOM     82  C   UNL A   1      47.162  28.522  29.370  1.00  0.00     0.040 A 
ATOM     83  C   UNL A   1      46.175  28.321  27.183  1.00  0.00     0.040 A 
ATOM     84  F   UNL A   1      45.535  30.239  25.999  1.00  0.00    -0.206 F 
ATOM     85  C   UNL A   1      46.738  27.723  28.309  1.00  0.00     0.006 A 
ENDBRANCH  64  78
BRANCH  65  86
ATOM     86  C   UNL A   1      45.281  40.432  27.749  1.00  0.00     0.057 A 
ATOM     87  C   UNL A   1      45.689  41.261  28.799  1.00  0.00     0.134 A 
ATOM     88  C   UNL A   1      44.700  41.045  26.631  1.00  0.00     0.134 A 
ATOM     89  F   UNL A   1      46.226  40.730  29.909  1.00  0.00    -0.206 F 
ATOM     90  C   UNL A   1      45.519  42.646  28.748  1.00  0.00     0.040 A 
ATOM     91  C   UNL A   1      44.548  42.430  26.556  1.00  0.00     0.040 A 
ATOM     92  F   UNL A   1      44.284  40.306  25.594  1.00  0.00    -0.206 F 
ATOM     93  C   UNL A   1      44.953  43.234  27.619  1.00  0.00     0.006 A 
ENDBRANCH  65  86
BRANCH  77  94
ATOM     94  C   UNL A   1      50.418  36.130  25.834  1.00  0.00     0.057 A 
ATOM     95  C   UNL A   1      50.537  36.424  24.470  1.00  0.00     0.134 A 
ATOM     96  C   UNL A   1      51.597  36.103  26.592  1.00  0.00     0.134 A 
ATOM     97  F   UNL A   1      49.452  36.456  23.683  1.00  0.00    -0.206 F 
ATOM     98  C   UNL A   1      51.782  36.658  23.879  1.00  0.00     0.040 A 
ATOM     99  C   UNL A   1      52.842  36.364  26.020  1.00  0.00     0.040 A 
ATOM    100  F   UNL A   1      51.556  35.837  27.907  1.00  0.00    -0.206 F 
ATOM    101  C   UNL A   1      52.938  36.636  24.658  1.00  0.00     0.006 A 
ENDBRANCH  77  94
ENDBRANCH  51  52
ENDBRANCH  44  46
ENDBRANCH  43  44
ENDBRANCH  42  43
ENDBRANCH  41  42
ENDBRANCH  40  41
ENDBRANCH  39  40
ENDBRANCH   1  39
TORSDOF 23
ENDMDL
MODEL 2
REMARK VINA RESULT:      -7.9      3.836     10.088
REMARK SMILES COc1ccc([C@H]2CC(c3ccc(S(C)(=O)=O)cc3)=NN2c2ccc(C(=O)OCCOCCOCCOC(=O)c3ccc(-c4c5nc(c(-c6c(F)cccc6F)c6ccc([nH]6)c(-c6c(F)cccc6F)c6nc(c(-c7c(F)cccc7F)c7ccc4[nH]7)C=C6)C=C5)cc3)cc2)cc1OC
REMARK SMILES IDX 32 1 31 2 30 3 29 4 28 5 26 6 27 7 25 8 22 9 23 10 95 11
REMARK SMILES IDX 24 12 94 13 21 14 7 15 8 16 9 17 20 18 6 19 3 20 4 21 97 22
REMARK SMILES IDX 5 23 96 24 2 25 1 26 98 27 99 28 10 29 11 30 19 31 12 32
REMARK SMILES IDX 18 33 13 34 14 35 15 36 16 37 17 38 33 39 34 40 35 41 36 42
REMARK SMILES IDX 37 43 38 44 39 45 40 46 41 47 93 48 42 49 92 50 43 51 44 52
REMARK SMILES IDX 45 53 86 54 46 55 91 56 85 57 87 58 47 59 90 60 84 61 83 62
REMARK SMILES IDX 48 64 74 65 57 66 73 67 58 68 61 69 72 70 88 71 59 72 60 73
REMARK SMILES IDX 71 75 89 76 62 77 49 78 50 79 55 80 51 81 52 82 54 83 56 84
REMARK SMILES IDX 53 85 75 86 76 87 81 88 77 89 78 90 80 91 82 92 79 93 63 94
REMARK SMILES IDX 64 95 69 96 65 97 66 98 68 99 70 100 67 101
REMARK H PARENT 87 63 61 74
REMARK Flexibility Score: inf
ROOT
ATOM      1  C   UNL A   1      34.269  33.926  31.749  1.00  0.00     0.188 C 
ENDROOT
BRANCH   1   2
ATOM      2  O   UNL A   1      35.580  34.031  32.267  1.00  0.00    -0.376 OA
BRANCH   2   3
ATOM      3  C   UNL A   1      36.335  32.868  32.566  1.00  0.00     0.202 C 
BRANCH   3   4
ATOM      4  C   UNL A   1      37.121  32.674  33.873  1.00  0.00     0.261 C 
BRANCH   4   5
ATOM      5  O   UNL A   1      38.522  32.972  33.832  1.00  0.00    -0.460 OA
BRANCH   5   6
ATOM      6  C   UNL A   1      38.828  34.249  33.485  1.00  0.00     0.338 C 
ATOM      7  O   UNL A   1      38.455  35.266  34.046  1.00  0.00    -0.246 OA
BRANCH   6   8
ATOM      8  C   UNL A   1      39.847  34.256  32.412  1.00  0.00     0.060 A 
ATOM      9  C   UNL A   1      41.731  34.051  30.334  1.00  0.00     0.060 A 
ATOM     10  C   UNL A   1      40.364  33.901  30.071  1.00  0.00     0.029 A 
ATOM     11  C   UNL A   1      42.125  34.394  31.637  1.00  0.00     0.029 A 
ATOM     12  C   UNL A   1      39.429  33.968  31.107  1.00  0.00     0.018 A 
ATOM     13  C   UNL A   1      41.192  34.519  32.672  1.00  0.00     0.018 A 
BRANCH   9  14
ATOM     14  N   UNL A   1      42.681  33.769  29.356  1.00  0.00    -0.257 N 
ATOM     15  C   UNL A   1      42.853  34.625  28.175  1.00  0.00     0.144 C 
ATOM     16  C   UNL A   1      44.106  34.038  27.519  1.00  0.00     0.091 C 
ATOM     17  C   UNL A   1      44.493  33.006  28.546  1.00  0.00     0.071 C 
ATOM     18  N   UNL A   1      43.701  32.890  29.567  1.00  0.00    -0.176 NA
BRANCH  15  19
ATOM     19  C   UNL A   1      43.003  36.101  28.532  1.00  0.00    -0.019 A 
ATOM     20  C   UNL A   1      43.182  38.814  29.308  1.00  0.00     0.160 A 
ATOM     21  C   UNL A   1      42.189  38.392  28.415  1.00  0.00     0.051 A 
ATOM     22  C   UNL A   1      44.098  37.888  29.817  1.00  0.00     0.161 A 
ATOM     23  C   UNL A   1      42.104  37.049  28.024  1.00  0.00     0.010 A 
ATOM     24  C   UNL A   1      43.994  36.545  29.425  1.00  0.00     0.056 A 
BRANCH  20  25
ATOM     25  O   UNL A   1      43.117  40.094  29.791  1.00  0.00    -0.493 OA
ATOM     26  C   UNL A   1      43.396  41.076  28.794  1.00  0.00     0.278 C 
ENDBRANCH  20  25
BRANCH  22  27
ATOM     27  O   UNL A   1      45.105  38.101  30.721  1.00  0.00    -0.493 OA
ATOM     28  C   UNL A   1      44.994  37.485  31.994  1.00  0.00     0.278 C 
ENDBRANCH  22  27
ENDBRANCH  15  19
BRANCH  17  29
ATOM     29  C   UNL A   1      45.669  32.153  28.320  1.00  0.00    -0.002 A 
ATOM     30  C   UNL A   1      45.774  31.451  27.113  1.00  0.00     0.011 A 
ATOM     31  C   UNL A   1      46.696  32.098  29.266  1.00  0.00     0.011 A 
ATOM     32  C   UNL A   1      46.925  30.707  26.839  1.00  0.00     0.021 A 
ATOM     33  C   UNL A   1      47.837  31.333  29.006  1.00  0.00     0.021 A 
ATOM     34  C   UNL A   1      47.947  30.644  27.793  1.00  0.00     0.067 A 
BRANCH  34  35
ATOM     35  S   UNL A   1      49.428  29.726  27.426  1.00  0.00     0.175 S 
ATOM     36  C   UNL A   1      50.543  30.132  28.743  1.00  0.00     0.163 C 
ATOM     37  O   UNL A   1      49.084  28.321  27.532  1.00  0.00    -0.224 OA
ATOM     38  O   UNL A   1      49.984  30.265  26.199  1.00  0.00    -0.224 OA
ENDBRANCH  34  35
ENDBRANCH  17  29
ENDBRANCH   9  14
ENDBRANCH   6   8
ENDBRANCH   5   6
ENDBRANCH   4   5
ENDBRANCH   3   4
ENDBRANCH   2   3
ENDBRANCH   1   2
BRANCH   1  39
ATOM     39  C   UNL A   1      33.737  34.982  30.760  1.00  0.00     0.188 C 
BRANCH  39  40
ATOM     40  O   UNL A   1      33.178  34.532  29.549  1.00  0.00    -0.376 OA
BRANCH  40  41
ATOM     41  C   UNL A   1      33.964  34.436  28.374  1.00  0.00     0.202 C 
BRANCH  41  42
ATOM     42  C   UNL A   1      35.008  33.347  28.058  1.00  0.00     0.261 C 
BRANCH  42  43
ATOM     43  O   UNL A   1      35.083  32.207  28.915  1.00  0.00    -0.460 OA
BRANCH  43  44
ATOM     44  C   UNL A   1      35.029  31.005  28.299  1.00  0.00     0.338 C 
ATOM     45  O   UNL A   1      34.165  30.595  27.534  1.00  0.00    -0.246 OA
BRANCH  44  46
ATOM     46  C   UNL A   1      36.280  30.280  28.567  1.00  0.00     0.060 A 
ATOM     47  C   UNL A   1      36.402  29.555  29.761  1.00  0.00     0.016 A 
ATOM     48  C   UNL A   1      37.338  30.343  27.659  1.00  0.00     0.016 A 
ATOM     49  C   UNL A   1      37.597  28.903  30.058  1.00  0.00     0.010 A 
ATOM     50  C   UNL A   1      38.541  29.705  27.969  1.00  0.00     0.010 A 
ATOM     51  C   UNL A   1      38.685  29.006  29.183  1.00  0.00    -0.014 A 
BRANCH  51  52
ATOM     52  C   UNL A   1      40.024  28.532  29.604  1.00  0.00     0.031 A 
ATOM     53  C   UNL A   1      40.676  29.183  30.792  1.00  0.00     0.074 A 
ATOM     54  C   UNL A   1      40.650  27.539  28.951  1.00  0.00     0.049 A 
ATOM     55  N   UNL A   1      41.861  28.978  31.308  1.00  0.00    -0.248 NA
ATOM     56  C   UNL A   1      39.883  30.208  31.486  1.00  0.00     0.031 C 
ATOM     57  C   UNL A   1      40.104  26.796  27.818  1.00  0.00     0.029 A 
ATOM     58  N   UNL A   1      41.893  26.993  29.150  1.00  0.00    -0.354 N 
ATOM     59  C   UNL A   1      41.957  29.851  32.384  1.00  0.00     0.074 A 
ATOM     60  C   UNL A   1      40.728  30.614  32.421  1.00  0.00     0.031 C 
ATOM     61  C   UNL A   1      41.012  25.889  27.417  1.00  0.00     0.029 A 
ATOM     62  C   UNL A   1      42.214  26.016  28.240  1.00  0.00     0.049 A 
ATOM     63  H   UNL A   1      42.496  27.275  29.875  1.00  0.00     0.167 HD
ATOM     64  C   UNL A   1      42.973  29.999  33.268  1.00  0.00     0.037 A 
ATOM     65  C   UNL A   1      43.356  25.320  28.082  1.00  0.00     0.037 A 
ATOM     66  C   UNL A   1      44.204  29.252  33.216  1.00  0.00     0.049 A 
ATOM     67  C   UNL A   1      44.515  25.574  29.010  1.00  0.00     0.074 A 
ATOM     68  C   UNL A   1      45.292  29.322  34.066  1.00  0.00     0.029 A 
ATOM     69  N   UNL A   1      44.514  28.309  32.247  1.00  0.00    -0.354 N 
ATOM     70  N   UNL A   1      44.593  26.384  30.038  1.00  0.00    -0.248 NA
ATOM     71  C   UNL A   1      45.747  24.815  28.753  1.00  0.00     0.031 C 
ATOM     72  C   UNL A   1      46.285  28.465  33.578  1.00  0.00     0.029 A 
ATOM     73  C   UNL A   1      45.790  27.812  32.460  1.00  0.00     0.049 A 
ATOM     74  H   UNL A   1      43.916  28.033  31.515  1.00  0.00     0.167 HD
ATOM     75  C   UNL A   1      45.865  26.207  30.571  1.00  0.00     0.074 A 
ATOM     76  C   UNL A   1      46.521  25.206  29.755  1.00  0.00     0.031 C 
ATOM     77  C   UNL A   1      46.434  26.813  31.643  1.00  0.00     0.037 A 
BRANCH  64  78
ATOM     78  C   UNL A   1      42.801  31.039  34.338  1.00  0.00     0.057 A 
ATOM     79  C   UNL A   1      43.451  32.280  34.281  1.00  0.00     0.134 A 
ATOM     80  C   UNL A   1      41.985  30.790  35.449  1.00  0.00     0.134 A 
ATOM     81  F   UNL A   1      44.260  32.577  33.252  1.00  0.00    -0.206 F 
ATOM     82  C   UNL A   1      43.331  33.217  35.309  1.00  0.00     0.040 A 
ATOM     83  C   UNL A   1      41.829  31.733  36.467  1.00  0.00     0.040 A 
ATOM     84  F   UNL A   1      41.327  29.628  35.566  1.00  0.00    -0.206 F 
ATOM     85  C   UNL A   1      42.513  32.945  36.405  1.00  0.00     0.006 A 
ENDBRANCH  64  78
BRANCH  65  86
ATOM     86  C   UNL A   1      43.461  24.307  27.002  1.00  0.00     0.057 A 
ATOM     87  C   UNL A   1      43.150  22.964  27.242  1.00  0.00     0.134 A 
ATOM     88  C   UNL A   1      43.882  24.651  25.711  1.00  0.00     0.134 A 
ATOM     89  F   UNL A   1      42.768  22.568  28.466  1.00  0.00    -0.206 F 
ATOM     90  C   UNL A   1      43.259  21.997  26.242  1.00  0.00     0.040 A 
ATOM     91  C   UNL A   1      43.971  23.699  24.695  1.00  0.00     0.040 A 
ATOM     92  F   UNL A   1      44.200  25.919  25.418  1.00  0.00    -0.206 F 
ATOM     93  C   UNL A   1      43.664  22.366  24.960  1.00  0.00     0.006 A 
ENDBRANCH  65  86
BRANCH  77  94
ATOM     94  C   UNL A   1      47.822  26.381  32.026  1.00  0.00     0.057 A 
ATOM     95  C   UNL A   1      48.965  27.044  31.564  1.00  0.00     0.134 A 
ATOM     96  C   UNL A   1      48.014  25.307  32.907  1.00  0.00     0.134 A 
ATOM     97  F   UNL A   1      48.856  28.073  30.709  1.00  0.00    -0.206 F 
ATOM     98  C   UNL A   1      50.249  26.641  31.942  1.00  0.00     0.040 A 
ATOM     99  C   UNL A   1      49.289  24.913  33.316  1.00  0.00     0.040 A 
ATOM    100  F   UNL A   1      46.963  24.631  33.398  1.00  0.00    -0.206 F 
ATOM    101  C   UNL A   1      50.412  25.576  32.827  1.00  0.00     0.006 A 
ENDBRANCH  77  94
ENDBRANCH  51  52
ENDBRANCH  44  46
ENDBRANCH  43  44
ENDBRANCH  42  43
ENDBRANCH  41  42
ENDBRANCH  40  41
ENDBRANCH  39  40
ENDBRANCH   1  39
TORSDOF 23
ENDMDL
MODEL 3
REMARK VINA RESULT:      -7.4      2.660      7.324
REMARK SMILES COc1ccc([C@H]2CC(c3ccc(S(C)(=O)=O)cc3)=NN2c2ccc(C(=O)OCCOCCOCCOC(=O)c3ccc(-c4c5nc(c(-c6c(F)cccc6F)c6ccc([nH]6)c(-c6c(F)cccc6F)c6nc(c(-c7c(F)cccc7F)c7ccc4[nH]7)C=C6)C=C5)cc3)cc2)cc1OC
REMARK SMILES IDX 32 1 31 2 30 3 29 4 28 5 26 6 27 7 25 8 22 9 23 10 95 11
REMARK SMILES IDX 24 12 94 13 21 14 7 15 8 16 9 17 20 18 6 19 3 20 4 21 97 22
REMARK SMILES IDX 5 23 96 24 2 25 1 26 98 27 99 28 10 29 11 30 19 31 12 32
REMARK SMILES IDX 18 33 13 34 14 35 15 36 16 37 17 38 33 39 34 40 35 41 36 42
REMARK SMILES IDX 37 43 38 44 39 45 40 46 41 47 93 48 42 49 92 50 43 51 44 52
REMARK SMILES IDX 45 53 86 54 46 55 91 56 85 57 87 58 47 59 90 60 84 61 83 62
REMARK SMILES IDX 48 64 74 65 57 66 73 67 58 68 61 69 72 70 88 71 59 72 60 73
REMARK SMILES IDX 71 75 89 76 62 77 49 78 50 79 55 80 51 81 52 82 54 83 56 84
REMARK SMILES IDX 53 85 75 86 76 87 81 88 77 89 78 90 80 91 82 92 79 93 63 94
REMARK SMILES IDX 64 95 69 96 65 97 66 98 68 99 70 100 67 101
REMARK H PARENT 87 63 61 74
REMARK Flexibility Score: inf
ROOT
ATOM      1  C   UNL A   1      36.318  30.012  28.294  1.00  0.00     0.188 C 
ENDROOT
BRANCH   1   2
ATOM      2  O   UNL A   1      35.270  30.688  27.628  1.00  0.00    -0.376 OA
BRANCH   2   3
ATOM      3  C   UNL A   1      35.160  32.100  27.699  1.00  0.00     0.202 C 
BRANCH   3   4
ATOM      4  C   UNL A   1      34.325  32.839  28.759  1.00  0.00     0.261 C 
BRANCH   4   5
ATOM      5  O   UNL A   1      34.999  33.846  29.522  1.00  0.00    -0.460 OA
BRANCH   5   6
ATOM      6  C   UNL A   1      34.872  33.728  30.869  1.00  0.00     0.338 C 
ATOM      7  O   UNL A   1      33.871  33.388  31.479  1.00  0.00    -0.246 OA
BRANCH   6   8
ATOM      8  C   UNL A   1      36.188  33.898  31.523  1.00  0.00     0.060 A 
ATOM      9  C   UNL A   1      38.637  34.442  32.795  1.00  0.00     0.060 A 
ATOM     10  C   UNL A   1      37.430  34.579  33.490  1.00  0.00     0.029 A 
ATOM     11  C   UNL A   1      38.598  33.943  31.483  1.00  0.00     0.029 A 
ATOM     12  C   UNL A   1      36.210  34.343  32.851  1.00  0.00     0.018 A 
ATOM     13  C   UNL A   1      37.385  33.650  30.850  1.00  0.00     0.018 A 
BRANCH   9  14
ATOM     14  N   UNL A   1      39.835  34.885  33.350  1.00  0.00    -0.257 N 
ATOM     15  C   UNL A   1      39.950  35.215  34.777  1.00  0.00     0.144 C 
ATOM     16  C   UNL A   1      41.454  35.452  34.942  1.00  0.00     0.091 C 
ATOM     17  C   UNL A   1      41.941  35.082  33.566  1.00  0.00     0.071 C 
ATOM     18  N   UNL A   1      41.028  34.749  32.706  1.00  0.00    -0.176 NA
BRANCH  15  19
ATOM     19  C   UNL A   1      39.418  34.108  35.685  1.00  0.00    -0.019 A 
ATOM     20  C   UNL A   1      38.331  32.022  37.254  1.00  0.00     0.160 A 
ATOM     21  C   UNL A   1      37.773  33.307  37.290  1.00  0.00     0.051 A 
ATOM     22  C   UNL A   1      39.440  31.769  36.440  1.00  0.00     0.161 A 
ATOM     23  C   UNL A   1      38.316  34.342  36.518  1.00  0.00     0.010 A 
ATOM     24  C   UNL A   1      39.965  32.814  35.664  1.00  0.00     0.056 A 
BRANCH  20  25
ATOM     25  O   UNL A   1      37.665  31.009  37.889  1.00  0.00    -0.493 OA
ATOM     26  C   UNL A   1      37.047  31.429  39.103  1.00  0.00     0.278 C 
ENDBRANCH  20  25
BRANCH  22  27
ATOM     27  O   UNL A   1      40.094  30.581  36.244  1.00  0.00    -0.493 OA
ATOM     28  C   UNL A   1      41.510  30.583  36.319  1.00  0.00     0.278 C 
ENDBRANCH  22  27
ENDBRANCH  15  19
BRANCH  17  29
ATOM     29  C   UNL A   1      43.372  35.182  33.245  1.00  0.00    -0.002 A 
ATOM     30  C   UNL A   1      43.849  36.347  32.632  1.00  0.00     0.011 A 
ATOM     31  C   UNL A   1      44.251  34.157  33.606  1.00  0.00     0.011 A 
ATOM     32  C   UNL A   1      45.218  36.500  32.400  1.00  0.00     0.021 A 
ATOM     33  C   UNL A   1      45.619  34.297  33.352  1.00  0.00     0.021 A 
ATOM     34  C   UNL A   1      46.096  35.468  32.752  1.00  0.00     0.067 A 
BRANCH  34  35
ATOM     35  S   UNL A   1      47.844  35.683  32.490  1.00  0.00     0.175 S 
ATOM     36  C   UNL A   1      48.131  37.407  32.788  1.00  0.00     0.163 C 
ATOM     37  O   UNL A   1      48.517  34.921  33.524  1.00  0.00    -0.224 OA
ATOM     38  O   UNL A   1      48.110  35.432  31.087  1.00  0.00    -0.224 OA
ENDBRANCH  34  35
ENDBRANCH  17  29
ENDBRANCH   9  14
ENDBRANCH   6   8
ENDBRANCH   5   6
ENDBRANCH   4   5
ENDBRANCH   3   4
ENDBRANCH   2   3
ENDBRANCH   1   2
BRANCH   1  39
ATOM     39  C   UNL A   1      36.193  29.666  29.791  1.00  0.00     0.188 C 
BRANCH  39  40
ATOM     40  O   UNL A   1      37.037  30.334  30.698  1.00  0.00    -0.376 OA
BRANCH  40  41
ATOM     41  C   UNL A   1      36.832  30.231  32.096  1.00  0.00     0.202 C 
BRANCH  41  42
ATOM     42  C   UNL A   1      37.833  30.625  33.200  1.00  0.00     0.261 C 
BRANCH  42  43
ATOM     43  O   UNL A   1      38.855  29.694  33.555  1.00  0.00    -0.460 OA
BRANCH  43  44
ATOM     44  C   UNL A   1      39.468  29.074  32.521  1.00  0.00     0.338 C 
ATOM     45  O   UNL A   1      39.180  27.995  32.020  1.00  0.00    -0.246 OA
BRANCH  44  46
ATOM     46  C   UNL A   1      40.480  29.982  31.959  1.00  0.00     0.060 A 
ATOM     47  C   UNL A   1      40.628  30.055  30.567  1.00  0.00     0.016 A 
ATOM     48  C   UNL A   1      41.299  30.731  32.804  1.00  0.00     0.016 A 
ATOM     49  C   UNL A   1      41.615  30.870  30.015  1.00  0.00     0.010 A 
ATOM     50  C   UNL A   1      42.300  31.531  32.249  1.00  0.00     0.010 A 
ATOM     51  C   UNL A   1      42.481  31.582  30.854  1.00  0.00    -0.014 A 
BRANCH  51  52
ATOM     52  C   UNL A   1      43.680  32.246  30.292  1.00  0.00     0.031 A 
ATOM     53  C   UNL A   1      43.549  33.652  29.776  1.00  0.00     0.074 A 
ATOM     54  C   UNL A   1      44.866  31.617  30.241  1.00  0.00     0.049 A 
ATOM     55  N   UNL A   1      44.439  34.411  29.190  1.00  0.00    -0.248 NA
ATOM     56  C   UNL A   1      42.230  34.283  29.941  1.00  0.00     0.031 C 
ATOM     57  C   UNL A   1      45.134  30.275  30.752  1.00  0.00     0.029 A 
ATOM     58  N   UNL A   1      46.068  32.032  29.725  1.00  0.00    -0.354 N 
ATOM     59  C   UNL A   1      43.788  35.606  28.913  1.00  0.00     0.074 A 
ATOM     60  C   UNL A   1      42.419  35.456  29.357  1.00  0.00     0.031 C 
ATOM     61  C   UNL A   1      46.423  29.973  30.520  1.00  0.00     0.029 A 
ATOM     62  C   UNL A   1      47.057  31.084  29.812  1.00  0.00     0.049 A 
ATOM     63  H   UNL A   1      46.207  32.924  29.332  1.00  0.00     0.167 HD
ATOM     64  C   UNL A   1      44.286  36.732  28.347  1.00  0.00     0.037 A 
ATOM     65  C   UNL A   1      48.323  31.109  29.353  1.00  0.00     0.037 A 
ATOM     66  C   UNL A   1      45.644  36.871  27.886  1.00  0.00     0.049 A 
ATOM     67  C   UNL A   1      48.829  32.331  28.631  1.00  0.00     0.074 A 
ATOM     68  C   UNL A   1      46.250  37.970  27.304  1.00  0.00     0.029 A 
ATOM     69  N   UNL A   1      46.602  35.869  27.942  1.00  0.00    -0.354 N 
ATOM     70  N   UNL A   1      48.216  33.465  28.390  1.00  0.00    -0.248 NA
ATOM     71  C   UNL A   1      50.204  32.272  28.115  1.00  0.00     0.031 C 
ATOM     72  C   UNL A   1      47.557  37.615  26.953  1.00  0.00     0.029 A 
ATOM     73  C   UNL A   1      47.787  36.315  27.376  1.00  0.00     0.049 A 
ATOM     74  H   UNL A   1      46.462  34.974  28.326  1.00  0.00     0.167 HD
ATOM     75  C   UNL A   1      49.140  34.267  27.729  1.00  0.00     0.074 A 
ATOM     76  C   UNL A   1      50.356  33.490  27.613  1.00  0.00     0.031 C 
ATOM     77  C   UNL A   1      48.995  35.534  27.267  1.00  0.00     0.037 A 
BRANCH  64  78
ATOM     78  C   UNL A   1      43.337  37.881  28.162  1.00  0.00     0.057 A 
ATOM     79  C   UNL A   1      43.216  38.906  29.112  1.00  0.00     0.134 A 
ATOM     80  C   UNL A   1      42.521  37.957  27.026  1.00  0.00     0.134 A 
ATOM     81  F   UNL A   1      43.957  38.887  30.231  1.00  0.00    -0.206 F 
ATOM     82  C   UNL A   1      42.289  39.939  28.960  1.00  0.00     0.040 A 
ATOM     83  C   UNL A   1      41.615  39.003  26.846  1.00  0.00     0.040 A 
ATOM     84  F   UNL A   1      42.589  37.016  26.073  1.00  0.00    -0.206 F 
ATOM     85  C   UNL A   1      41.488  39.991  27.820  1.00  0.00     0.006 A 
ENDBRANCH  64  78
BRANCH  65  86
ATOM     86  C   UNL A   1      49.211  29.937  29.568  1.00  0.00     0.057 A 
ATOM     87  C   UNL A   1      50.022  29.848  30.704  1.00  0.00     0.134 A 
ATOM     88  C   UNL A   1      49.276  28.887  28.644  1.00  0.00     0.134 A 
ATOM     89  F   UNL A   1      50.024  30.837  31.612  1.00  0.00    -0.206 F 
ATOM     90  C   UNL A   1      50.873  28.762  30.913  1.00  0.00     0.040 A 
ATOM     91  C   UNL A   1      50.103  27.783  28.852  1.00  0.00     0.040 A 
ATOM     92  F   UNL A   1      48.528  28.915  27.533  1.00  0.00    -0.206 F 
ATOM     93  C   UNL A   1      50.909  27.720  29.987  1.00  0.00     0.006 A 
ENDBRANCH  65  86
BRANCH  77  94
ATOM     94  C   UNL A   1      50.194  36.180  26.632  1.00  0.00     0.057 A 
ATOM     95  C   UNL A   1      50.414  36.148  25.249  1.00  0.00     0.134 A 
ATOM     96  C   UNL A   1      51.121  36.882  27.414  1.00  0.00     0.134 A 
ATOM     97  F   UNL A   1      49.572  35.486  24.441  1.00  0.00    -0.206 F 
ATOM     98  C   UNL A   1      51.525  36.768  24.671  1.00  0.00     0.040 A 
ATOM     99  C   UNL A   1      52.218  37.530  26.846  1.00  0.00     0.040 A 
ATOM    100  F   UNL A   1      50.968  36.963  28.745  1.00  0.00    -0.206 F 
ATOM    101  C   UNL A   1      52.427  37.468  25.470  1.00  0.00     0.006 A 
ENDBRANCH  77  94
ENDBRANCH  51  52
ENDBRANCH  44  46
ENDBRANCH  43  44
ENDBRANCH  42  43
ENDBRANCH  41  42
ENDBRANCH  40  41
ENDBRANCH  39  40
ENDBRANCH   1  39
TORSDOF 23
ENDMDL
