MODEL 1
REMARK VINA RESULT:     -11.2      0.000      0.000
REMARK SMILES Cc1c(CC(=O)OCCOCCOCCOC(=O)c2ccc(-c3c4nc(c(-c5c(F)cccc5F)c5ccc([nH]5)c(-c5c(F)cccc5F)c5nc(c(-c6c(F)cccc6F)c6ccc3[nH]6)C=C5)C=C4)cc2)c2cc(O)ccc2n1C(=O)c1ccc(Cl)cc1
REMARK SMILES IDX 11 1 10 2 9 3 8 4 7 5 5 6 6 7 4 8 3 9 1 10 2 11 80 12 73 13
REMARK SMILES IDX 79 14 74 15 78 16 75 17 77 18 81 19 82 20 83 21 84 22 89 23
REMARK SMILES IDX 85 24 88 25 86 26 87 27 76 28 12 30 13 31 14 32 15 33 16 34
REMARK SMILES IDX 17 35 18 36 19 37 20 38 72 39 21 40 71 41 22 42 23 43 24 44
REMARK SMILES IDX 65 45 25 46 70 47 64 48 66 49 26 50 69 51 63 52 62 53 27 55
REMARK SMILES IDX 53 56 36 57 52 58 37 59 40 60 51 61 67 62 38 63 39 64 50 66
REMARK SMILES IDX 68 67 41 68 28 69 29 70 34 71 30 72 31 73 33 74 35 75 32 76
REMARK SMILES IDX 54 77 55 78 60 79 56 80 57 81 59 82 61 83 58 84 42 85 43 86
REMARK SMILES IDX 48 87 44 88 45 89 47 90 49 91 46 92
REMARK H PARENT 76 29 66 54 40 65
REMARK Flexibility Score: inf
ROOT
ATOM      1  C   UNL A   1      40.306  20.145  26.586  1.00  0.00     0.188 C 
ENDROOT
BRANCH   1   2
ATOM      2  O   UNL A   1      39.294  20.520  25.683  1.00  0.00    -0.376 OA
BRANCH   2   3
ATOM      3  C   UNL A   1      38.703  21.795  25.822  1.00  0.00     0.202 C 
BRANCH   3   4
ATOM      4  C   UNL A   1      37.366  22.021  25.110  1.00  0.00     0.261 C 
BRANCH   4   5
ATOM      5  O   UNL A   1      36.397  20.951  25.307  1.00  0.00    -0.463 OA
BRANCH   5   6
ATOM      6  C   UNL A   1      35.239  21.131  24.634  1.00  0.00     0.310 C 
ATOM      7  O   UNL A   1      34.331  20.303  24.726  1.00  0.00    -0.252 OA
BRANCH   6   8
ATOM      8  C   UNL A   1      34.986  22.451  23.900  1.00  0.00     0.160 C 
BRANCH   8   9
ATOM      9  C   UNL A   1      33.856  23.438  24.061  1.00  0.00    -0.008 A 
ATOM     10  C   UNL A   1      34.089  23.619  26.632  1.00  0.00     0.065 C 
ATOM     11  C   UNL A   1      33.539  24.003  25.295  1.00  0.00     0.028 A 
ATOM     12  N   UNL A   1      32.663  25.065  25.087  1.00  0.00    -0.280 N 
ATOM     13  C   UNL A   1      33.245  24.297  23.060  1.00  0.00     0.008 A 
ATOM     14  C   UNL A   1      32.694  25.387  23.726  1.00  0.00     0.057 A 
ATOM     15  C   UNL A   1      33.181  24.356  21.645  1.00  0.00     0.056 A 
ATOM     16  C   UNL A   1      32.264  26.540  23.010  1.00  0.00     0.031 A 
ATOM     17  C   UNL A   1      32.764  25.488  20.938  1.00  0.00     0.116 A 
ATOM     18  C   UNL A   1      32.317  26.586  21.620  1.00  0.00     0.048 A 
BRANCH  12  19
ATOM     19  C   UNL A   1      31.871  25.727  26.066  1.00  0.00     0.262 C 
ATOM     20  O   UNL A   1      30.807  25.278  26.400  1.00  0.00    -0.268 OA
BRANCH  19  21
ATOM     21  C   UNL A   1      32.348  26.995  26.670  1.00  0.00     0.040 A 
ATOM     22  C   UNL A   1      31.403  27.915  27.145  1.00  0.00     0.015 A 
ATOM     23  C   UNL A   1      33.686  27.349  26.490  1.00  0.00     0.015 A 
ATOM     24  C   UNL A   1      31.793  29.235  27.370  1.00  0.00     0.021 A 
ATOM     25  C   UNL A   1      34.064  28.675  26.702  1.00  0.00     0.021 A 
ATOM     26  C   UNL A   1      33.114  29.614  27.123  1.00  0.00     0.041 A 
ATOM     27  Cl  UNL A   1      33.560  31.268  27.263  1.00  0.00    -0.084 Cl
ENDBRANCH  19  21
ENDBRANCH  12  19
BRANCH  17  28
ATOM     28  O   UNL A   1      32.812  25.579  19.578  1.00  0.00    -0.508 OA
ATOM     29  H   UNL A   1      32.048  25.832  19.097  1.00  0.00     0.293 HD
ENDBRANCH  17  28
ENDBRANCH   8   9
ENDBRANCH   6   8
ENDBRANCH   5   6
ENDBRANCH   4   5
ENDBRANCH   3   4
ENDBRANCH   2   3
ENDBRANCH   1   2
BRANCH   1  30
ATOM     30  C   UNL A   1      41.752  19.966  26.117  1.00  0.00     0.188 C 
BRANCH  30  31
ATOM     31  O   UNL A   1      42.263  18.705  25.779  1.00  0.00    -0.376 OA
BRANCH  31  32
ATOM     32  C   UNL A   1      43.443  18.314  26.457  1.00  0.00     0.202 C 
BRANCH  32  33
ATOM     33  C   UNL A   1      44.723  18.096  25.606  1.00  0.00     0.261 C 
BRANCH  33  34
ATOM     34  O   UNL A   1      45.537  19.302  25.424  1.00  0.00    -0.460 OA
BRANCH  34  35
ATOM     35  C   UNL A   1      45.199  20.117  24.375  1.00  0.00     0.338 C 
ATOM     36  O   UNL A   1      45.040  19.728  23.223  1.00  0.00    -0.246 OA
BRANCH  35  37
ATOM     37  C   UNL A   1      44.571  21.415  24.828  1.00  0.00     0.060 A 
ATOM     38  C   UNL A   1      43.914  22.372  24.058  1.00  0.00     0.016 A 
ATOM     39  C   UNL A   1      44.829  21.741  26.167  1.00  0.00     0.016 A 
ATOM     40  C   UNL A   1      43.692  23.669  24.604  1.00  0.00     0.010 A 
ATOM     41  C   UNL A   1      44.612  23.004  26.707  1.00  0.00     0.010 A 
ATOM     42  C   UNL A   1      44.118  24.020  25.912  1.00  0.00    -0.014 A 
BRANCH  42  43
ATOM     43  C   UNL A   1      43.699  25.262  26.604  1.00  0.00     0.031 A 
ATOM     44  C   UNL A   1      44.645  26.327  26.279  1.00  0.00     0.074 A 
ATOM     45  C   UNL A   1      42.603  25.658  27.298  1.00  0.00     0.049 A 
ATOM     46  N   UNL A   1      45.739  26.515  26.926  1.00  0.00    -0.248 NA
ATOM     47  C   UNL A   1      44.526  27.071  25.022  1.00  0.00     0.031 C 
ATOM     48  C   UNL A   1      41.406  24.914  27.575  1.00  0.00     0.029 A 
ATOM     49  N   UNL A   1      42.322  26.843  27.940  1.00  0.00    -0.354 N 
ATOM     50  C   UNL A   1      46.301  27.619  26.337  1.00  0.00     0.074 A 
ATOM     51  C   UNL A   1      45.693  27.724  25.034  1.00  0.00     0.031 C 
ATOM     52  C   UNL A   1      40.435  25.655  28.143  1.00  0.00     0.029 A 
ATOM     53  C   UNL A   1      41.029  26.930  28.474  1.00  0.00     0.049 A 
ATOM     54  H   UNL A   1      42.979  27.571  28.019  1.00  0.00     0.167 HD
ATOM     55  C   UNL A   1      46.936  28.522  27.128  1.00  0.00     0.037 A 
ATOM     56  C   UNL A   1      40.484  27.847  29.314  1.00  0.00     0.037 A 
ATOM     57  C   UNL A   1      47.160  27.981  28.462  1.00  0.00     0.049 A 
ATOM     58  C   UNL A   1      41.608  28.456  30.051  1.00  0.00     0.074 A 
ATOM     59  C   UNL A   1      47.754  26.837  28.969  1.00  0.00     0.029 A 
ATOM     60  N   UNL A   1      46.365  28.455  29.479  1.00  0.00    -0.354 N 
ATOM     61  N   UNL A   1      42.314  27.827  30.947  1.00  0.00    -0.248 NA
ATOM     62  C   UNL A   1      42.244  29.611  29.446  1.00  0.00     0.031 C 
ATOM     63  C   UNL A   1      46.946  26.444  30.081  1.00  0.00     0.029 A 
ATOM     64  C   UNL A   1      45.941  27.397  30.244  1.00  0.00     0.049 A 
ATOM     65  H   UNL A   1      46.138  29.400  29.634  1.00  0.00     0.167 HD
ATOM     66  C   UNL A   1      43.623  28.196  30.673  1.00  0.00     0.074 A 
ATOM     67  C   UNL A   1      43.505  29.371  29.810  1.00  0.00     0.031 C 
ATOM     68  C   UNL A   1      44.666  27.354  30.935  1.00  0.00     0.037 A 
BRANCH  55  69
ATOM     69  C   UNL A   1      46.951  29.994  26.836  1.00  0.00     0.057 A 
ATOM     70  C   UNL A   1      45.811  30.826  26.761  1.00  0.00     0.134 A 
ATOM     71  C   UNL A   1      48.180  30.665  26.894  1.00  0.00     0.134 A 
ATOM     72  F   UNL A   1      44.559  30.357  26.788  1.00  0.00    -0.206 F 
ATOM     73  C   UNL A   1      45.891  32.218  26.760  1.00  0.00     0.040 A 
ATOM     74  C   UNL A   1      48.267  32.057  26.954  1.00  0.00     0.040 A 
ATOM     75  F   UNL A   1      49.331  29.981  26.981  1.00  0.00    -0.206 F 
ATOM     76  C   UNL A   1      47.120  32.839  26.892  1.00  0.00     0.006 A 
ENDBRANCH  55  69
BRANCH  56  77
ATOM     77  C   UNL A   1      39.078  28.304  29.452  1.00  0.00     0.057 A 
ATOM     78  C   UNL A   1      38.465  29.071  28.447  1.00  0.00     0.134 A 
ATOM     79  C   UNL A   1      38.396  28.249  30.679  1.00  0.00     0.134 A 
ATOM     80  F   UNL A   1      39.046  29.229  27.249  1.00  0.00    -0.206 F 
ATOM     81  C   UNL A   1      37.274  29.777  28.659  1.00  0.00     0.040 A 
ATOM     82  C   UNL A   1      37.204  28.954  30.905  1.00  0.00     0.040 A 
ATOM     83  F   UNL A   1      38.902  27.564  31.713  1.00  0.00    -0.206 F 
ATOM     84  C   UNL A   1      36.648  29.738  29.899  1.00  0.00     0.006 A 
ENDBRANCH  56  77
BRANCH  68  85
ATOM     85  C   UNL A   1      44.417  26.185  31.859  1.00  0.00     0.057 A 
ATOM     86  C   UNL A   1      44.513  26.400  33.240  1.00  0.00     0.134 A 
ATOM     87  C   UNL A   1      44.199  24.862  31.443  1.00  0.00     0.134 A 
ATOM     88  F   UNL A   1      44.759  27.632  33.716  1.00  0.00    -0.206 F 
ATOM     89  C   UNL A   1      44.398  25.360  34.166  1.00  0.00     0.040 A 
ATOM     90  C   UNL A   1      44.054  23.814  32.364  1.00  0.00     0.040 A 
ATOM     91  F   UNL A   1      44.165  24.538  30.145  1.00  0.00    -0.206 F 
ATOM     92  C   UNL A   1      44.159  24.061  33.729  1.00  0.00     0.006 A 
ENDBRANCH  68  85
ENDBRANCH  42  43
ENDBRANCH  35  37
ENDBRANCH  34  35
ENDBRANCH  33  34
ENDBRANCH  32  33
ENDBRANCH  31  32
ENDBRANCH  30  31
ENDBRANCH   1  30
TORSDOF 21
ENDMDL
MODEL 2
REMARK VINA RESULT:     -10.8      2.955      6.209
REMARK SMILES Cc1c(CC(=O)OCCOCCOCCOC(=O)c2ccc(-c3c4nc(c(-c5c(F)cccc5F)c5ccc([nH]5)c(-c5c(F)cccc5F)c5nc(c(-c6c(F)cccc6F)c6ccc3[nH]6)C=C5)C=C4)cc2)c2cc(O)ccc2n1C(=O)c1ccc(Cl)cc1
REMARK SMILES IDX 11 1 10 2 9 3 8 4 7 5 5 6 6 7 4 8 3 9 1 10 2 11 80 12 73 13
REMARK SMILES IDX 79 14 74 15 78 16 75 17 77 18 81 19 82 20 83 21 84 22 89 23
REMARK SMILES IDX 85 24 88 25 86 26 87 27 76 28 12 30 13 31 14 32 15 33 16 34
REMARK SMILES IDX 17 35 18 36 19 37 20 38 72 39 21 40 71 41 22 42 23 43 24 44
REMARK SMILES IDX 65 45 25 46 70 47 64 48 66 49 26 50 69 51 63 52 62 53 27 55
REMARK SMILES IDX 53 56 36 57 52 58 37 59 40 60 51 61 67 62 38 63 39 64 50 66
REMARK SMILES IDX 68 67 41 68 28 69 29 70 34 71 30 72 31 73 33 74 35 75 32 76
REMARK SMILES IDX 54 77 55 78 60 79 56 80 57 81 59 82 61 83 58 84 42 85 43 86
REMARK SMILES IDX 48 87 44 88 45 89 47 90 49 91 46 92
REMARK H PARENT 76 29 66 54 40 65
REMARK Flexibility Score: inf
ROOT
ATOM      1  C   UNL A   1      41.523  20.262  26.514  1.00  0.00     0.188 C 
ENDROOT
BRANCH   1   2
ATOM      2  O   UNL A   1      41.619  21.446  25.759  1.00  0.00    -0.376 OA
BRANCH   2   3
ATOM      3  C   UNL A   1      41.121  22.644  26.318  1.00  0.00     0.202 C 
BRANCH   3   4
ATOM      4  C   UNL A   1      39.692  22.610  26.870  1.00  0.00     0.261 C 
BRANCH   4   5
ATOM      5  O   UNL A   1      38.798  23.593  26.272  1.00  0.00    -0.463 OA
BRANCH   5   6
ATOM      6  C   UNL A   1      37.798  23.051  25.543  1.00  0.00     0.310 C 
ATOM      7  O   UNL A   1      37.920  21.924  25.060  1.00  0.00    -0.252 OA
BRANCH   6   8
ATOM      8  C   UNL A   1      36.444  23.762  25.468  1.00  0.00     0.160 C 
BRANCH   8   9
ATOM      9  C   UNL A   1      35.131  23.273  24.904  1.00  0.00    -0.008 A 
ATOM     10  C   UNL A   1      34.640  21.657  26.865  1.00  0.00     0.065 C 
ATOM     11  C   UNL A   1      34.311  22.390  25.603  1.00  0.00     0.028 A 
ATOM     12  N   UNL A   1      33.069  22.345  24.976  1.00  0.00    -0.280 N 
ATOM     13  C   UNL A   1      34.288  23.888  23.893  1.00  0.00     0.008 A 
ATOM     14  C   UNL A   1      32.989  23.435  24.103  1.00  0.00     0.057 A 
ATOM     15  C   UNL A   1      34.431  24.869  22.880  1.00  0.00     0.056 A 
ATOM     16  C   UNL A   1      31.885  24.059  23.456  1.00  0.00     0.031 A 
ATOM     17  C   UNL A   1      33.349  25.487  22.246  1.00  0.00     0.116 A 
ATOM     18  C   UNL A   1      32.074  25.091  22.543  1.00  0.00     0.048 A 
BRANCH  12  19
ATOM     19  C   UNL A   1      32.043  21.379  25.173  1.00  0.00     0.262 C 
ATOM     20  O   UNL A   1      31.018  21.677  25.728  1.00  0.00    -0.268 OA
BRANCH  19  21
ATOM     21  C   UNL A   1      32.241  19.983  24.711  1.00  0.00     0.040 A 
ATOM     22  C   UNL A   1      32.706  19.028  25.625  1.00  0.00     0.015 A 
ATOM     23  C   UNL A   1      32.231  19.737  23.337  1.00  0.00     0.015 A 
ATOM     24  C   UNL A   1      33.241  17.833  25.145  1.00  0.00     0.021 A 
ATOM     25  C   UNL A   1      32.783  18.545  22.865  1.00  0.00     0.021 A 
ATOM     26  C   UNL A   1      33.301  17.609  23.769  1.00  0.00     0.041 A 
ATOM     27  Cl  UNL A   1      34.089  16.202  23.173  1.00  0.00    -0.084 Cl
ENDBRANCH  19  21
ENDBRANCH  12  19
BRANCH  17  28
ATOM     28  O   UNL A   1      33.489  26.511  21.356  1.00  0.00    -0.508 OA
ATOM     29  H   UNL A   1      32.925  26.564  20.609  1.00  0.00     0.293 HD
ENDBRANCH  17  28
ENDBRANCH   8   9
ENDBRANCH   6   8
ENDBRANCH   5   6
ENDBRANCH   4   5
ENDBRANCH   3   4
ENDBRANCH   2   3
ENDBRANCH   1   2
BRANCH   1  30
ATOM     30  C   UNL A   1      42.319  19.013  26.122  1.00  0.00     0.188 C 
BRANCH  30  31
ATOM     31  O   UNL A   1      43.105  18.980  24.961  1.00  0.00    -0.376 OA
BRANCH  31  32
ATOM     32  C   UNL A   1      44.504  18.903  25.164  1.00  0.00     0.202 C 
BRANCH  32  33
ATOM     33  C   UNL A   1      45.387  19.997  24.508  1.00  0.00     0.261 C 
BRANCH  33  34
ATOM     34  O   UNL A   1      46.000  20.928  25.460  1.00  0.00    -0.460 OA
BRANCH  34  35
ATOM     35  C   UNL A   1      46.174  22.218  25.030  1.00  0.00     0.338 C 
ATOM     36  O   UNL A   1      46.442  22.529  23.875  1.00  0.00    -0.246 OA
BRANCH  35  37
ATOM     37  C   UNL A   1      45.541  23.229  25.958  1.00  0.00     0.060 A 
ATOM     38  C   UNL A   1      45.656  24.618  25.931  1.00  0.00     0.016 A 
ATOM     39  C   UNL A   1      44.886  22.665  27.062  1.00  0.00     0.016 A 
ATOM     40  C   UNL A   1      45.265  25.369  27.076  1.00  0.00     0.010 A 
ATOM     41  C   UNL A   1      44.499  23.392  28.182  1.00  0.00     0.010 A 
ATOM     42  C   UNL A   1      44.758  24.748  28.248  1.00  0.00    -0.014 A 
BRANCH  42  43
ATOM     43  C   UNL A   1      44.117  25.493  29.359  1.00  0.00     0.031 A 
ATOM     44  C   UNL A   1      42.813  25.977  28.913  1.00  0.00     0.074 A 
ATOM     45  C   UNL A   1      44.378  25.674  30.677  1.00  0.00     0.049 A 
ATOM     46  N   UNL A   1      42.655  27.084  28.280  1.00  0.00    -0.248 NA
ATOM     47  C   UNL A   1      41.645  25.093  28.927  1.00  0.00     0.031 C 
ATOM     48  C   UNL A   1      45.453  25.125  31.456  1.00  0.00     0.029 A 
ATOM     49  N   UNL A   1      43.728  26.425  31.630  1.00  0.00    -0.354 N 
ATOM     50  C   UNL A   1      41.300  27.181  28.090  1.00  0.00     0.074 A 
ATOM     51  C   UNL A   1      40.786  25.841  28.226  1.00  0.00     0.031 C 
ATOM     52  C   UNL A   1      45.330  25.361  32.777  1.00  0.00     0.029 A 
ATOM     53  C   UNL A   1      44.234  26.288  32.931  1.00  0.00     0.049 A 
ATOM     54  H   UNL A   1      42.969  27.012  31.414  1.00  0.00     0.167 HD
ATOM     55  C   UNL A   1      40.716  28.402  28.197  1.00  0.00     0.037 A 
ATOM     56  C   UNL A   1      43.970  27.003  34.055  1.00  0.00     0.037 A 
ATOM     57  C   UNL A   1      41.717  29.460  28.207  1.00  0.00     0.049 A 
ATOM     58  C   UNL A   1      43.485  28.322  33.607  1.00  0.00     0.074 A 
ATOM     59  C   UNL A   1      42.766  29.826  27.380  1.00  0.00     0.029 A 
ATOM     60  N   UNL A   1      41.978  30.074  29.410  1.00  0.00    -0.354 N 
ATOM     61  N   UNL A   1      44.239  29.215  33.031  1.00  0.00    -0.248 NA
ATOM     62  C   UNL A   1      42.059  28.454  33.371  1.00  0.00     0.031 C 
ATOM     63  C   UNL A   1      43.813  30.258  28.251  1.00  0.00     0.029 A 
ATOM     64  C   UNL A   1      43.337  30.202  29.561  1.00  0.00     0.049 A 
ATOM     65  H   UNL A   1      41.300  30.374  30.058  1.00  0.00     0.167 HD
ATOM     66  C   UNL A   1      43.456  29.708  31.997  1.00  0.00     0.074 A 
ATOM     67  C   UNL A   1      42.096  29.279  32.322  1.00  0.00     0.031 C 
ATOM     68  C   UNL A   1      44.018  30.169  30.841  1.00  0.00     0.037 A 
BRANCH  55  69
ATOM     69  C   UNL A   1      39.324  28.598  28.723  1.00  0.00     0.057 A 
ATOM     70  C   UNL A   1      38.898  28.313  30.039  1.00  0.00     0.134 A 
ATOM     71  C   UNL A   1      38.430  29.355  27.954  1.00  0.00     0.134 A 
ATOM     72  F   UNL A   1      39.662  27.679  30.936  1.00  0.00    -0.206 F 
ATOM     73  C   UNL A   1      37.681  28.760  30.553  1.00  0.00     0.040 A 
ATOM     74  C   UNL A   1      37.238  29.859  28.478  1.00  0.00     0.040 A 
ATOM     75  F   UNL A   1      38.731  29.699  26.692  1.00  0.00    -0.206 F 
ATOM     76  C   UNL A   1      36.862  29.567  29.783  1.00  0.00     0.006 A 
ENDBRANCH  55  69
BRANCH  56  77
ATOM     77  C   UNL A   1      44.012  26.592  35.482  1.00  0.00     0.057 A 
ATOM     78  C   UNL A   1      42.885  26.031  36.106  1.00  0.00     0.134 A 
ATOM     79  C   UNL A   1      45.047  26.997  36.341  1.00  0.00     0.134 A 
ATOM     80  F   UNL A   1      41.819  25.648  35.389  1.00  0.00    -0.206 F 
ATOM     81  C   UNL A   1      42.772  25.919  37.498  1.00  0.00     0.040 A 
ATOM     82  C   UNL A   1      44.945  26.893  37.737  1.00  0.00     0.040 A 
ATOM     83  F   UNL A   1      46.159  27.565  35.853  1.00  0.00    -0.206 F 
ATOM     84  C   UNL A   1      43.796  26.370  38.321  1.00  0.00     0.006 A 
ENDBRANCH  56  77
BRANCH  68  85
ATOM     85  C   UNL A   1      45.497  30.478  30.848  1.00  0.00     0.057 A 
ATOM     86  C   UNL A   1      45.894  31.811  31.025  1.00  0.00     0.134 A 
ATOM     87  C   UNL A   1      46.516  29.551  30.581  1.00  0.00     0.134 A 
ATOM     88  F   UNL A   1      44.974  32.765  31.245  1.00  0.00    -0.206 F 
ATOM     89  C   UNL A   1      47.231  32.207  30.946  1.00  0.00     0.040 A 
ATOM     90  C   UNL A   1      47.865  29.931  30.528  1.00  0.00     0.040 A 
ATOM     91  F   UNL A   1      46.238  28.267  30.324  1.00  0.00    -0.206 F 
ATOM     92  C   UNL A   1      48.225  31.264  30.704  1.00  0.00     0.006 A 
ENDBRANCH  68  85
ENDBRANCH  42  43
ENDBRANCH  35  37
ENDBRANCH  34  35
ENDBRANCH  33  34
ENDBRANCH  32  33
ENDBRANCH  31  32
ENDBRANCH  30  31
ENDBRANCH   1  30
TORSDOF 21
ENDMDL
MODEL 3
REMARK VINA RESULT:     -10.7      2.057      5.657
REMARK SMILES Cc1c(CC(=O)OCCOCCOCCOC(=O)c2ccc(-c3c4nc(c(-c5c(F)cccc5F)c5ccc([nH]5)c(-c5c(F)cccc5F)c5nc(c(-c6c(F)cccc6F)c6ccc3[nH]6)C=C5)C=C4)cc2)c2cc(O)ccc2n1C(=O)c1ccc(Cl)cc1
REMARK SMILES IDX 11 1 10 2 9 3 8 4 7 5 5 6 6 7 4 8 3 9 1 10 2 11 80 12 73 13
REMARK SMILES IDX 79 14 74 15 78 16 75 17 77 18 81 19 82 20 83 21 84 22 89 23
REMARK SMILES IDX 85 24 88 25 86 26 87 27 76 28 12 30 13 31 14 32 15 33 16 34
REMARK SMILES IDX 17 35 18 36 19 37 20 38 72 39 21 40 71 41 22 42 23 43 24 44
REMARK SMILES IDX 65 45 25 46 70 47 64 48 66 49 26 50 69 51 63 52 62 53 27 55
REMARK SMILES IDX 53 56 36 57 52 58 37 59 40 60 51 61 67 62 38 63 39 64 50 66
REMARK SMILES IDX 68 67 41 68 28 69 29 70 34 71 30 72 31 73 33 74 35 75 32 76
REMARK SMILES IDX 54 77 55 78 60 79 56 80 57 81 59 82 61 83 58 84 42 85 43 86
REMARK SMILES IDX 48 87 44 88 45 89 47 90 49 91 46 92
REMARK H PARENT 76 29 66 54 40 65
REMARK Flexibility Score: inf
ROOT
ATOM      1  C   UNL A   1      42.197  19.603  27.309  1.00  0.00     0.188 C 
ENDROOT
BRANCH   1   2
ATOM      2  O   UNL A   1      40.891  20.121  27.231  1.00  0.00    -0.376 OA
BRANCH   2   3
ATOM      3  C   UNL A   1      40.589  21.038  26.200  1.00  0.00     0.202 C 
BRANCH   3   4
ATOM      4  C   UNL A   1      39.401  21.977  26.433  1.00  0.00     0.261 C 
BRANCH   4   5
ATOM      5  O   UNL A   1      38.390  21.931  25.385  1.00  0.00    -0.463 OA
BRANCH   5   6
ATOM      6  C   UNL A   1      37.627  23.044  25.311  1.00  0.00     0.310 C 
ATOM      7  O   UNL A   1      37.922  24.045  25.967  1.00  0.00    -0.252 OA
BRANCH   6   8
ATOM      8  C   UNL A   1      36.503  23.125  24.275  1.00  0.00     0.160 C 
BRANCH   8   9
ATOM      9  C   UNL A   1      35.022  22.883  24.443  1.00  0.00    -0.008 A 
ATOM     10  C   UNL A   1      34.317  25.182  23.486  1.00  0.00     0.065 C 
ATOM     11  C   UNL A   1      34.070  23.798  23.999  1.00  0.00     0.028 A 
ATOM     12  N   UNL A   1      32.819  23.189  24.031  1.00  0.00    -0.280 N 
ATOM     13  C   UNL A   1      34.317  21.624  24.616  1.00  0.00     0.008 A 
ATOM     14  C   UNL A   1      33.014  21.811  24.163  1.00  0.00     0.057 A 
ATOM     15  C   UNL A   1      34.642  20.298  24.997  1.00  0.00     0.056 A 
ATOM     16  C   UNL A   1      32.151  20.700  23.943  1.00  0.00     0.031 A 
ATOM     17  C   UNL A   1      33.798  19.204  24.779  1.00  0.00     0.116 A 
ATOM     18  C   UNL A   1      32.557  19.403  24.240  1.00  0.00     0.048 A 
BRANCH  12  19
ATOM     19  C   UNL A   1      31.551  23.830  23.941  1.00  0.00     0.262 C 
ATOM     20  O   UNL A   1      30.716  23.431  23.173  1.00  0.00    -0.268 OA
BRANCH  19  21
ATOM     21  C   UNL A   1      31.258  25.013  24.786  1.00  0.00     0.040 A 
ATOM     22  C   UNL A   1      30.865  26.207  24.164  1.00  0.00     0.015 A 
ATOM     23  C   UNL A   1      31.651  24.981  26.125  1.00  0.00     0.015 A 
ATOM     24  C   UNL A   1      30.941  27.402  24.879  1.00  0.00     0.021 A 
ATOM     25  C   UNL A   1      31.740  26.184  26.827  1.00  0.00     0.021 A 
ATOM     26  C   UNL A   1      31.403  27.388  26.196  1.00  0.00     0.041 A 
ATOM     27  Cl  UNL A   1      31.633  28.874  27.029  1.00  0.00    -0.084 Cl
ENDBRANCH  19  21
ENDBRANCH  12  19
BRANCH  17  28
ATOM     28  O   UNL A   1      34.162  17.916  25.042  1.00  0.00    -0.508 OA
ATOM     29  H   UNL A   1      35.050  17.715  25.263  1.00  0.00     0.293 HD
ENDBRANCH  17  28
ENDBRANCH   8   9
ENDBRANCH   6   8
ENDBRANCH   5   6
ENDBRANCH   4   5
ENDBRANCH   3   4
ENDBRANCH   2   3
ENDBRANCH   1   2
BRANCH   1  30
ATOM     30  C   UNL A   1      42.628  18.423  26.433  1.00  0.00     0.188 C 
BRANCH  30  31
ATOM     31  O   UNL A   1      43.167  18.617  25.153  1.00  0.00    -0.376 OA
BRANCH  31  32
ATOM     32  C   UNL A   1      44.545  18.936  25.104  1.00  0.00     0.202 C 
BRANCH  32  33
ATOM     33  C   UNL A   1      45.078  19.627  23.820  1.00  0.00     0.261 C 
BRANCH  33  34
ATOM     34  O   UNL A   1      45.732  20.917  24.058  1.00  0.00    -0.460 OA
BRANCH  34  35
ATOM     35  C   UNL A   1      44.956  22.036  23.904  1.00  0.00     0.338 C 
ATOM     36  O   UNL A   1      44.154  22.198  22.990  1.00  0.00    -0.246 OA
BRANCH  35  37
ATOM     37  C   UNL A   1      44.809  22.821  25.187  1.00  0.00     0.060 A 
ATOM     38  C   UNL A   1      45.406  22.579  26.422  1.00  0.00     0.016 A 
ATOM     39  C   UNL A   1      43.831  23.824  25.137  1.00  0.00     0.016 A 
ATOM     40  C   UNL A   1      44.887  23.223  27.582  1.00  0.00     0.010 A 
ATOM     41  C   UNL A   1      43.322  24.460  26.264  1.00  0.00     0.010 A 
ATOM     42  C   UNL A   1      43.781  24.110  27.520  1.00  0.00    -0.014 A 
BRANCH  42  43
ATOM     43  C   UNL A   1      43.366  24.982  28.646  1.00  0.00     0.031 A 
ATOM     44  C   UNL A   1      42.076  25.587  28.323  1.00  0.00     0.074 A 
ATOM     45  C   UNL A   1      43.805  25.202  29.910  1.00  0.00     0.049 A 
ATOM     46  N   UNL A   1      41.960  26.670  27.641  1.00  0.00    -0.248 NA
ATOM     47  C   UNL A   1      40.830  24.845  28.533  1.00  0.00     0.031 C 
ATOM     48  C   UNL A   1      44.903  24.577  30.593  1.00  0.00     0.029 A 
ATOM     49  N   UNL A   1      43.362  26.072  30.879  1.00  0.00    -0.354 N 
ATOM     50  C   UNL A   1      40.610  26.911  27.604  1.00  0.00     0.074 A 
ATOM     51  C   UNL A   1      39.976  25.648  27.889  1.00  0.00     0.031 C 
ATOM     52  C   UNL A   1      44.970  24.895  31.900  1.00  0.00     0.029 A 
ATOM     53  C   UNL A   1      44.007  25.949  32.118  1.00  0.00     0.049 A 
ATOM     54  H   UNL A   1      42.649  26.730  30.715  1.00  0.00     0.167 HD
ATOM     55  C   UNL A   1      40.178  28.195  27.697  1.00  0.00     0.037 A 
ATOM     56  C   UNL A   1      43.962  26.747  33.216  1.00  0.00     0.037 A 
ATOM     57  C   UNL A   1      41.280  29.131  27.520  1.00  0.00     0.049 A 
ATOM     58  C   UNL A   1      43.569  28.088  32.740  1.00  0.00     0.074 A 
ATOM     59  C   UNL A   1      42.252  29.329  26.553  1.00  0.00     0.029 A 
ATOM     60  N   UNL A   1      41.751  29.774  28.640  1.00  0.00    -0.354 N 
ATOM     61  N   UNL A   1      44.337  28.857  32.022  1.00  0.00    -0.248 NA
ATOM     62  C   UNL A   1      42.148  28.369  32.664  1.00  0.00     0.031 C 
ATOM     63  C   UNL A   1      43.438  29.685  27.265  1.00  0.00     0.029 A 
ATOM     64  C   UNL A   1      43.125  29.753  28.622  1.00  0.00     0.049 A 
ATOM     65  H   UNL A   1      41.195  30.184  29.341  1.00  0.00     0.167 HD
ATOM     66  C   UNL A   1      43.490  29.380  31.056  1.00  0.00     0.074 A 
ATOM     67  C   UNL A   1      42.143  29.127  31.565  1.00  0.00     0.031 C 
ATOM     68  C   UNL A   1      43.951  29.711  29.813  1.00  0.00     0.037 A 
BRANCH  55  69
ATOM     69  C   UNL A   1      38.891  28.576  28.368  1.00  0.00     0.057 A 
ATOM     70  C   UNL A   1      38.572  28.341  29.724  1.00  0.00     0.134 A 
ATOM     71  C   UNL A   1      38.033  29.456  27.694  1.00  0.00     0.134 A 
ATOM     72  F   UNL A   1      39.332  27.600  30.537  1.00  0.00    -0.206 F 
ATOM     73  C   UNL A   1      37.491  28.948  30.362  1.00  0.00     0.040 A 
ATOM     74  C   UNL A   1      36.985  30.115  28.339  1.00  0.00     0.040 A 
ATOM     75  F   UNL A   1      38.243  29.767  26.406  1.00  0.00    -0.206 F 
ATOM     76  C   UNL A   1      36.714  29.866  29.679  1.00  0.00     0.006 A 
ENDBRANCH  55  69
BRANCH  56  77
ATOM     77  C   UNL A   1      44.135  26.412  34.652  1.00  0.00     0.057 A 
ATOM     78  C   UNL A   1      45.414  26.348  35.230  1.00  0.00     0.134 A 
ATOM     79  C   UNL A   1      43.091  25.870  35.420  1.00  0.00     0.134 A 
ATOM     80  F   UNL A   1      46.492  26.795  34.570  1.00  0.00    -0.206 F 
ATOM     81  C   UNL A   1      45.651  25.743  36.471  1.00  0.00     0.040 A 
ATOM     82  C   UNL A   1      43.314  25.259  36.663  1.00  0.00     0.040 A 
ATOM     83  F   UNL A   1      41.834  25.860  34.954  1.00  0.00    -0.206 F 
ATOM     84  C   UNL A   1      44.601  25.177  37.185  1.00  0.00     0.006 A 
ENDBRANCH  56  77
BRANCH  68  85
ATOM     85  C   UNL A   1      45.444  29.850  29.627  1.00  0.00     0.057 A 
ATOM     86  C   UNL A   1      45.993  31.139  29.617  1.00  0.00     0.134 A 
ATOM     87  C   UNL A   1      46.324  28.791  29.352  1.00  0.00     0.134 A 
ATOM     88  F   UNL A   1      45.209  32.208  29.834  1.00  0.00    -0.206 F 
ATOM     89  C   UNL A   1      47.345  31.371  29.352  1.00  0.00     0.040 A 
ATOM     90  C   UNL A   1      47.688  29.008  29.112  1.00  0.00     0.040 A 
ATOM     91  F   UNL A   1      45.887  27.529  29.264  1.00  0.00    -0.206 F 
ATOM     92  C   UNL A   1      48.201  30.302  29.106  1.00  0.00     0.006 A 
ENDBRANCH  68  85
ENDBRANCH  42  43
ENDBRANCH  35  37
ENDBRANCH  34  35
ENDBRANCH  33  34
ENDBRANCH  32  33
ENDBRANCH  31  32
ENDBRANCH  30  31
ENDBRANCH   1  30
TORSDOF 21
ENDMDL
