MODEL 1
REMARK VINA RESULT:     -10.8      0.000      0.000
REMARK SMILES O=C(OCCOCCOCCOC(=O)c1cc(/N=C/c2ccc([N+](=O)[O-])cc2)ccc1O)c1ccc(-c2c3nc(c(-c4c(F)cccc4F)c4ccc([nH]4)c(-c4c(F)cccc4F)c4nc(c(-c5c(F)cccc5F)c5ccc2[nH]5)C=C4)C=C3)cc1
REMARK SMILES IDX 8 1 7 2 6 3 5 4 4 5 3 6 2 7 1 8 33 9 34 10 86 11 35 12 85 13
REMARK SMILES IDX 36 14 37 15 38 16 79 17 39 18 84 19 78 20 80 21 40 22 83 23
REMARK SMILES IDX 77 24 76 25 41 27 67 28 50 29 66 30 51 31 54 32 65 33 81 34
REMARK SMILES IDX 52 35 53 36 64 38 82 39 55 40 42 41 43 42 48 43 44 44 45 45
REMARK SMILES IDX 47 46 49 47 46 48 68 49 69 50 74 51 70 52 71 53 73 54 75 55
REMARK SMILES IDX 72 56 56 57 57 58 62 59 58 60 59 61 61 62 63 63 60 64 9 65
REMARK SMILES IDX 10 66 11 67 12 68 13 69 14 70 15 71 16 72 31 73 17 74 30 75
REMARK SMILES IDX 29 76 32 77 18 79 19 80 20 81 21 82 28 83 22 84 27 85 23 86
REMARK SMILES IDX 24 87 25 88 26 89
REMARK H PARENT 80 26 54 37 32 78
REMARK Flexibility Score: inf
ROOT
ATOM      1  C   UNL A   1      34.427  24.846  25.394  1.00  0.00     0.188 C 
ENDROOT
BRANCH   1   2
ATOM      2  C   UNL A   1      35.135  23.688  26.099  1.00  0.00     0.188 C 
BRANCH   2   3
ATOM      3  O   UNL A   1      34.788  22.441  25.487  1.00  0.00    -0.376 OA
BRANCH   3   4
ATOM      4  C   UNL A   1      35.816  21.898  24.657  1.00  0.00     0.202 C 
BRANCH   4   5
ATOM      5  C   UNL A   1      36.648  20.792  25.321  1.00  0.00     0.261 C 
BRANCH   5   6
ATOM      6  O   UNL A   1      38.046  20.880  24.991  1.00  0.00    -0.460 OA
BRANCH   6   7
ATOM      7  C   UNL A   1      39.099  20.927  25.848  1.00  0.00     0.338 C 
ATOM      8  O   UNL A   1      39.713  19.894  26.103  1.00  0.00    -0.246 OA
BRANCH   7   9
ATOM      9  C   UNL A   1      39.593  22.203  26.443  1.00  0.00     0.060 A 
ATOM     10  C   UNL A   1      39.078  23.458  26.128  1.00  0.00     0.016 A 
ATOM     11  C   UNL A   1      40.608  22.131  27.412  1.00  0.00     0.016 A 
ATOM     12  C   UNL A   1      39.664  24.617  26.616  1.00  0.00     0.010 A 
ATOM     13  C   UNL A   1      41.137  23.295  27.986  1.00  0.00     0.010 A 
ATOM     14  C   UNL A   1      40.701  24.551  27.547  1.00  0.00    -0.014 A 
BRANCH  14  15
ATOM     15  C   UNL A   1      41.356  25.816  27.958  1.00  0.00     0.031 A 
ATOM     16  C   UNL A   1      42.739  26.121  27.461  1.00  0.00     0.074 A 
ATOM     17  C   UNL A   1      40.653  26.748  28.628  1.00  0.00     0.049 A 
ATOM     18  N   UNL A   1      43.480  27.177  27.677  1.00  0.00    -0.248 NA
ATOM     19  C   UNL A   1      43.367  25.113  26.590  1.00  0.00     0.031 C 
ATOM     20  C   UNL A   1      39.264  26.597  29.062  1.00  0.00     0.029 A 
ATOM     21  N   UNL A   1      40.981  28.024  29.011  1.00  0.00    -0.354 N 
ATOM     22  C   UNL A   1      44.662  26.953  26.985  1.00  0.00     0.074 A 
ATOM     23  C   UNL A   1      44.553  25.654  26.360  1.00  0.00     0.031 C 
ATOM     24  C   UNL A   1      38.843  27.754  29.594  1.00  0.00     0.029 A 
ATOM     25  C   UNL A   1      39.951  28.695  29.622  1.00  0.00     0.049 A 
ATOM     26  H   UNL A   1      41.870  28.420  28.861  1.00  0.00     0.167 HD
ATOM     27  C   UNL A   1      45.739  27.765  26.875  1.00  0.00     0.037 A 
ATOM     28  C   UNL A   1      39.904  29.926  30.163  1.00  0.00     0.037 A 
ATOM     29  C   UNL A   1      45.833  29.058  27.494  1.00  0.00     0.049 A 
ATOM     30  C   UNL A   1      41.138  30.778  30.092  1.00  0.00     0.074 A 
ATOM     31  C   UNL A   1      46.909  29.927  27.530  1.00  0.00     0.029 A 
ATOM     32  N   UNL A   1      44.794  29.675  28.177  1.00  0.00    -0.354 N 
ATOM     33  N   UNL A   1      42.285  30.516  29.512  1.00  0.00    -0.248 NA
ATOM     34  C   UNL A   1      41.079  32.088  30.751  1.00  0.00     0.031 C 
ATOM     35  C   UNL A   1      46.525  31.062  28.255  1.00  0.00     0.029 A 
ATOM     36  C   UNL A   1      45.201  30.914  28.640  1.00  0.00     0.049 A 
ATOM     37  H   UNL A   1      43.898  29.288  28.311  1.00  0.00     0.167 HD
ATOM     38  C   UNL A   1      43.083  31.626  29.733  1.00  0.00     0.074 A 
ATOM     39  C   UNL A   1      42.278  32.579  30.471  1.00  0.00     0.031 C 
ATOM     40  C   UNL A   1      44.372  31.836  29.370  1.00  0.00     0.037 A 
BRANCH  27  41
ATOM     41  C   UNL A   1      46.903  27.239  26.090  1.00  0.00     0.057 A 
ATOM     42  C   UNL A   1      47.016  27.446  24.708  1.00  0.00     0.134 A 
ATOM     43  C   UNL A   1      47.900  26.483  26.717  1.00  0.00     0.134 A 
ATOM     44  F   UNL A   1      46.076  28.135  24.044  1.00  0.00    -0.206 F 
ATOM     45  C   UNL A   1      48.071  26.896  23.975  1.00  0.00     0.040 A 
ATOM     46  C   UNL A   1      48.969  25.947  25.997  1.00  0.00     0.040 A 
ATOM     47  F   UNL A   1      47.846  26.244  28.036  1.00  0.00    -0.206 F 
ATOM     48  C   UNL A   1      49.052  26.146  24.620  1.00  0.00     0.006 A 
ENDBRANCH  27  41
BRANCH  28  49
ATOM     49  C   UNL A   1      38.674  30.401  30.851  1.00  0.00     0.057 A 
ATOM     50  C   UNL A   1      38.426  30.110  32.197  1.00  0.00     0.134 A 
ATOM     51  C   UNL A   1      37.706  31.154  30.170  1.00  0.00     0.134 A 
ATOM     52  F   UNL A   1      39.304  29.382  32.903  1.00  0.00    -0.206 F 
ATOM     53  C   UNL A   1      37.257  30.532  32.834  1.00  0.00     0.040 A 
ATOM     54  C   UNL A   1      36.545  31.603  30.801  1.00  0.00     0.040 A 
ATOM     55  F   UNL A   1      37.884  31.484  28.883  1.00  0.00    -0.206 F 
ATOM     56  C   UNL A   1      36.314  31.284  32.137  1.00  0.00     0.006 A 
ENDBRANCH  28  49
BRANCH  40  57
ATOM     57  C   UNL A   1      44.971  33.150  29.764  1.00  0.00     0.057 A 
ATOM     58  C   UNL A   1      44.878  34.274  28.935  1.00  0.00     0.134 A 
ATOM     59  C   UNL A   1      45.628  33.295  30.991  1.00  0.00     0.134 A 
ATOM     60  F   UNL A   1      44.275  34.189  27.739  1.00  0.00    -0.206 F 
ATOM     61  C   UNL A   1      45.437  35.496  29.304  1.00  0.00     0.040 A 
ATOM     62  C   UNL A   1      46.172  34.518  31.381  1.00  0.00     0.040 A 
ATOM     63  F   UNL A   1      45.746  32.254  31.827  1.00  0.00    -0.206 F 
ATOM     64  C   UNL A   1      46.082  35.622  30.534  1.00  0.00     0.006 A 
ENDBRANCH  40  57
ENDBRANCH  14  15
ENDBRANCH   7   9
ENDBRANCH   6   7
ENDBRANCH   5   6
ENDBRANCH   4   5
ENDBRANCH   3   4
ENDBRANCH   2   3
ENDBRANCH   1   2
BRANCH   1  65
ATOM     65  O   UNL A   1      33.257  25.316  26.064  1.00  0.00    -0.376 OA
BRANCH  65  66
ATOM     66  C   UNL A   1      33.015  26.721  26.027  1.00  0.00     0.202 C 
BRANCH  66  67
ATOM     67  C   UNL A   1      31.616  27.153  25.576  1.00  0.00     0.261 C 
BRANCH  67  68
ATOM     68  O   UNL A   1      30.709  26.077  25.276  1.00  0.00    -0.460 OA
BRANCH  68  69
ATOM     69  C   UNL A   1      30.178  26.117  24.030  1.00  0.00     0.342 C 
ATOM     70  O   UNL A   1      29.103  26.599  23.692  1.00  0.00    -0.246 OA
BRANCH  69  71
ATOM     71  C   UNL A   1      31.067  25.460  23.066  1.00  0.00     0.103 A 
ATOM     72  C   UNL A   1      31.492  24.142  23.291  1.00  0.00     0.048 A 
ATOM     73  C   UNL A   1      31.615  26.214  22.022  1.00  0.00     0.130 A 
ATOM     74  C   UNL A   1      32.467  23.575  22.466  1.00  0.00     0.064 A 
ATOM     75  C   UNL A   1      32.593  25.658  21.206  1.00  0.00     0.049 A 
ATOM     76  C   UNL A   1      32.998  24.339  21.416  1.00  0.00     0.032 A 
BRANCH  73  77
ATOM     77  O   UNL A   1      31.201  27.498  21.812  1.00  0.00    -0.507 OA
ATOM     78  H   UNL A   1      31.829  28.167  21.619  1.00  0.00     0.293 HD
ENDBRANCH  73  77
BRANCH  74  79
ATOM     79  N   UNL A   1      32.883  22.246  22.664  1.00  0.00    -0.256 NA
ATOM     80  C   UNL A   1      32.012  21.439  23.187  1.00  0.00     0.119 C 
BRANCH  80  81
ATOM     81  C   UNL A   1      32.330  20.045  23.559  1.00  0.00    -0.007 A 
ATOM     82  C   UNL A   1      32.592  19.760  24.905  1.00  0.00     0.017 A 
ATOM     83  C   UNL A   1      32.417  19.036  22.593  1.00  0.00     0.017 A 
ATOM     84  C   UNL A   1      32.941  18.462  25.292  1.00  0.00     0.086 A 
ATOM     85  C   UNL A   1      32.764  17.734  22.973  1.00  0.00     0.086 A 
ATOM     86  C   UNL A   1      33.026  17.452  24.323  1.00  0.00     0.269 A 
BRANCH  86  87
ATOM     87  N   UNL A   1      33.401  16.089  24.727  1.00  0.00     0.062 N 
ATOM     88  O   UNL A   1      32.549  15.411  25.320  1.00  0.00    -0.258 OA
ATOM     89  O   UNL A   1      34.544  15.700  24.453  1.00  0.00    -0.258 OA
ENDBRANCH  86  87
ENDBRANCH  80  81
ENDBRANCH  74  79
ENDBRANCH  69  71
ENDBRANCH  68  69
ENDBRANCH  67  68
ENDBRANCH  66  67
ENDBRANCH  65  66
ENDBRANCH   1  65
TORSDOF 21
ENDMDL
MODEL 2
REMARK VINA RESULT:     -10.4      4.024      9.050
REMARK SMILES O=C(OCCOCCOCCOC(=O)c1cc(/N=C/c2ccc([N+](=O)[O-])cc2)ccc1O)c1ccc(-c2c3nc(c(-c4c(F)cccc4F)c4ccc([nH]4)c(-c4c(F)cccc4F)c4nc(c(-c5c(F)cccc5F)c5ccc2[nH]5)C=C4)C=C3)cc1
REMARK SMILES IDX 8 1 7 2 6 3 5 4 4 5 3 6 2 7 1 8 33 9 34 10 86 11 35 12 85 13
REMARK SMILES IDX 36 14 37 15 38 16 79 17 39 18 84 19 78 20 80 21 40 22 83 23
REMARK SMILES IDX 77 24 76 25 41 27 67 28 50 29 66 30 51 31 54 32 65 33 81 34
REMARK SMILES IDX 52 35 53 36 64 38 82 39 55 40 42 41 43 42 48 43 44 44 45 45
REMARK SMILES IDX 47 46 49 47 46 48 68 49 69 50 74 51 70 52 71 53 73 54 75 55
REMARK SMILES IDX 72 56 56 57 57 58 62 59 58 60 59 61 61 62 63 63 60 64 9 65
REMARK SMILES IDX 10 66 11 67 12 68 13 69 14 70 15 71 16 72 31 73 17 74 30 75
REMARK SMILES IDX 29 76 32 77 18 79 19 80 20 81 21 82 28 83 22 84 27 85 23 86
REMARK SMILES IDX 24 87 25 88 26 89
REMARK H PARENT 80 26 54 37 32 78
REMARK Flexibility Score: inf
ROOT
ATOM      1  C   UNL A   1      45.590  18.861  25.045  1.00  0.00     0.188 C 
ENDROOT
BRANCH   1   2
ATOM      2  C   UNL A   1      46.520  20.026  24.704  1.00  0.00     0.188 C 
BRANCH   2   3
ATOM      3  O   UNL A   1      46.099  21.218  25.379  1.00  0.00    -0.376 OA
BRANCH   3   4
ATOM      4  C   UNL A   1      46.413  22.421  24.677  1.00  0.00     0.202 C 
BRANCH   4   5
ATOM      5  C   UNL A   1      45.214  23.081  23.983  1.00  0.00     0.261 C 
BRANCH   5   6
ATOM      6  O   UNL A   1      44.603  24.104  24.791  1.00  0.00    -0.460 OA
BRANCH   6   7
ATOM      7  C   UNL A   1      43.356  24.098  25.333  1.00  0.00     0.338 C 
ATOM      8  O   UNL A   1      42.585  23.183  25.053  1.00  0.00    -0.246 OA
BRANCH   7   9
ATOM      9  C   UNL A   1      42.906  25.122  26.320  1.00  0.00     0.060 A 
ATOM     10  C   UNL A   1      43.472  26.388  26.438  1.00  0.00     0.016 A 
ATOM     11  C   UNL A   1      41.815  24.807  27.147  1.00  0.00     0.016 A 
ATOM     12  C   UNL A   1      43.097  27.249  27.460  1.00  0.00     0.010 A 
ATOM     13  C   UNL A   1      41.363  25.712  28.116  1.00  0.00     0.010 A 
ATOM     14  C   UNL A   1      42.042  26.922  28.312  1.00  0.00    -0.014 A 
BRANCH  14  15
ATOM     15  C   UNL A   1      41.748  27.831  29.446  1.00  0.00     0.031 A 
ATOM     16  C   UNL A   1      40.558  28.743  29.367  1.00  0.00     0.074 A 
ATOM     17  C   UNL A   1      42.442  27.716  30.594  1.00  0.00     0.049 A 
ATOM     18  N   UNL A   1      40.110  29.592  30.254  1.00  0.00    -0.248 NA
ATOM     19  C   UNL A   1      39.755  28.677  28.135  1.00  0.00     0.031 C 
ATOM     20  C   UNL A   1      43.547  26.782  30.814  1.00  0.00     0.029 A 
ATOM     21  N   UNL A   1      42.290  28.338  31.807  1.00  0.00    -0.354 N 
ATOM     22  C   UNL A   1      38.985  30.172  29.681  1.00  0.00     0.074 A 
ATOM     23  C   UNL A   1      38.831  29.596  28.363  1.00  0.00     0.031 C 
ATOM     24  C   UNL A   1      43.929  26.851  32.098  1.00  0.00     0.029 A 
ATOM     25  C   UNL A   1      43.164  27.890  32.767  1.00  0.00     0.049 A 
ATOM     26  H   UNL A   1      41.619  29.039  31.973  1.00  0.00     0.167 HD
ATOM     27  C   UNL A   1      38.152  31.096  30.212  1.00  0.00     0.037 A 
ATOM     28  C   UNL A   1      43.345  28.283  34.041  1.00  0.00     0.037 A 
ATOM     29  C   UNL A   1      38.311  31.655  31.526  1.00  0.00     0.049 A 
ATOM     30  C   UNL A   1      42.455  29.364  34.582  1.00  0.00     0.074 A 
ATOM     31  C   UNL A   1      37.586  32.665  32.133  1.00  0.00     0.029 A 
ATOM     32  N   UNL A   1      39.261  31.233  32.446  1.00  0.00    -0.354 N 
ATOM     33  N   UNL A   1      41.451  29.971  33.995  1.00  0.00    -0.248 NA
ATOM     34  C   UNL A   1      42.720  29.819  35.952  1.00  0.00     0.031 C 
ATOM     35  C   UNL A   1      38.114  32.868  33.415  1.00  0.00     0.029 A 
ATOM     36  C   UNL A   1      39.144  31.962  33.616  1.00  0.00     0.049 A 
ATOM     37  H   UNL A   1      39.922  30.520  32.288  1.00  0.00     0.167 HD
ATOM     38  C   UNL A   1      40.963  30.878  34.922  1.00  0.00     0.074 A 
ATOM     39  C   UNL A   1      41.760  30.717  36.123  1.00  0.00     0.031 C 
ATOM     40  C   UNL A   1      39.954  31.773  34.791  1.00  0.00     0.037 A 
BRANCH  27  41
ATOM     41  C   UNL A   1      37.033  31.576  29.339  1.00  0.00     0.057 A 
ATOM     42  C   UNL A   1      37.057  32.840  28.734  1.00  0.00     0.134 A 
ATOM     43  C   UNL A   1      35.900  30.780  29.133  1.00  0.00     0.134 A 
ATOM     44  F   UNL A   1      38.101  33.662  28.919  1.00  0.00    -0.206 F 
ATOM     45  C   UNL A   1      35.980  33.304  27.975  1.00  0.00     0.040 A 
ATOM     46  C   UNL A   1      34.827  31.226  28.360  1.00  0.00     0.040 A 
ATOM     47  F   UNL A   1      35.812  29.563  29.690  1.00  0.00    -0.206 F 
ATOM     48  C   UNL A   1      34.862  32.495  27.785  1.00  0.00     0.006 A 
ENDBRANCH  27  41
BRANCH  28  49
ATOM     49  C   UNL A   1      44.430  27.689  34.866  1.00  0.00     0.057 A 
ATOM     50  C   UNL A   1      45.725  28.222  34.870  1.00  0.00     0.134 A 
ATOM     51  C   UNL A   1      44.200  26.562  35.667  1.00  0.00     0.134 A 
ATOM     52  F   UNL A   1      46.017  29.291  34.116  1.00  0.00    -0.206 F 
ATOM     53  C   UNL A   1      46.751  27.646  35.623  1.00  0.00     0.040 A 
ATOM     54  C   UNL A   1      45.209  25.991  36.443  1.00  0.00     0.040 A 
ATOM     55  F   UNL A   1      42.980  26.007  35.724  1.00  0.00    -0.206 F 
ATOM     56  C   UNL A   1      46.493  26.530  36.415  1.00  0.00     0.006 A 
ENDBRANCH  28  49
BRANCH  40  57
ATOM     57  C   UNL A   1      39.664  32.632  35.982  1.00  0.00     0.057 A 
ATOM     58  C   UNL A   1      40.351  33.831  36.203  1.00  0.00     0.134 A 
ATOM     59  C   UNL A   1      38.676  32.266  36.902  1.00  0.00     0.134 A 
ATOM     60  F   UNL A   1      41.322  34.224  35.364  1.00  0.00    -0.206 F 
ATOM     61  C   UNL A   1      40.079  34.629  37.314  1.00  0.00     0.040 A 
ATOM     62  C   UNL A   1      38.379  33.067  38.004  1.00  0.00     0.040 A 
ATOM     63  F   UNL A   1      37.983  31.129  36.741  1.00  0.00    -0.206 F 
ATOM     64  C   UNL A   1      39.085  34.250  38.215  1.00  0.00     0.006 A 
ENDBRANCH  40  57
ENDBRANCH  14  15
ENDBRANCH   7   9
ENDBRANCH   6   7
ENDBRANCH   5   6
ENDBRANCH   4   5
ENDBRANCH   3   4
ENDBRANCH   2   3
ENDBRANCH   1   2
BRANCH   1  65
ATOM     65  O   UNL A   1      44.207  19.119  24.794  1.00  0.00    -0.376 OA
BRANCH  65  66
ATOM     66  C   UNL A   1      43.302  18.870  25.867  1.00  0.00     0.202 C 
BRANCH  66  67
ATOM     67  C   UNL A   1      42.540  20.087  26.402  1.00  0.00     0.261 C 
BRANCH  67  68
ATOM     68  O   UNL A   1      41.125  19.896  26.578  1.00  0.00    -0.460 OA
BRANCH  68  69
ATOM     69  C   UNL A   1      40.438  21.021  26.892  1.00  0.00     0.342 C 
ATOM     70  O   UNL A   1      40.711  21.846  27.756  1.00  0.00    -0.246 OA
BRANCH  69  71
ATOM     71  C   UNL A   1      39.241  21.148  26.053  1.00  0.00     0.103 A 
ATOM     72  C   UNL A   1      38.538  22.362  26.016  1.00  0.00     0.048 A 
ATOM     73  C   UNL A   1      38.719  20.007  25.434  1.00  0.00     0.130 A 
ATOM     74  C   UNL A   1      37.310  22.435  25.353  1.00  0.00     0.064 A 
ATOM     75  C   UNL A   1      37.493  20.072  24.783  1.00  0.00     0.049 A 
ATOM     76  C   UNL A   1      36.806  21.286  24.726  1.00  0.00     0.032 A 
BRANCH  73  77
ATOM     77  O   UNL A   1      39.405  18.827  25.480  1.00  0.00    -0.507 OA
ATOM     78  H   UNL A   1      40.324  18.826  25.662  1.00  0.00     0.293 HD
ENDBRANCH  73  77
BRANCH  74  79
ATOM     79  N   UNL A   1      36.609  23.653  25.284  1.00  0.00    -0.256 NA
ATOM     80  C   UNL A   1      35.401  23.599  24.813  1.00  0.00     0.119 C 
BRANCH  80  81
ATOM     81  C   UNL A   1      34.578  24.803  24.575  1.00  0.00    -0.007 A 
ATOM     82  C   UNL A   1      34.314  25.652  25.658  1.00  0.00     0.017 A 
ATOM     83  C   UNL A   1      34.033  25.074  23.315  1.00  0.00     0.017 A 
ATOM     84  C   UNL A   1      33.502  26.777  25.484  1.00  0.00     0.086 A 
ATOM     85  C   UNL A   1      33.221  26.199  23.133  1.00  0.00     0.086 A 
ATOM     86  C   UNL A   1      32.958  27.048  24.220  1.00  0.00     0.269 A 
BRANCH  86  87
ATOM     87  N   UNL A   1      32.098  28.226  24.037  1.00  0.00     0.062 N 
ATOM     88  O   UNL A   1      32.052  29.052  24.961  1.00  0.00    -0.258 OA
ATOM     89  O   UNL A   1      31.471  28.324  22.974  1.00  0.00    -0.258 OA
ENDBRANCH  86  87
ENDBRANCH  80  81
ENDBRANCH  74  79
ENDBRANCH  69  71
ENDBRANCH  68  69
ENDBRANCH  67  68
ENDBRANCH  66  67
ENDBRANCH  65  66
ENDBRANCH   1  65
TORSDOF 21
ENDMDL
MODEL 3
REMARK VINA RESULT:     -10.2      3.242      9.326
REMARK SMILES O=C(OCCOCCOCCOC(=O)c1cc(/N=C/c2ccc([N+](=O)[O-])cc2)ccc1O)c1ccc(-c2c3nc(c(-c4c(F)cccc4F)c4ccc([nH]4)c(-c4c(F)cccc4F)c4nc(c(-c5c(F)cccc5F)c5ccc2[nH]5)C=C4)C=C3)cc1
REMARK SMILES IDX 8 1 7 2 6 3 5 4 4 5 3 6 2 7 1 8 33 9 34 10 86 11 35 12 85 13
REMARK SMILES IDX 36 14 37 15 38 16 79 17 39 18 84 19 78 20 80 21 40 22 83 23
REMARK SMILES IDX 77 24 76 25 41 27 67 28 50 29 66 30 51 31 54 32 65 33 81 34
REMARK SMILES IDX 52 35 53 36 64 38 82 39 55 40 42 41 43 42 48 43 44 44 45 45
REMARK SMILES IDX 47 46 49 47 46 48 68 49 69 50 74 51 70 52 71 53 73 54 75 55
REMARK SMILES IDX 72 56 56 57 57 58 62 59 58 60 59 61 61 62 63 63 60 64 9 65
REMARK SMILES IDX 10 66 11 67 12 68 13 69 14 70 15 71 16 72 31 73 17 74 30 75
REMARK SMILES IDX 29 76 32 77 18 79 19 80 20 81 21 82 28 83 22 84 27 85 23 86
REMARK SMILES IDX 24 87 25 88 26 89
REMARK H PARENT 80 26 54 37 32 78
REMARK Flexibility Score: inf
ROOT
ATOM      1  C   UNL A   1      32.938  24.846  23.755  1.00  0.00     0.188 C 
ENDROOT
BRANCH   1   2
ATOM      2  C   UNL A   1      33.799  23.838  22.993  1.00  0.00     0.188 C 
BRANCH   2   3
ATOM      3  O   UNL A   1      35.076  23.691  23.625  1.00  0.00    -0.376 OA
BRANCH   3   4
ATOM      4  C   UNL A   1      35.184  22.529  24.447  1.00  0.00     0.202 C 
BRANCH   4   5
ATOM      5  C   UNL A   1      36.433  21.677  24.178  1.00  0.00     0.261 C 
BRANCH   5   6
ATOM      6  O   UNL A   1      37.023  21.166  25.388  1.00  0.00    -0.460 OA
BRANCH   6   7
ATOM      7  C   UNL A   1      38.329  21.218  25.759  1.00  0.00     0.338 C 
ATOM      8  O   UNL A   1      39.029  20.216  25.634  1.00  0.00    -0.246 OA
BRANCH   7   9
ATOM      9  C   UNL A   1      38.975  22.471  26.246  1.00  0.00     0.060 A 
ATOM     10  C   UNL A   1      38.452  23.745  26.043  1.00  0.00     0.016 A 
ATOM     11  C   UNL A   1      40.159  22.356  26.995  1.00  0.00     0.016 A 
ATOM     12  C   UNL A   1      39.164  24.880  26.407  1.00  0.00     0.010 A 
ATOM     13  C   UNL A   1      40.832  23.496  27.454  1.00  0.00     0.010 A 
ATOM     14  C   UNL A   1      40.362  24.770  27.113  1.00  0.00    -0.014 A 
BRANCH  14  15
ATOM     15  C   UNL A   1      41.129  26.008  27.389  1.00  0.00     0.031 A 
ATOM     16  C   UNL A   1      40.574  27.017  28.351  1.00  0.00     0.074 A 
ATOM     17  C   UNL A   1      42.380  26.141  26.911  1.00  0.00     0.049 A 
ATOM     18  N   UNL A   1      41.093  28.148  28.752  1.00  0.00    -0.248 NA
ATOM     19  C   UNL A   1      39.269  26.704  28.958  1.00  0.00     0.031 C 
ATOM     20  C   UNL A   1      43.058  25.166  26.056  1.00  0.00     0.029 A 
ATOM     21  N   UNL A   1      43.327  27.112  27.117  1.00  0.00    -0.354 N 
ATOM     22  C   UNL A   1      40.173  28.687  29.642  1.00  0.00     0.074 A 
ATOM     23  C   UNL A   1      39.055  27.774  29.708  1.00  0.00     0.031 C 
ATOM     24  C   UNL A   1      44.326  25.558  25.864  1.00  0.00     0.029 A 
ATOM     25  C   UNL A   1      44.527  26.849  26.502  1.00  0.00     0.049 A 
ATOM     26  H   UNL A   1      43.162  27.920  27.655  1.00  0.00     0.167 HD
ATOM     27  C   UNL A   1      40.261  29.838  30.348  1.00  0.00     0.037 A 
ATOM     28  C   UNL A   1      45.659  27.574  26.440  1.00  0.00     0.037 A 
ATOM     29  C   UNL A   1      41.382  30.735  30.281  1.00  0.00     0.049 A 
ATOM     30  C   UNL A   1      45.702  28.883  27.172  1.00  0.00     0.074 A 
ATOM     31  C   UNL A   1      41.540  31.974  30.876  1.00  0.00     0.029 A 
ATOM     32  N   UNL A   1      42.552  30.473  29.580  1.00  0.00    -0.354 N 
ATOM     33  N   UNL A   1      44.787  29.427  27.938  1.00  0.00    -0.248 NA
ATOM     34  C   UNL A   1      46.925  29.683  27.030  1.00  0.00     0.031 C 
ATOM     35  C   UNL A   1      42.799  32.470  30.516  1.00  0.00     0.029 A 
ATOM     36  C   UNL A   1      43.437  31.526  29.726  1.00  0.00     0.049 A 
ATOM     37  H   UNL A   1      42.725  29.657  29.056  1.00  0.00     0.167 HD
ATOM     38  C   UNL A   1      45.321  30.629  28.372  1.00  0.00     0.074 A 
ATOM     39  C   UNL A   1      46.654  30.720  27.809  1.00  0.00     0.031 C 
ATOM     40  C   UNL A   1      44.757  31.581  29.153  1.00  0.00     0.037 A 
BRANCH  27  41
ATOM     41  C   UNL A   1      39.086  30.193  31.208  1.00  0.00     0.057 A 
ATOM     42  C   UNL A   1      38.968  29.729  32.525  1.00  0.00     0.134 A 
ATOM     43  C   UNL A   1      38.043  30.976  30.700  1.00  0.00     0.134 A 
ATOM     44  F   UNL A   1      39.919  28.949  33.059  1.00  0.00    -0.206 F 
ATOM     45  C   UNL A   1      37.838  30.011  33.297  1.00  0.00     0.040 A 
ATOM     46  C   UNL A   1      36.919  31.281  31.470  1.00  0.00     0.040 A 
ATOM     47  F   UNL A   1      38.093  31.445  29.444  1.00  0.00    -0.206 F 
ATOM     48  C   UNL A   1      36.811  30.791  32.770  1.00  0.00     0.006 A 
ENDBRANCH  27  41
BRANCH  28  49
ATOM     49  C   UNL A   1      46.812  27.102  25.628  1.00  0.00     0.057 A 
ATOM     50  C   UNL A   1      47.631  26.052  26.057  1.00  0.00     0.134 A 
ATOM     51  C   UNL A   1      47.129  27.701  24.400  1.00  0.00     0.134 A 
ATOM     52  F   UNL A   1      47.393  25.445  27.228  1.00  0.00    -0.206 F 
ATOM     53  C   UNL A   1      48.732  25.628  25.307  1.00  0.00     0.040 A 
ATOM     54  C   UNL A   1      48.210  27.272  23.629  1.00  0.00     0.040 A 
ATOM     55  F   UNL A   1      46.378  28.702  23.919  1.00  0.00    -0.206 F 
ATOM     56  C   UNL A   1      49.021  26.236  24.088  1.00  0.00     0.006 A 
ENDBRANCH  28  49
BRANCH  40  57
ATOM     57  C   UNL A   1      45.592  32.788  29.444  1.00  0.00     0.057 A 
ATOM     58  C   UNL A   1      45.517  33.938  28.649  1.00  0.00     0.134 A 
ATOM     59  C   UNL A   1      46.460  32.808  30.541  1.00  0.00     0.134 A 
ATOM     60  F   UNL A   1      44.714  33.970  27.573  1.00  0.00    -0.206 F 
ATOM     61  C   UNL A   1      46.296  35.061  28.922  1.00  0.00     0.040 A 
ATOM     62  C   UNL A   1      47.229  33.933  30.837  1.00  0.00     0.040 A 
ATOM     63  F   UNL A   1      46.572  31.737  31.340  1.00  0.00    -0.206 F 
ATOM     64  C   UNL A   1      47.151  35.062  30.023  1.00  0.00     0.006 A 
ENDBRANCH  40  57
ENDBRANCH  14  15
ENDBRANCH   7   9
ENDBRANCH   6   7
ENDBRANCH   5   6
ENDBRANCH   4   5
ENDBRANCH   3   4
ENDBRANCH   2   3
ENDBRANCH   1   2
BRANCH   1  65
ATOM     65  O   UNL A   1      33.356  26.204  23.613  1.00  0.00    -0.376 OA
BRANCH  65  66
ATOM     66  C   UNL A   1      32.805  26.937  22.522  1.00  0.00     0.202 C 
BRANCH  66  67
ATOM     67  C   UNL A   1      32.273  28.336  22.850  1.00  0.00     0.261 C 
BRANCH  67  68
ATOM     68  O   UNL A   1      32.990  29.040  23.879  1.00  0.00    -0.460 OA
BRANCH  68  69
ATOM     69  C   UNL A   1      32.300  29.212  25.032  1.00  0.00     0.342 C 
ATOM     70  O   UNL A   1      31.094  29.088  25.206  1.00  0.00    -0.246 OA
BRANCH  69  71
ATOM     71  C   UNL A   1      33.200  29.613  26.120  1.00  0.00     0.103 A 
ATOM     72  C   UNL A   1      33.099  30.899  26.673  1.00  0.00     0.048 A 
ATOM     73  C   UNL A   1      34.257  28.769  26.475  1.00  0.00     0.130 A 
ATOM     74  C   UNL A   1      34.059  31.339  27.589  1.00  0.00     0.064 A 
ATOM     75  C   UNL A   1      35.220  29.206  27.377  1.00  0.00     0.049 A 
ATOM     76  C   UNL A   1      35.106  30.476  27.945  1.00  0.00     0.032 A 
BRANCH  73  77
ATOM     77  O   UNL A   1      34.353  27.521  25.928  1.00  0.00    -0.507 OA
ATOM     78  H   UNL A   1      35.153  27.039  25.998  1.00  0.00     0.293 HD
ENDBRANCH  73  77
BRANCH  74  79
ATOM     79  N   UNL A   1      33.954  32.615  28.172  1.00  0.00    -0.256 NA
ATOM     80  C   UNL A   1      34.262  32.704  29.429  1.00  0.00     0.119 C 
BRANCH  80  81
ATOM     81  C   UNL A   1      34.097  33.947  30.210  1.00  0.00    -0.007 A 
ATOM     82  C   UNL A   1      34.528  33.956  31.543  1.00  0.00     0.017 A 
ATOM     83  C   UNL A   1      33.487  35.079  29.657  1.00  0.00     0.017 A 
ATOM     84  C   UNL A   1      34.349  35.099  32.329  1.00  0.00     0.086 A 
ATOM     85  C   UNL A   1      33.307  36.226  30.437  1.00  0.00     0.086 A 
ATOM     86  C   UNL A   1      33.738  36.232  31.773  1.00  0.00     0.269 A 
BRANCH  86  87
ATOM     87  N   UNL A   1      33.543  37.432  32.600  1.00  0.00     0.062 N 
ATOM     88  O   UNL A   1      33.984  37.408  33.759  1.00  0.00    -0.258 OA
ATOM     89  O   UNL A   1      32.949  38.392  32.093  1.00  0.00    -0.258 OA
ENDBRANCH  86  87
ENDBRANCH  80  81
ENDBRANCH  74  79
ENDBRANCH  69  71
ENDBRANCH  68  69
ENDBRANCH  67  68
ENDBRANCH  66  67
ENDBRANCH  65  66
ENDBRANCH   1  65
TORSDOF 21
ENDMDL
