MODEL 1
REMARK VINA RESULT:      -9.5      0.000      0.000
REMARK SMILES O=C(CCCCCC(F)(F)c1ccccc1)OCCOCCOCCOC(=O)c1ccc(-c2c3nc(c(-c4c(F)cccc4F)c4ccc([nH]4)c(-c4c(F)cccc4F)c4nc(c(-c5c(F)cccc5F)c5ccc2[nH]5)C=C4)C=C3)cc1
REMARK SMILES IDX 19 1 18 2 17 3 2 4 1 5 3 6 4 7 5 8 6 9 7 10 8 11 9 12 10 13
REMARK SMILES IDX 11 14 12 15 16 16 13 17 15 18 14 19 20 20 21 21 22 22 23 23
REMARK SMILES IDX 24 24 25 25 26 26 27 27 28 28 29 29 30 30 82 31 31 32 81 33
REMARK SMILES IDX 32 34 33 35 34 36 75 37 35 38 80 39 74 40 76 41 36 42 79 43
REMARK SMILES IDX 73 44 72 45 37 47 63 48 46 49 62 50 47 51 50 52 61 53 77 54
REMARK SMILES IDX 48 55 49 56 60 58 78 59 51 60 38 61 39 62 44 63 40 64 41 65
REMARK SMILES IDX 43 66 45 67 42 68 64 69 65 70 70 71 66 72 67 73 69 74 71 75
REMARK SMILES IDX 68 76 52 77 53 78 58 79 54 80 55 81 57 82 59 83 56 84
REMARK H PARENT 76 46 50 57
REMARK Flexibility Score: inf
ROOT
ATOM      1  C   UNL A   1      34.148  30.053  27.562  1.00  0.00     0.202 C 
ENDROOT
BRANCH   1   2
ATOM      2  C   UNL A   1      32.871  29.372  27.070  1.00  0.00     0.261 C 
BRANCH   2   3
ATOM      3  O   UNL A   1      33.172  28.171  26.346  1.00  0.00    -0.463 OA
BRANCH   3   4
ATOM      4  C   UNL A   1      33.473  28.344  25.034  1.00  0.00     0.305 C 
ATOM      5  O   UNL A   1      33.137  29.351  24.423  1.00  0.00    -0.252 OA
BRANCH   4   6
ATOM      6  C   UNL A   1      34.113  27.147  24.358  1.00  0.00     0.123 C 
BRANCH   6   7
ATOM      7  C   UNL A   1      33.284  26.555  23.217  1.00  0.00     0.012 C 
BRANCH   7   8
ATOM      8  C   UNL A   1      31.853  26.167  23.622  1.00  0.00     0.001 C 
BRANCH   8   9
ATOM      9  C   UNL A   1      30.765  26.485  22.599  1.00  0.00     0.007 C 
BRANCH   9  10
ATOM     10  C   UNL A   1      30.469  27.959  22.305  1.00  0.00     0.082 C 
BRANCH  10  11
ATOM     11  C   UNL A   1      29.495  28.671  23.266  1.00  0.00     0.273 C 
ATOM     12  F   UNL A   1      28.425  27.858  23.505  1.00  0.00    -0.201 F 
ATOM     13  F   UNL A   1      30.141  28.742  24.476  1.00  0.00    -0.201 F 
BRANCH  11  14
ATOM     14  C   UNL A   1      29.074  30.051  22.796  1.00  0.00     0.021 A 
ATOM     15  C   UNL A   1      29.065  31.153  23.662  1.00  0.00     0.010 A 
ATOM     16  C   UNL A   1      28.698  30.266  21.461  1.00  0.00     0.010 A 
ATOM     17  C   UNL A   1      28.617  32.406  23.243  1.00  0.00     0.001 A 
ATOM     18  C   UNL A   1      28.291  31.531  21.026  1.00  0.00     0.001 A 
ATOM     19  C   UNL A   1      28.230  32.595  21.923  1.00  0.00     0.000 A 
ENDBRANCH  11  14
ENDBRANCH  10  11
ENDBRANCH   9  10
ENDBRANCH   8   9
ENDBRANCH   7   8
ENDBRANCH   6   7
ENDBRANCH   4   6
ENDBRANCH   3   4
ENDBRANCH   2   3
ENDBRANCH   1   2
BRANCH   1  20
ATOM     20  O   UNL A   1      34.166  31.438  27.245  1.00  0.00    -0.376 OA
BRANCH  20  21
ATOM     21  C   UNL A   1      33.980  32.330  28.342  1.00  0.00     0.188 C 
BRANCH  21  22
ATOM     22  C   UNL A   1      34.564  33.728  28.143  1.00  0.00     0.188 C 
BRANCH  22  23
ATOM     23  O   UNL A   1      34.983  34.435  29.303  1.00  0.00    -0.376 OA
BRANCH  23  24
ATOM     24  C   UNL A   1      34.063  34.614  30.377  1.00  0.00     0.202 C 
BRANCH  24  25
ATOM     25  C   UNL A   1      34.622  34.391  31.783  1.00  0.00     0.261 C 
BRANCH  25  26
ATOM     26  O   UNL A   1      35.915  33.755  31.764  1.00  0.00    -0.460 OA
BRANCH  26  27
ATOM     27  C   UNL A   1      36.042  32.667  32.549  1.00  0.00     0.338 C 
ATOM     28  O   UNL A   1      35.507  32.467  33.634  1.00  0.00    -0.246 OA
BRANCH  27  29
ATOM     29  C   UNL A   1      36.893  31.654  31.905  1.00  0.00     0.060 A 
ATOM     30  C   UNL A   1      37.907  31.060  32.668  1.00  0.00     0.016 A 
ATOM     31  C   UNL A   1      36.813  31.430  30.528  1.00  0.00     0.016 A 
ATOM     32  C   UNL A   1      38.900  30.310  32.038  1.00  0.00     0.010 A 
ATOM     33  C   UNL A   1      37.813  30.683  29.899  1.00  0.00     0.010 A 
ATOM     34  C   UNL A   1      38.891  30.174  30.643  1.00  0.00    -0.014 A 
BRANCH  34  35
ATOM     35  C   UNL A   1      40.109  29.693  29.947  1.00  0.00     0.031 A 
ATOM     36  C   UNL A   1      41.251  30.653  29.746  1.00  0.00     0.074 A 
ATOM     37  C   UNL A   1      40.212  28.423  29.520  1.00  0.00     0.049 A 
ATOM     38  N   UNL A   1      42.397  30.471  29.140  1.00  0.00    -0.248 NA
ATOM     39  C   UNL A   1      41.075  32.006  30.302  1.00  0.00     0.031 C 
ATOM     40  C   UNL A   1      39.194  27.389  29.688  1.00  0.00     0.029 A 
ATOM     41  N   UNL A   1      41.231  27.793  28.851  1.00  0.00    -0.354 N 
ATOM     42  C   UNL A   1      43.073  31.682  29.235  1.00  0.00     0.074 A 
ATOM     43  C   UNL A   1      42.198  32.601  29.929  1.00  0.00     0.031 C 
ATOM     44  C   UNL A   1      39.637  26.250  29.127  1.00  0.00     0.029 A 
ATOM     45  C   UNL A   1      40.955  26.485  28.541  1.00  0.00     0.049 A 
ATOM     46  H   UNL A   1      42.077  28.237  28.616  1.00  0.00     0.167 HD
ATOM     47  C   UNL A   1      44.313  31.998  28.793  1.00  0.00     0.037 A 
ATOM     48  C   UNL A   1      41.682  25.587  27.847  1.00  0.00     0.037 A 
ATOM     49  C   UNL A   1      45.186  31.084  28.107  1.00  0.00     0.049 A 
ATOM     50  C   UNL A   1      43.032  25.981  27.311  1.00  0.00     0.074 A 
ATOM     51  C   UNL A   1      46.470  31.301  27.638  1.00  0.00     0.029 A 
ATOM     52  N   UNL A   1      44.859  29.775  27.786  1.00  0.00    -0.354 N 
ATOM     53  N   UNL A   1      43.671  27.119  27.427  1.00  0.00    -0.248 NA
ATOM     54  C   UNL A   1      43.763  24.959  26.547  1.00  0.00     0.031 C 
ATOM     55  C   UNL A   1      46.903  30.136  26.997  1.00  0.00     0.029 A 
ATOM     56  C   UNL A   1      45.907  29.179  27.105  1.00  0.00     0.049 A 
ATOM     57  H   UNL A   1      44.007  29.335  28.009  1.00  0.00     0.167 HD
ATOM     58  C   UNL A   1      44.889  26.942  26.782  1.00  0.00     0.074 A 
ATOM     59  C   UNL A   1      44.902  25.583  26.281  1.00  0.00     0.031 C 
ATOM     60  C   UNL A   1      45.907  27.823  26.622  1.00  0.00     0.037 A 
BRANCH  47  61
ATOM     61  C   UNL A   1      44.787  33.403  29.022  1.00  0.00     0.057 A 
ATOM     62  C   UNL A   1      44.491  34.440  28.127  1.00  0.00     0.134 A 
ATOM     63  C   UNL A   1      45.537  33.726  30.160  1.00  0.00     0.134 A 
ATOM     64  F   UNL A   1      43.791  34.194  27.009  1.00  0.00    -0.206 F 
ATOM     65  C   UNL A   1      44.943  35.743  28.344  1.00  0.00     0.040 A 
ATOM     66  C   UNL A   1      45.974  35.030  30.399  1.00  0.00     0.040 A 
ATOM     67  F   UNL A   1      45.853  32.781  31.057  1.00  0.00    -0.206 F 
ATOM     68  C   UNL A   1      45.683  36.041  29.487  1.00  0.00     0.006 A 
ENDBRANCH  47  61
BRANCH  48  69
ATOM     69  C   UNL A   1      41.150  24.221  27.621  1.00  0.00     0.057 A 
ATOM     70  C   UNL A   1      41.656  23.123  28.325  1.00  0.00     0.134 A 
ATOM     71  C   UNL A   1      40.139  23.978  26.683  1.00  0.00     0.134 A 
ATOM     72  F   UNL A   1      42.642  23.290  29.219  1.00  0.00    -0.206 F 
ATOM     73  C   UNL A   1      41.188  21.828  28.096  1.00  0.00     0.040 A 
ATOM     74  C   UNL A   1      39.646  22.692  26.458  1.00  0.00     0.040 A 
ATOM     75  F   UNL A   1      39.615  24.989  25.976  1.00  0.00    -0.206 F 
ATOM     76  C   UNL A   1      40.175  21.611  27.163  1.00  0.00     0.006 A 
ENDBRANCH  48  69
BRANCH  60  77
ATOM     77  C   UNL A   1      47.134  27.332  25.912  1.00  0.00     0.057 A 
ATOM     78  C   UNL A   1      48.170  26.679  26.591  1.00  0.00     0.134 A 
ATOM     79  C   UNL A   1      47.265  27.487  24.526  1.00  0.00     0.134 A 
ATOM     80  F   UNL A   1      48.111  26.510  27.920  1.00  0.00    -0.206 F 
ATOM     81  C   UNL A   1      49.304  26.217  25.920  1.00  0.00     0.040 A 
ATOM     82  C   UNL A   1      48.383  27.009  23.841  1.00  0.00     0.040 A 
ATOM     83  F   UNL A   1      46.305  28.096  23.815  1.00  0.00    -0.206 F 
ATOM     84  C   UNL A   1      49.409  26.377  24.539  1.00  0.00     0.006 A 
ENDBRANCH  60  77
ENDBRANCH  34  35
ENDBRANCH  27  29
ENDBRANCH  26  27
ENDBRANCH  25  26
ENDBRANCH  24  25
ENDBRANCH  23  24
ENDBRANCH  22  23
ENDBRANCH  21  22
ENDBRANCH  20  21
ENDBRANCH   1  20
TORSDOF 23
ENDMDL
MODEL 2
REMARK VINA RESULT:      -9.4      1.989      3.551
REMARK SMILES O=C(CCCCCC(F)(F)c1ccccc1)OCCOCCOCCOC(=O)c1ccc(-c2c3nc(c(-c4c(F)cccc4F)c4ccc([nH]4)c(-c4c(F)cccc4F)c4nc(c(-c5c(F)cccc5F)c5ccc2[nH]5)C=C4)C=C3)cc1
REMARK SMILES IDX 19 1 18 2 17 3 2 4 1 5 3 6 4 7 5 8 6 9 7 10 8 11 9 12 10 13
REMARK SMILES IDX 11 14 12 15 16 16 13 17 15 18 14 19 20 20 21 21 22 22 23 23
REMARK SMILES IDX 24 24 25 25 26 26 27 27 28 28 29 29 30 30 82 31 31 32 81 33
REMARK SMILES IDX 32 34 33 35 34 36 75 37 35 38 80 39 74 40 76 41 36 42 79 43
REMARK SMILES IDX 73 44 72 45 37 47 63 48 46 49 62 50 47 51 50 52 61 53 77 54
REMARK SMILES IDX 48 55 49 56 60 58 78 59 51 60 38 61 39 62 44 63 40 64 41 65
REMARK SMILES IDX 43 66 45 67 42 68 64 69 65 70 70 71 66 72 67 73 69 74 71 75
REMARK SMILES IDX 68 76 52 77 53 78 58 79 54 80 55 81 57 82 59 83 56 84
REMARK H PARENT 76 46 50 57
REMARK Flexibility Score: inf
ROOT
ATOM      1  C   UNL A   1      33.367  30.688  27.471  1.00  0.00     0.202 C 
ENDROOT
BRANCH   1   2
ATOM      2  C   UNL A   1      34.136  29.435  27.052  1.00  0.00     0.261 C 
BRANCH   2   3
ATOM      3  O   UNL A   1      33.444  28.245  27.456  1.00  0.00    -0.463 OA
BRANCH   3   4
ATOM      4  C   UNL A   1      32.373  27.910  26.693  1.00  0.00     0.305 C 
ATOM      5  O   UNL A   1      31.398  27.339  27.165  1.00  0.00    -0.252 OA
BRANCH   4   6
ATOM      6  C   UNL A   1      32.540  28.156  25.205  1.00  0.00     0.123 C 
BRANCH   6   7
ATOM      7  C   UNL A   1      32.264  26.931  24.333  1.00  0.00     0.012 C 
BRANCH   7   8
ATOM      8  C   UNL A   1      32.679  27.105  22.863  1.00  0.00     0.001 C 
BRANCH   8   9
ATOM      9  C   UNL A   1      33.458  25.944  22.252  1.00  0.00     0.007 C 
BRANCH   9  10
ATOM     10  C   UNL A   1      32.694  24.651  21.948  1.00  0.00     0.082 C 
BRANCH  10  11
ATOM     11  C   UNL A   1      32.952  23.462  22.896  1.00  0.00     0.273 C 
ATOM     12  F   UNL A   1      31.898  23.335  23.754  1.00  0.00    -0.201 F 
ATOM     13  F   UNL A   1      32.889  22.334  22.114  1.00  0.00    -0.201 F 
BRANCH  11  14
ATOM     14  C   UNL A   1      34.281  23.540  23.626  1.00  0.00     0.021 A 
ATOM     15  C   UNL A   1      35.479  23.141  23.019  1.00  0.00     0.010 A 
ATOM     16  C   UNL A   1      34.346  24.039  24.937  1.00  0.00     0.010 A 
ATOM     17  C   UNL A   1      36.688  23.155  23.714  1.00  0.00     0.001 A 
ATOM     18  C   UNL A   1      35.564  24.097  25.621  1.00  0.00     0.001 A 
ATOM     19  C   UNL A   1      36.730  23.634  25.017  1.00  0.00     0.000 A 
ENDBRANCH  11  14
ENDBRANCH  10  11
ENDBRANCH   9  10
ENDBRANCH   8   9
ENDBRANCH   7   8
ENDBRANCH   6   7
ENDBRANCH   4   6
ENDBRANCH   3   4
ENDBRANCH   2   3
ENDBRANCH   1   2
BRANCH   1  20
ATOM     20  O   UNL A   1      34.085  31.876  27.167  1.00  0.00    -0.376 OA
BRANCH  20  21
ATOM     21  C   UNL A   1      35.396  31.970  27.720  1.00  0.00     0.188 C 
BRANCH  21  22
ATOM     22  C   UNL A   1      35.791  33.362  28.209  1.00  0.00     0.188 C 
BRANCH  22  23
ATOM     23  O   UNL A   1      34.747  34.231  28.630  1.00  0.00    -0.376 OA
BRANCH  23  24
ATOM     24  C   UNL A   1      34.086  33.974  29.866  1.00  0.00     0.202 C 
BRANCH  24  25
ATOM     25  C   UNL A   1      34.992  33.767  31.080  1.00  0.00     0.261 C 
BRANCH  25  26
ATOM     26  O   UNL A   1      34.820  32.466  31.676  1.00  0.00    -0.460 OA
BRANCH  26  27
ATOM     27  C   UNL A   1      35.759  32.106  32.573  1.00  0.00     0.338 C 
ATOM     28  O   UNL A   1      35.846  32.464  33.742  1.00  0.00    -0.246 OA
BRANCH  27  29
ATOM     29  C   UNL A   1      36.694  31.130  31.989  1.00  0.00     0.060 A 
ATOM     30  C   UNL A   1      37.807  30.746  32.746  1.00  0.00     0.016 A 
ATOM     31  C   UNL A   1      36.573  30.744  30.650  1.00  0.00     0.016 A 
ATOM     32  C   UNL A   1      38.851  30.048  32.139  1.00  0.00     0.010 A 
ATOM     33  C   UNL A   1      37.624  30.050  30.044  1.00  0.00     0.010 A 
ATOM     34  C   UNL A   1      38.791  29.755  30.770  1.00  0.00    -0.014 A 
BRANCH  34  35
ATOM     35  C   UNL A   1      40.022  29.341  30.055  1.00  0.00     0.031 A 
ATOM     36  C   UNL A   1      41.122  30.351  29.869  1.00  0.00     0.074 A 
ATOM     37  C   UNL A   1      40.174  28.087  29.598  1.00  0.00     0.049 A 
ATOM     38  N   UNL A   1      42.270  30.230  29.252  1.00  0.00    -0.248 NA
ATOM     39  C   UNL A   1      40.896  31.682  30.458  1.00  0.00     0.031 C 
ATOM     40  C   UNL A   1      39.200  27.007  29.748  1.00  0.00     0.029 A 
ATOM     41  N   UNL A   1      41.212  27.514  28.907  1.00  0.00    -0.354 N 
ATOM     42  C   UNL A   1      42.897  31.465  29.371  1.00  0.00     0.074 A 
ATOM     43  C   UNL A   1      41.990  32.332  30.092  1.00  0.00     0.031 C 
ATOM     44  C   UNL A   1      39.685  25.901  29.157  1.00  0.00     0.029 A 
ATOM     45  C   UNL A   1      40.988  26.204  28.568  1.00  0.00     0.049 A 
ATOM     46  H   UNL A   1      42.038  27.998  28.677  1.00  0.00     0.167 HD
ATOM     47  C   UNL A   1      44.120  31.843  28.928  1.00  0.00     0.037 A 
ATOM     48  C   UNL A   1      41.745  25.353  27.849  1.00  0.00     0.037 A 
ATOM     49  C   UNL A   1      45.024  30.981  28.215  1.00  0.00     0.049 A 
ATOM     50  C   UNL A   1      43.075  25.814  27.314  1.00  0.00     0.074 A 
ATOM     51  C   UNL A   1      46.295  31.261  27.744  1.00  0.00     0.029 A 
ATOM     52  N   UNL A   1      44.748  29.667  27.866  1.00  0.00    -0.354 N 
ATOM     53  N   UNL A   1      43.667  26.974  27.452  1.00  0.00    -0.248 NA
ATOM     54  C   UNL A   1      43.841  24.840  26.521  1.00  0.00     0.031 C 
ATOM     55  C   UNL A   1      46.771  30.130  27.072  1.00  0.00     0.029 A 
ATOM     56  C   UNL A   1      45.815  29.131  27.164  1.00  0.00     0.049 A 
ATOM     57  H   UNL A   1      43.917  29.188  28.084  1.00  0.00     0.167 HD
ATOM     58  C   UNL A   1      44.887  26.862  26.795  1.00  0.00     0.074 A 
ATOM     59  C   UNL A   1      44.951  25.517  26.262  1.00  0.00     0.031 C 
ATOM     60  C   UNL A   1      45.866  27.787  26.649  1.00  0.00     0.037 A 
BRANCH  47  61
ATOM     61  C   UNL A   1      44.538  33.260  29.187  1.00  0.00     0.057 A 
ATOM     62  C   UNL A   1      45.211  33.631  30.359  1.00  0.00     0.134 A 
ATOM     63  C   UNL A   1      44.278  34.263  28.245  1.00  0.00     0.134 A 
ATOM     64  F   UNL A   1      45.476  32.720  31.308  1.00  0.00    -0.206 F 
ATOM     65  C   UNL A   1      45.590  34.954  30.594  1.00  0.00     0.040 A 
ATOM     66  C   UNL A   1      44.673  35.585  28.460  1.00  0.00     0.040 A 
ATOM     67  F   UNL A   1      43.639  33.975  27.102  1.00  0.00    -0.206 F 
ATOM     68  C   UNL A   1      45.326  35.934  29.640  1.00  0.00     0.006 A 
ENDBRANCH  47  61
BRANCH  48  69
ATOM     69  C   UNL A   1      41.268  23.971  27.594  1.00  0.00     0.057 A 
ATOM     70  C   UNL A   1      40.257  23.717  26.660  1.00  0.00     0.134 A 
ATOM     71  C   UNL A   1      41.797  22.877  28.289  1.00  0.00     0.134 A 
ATOM     72  F   UNL A   1      39.696  24.728  25.981  1.00  0.00    -0.206 F 
ATOM     73  C   UNL A   1      39.777  22.426  26.436  1.00  0.00     0.040 A 
ATOM     74  C   UNL A   1      41.342  21.578  28.060  1.00  0.00     0.040 A 
ATOM     75  F   UNL A   1      42.767  23.057  29.197  1.00  0.00    -0.206 F 
ATOM     76  C   UNL A   1      40.325  21.350  27.134  1.00  0.00     0.006 A 
ENDBRANCH  48  69
BRANCH  60  77
ATOM     77  C   UNL A   1      47.107  27.364  25.920  1.00  0.00     0.057 A 
ATOM     78  C   UNL A   1      48.185  26.761  26.581  1.00  0.00     0.134 A 
ATOM     79  C   UNL A   1      47.211  27.533  24.533  1.00  0.00     0.134 A 
ATOM     80  F   UNL A   1      48.153  26.583  27.910  1.00  0.00    -0.206 F 
ATOM     81  C   UNL A   1      49.331  26.362  25.892  1.00  0.00     0.040 A 
ATOM     82  C   UNL A   1      48.342  27.116  23.830  1.00  0.00     0.040 A 
ATOM     83  F   UNL A   1      46.211  28.095  23.839  1.00  0.00    -0.206 F 
ATOM     84  C   UNL A   1      49.409  26.534  24.511  1.00  0.00     0.006 A 
ENDBRANCH  60  77
ENDBRANCH  34  35
ENDBRANCH  27  29
ENDBRANCH  26  27
ENDBRANCH  25  26
ENDBRANCH  24  25
ENDBRANCH  23  24
ENDBRANCH  22  23
ENDBRANCH  21  22
ENDBRANCH  20  21
ENDBRANCH   1  20
TORSDOF 23
ENDMDL
MODEL 3
REMARK VINA RESULT:      -9.2      2.274      3.845
REMARK SMILES O=C(CCCCCC(F)(F)c1ccccc1)OCCOCCOCCOC(=O)c1ccc(-c2c3nc(c(-c4c(F)cccc4F)c4ccc([nH]4)c(-c4c(F)cccc4F)c4nc(c(-c5c(F)cccc5F)c5ccc2[nH]5)C=C4)C=C3)cc1
REMARK SMILES IDX 19 1 18 2 17 3 2 4 1 5 3 6 4 7 5 8 6 9 7 10 8 11 9 12 10 13
REMARK SMILES IDX 11 14 12 15 16 16 13 17 15 18 14 19 20 20 21 21 22 22 23 23
REMARK SMILES IDX 24 24 25 25 26 26 27 27 28 28 29 29 30 30 82 31 31 32 81 33
REMARK SMILES IDX 32 34 33 35 34 36 75 37 35 38 80 39 74 40 76 41 36 42 79 43
REMARK SMILES IDX 73 44 72 45 37 47 63 48 46 49 62 50 47 51 50 52 61 53 77 54
REMARK SMILES IDX 48 55 49 56 60 58 78 59 51 60 38 61 39 62 44 63 40 64 41 65
REMARK SMILES IDX 43 66 45 67 42 68 64 69 65 70 70 71 66 72 67 73 69 74 71 75
REMARK SMILES IDX 68 76 52 77 53 78 58 79 54 80 55 81 57 82 59 83 56 84
REMARK H PARENT 76 46 50 57
REMARK Flexibility Score: inf
ROOT
ATOM      1  C   UNL A   1      34.845  33.649  27.999  1.00  0.00     0.202 C 
ENDROOT
BRANCH   1   2
ATOM      2  C   UNL A   1      33.803  32.570  28.296  1.00  0.00     0.261 C 
BRANCH   2   3
ATOM      3  O   UNL A   1      34.276  31.274  27.906  1.00  0.00    -0.463 OA
BRANCH   3   4
ATOM      4  C   UNL A   1      33.421  30.551  27.140  1.00  0.00     0.305 C 
ATOM      5  O   UNL A   1      32.393  31.037  26.686  1.00  0.00    -0.252 OA
BRANCH   4   6
ATOM      6  C   UNL A   1      33.756  29.076  27.019  1.00  0.00     0.123 C 
BRANCH   6   7
ATOM      7  C   UNL A   1      32.955  28.338  25.946  1.00  0.00     0.012 C 
BRANCH   7   8
ATOM      8  C   UNL A   1      32.256  27.066  26.454  1.00  0.00     0.001 C 
BRANCH   8   9
ATOM      9  C   UNL A   1      32.911  25.746  26.057  1.00  0.00     0.007 C 
BRANCH   9  10
ATOM     10  C   UNL A   1      32.881  25.349  24.578  1.00  0.00     0.082 C 
BRANCH  10  11
ATOM     11  C   UNL A   1      34.061  24.495  24.071  1.00  0.00     0.273 C 
ATOM     12  F   UNL A   1      34.364  24.862  22.792  1.00  0.00    -0.201 F 
ATOM     13  F   UNL A   1      35.155  24.888  24.803  1.00  0.00    -0.201 F 
BRANCH  11  14
ATOM     14  C   UNL A   1      33.832  23.000  24.200  1.00  0.00     0.021 A 
ATOM     15  C   UNL A   1      34.731  22.175  24.890  1.00  0.00     0.010 A 
ATOM     16  C   UNL A   1      32.692  22.402  23.642  1.00  0.00     0.010 A 
ATOM     17  C   UNL A   1      34.550  20.793  24.953  1.00  0.00     0.001 A 
ATOM     18  C   UNL A   1      32.484  21.023  23.741  1.00  0.00     0.001 A 
ATOM     19  C   UNL A   1      33.425  20.217  24.378  1.00  0.00     0.000 A 
ENDBRANCH  11  14
ENDBRANCH  10  11
ENDBRANCH   9  10
ENDBRANCH   8   9
ENDBRANCH   7   8
ENDBRANCH   6   7
ENDBRANCH   4   6
ENDBRANCH   3   4
ENDBRANCH   2   3
ENDBRANCH   1   2
BRANCH   1  20
ATOM     20  O   UNL A   1      34.585  34.848  28.715  1.00  0.00    -0.376 OA
BRANCH  20  21
ATOM     21  C   UNL A   1      33.510  34.793  29.650  1.00  0.00     0.188 C 
BRANCH  21  22
ATOM     22  C   UNL A   1      33.595  35.806  30.792  1.00  0.00     0.188 C 
BRANCH  22  23
ATOM     23  O   UNL A   1      33.592  35.298  32.120  1.00  0.00    -0.376 OA
BRANCH  23  24
ATOM     24  C   UNL A   1      34.802  35.316  32.873  1.00  0.00     0.202 C 
BRANCH  24  25
ATOM     25  C   UNL A   1      36.035  34.745  32.173  1.00  0.00     0.261 C 
BRANCH  25  26
ATOM     26  O   UNL A   1      36.411  33.453  32.691  1.00  0.00    -0.460 OA
BRANCH  26  27
ATOM     27  C   UNL A   1      35.706  32.407  32.218  1.00  0.00     0.338 C 
ATOM     28  O   UNL A   1      34.487  32.277  32.206  1.00  0.00    -0.246 OA
BRANCH  27  29
ATOM     29  C   UNL A   1      36.599  31.400  31.623  1.00  0.00     0.060 A 
ATOM     30  C   UNL A   1      37.601  30.846  32.430  1.00  0.00     0.016 A 
ATOM     31  C   UNL A   1      36.568  31.146  30.248  1.00  0.00     0.016 A 
ATOM     32  C   UNL A   1      38.630  30.107  31.848  1.00  0.00     0.010 A 
ATOM     33  C   UNL A   1      37.605  30.410  29.667  1.00  0.00     0.010 A 
ATOM     34  C   UNL A   1      38.669  29.941  30.456  1.00  0.00    -0.014 A 
BRANCH  34  35
ATOM     35  C   UNL A   1      39.919  29.474  29.810  1.00  0.00     0.031 A 
ATOM     36  C   UNL A   1      41.060  30.446  29.660  1.00  0.00     0.074 A 
ATOM     37  C   UNL A   1      40.052  28.208  29.382  1.00  0.00     0.049 A 
ATOM     38  N   UNL A   1      42.232  30.276  29.101  1.00  0.00    -0.248 NA
ATOM     39  C   UNL A   1      40.849  31.794  30.213  1.00  0.00     0.031 C 
ATOM     40  C   UNL A   1      39.037  27.163  29.504  1.00  0.00     0.029 A 
ATOM     41  N   UNL A   1      41.103  27.589  28.753  1.00  0.00    -0.354 N 
ATOM     42  C   UNL A   1      42.892  31.493  29.229  1.00  0.00     0.074 A 
ATOM     43  C   UNL A   1      41.981  32.401  29.890  1.00  0.00     0.031 C 
ATOM     44  C   UNL A   1      39.513  26.031  28.957  1.00  0.00     0.029 A 
ATOM     45  C   UNL A   1      40.852  26.280  28.427  1.00  0.00     0.049 A 
ATOM     46  H   UNL A   1      41.954  28.042  28.556  1.00  0.00     0.167 HD
ATOM     47  C   UNL A   1      44.146  31.822  28.840  1.00  0.00     0.037 A 
ATOM     48  C   UNL A   1      41.615  25.392  27.760  1.00  0.00     0.037 A 
ATOM     49  C   UNL A   1      45.055  30.919  28.187  1.00  0.00     0.049 A 
ATOM     50  C   UNL A   1      42.983  25.800  27.282  1.00  0.00     0.074 A 
ATOM     51  C   UNL A   1      46.356  31.149  27.773  1.00  0.00     0.029 A 
ATOM     52  N   UNL A   1      44.754  29.608  27.848  1.00  0.00    -0.354 N 
ATOM     53  N   UNL A   1      43.606  26.944  27.430  1.00  0.00    -0.248 NA
ATOM     54  C   UNL A   1      43.755  24.788  26.545  1.00  0.00     0.031 C 
ATOM     55  C   UNL A   1      46.826  29.991  27.145  1.00  0.00     0.029 A 
ATOM     56  C   UNL A   1      45.835  29.025  27.208  1.00  0.00     0.049 A 
ATOM     57  H   UNL A   1      43.898  29.160  28.034  1.00  0.00     0.167 HD
ATOM     58  C   UNL A   1      44.852  26.780  26.835  1.00  0.00     0.074 A 
ATOM     59  C   UNL A   1      44.898  25.423  26.329  1.00  0.00     0.031 C 
ATOM     60  C   UNL A   1      45.867  27.670  26.720  1.00  0.00     0.037 A 
BRANCH  47  61
ATOM     61  C   UNL A   1      44.598  33.230  29.094  1.00  0.00     0.057 A 
ATOM     62  C   UNL A   1      45.389  33.566  30.201  1.00  0.00     0.134 A 
ATOM     63  C   UNL A   1      44.250  34.261  28.211  1.00  0.00     0.134 A 
ATOM     64  F   UNL A   1      45.743  32.628  31.093  1.00  0.00    -0.206 F 
ATOM     65  C   UNL A   1      45.798  34.880  30.433  1.00  0.00     0.040 A 
ATOM     66  C   UNL A   1      44.674  35.574  28.421  1.00  0.00     0.040 A 
ATOM     67  F   UNL A   1      43.497  34.007  27.132  1.00  0.00    -0.206 F 
ATOM     68  C   UNL A   1      45.445  35.888  29.538  1.00  0.00     0.006 A 
ENDBRANCH  47  61
BRANCH  48  69
ATOM     69  C   UNL A   1      41.106  24.022  27.506  1.00  0.00     0.057 A 
ATOM     70  C   UNL A   1      41.615  22.921  28.204  1.00  0.00     0.134 A 
ATOM     71  C   UNL A   1      40.114  23.778  26.549  1.00  0.00     0.134 A 
ATOM     72  F   UNL A   1      42.584  23.089  29.116  1.00  0.00    -0.206 F 
ATOM     73  C   UNL A   1      41.168  21.624  27.949  1.00  0.00     0.040 A 
ATOM     74  C   UNL A   1      39.642  22.489  26.299  1.00  0.00     0.040 A 
ATOM     75  F   UNL A   1      39.588  24.792  25.847  1.00  0.00    -0.206 F 
ATOM     76  C   UNL A   1      40.174  21.406  26.997  1.00  0.00     0.006 A 
ENDBRANCH  48  69
BRANCH  60  77
ATOM     77  C   UNL A   1      47.127  27.194  26.060  1.00  0.00     0.057 A 
ATOM     78  C   UNL A   1      47.336  27.325  24.682  1.00  0.00     0.134 A 
ATOM     79  C   UNL A   1      48.158  26.626  26.820  1.00  0.00     0.134 A 
ATOM     80  F   UNL A   1      46.383  27.849  23.897  1.00  0.00    -0.206 F 
ATOM     81  C   UNL A   1      48.517  26.887  24.079  1.00  0.00     0.040 A 
ATOM     82  C   UNL A   1      49.352  26.207  26.232  1.00  0.00     0.040 A 
ATOM     83  F   UNL A   1      48.025  26.480  28.147  1.00  0.00    -0.206 F 
ATOM     84  C   UNL A   1      49.531  26.331  24.857  1.00  0.00     0.006 A 
ENDBRANCH  60  77
ENDBRANCH  34  35
ENDBRANCH  27  29
ENDBRANCH  26  27
ENDBRANCH  25  26
ENDBRANCH  24  25
ENDBRANCH  23  24
ENDBRANCH  22  23
ENDBRANCH  21  22
ENDBRANCH  20  21
ENDBRANCH   1  20
TORSDOF 23
ENDMDL
