MODEL 1
REMARK VINA RESULT:     -12.6      0.000      0.000
REMARK SMILES COc1ccc(-c2[nH]nc3nc(-c4ccc(C(F)(F)F)cc4)cc(C(=O)OCCOCCOCCOC(=O)c4ccc(-c5c6nc(c(-c7c(F)cccc7F)c7ccc([nH]7)c(-c7c(F)cccc7F)c7nc(c(-c8c(F)cccc8F)c8ccc5[nH]8)C=C7)C=C6)cc4)c23)cc1
REMARK SMILES IDX 31 1 30 2 29 3 28 4 27 5 25 6 26 7 24 8 7 9 8 10 93 11 9 12
REMARK SMILES IDX 10 14 11 15 23 16 12 17 6 18 3 19 4 20 95 21 5 22 94 23 2 24
REMARK SMILES IDX 1 25 13 26 14 27 22 28 15 29 21 30 16 31 17 32 18 33 19 34
REMARK SMILES IDX 20 35 32 36 33 37 34 38 35 39 36 40 37 41 38 42 39 43 40 44
REMARK SMILES IDX 92 45 41 46 91 47 42 48 43 49 44 50 85 51 45 52 90 53 84 54
REMARK SMILES IDX 86 55 46 56 89 57 83 58 82 59 47 61 73 62 56 63 72 64 57 65
REMARK SMILES IDX 60 66 71 67 87 68 58 69 59 70 70 72 88 73 61 74 48 75 49 76
REMARK SMILES IDX 54 77 50 78 51 79 53 80 55 81 52 82 74 83 75 84 80 85 76 86
REMARK SMILES IDX 77 87 79 88 81 89 78 90 62 91 63 92 68 93 64 94 65 95 67 96
REMARK SMILES IDX 69 97 66 98
REMARK H PARENT 8 13 86 60 60 71
REMARK Flexibility Score: inf
ROOT
ATOM      1  C   UNL A   1      38.780  21.305  25.563  1.00  0.00     0.188 C 
ENDROOT
BRANCH   1   2
ATOM      2  O   UNL A   1      37.752  22.186  25.983  1.00  0.00    -0.376 OA
BRANCH   2   3
ATOM      3  C   UNL A   1      36.455  21.877  25.445  1.00  0.00     0.202 C 
BRANCH   3   4
ATOM      4  C   UNL A   1      35.929  22.668  24.215  1.00  0.00     0.261 C 
BRANCH   4   5
ATOM      5  O   UNL A   1      35.404  23.994  24.463  1.00  0.00    -0.460 OA
BRANCH   5   6
ATOM      6  C   UNL A   1      34.351  24.438  23.724  1.00  0.00     0.339 C 
ATOM      7  O   UNL A   1      34.162  24.171  22.567  1.00  0.00    -0.246 OA
BRANCH   6   8
ATOM      8  C   UNL A   1      33.427  25.185  24.634  1.00  0.00     0.075 A 
ATOM      9  C   UNL A   1      31.652  23.450  25.168  1.00  0.00     0.075 A 
ATOM     10  N   UNL A   1      30.425  23.613  25.772  1.00  0.00    -0.275 N 
ATOM     11  C   UNL A   1      32.204  24.723  25.150  1.00  0.00     0.061 A 
ATOM     12  N   UNL A   1      30.228  24.818  26.319  1.00  0.00    -0.154 NA
ATOM     13  H   UNL A   1      29.747  22.899  25.799  1.00  0.00     0.190 HD
ATOM     14  C   UNL A   1      31.328  25.492  25.993  1.00  0.00     0.182 A 
ATOM     15  N   UNL A   1      31.631  26.737  26.426  1.00  0.00    -0.226 NA
ATOM     16  C   UNL A   1      33.722  26.473  25.146  1.00  0.00     0.045 A 
ATOM     17  C   UNL A   1      32.840  27.193  26.004  1.00  0.00     0.074 A 
BRANCH   9  18
ATOM     18  C   UNL A   1      32.143  22.107  24.897  1.00  0.00     0.001 A 
ATOM     19  C   UNL A   1      33.173  19.527  24.446  1.00  0.00     0.118 A 
ATOM     20  C   UNL A   1      32.551  20.241  23.417  1.00  0.00     0.047 A 
ATOM     21  C   UNL A   1      33.236  20.087  25.718  1.00  0.00     0.047 A 
ATOM     22  C   UNL A   1      32.026  21.519  23.640  1.00  0.00     0.014 A 
ATOM     23  C   UNL A   1      32.718  21.367  25.943  1.00  0.00     0.014 A 
BRANCH  19  24
ATOM     24  O   UNL A   1      33.681  18.312  24.076  1.00  0.00    -0.497 OA
ATOM     25  C   UNL A   1      32.985  17.603  23.059  1.00  0.00     0.278 C 
ENDBRANCH  19  24
ENDBRANCH   9  18
BRANCH  17  26
ATOM     26  C   UNL A   1      33.157  28.568  26.467  1.00  0.00     0.000 A 
ATOM     27  C   UNL A   1      34.464  28.947  26.835  1.00  0.00     0.011 A 
ATOM     28  C   UNL A   1      32.146  29.530  26.623  1.00  0.00     0.011 A 
ATOM     29  C   UNL A   1      34.742  30.225  27.348  1.00  0.00     0.014 A 
ATOM     30  C   UNL A   1      32.416  30.803  27.139  1.00  0.00     0.014 A 
ATOM     31  C   UNL A   1      33.716  31.164  27.515  1.00  0.00     0.056 A 
BRANCH  31  32
ATOM     32  C   UNL A   1      33.999  32.523  28.110  1.00  0.00     0.416 C 
ATOM     33  F   UNL A   1      34.150  32.483  29.463  1.00  0.00    -0.166 F 
ATOM     34  F   UNL A   1      35.139  33.085  27.620  1.00  0.00    -0.166 F 
ATOM     35  F   UNL A   1      33.010  33.432  27.876  1.00  0.00    -0.166 F 
ENDBRANCH  31  32
ENDBRANCH  17  26
ENDBRANCH   6   8
ENDBRANCH   5   6
ENDBRANCH   4   5
ENDBRANCH   3   4
ENDBRANCH   2   3
ENDBRANCH   1   2
BRANCH   1  36
ATOM     36  C   UNL A   1      40.172  21.520  26.110  1.00  0.00     0.188 C 
BRANCH  36  37
ATOM     37  O   UNL A   1      40.523  20.670  27.202  1.00  0.00    -0.376 OA
BRANCH  37  38
ATOM     38  C   UNL A   1      41.877  20.230  27.288  1.00  0.00     0.202 C 
BRANCH  38  39
ATOM     39  C   UNL A   1      42.334  19.216  26.243  1.00  0.00     0.261 C 
BRANCH  39  40
ATOM     40  O   UNL A   1      42.802  19.807  25.041  1.00  0.00    -0.460 OA
BRANCH  40  41
ATOM     41  C   UNL A   1      44.146  19.749  24.910  1.00  0.00     0.338 C 
ATOM     42  O   UNL A   1      44.862  18.762  24.957  1.00  0.00    -0.246 OA
BRANCH  41  43
ATOM     43  C   UNL A   1      44.674  21.112  24.809  1.00  0.00     0.060 A 
ATOM     44  C   UNL A   1      45.683  21.421  25.721  1.00  0.00     0.016 A 
ATOM     45  C   UNL A   1      43.849  22.085  24.230  1.00  0.00     0.016 A 
ATOM     46  C   UNL A   1      45.621  22.648  26.328  1.00  0.00     0.010 A 
ATOM     47  C   UNL A   1      43.778  23.303  24.848  1.00  0.00     0.010 A 
ATOM     48  C   UNL A   1      44.580  23.511  25.965  1.00  0.00    -0.014 A 
BRANCH  48  49
ATOM     49  C   UNL A   1      44.389  24.692  26.766  1.00  0.00     0.031 A 
ATOM     50  C   UNL A   1      45.516  25.629  26.630  1.00  0.00     0.074 A 
ATOM     51  C   UNL A   1      43.278  24.909  27.492  1.00  0.00     0.049 A 
ATOM     52  N   UNL A   1      46.422  25.888  27.510  1.00  0.00    -0.248 NA
ATOM     53  C   UNL A   1      45.793  26.167  25.290  1.00  0.00     0.031 C 
ATOM     54  C   UNL A   1      42.017  24.163  27.496  1.00  0.00     0.029 A 
ATOM     55  N   UNL A   1      43.026  25.934  28.347  1.00  0.00    -0.354 N 
ATOM     56  C   UNL A   1      47.262  26.808  26.901  1.00  0.00     0.074 A 
ATOM     57  C   UNL A   1      46.962  26.773  25.494  1.00  0.00     0.031 C 
ATOM     58  C   UNL A   1      41.070  24.891  28.134  1.00  0.00     0.029 A 
ATOM     59  C   UNL A   1      41.690  26.079  28.696  1.00  0.00     0.049 A 
ATOM     60  H   UNL A   1      43.735  26.527  28.691  1.00  0.00     0.167 HD
ATOM     61  C   UNL A   1      47.918  27.735  27.646  1.00  0.00     0.037 A 
ATOM     62  C   UNL A   1      41.159  27.155  29.333  1.00  0.00     0.037 A 
ATOM     63  C   UNL A   1      48.008  27.326  29.027  1.00  0.00     0.049 A 
ATOM     64  C   UNL A   1      42.280  27.869  30.002  1.00  0.00     0.074 A 
ATOM     65  C   UNL A   1      48.543  26.228  29.674  1.00  0.00     0.029 A 
ATOM     66  N   UNL A   1      47.142  27.901  29.926  1.00  0.00    -0.354 N 
ATOM     67  N   UNL A   1      42.936  27.384  31.020  1.00  0.00    -0.248 NA
ATOM     68  C   UNL A   1      42.986  28.886  29.235  1.00  0.00     0.031 C 
ATOM     69  C   UNL A   1      47.620  25.926  30.718  1.00  0.00     0.029 A 
ATOM     70  C   UNL A   1      46.616  26.895  30.697  1.00  0.00     0.049 A 
ATOM     71  H   UNL A   1      46.935  28.861  30.002  1.00  0.00     0.167 HD
ATOM     72  C   UNL A   1      44.264  27.698  30.768  1.00  0.00     0.074 A 
ATOM     73  C   UNL A   1      44.226  28.685  29.690  1.00  0.00     0.031 C 
ATOM     74  C   UNL A   1      45.279  26.917  31.243  1.00  0.00     0.037 A 
BRANCH  61  75
ATOM     75  C   UNL A   1      48.094  29.162  27.199  1.00  0.00     0.057 A 
ATOM     76  C   UNL A   1      49.368  29.745  27.273  1.00  0.00     0.134 A 
ATOM     77  C   UNL A   1      47.032  30.068  26.978  1.00  0.00     0.134 A 
ATOM     78  F   UNL A   1      50.456  28.991  27.498  1.00  0.00    -0.206 F 
ATOM     79  C   UNL A   1      49.562  31.129  27.207  1.00  0.00     0.040 A 
ATOM     80  C   UNL A   1      47.222  31.444  26.856  1.00  0.00     0.040 A 
ATOM     81  F   UNL A   1      45.747  29.695  26.973  1.00  0.00    -0.206 F 
ATOM     82  C   UNL A   1      48.486  31.983  27.004  1.00  0.00     0.006 A 
ENDBRANCH  61  75
BRANCH  62  83
ATOM     83  C   UNL A   1      39.840  27.794  29.111  1.00  0.00     0.057 A 
ATOM     84  C   UNL A   1      38.918  27.940  30.159  1.00  0.00     0.134 A 
ATOM     85  C   UNL A   1      39.565  28.530  27.945  1.00  0.00     0.134 A 
ATOM     86  F   UNL A   1      39.115  27.315  31.329  1.00  0.00    -0.206 F 
ATOM     87  C   UNL A   1      37.804  28.785  30.062  1.00  0.00     0.040 A 
ATOM     88  C   UNL A   1      38.453  29.373  27.833  1.00  0.00     0.040 A 
ATOM     89  F   UNL A   1      40.413  28.530  26.906  1.00  0.00    -0.206 F 
ATOM     90  C   UNL A   1      37.576  29.515  28.900  1.00  0.00     0.006 A 
ENDBRANCH  62  83
BRANCH  74  91
ATOM     91  C   UNL A   1      44.933  25.840  32.237  1.00  0.00     0.057 A 
ATOM     92  C   UNL A   1      44.781  26.058  33.615  1.00  0.00     0.134 A 
ATOM     93  C   UNL A   1      44.591  24.571  31.758  1.00  0.00     0.134 A 
ATOM     94  F   UNL A   1      44.987  27.266  34.152  1.00  0.00    -0.206 F 
ATOM     95  C   UNL A   1      44.351  25.046  34.480  1.00  0.00     0.040 A 
ATOM     96  C   UNL A   1      44.127  23.562  32.605  1.00  0.00     0.040 A 
ATOM     97  F   UNL A   1      44.656  24.304  30.444  1.00  0.00    -0.206 F 
ATOM     98  C   UNL A   1      44.015  23.794  33.973  1.00  0.00     0.006 A 
ENDBRANCH  74  91
ENDBRANCH  48  49
ENDBRANCH  41  43
ENDBRANCH  40  41
ENDBRANCH  39  40
ENDBRANCH  38  39
ENDBRANCH  37  38
ENDBRANCH  36  37
ENDBRANCH   1  36
TORSDOF 21
ENDMDL
MODEL 2
REMARK VINA RESULT:     -12.2      3.983      8.067
REMARK SMILES COc1ccc(-c2[nH]nc3nc(-c4ccc(C(F)(F)F)cc4)cc(C(=O)OCCOCCOCCOC(=O)c4ccc(-c5c6nc(c(-c7c(F)cccc7F)c7ccc([nH]7)c(-c7c(F)cccc7F)c7nc(c(-c8c(F)cccc8F)c8ccc5[nH]8)C=C7)C=C6)cc4)c23)cc1
REMARK SMILES IDX 31 1 30 2 29 3 28 4 27 5 25 6 26 7 24 8 7 9 8 10 93 11 9 12
REMARK SMILES IDX 10 14 11 15 23 16 12 17 6 18 3 19 4 20 95 21 5 22 94 23 2 24
REMARK SMILES IDX 1 25 13 26 14 27 22 28 15 29 21 30 16 31 17 32 18 33 19 34
REMARK SMILES IDX 20 35 32 36 33 37 34 38 35 39 36 40 37 41 38 42 39 43 40 44
REMARK SMILES IDX 92 45 41 46 91 47 42 48 43 49 44 50 85 51 45 52 90 53 84 54
REMARK SMILES IDX 86 55 46 56 89 57 83 58 82 59 47 61 73 62 56 63 72 64 57 65
REMARK SMILES IDX 60 66 71 67 87 68 58 69 59 70 70 72 88 73 61 74 48 75 49 76
REMARK SMILES IDX 54 77 50 78 51 79 53 80 55 81 52 82 74 83 75 84 80 85 76 86
REMARK SMILES IDX 77 87 79 88 81 89 78 90 62 91 63 92 68 93 64 94 65 95 67 96
REMARK SMILES IDX 69 97 66 98
REMARK H PARENT 8 13 86 60 60 71
REMARK Flexibility Score: inf
ROOT
ATOM      1  C   UNL A   1      33.204  31.644  27.082  1.00  0.00     0.188 C 
ENDROOT
BRANCH   1   2
ATOM      2  O   UNL A   1      32.457  30.452  27.261  1.00  0.00    -0.376 OA
BRANCH   2   3
ATOM      3  C   UNL A   1      32.245  29.703  26.053  1.00  0.00     0.202 C 
BRANCH   3   4
ATOM      4  C   UNL A   1      33.253  28.589  25.655  1.00  0.00     0.261 C 
BRANCH   4   5
ATOM      5  O   UNL A   1      33.240  27.379  26.450  1.00  0.00    -0.460 OA
BRANCH   5   6
ATOM      6  C   UNL A   1      32.446  26.343  26.063  1.00  0.00     0.339 C 
ATOM      7  O   UNL A   1      31.272  26.250  26.304  1.00  0.00    -0.246 OA
BRANCH   6   8
ATOM      8  C   UNL A   1      33.257  25.439  25.188  1.00  0.00     0.075 A 
ATOM      9  C   UNL A   1      32.073  25.626  22.950  1.00  0.00     0.075 A 
ATOM     10  N   UNL A   1      32.218  24.855  21.818  1.00  0.00    -0.275 N 
ATOM     11  C   UNL A   1      32.976  25.089  23.856  1.00  0.00     0.061 A 
ATOM     12  N   UNL A   1      33.259  24.014  21.844  1.00  0.00    -0.154 NA
ATOM     13  H   UNL A   1      31.604  24.916  21.050  1.00  0.00     0.190 HD
ATOM     14  C   UNL A   1      33.765  24.183  23.064  1.00  0.00     0.182 A 
ATOM     15  N   UNL A   1      34.908  23.617  23.514  1.00  0.00    -0.226 NA
ATOM     16  C   UNL A   1      34.481  24.858  25.602  1.00  0.00     0.045 A 
ATOM     17  C   UNL A   1      35.250  23.986  24.776  1.00  0.00     0.074 A 
BRANCH   9  18
ATOM     18  C   UNL A   1      31.254  26.828  22.896  1.00  0.00     0.001 A 
ATOM     19  C   UNL A   1      29.758  29.211  22.823  1.00  0.00     0.118 A 
ATOM     20  C   UNL A   1      29.159  27.998  23.177  1.00  0.00     0.047 A 
ATOM     21  C   UNL A   1      31.101  29.222  22.457  1.00  0.00     0.047 A 
ATOM     22  C   UNL A   1      29.896  26.809  23.203  1.00  0.00     0.014 A 
ATOM     23  C   UNL A   1      31.842  28.036  22.487  1.00  0.00     0.014 A 
BRANCH  19  24
ATOM     24  O   UNL A   1      28.933  30.299  22.887  1.00  0.00    -0.497 OA
ATOM     25  C   UNL A   1      27.587  30.068  23.287  1.00  0.00     0.278 C 
ENDBRANCH  19  24
ENDBRANCH   9  18
BRANCH  17  26
ATOM     26  C   UNL A   1      36.495  23.346  25.271  1.00  0.00     0.000 A 
ATOM     27  C   UNL A   1      37.430  24.045  26.062  1.00  0.00     0.011 A 
ATOM     28  C   UNL A   1      36.824  22.029  24.909  1.00  0.00     0.011 A 
ATOM     29  C   UNL A   1      38.643  23.458  26.458  1.00  0.00     0.014 A 
ATOM     30  C   UNL A   1      38.034  21.440  25.298  1.00  0.00     0.014 A 
ATOM     31  C   UNL A   1      38.961  22.150  26.070  1.00  0.00     0.056 A 
BRANCH  31  32
ATOM     32  C   UNL A   1      40.283  21.529  26.454  1.00  0.00     0.416 C 
ATOM     33  F   UNL A   1      40.705  21.916  27.690  1.00  0.00    -0.166 F 
ATOM     34  F   UNL A   1      40.239  20.168  26.481  1.00  0.00    -0.166 F 
ATOM     35  F   UNL A   1      41.298  21.849  25.601  1.00  0.00    -0.166 F 
ENDBRANCH  31  32
ENDBRANCH  17  26
ENDBRANCH   6   8
ENDBRANCH   5   6
ENDBRANCH   4   5
ENDBRANCH   3   4
ENDBRANCH   2   3
ENDBRANCH   1   2
BRANCH   1  36
ATOM     36  C   UNL A   1      34.200  32.031  28.151  1.00  0.00     0.188 C 
BRANCH  36  37
ATOM     37  O   UNL A   1      35.206  32.951  27.726  1.00  0.00    -0.376 OA
BRANCH  37  38
ATOM     38  C   UNL A   1      36.470  32.898  28.386  1.00  0.00     0.202 C 
BRANCH  38  39
ATOM     39  C   UNL A   1      36.560  32.003  29.618  1.00  0.00     0.261 C 
BRANCH  39  40
ATOM     40  O   UNL A   1      37.583  31.023  29.539  1.00  0.00    -0.460 OA
BRANCH  40  41
ATOM     41  C   UNL A   1      37.128  29.766  29.736  1.00  0.00     0.338 C 
ATOM     42  O   UNL A   1      36.263  29.395  30.512  1.00  0.00    -0.246 OA
BRANCH  41  43
ATOM     43  C   UNL A   1      37.930  28.838  28.934  1.00  0.00     0.060 A 
ATOM     44  C   UNL A   1      38.409  27.725  29.626  1.00  0.00     0.016 A 
ATOM     45  C   UNL A   1      38.553  29.346  27.787  1.00  0.00     0.016 A 
ATOM     46  C   UNL A   1      39.706  27.352  29.385  1.00  0.00     0.010 A 
ATOM     47  C   UNL A   1      39.853  28.983  27.559  1.00  0.00     0.010 A 
ATOM     48  C   UNL A   1      40.439  28.084  28.445  1.00  0.00    -0.014 A 
BRANCH  48  49
ATOM     49  C   UNL A   1      41.855  27.835  28.368  1.00  0.00     0.031 A 
ATOM     50  C   UNL A   1      42.147  26.567  27.680  1.00  0.00     0.074 A 
ATOM     51  C   UNL A   1      42.774  28.703  28.828  1.00  0.00     0.049 A 
ATOM     52  N   UNL A   1      42.575  25.474  28.212  1.00  0.00    -0.248 NA
ATOM     53  C   UNL A   1      41.702  26.435  26.284  1.00  0.00     0.031 C 
ATOM     54  C   UNL A   1      42.592  30.078  29.297  1.00  0.00     0.029 A 
ATOM     55  N   UNL A   1      44.121  28.537  28.890  1.00  0.00    -0.354 N 
ATOM     56  C   UNL A   1      42.669  24.575  27.160  1.00  0.00     0.074 A 
ATOM     57  C   UNL A   1      41.925  25.140  26.066  1.00  0.00     0.031 C 
ATOM     58  C   UNL A   1      43.799  30.686  29.375  1.00  0.00     0.029 A 
ATOM     59  C   UNL A   1      44.837  29.709  29.095  1.00  0.00     0.049 A 
ATOM     60  H   UNL A   1      44.554  27.657  28.796  1.00  0.00     0.167 HD
ATOM     61  C   UNL A   1      43.602  23.589  27.184  1.00  0.00     0.037 A 
ATOM     62  C   UNL A   1      46.182  29.840  28.955  1.00  0.00     0.037 A 
ATOM     63  C   UNL A   1      44.057  23.333  28.529  1.00  0.00     0.049 A 
ATOM     64  C   UNL A   1      46.769  28.475  29.043  1.00  0.00     0.074 A 
ATOM     65  C   UNL A   1      43.432  22.956  29.703  1.00  0.00     0.029 A 
ATOM     66  N   UNL A   1      45.274  23.850  28.906  1.00  0.00    -0.354 N 
ATOM     67  N   UNL A   1      46.786  27.767  30.138  1.00  0.00    -0.248 NA
ATOM     68  C   UNL A   1      46.887  27.711  27.807  1.00  0.00     0.031 C 
ATOM     69  C   UNL A   1      44.083  23.705  30.727  1.00  0.00     0.029 A 
ATOM     70  C   UNL A   1      45.112  24.438  30.135  1.00  0.00     0.049 A 
ATOM     71  H   UNL A   1      46.110  23.807  28.387  1.00  0.00     0.167 HD
ATOM     72  C   UNL A   1      46.477  26.477  29.732  1.00  0.00     0.074 A 
ATOM     73  C   UNL A   1      46.619  26.490  28.277  1.00  0.00     0.031 C 
ATOM     74  C   UNL A   1      45.848  25.602  30.571  1.00  0.00     0.037 A 
BRANCH  61  75
ATOM     75  C   UNL A   1      44.377  23.172  25.961  1.00  0.00     0.057 A 
ATOM     76  C   UNL A   1      44.479  21.807  25.654  1.00  0.00     0.134 A 
ATOM     77  C   UNL A   1      45.258  24.015  25.247  1.00  0.00     0.134 A 
ATOM     78  F   UNL A   1      43.708  20.903  26.280  1.00  0.00    -0.206 F 
ATOM     79  C   UNL A   1      45.435  21.311  24.761  1.00  0.00     0.040 A 
ATOM     80  C   UNL A   1      46.177  23.536  24.314  1.00  0.00     0.040 A 
ATOM     81  F   UNL A   1      45.359  25.329  25.481  1.00  0.00    -0.206 F 
ATOM     82  C   UNL A   1      46.291  22.176  24.092  1.00  0.00     0.006 A 
ENDBRANCH  61  75
BRANCH  62  83
ATOM     83  C   UNL A   1      46.940  30.989  28.407  1.00  0.00     0.057 A 
ATOM     84  C   UNL A   1      46.746  31.424  27.087  1.00  0.00     0.134 A 
ATOM     85  C   UNL A   1      47.658  31.864  29.242  1.00  0.00     0.134 A 
ATOM     86  F   UNL A   1      46.035  30.682  26.225  1.00  0.00    -0.206 F 
ATOM     87  C   UNL A   1      47.215  32.664  26.633  1.00  0.00     0.040 A 
ATOM     88  C   UNL A   1      48.137  33.102  28.798  1.00  0.00     0.040 A 
ATOM     89  F   UNL A   1      47.840  31.591  30.542  1.00  0.00    -0.206 F 
ATOM     90  C   UNL A   1      47.903  33.513  27.493  1.00  0.00     0.006 A 
ENDBRANCH  62  83
BRANCH  74  91
ATOM     91  C   UNL A   1      45.705  25.993  32.018  1.00  0.00     0.057 A 
ATOM     92  C   UNL A   1      46.708  25.820  32.985  1.00  0.00     0.134 A 
ATOM     93  C   UNL A   1      44.570  26.710  32.411  1.00  0.00     0.134 A 
ATOM     94  F   UNL A   1      47.873  25.236  32.678  1.00  0.00    -0.206 F 
ATOM     95  C   UNL A   1      46.567  26.301  34.291  1.00  0.00     0.040 A 
ATOM     96  C   UNL A   1      44.431  27.226  33.701  1.00  0.00     0.040 A 
ATOM     97  F   UNL A   1      43.593  26.965  31.526  1.00  0.00    -0.206 F 
ATOM     98  C   UNL A   1      45.427  27.013  34.650  1.00  0.00     0.006 A 
ENDBRANCH  74  91
ENDBRANCH  48  49
ENDBRANCH  41  43
ENDBRANCH  40  41
ENDBRANCH  39  40
ENDBRANCH  38  39
ENDBRANCH  37  38
ENDBRANCH  36  37
ENDBRANCH   1  36
TORSDOF 21
ENDMDL
MODEL 3
REMARK VINA RESULT:     -12.1      5.216     10.523
REMARK SMILES COc1ccc(-c2[nH]nc3nc(-c4ccc(C(F)(F)F)cc4)cc(C(=O)OCCOCCOCCOC(=O)c4ccc(-c5c6nc(c(-c7c(F)cccc7F)c7ccc([nH]7)c(-c7c(F)cccc7F)c7nc(c(-c8c(F)cccc8F)c8ccc5[nH]8)C=C7)C=C6)cc4)c23)cc1
REMARK SMILES IDX 31 1 30 2 29 3 28 4 27 5 25 6 26 7 24 8 7 9 8 10 93 11 9 12
REMARK SMILES IDX 10 14 11 15 23 16 12 17 6 18 3 19 4 20 95 21 5 22 94 23 2 24
REMARK SMILES IDX 1 25 13 26 14 27 22 28 15 29 21 30 16 31 17 32 18 33 19 34
REMARK SMILES IDX 20 35 32 36 33 37 34 38 35 39 36 40 37 41 38 42 39 43 40 44
REMARK SMILES IDX 92 45 41 46 91 47 42 48 43 49 44 50 85 51 45 52 90 53 84 54
REMARK SMILES IDX 86 55 46 56 89 57 83 58 82 59 47 61 73 62 56 63 72 64 57 65
REMARK SMILES IDX 60 66 71 67 87 68 58 69 59 70 70 72 88 73 61 74 48 75 49 76
REMARK SMILES IDX 54 77 50 78 51 79 53 80 55 81 52 82 74 83 75 84 80 85 76 86
REMARK SMILES IDX 77 87 79 88 81 89 78 90 62 91 63 92 68 93 64 94 65 95 67 96
REMARK SMILES IDX 69 97 66 98
REMARK H PARENT 8 13 86 60 60 71
REMARK Flexibility Score: inf
ROOT
ATOM      1  C   UNL A   1      33.883  31.413  27.648  1.00  0.00     0.188 C 
ENDROOT
BRANCH   1   2
ATOM      2  O   UNL A   1      34.990  30.539  27.499  1.00  0.00    -0.376 OA
BRANCH   2   3
ATOM      3  C   UNL A   1      34.658  29.144  27.612  1.00  0.00     0.202 C 
BRANCH   3   4
ATOM      4  C   UNL A   1      33.365  28.609  26.936  1.00  0.00     0.261 C 
BRANCH   4   5
ATOM      5  O   UNL A   1      33.527  27.566  25.944  1.00  0.00    -0.460 OA
BRANCH   5   6
ATOM      6  C   UNL A   1      32.848  26.397  26.097  1.00  0.00     0.339 C 
ATOM      7  O   UNL A   1      31.847  26.263  26.750  1.00  0.00    -0.246 OA
BRANCH   6   8
ATOM      8  C   UNL A   1      33.484  25.371  25.212  1.00  0.00     0.075 A 
ATOM      9  C   UNL A   1      32.009  25.427  23.147  1.00  0.00     0.075 A 
ATOM     10  N   UNL A   1      31.958  24.550  22.085  1.00  0.00    -0.275 N 
ATOM     11  C   UNL A   1      33.004  24.920  23.970  1.00  0.00     0.061 A 
ATOM     12  N   UNL A   1      32.952  23.655  22.052  1.00  0.00    -0.154 NA
ATOM     13  H   UNL A   1      31.246  24.579  21.405  1.00  0.00     0.190 HD
ATOM     14  C   UNL A   1      33.631  23.902  23.170  1.00  0.00     0.182 A 
ATOM     15  N   UNL A   1      34.798  23.311  23.515  1.00  0.00    -0.226 NA
ATOM     16  C   UNL A   1      34.726  24.758  25.511  1.00  0.00     0.045 A 
ATOM     17  C   UNL A   1      35.330  23.772  24.677  1.00  0.00     0.074 A 
BRANCH   9  18
ATOM     18  C   UNL A   1      31.247  26.666  23.087  1.00  0.00     0.001 A 
ATOM     19  C   UNL A   1      29.685  29.003  22.944  1.00  0.00     0.118 A 
ATOM     20  C   UNL A   1      31.042  29.025  22.605  1.00  0.00     0.047 A 
ATOM     21  C   UNL A   1      29.120  27.817  23.403  1.00  0.00     0.047 A 
ATOM     22  C   UNL A   1      31.825  27.868  22.687  1.00  0.00     0.014 A 
ATOM     23  C   UNL A   1      29.899  26.658  23.480  1.00  0.00     0.014 A 
BRANCH  19  24
ATOM     24  O   UNL A   1      29.032  30.192  22.771  1.00  0.00    -0.497 OA
ATOM     25  C   UNL A   1      27.611  30.148  22.726  1.00  0.00     0.278 C 
ENDBRANCH  19  24
ENDBRANCH   9  18
BRANCH  17  26
ATOM     26  C   UNL A   1      36.602  23.105  25.059  1.00  0.00     0.000 A 
ATOM     27  C   UNL A   1      36.886  21.774  24.690  1.00  0.00     0.011 A 
ATOM     28  C   UNL A   1      37.546  23.758  25.868  1.00  0.00     0.011 A 
ATOM     29  C   UNL A   1      38.053  21.124  25.124  1.00  0.00     0.014 A 
ATOM     30  C   UNL A   1      38.709  23.113  26.307  1.00  0.00     0.014 A 
ATOM     31  C   UNL A   1      38.973  21.787  25.947  1.00  0.00     0.056 A 
BRANCH  31  32
ATOM     32  C   UNL A   1      40.207  21.079  26.454  1.00  0.00     0.416 C 
ATOM     33  F   UNL A   1      40.472  21.356  27.761  1.00  0.00    -0.166 F 
ATOM     34  F   UNL A   1      40.110  19.723  26.369  1.00  0.00    -0.166 F 
ATOM     35  F   UNL A   1      41.340  21.411  25.770  1.00  0.00    -0.166 F 
ENDBRANCH  31  32
ENDBRANCH  17  26
ENDBRANCH   6   8
ENDBRANCH   5   6
ENDBRANCH   4   5
ENDBRANCH   3   4
ENDBRANCH   2   3
ENDBRANCH   1   2
BRANCH   1  36
ATOM     36  C   UNL A   1      34.157  32.883  27.863  1.00  0.00     0.188 C 
BRANCH  36  37
ATOM     37  O   UNL A   1      32.991  33.702  27.950  1.00  0.00    -0.376 OA
BRANCH  37  38
ATOM     38  C   UNL A   1      33.096  34.925  28.677  1.00  0.00     0.202 C 
BRANCH  38  39
ATOM     39  C   UNL A   1      33.977  34.906  29.923  1.00  0.00     0.261 C 
BRANCH  39  40
ATOM     40  O   UNL A   1      33.375  34.272  31.039  1.00  0.00    -0.460 OA
BRANCH  40  41
ATOM     41  C   UNL A   1      33.437  35.013  32.168  1.00  0.00     0.338 C 
ATOM     42  O   UNL A   1      32.808  36.023  32.436  1.00  0.00    -0.246 OA
BRANCH  41  43
ATOM     43  C   UNL A   1      34.496  34.482  33.030  1.00  0.00     0.060 A 
ATOM     44  C   UNL A   1      35.613  35.306  33.166  1.00  0.00     0.016 A 
ATOM     45  C   UNL A   1      34.550  33.093  33.207  1.00  0.00     0.016 A 
ATOM     46  C   UNL A   1      36.843  34.704  33.115  1.00  0.00     0.010 A 
ATOM     47  C   UNL A   1      35.779  32.494  33.139  1.00  0.00     0.010 A 
ATOM     48  C   UNL A   1      36.890  33.313  32.968  1.00  0.00    -0.014 A 
BRANCH  48  49
ATOM     49  C   UNL A   1      38.171  32.719  32.685  1.00  0.00     0.031 A 
ATOM     50  C   UNL A   1      39.065  32.773  33.853  1.00  0.00     0.074 A 
ATOM     51  C   UNL A   1      38.463  32.142  31.505  1.00  0.00     0.049 A 
ATOM     52  N   UNL A   1      40.101  33.525  34.006  1.00  0.00    -0.248 NA
ATOM     53  C   UNL A   1      38.629  32.077  35.073  1.00  0.00     0.031 C 
ATOM     54  C   UNL A   1      37.571  31.826  30.387  1.00  0.00     0.029 A 
ATOM     55  N   UNL A   1      39.654  31.634  31.097  1.00  0.00    -0.354 N 
ATOM     56  C   UNL A   1      40.582  33.222  35.270  1.00  0.00     0.074 A 
ATOM     57  C   UNL A   1      39.534  32.508  35.950  1.00  0.00     0.031 C 
ATOM     58  C   UNL A   1      38.205  30.982  29.537  1.00  0.00     0.029 A 
ATOM     59  C   UNL A   1      39.579  30.814  29.979  1.00  0.00     0.049 A 
ATOM     60  H   UNL A   1      40.503  31.832  31.557  1.00  0.00     0.167 HD
ATOM     61  C   UNL A   1      41.909  33.321  35.540  1.00  0.00     0.037 A 
ATOM     62  C   UNL A   1      40.575  30.007  29.530  1.00  0.00     0.037 A 
ATOM     63  C   UNL A   1      42.572  34.183  34.592  1.00  0.00     0.049 A 
ATOM     64  C   UNL A   1      41.849  30.517  30.109  1.00  0.00     0.074 A 
ATOM     65  C   UNL A   1      42.412  35.503  34.213  1.00  0.00     0.029 A 
ATOM     66  N   UNL A   1      43.298  33.593  33.584  1.00  0.00    -0.354 N 
ATOM     67  N   UNL A   1      42.390  31.653  29.768  1.00  0.00    -0.248 NA
ATOM     68  C   UNL A   1      42.251  30.002  31.411  1.00  0.00     0.031 C 
ATOM     69  C   UNL A   1      42.617  35.513  32.802  1.00  0.00     0.029 A 
ATOM     70  C   UNL A   1      42.960  34.218  32.410  1.00  0.00     0.049 A 
ATOM     71  H   UNL A   1      43.942  32.856  33.686  1.00  0.00     0.167 HD
ATOM     72  C   UNL A   1      42.843  32.202  30.960  1.00  0.00     0.074 A 
ATOM     73  C   UNL A   1      42.791  31.109  31.928  1.00  0.00     0.031 C 
ATOM     74  C   UNL A   1      42.931  33.555  31.127  1.00  0.00     0.037 A 
BRANCH  61  75
ATOM     75  C   UNL A   1      42.643  32.318  36.390  1.00  0.00     0.057 A 
ATOM     76  C   UNL A   1      43.475  32.782  37.421  1.00  0.00     0.134 A 
ATOM     77  C   UNL A   1      42.797  30.952  36.064  1.00  0.00     0.134 A 
ATOM     78  F   UNL A   1      43.436  34.065  37.810  1.00  0.00    -0.206 F 
ATOM     79  C   UNL A   1      44.438  31.968  38.027  1.00  0.00     0.040 A 
ATOM     80  C   UNL A   1      43.716  30.118  36.701  1.00  0.00     0.040 A 
ATOM     81  F   UNL A   1      42.151  30.369  35.047  1.00  0.00    -0.206 F 
ATOM     82  C   UNL A   1      44.564  30.633  37.663  1.00  0.00     0.006 A 
ENDBRANCH  61  75
BRANCH  62  83
ATOM     83  C   UNL A   1      40.464  28.651  28.943  1.00  0.00     0.057 A 
ATOM     84  C   UNL A   1      39.796  27.620  29.620  1.00  0.00     0.134 A 
ATOM     85  C   UNL A   1      40.757  28.408  27.590  1.00  0.00     0.134 A 
ATOM     86  F   UNL A   1      39.432  27.772  30.902  1.00  0.00    -0.206 F 
ATOM     87  C   UNL A   1      39.420  26.429  28.982  1.00  0.00     0.040 A 
ATOM     88  C   UNL A   1      40.392  27.221  26.943  1.00  0.00     0.040 A 
ATOM     89  F   UNL A   1      41.324  29.349  26.821  1.00  0.00    -0.206 F 
ATOM     90  C   UNL A   1      39.707  26.232  27.635  1.00  0.00     0.006 A 
ENDBRANCH  62  83
BRANCH  74  91
ATOM     91  C   UNL A   1      42.747  34.429  29.914  1.00  0.00     0.057 A 
ATOM     92  C   UNL A   1      41.503  34.883  29.451  1.00  0.00     0.134 A 
ATOM     93  C   UNL A   1      43.882  34.954  29.288  1.00  0.00     0.134 A 
ATOM     94  F   UNL A   1      40.363  34.516  30.051  1.00  0.00    -0.206 F 
ATOM     95  C   UNL A   1      41.394  35.783  28.386  1.00  0.00     0.040 A 
ATOM     96  C   UNL A   1      43.790  35.880  28.246  1.00  0.00     0.040 A 
ATOM     97  F   UNL A   1      45.109  34.611  29.713  1.00  0.00    -0.206 F 
ATOM     98  C   UNL A   1      42.542  36.290  27.784  1.00  0.00     0.006 A 
ENDBRANCH  74  91
ENDBRANCH  48  49
ENDBRANCH  41  43
ENDBRANCH  40  41
ENDBRANCH  39  40
ENDBRANCH  38  39
ENDBRANCH  37  38
ENDBRANCH  36  37
ENDBRANCH   1  36
TORSDOF 21
ENDMDL
