MODEL 1
REMARK VINA RESULT:     -10.3      0.000      0.000
REMARK SMILES COc1ccc(-c2noc(CC(=O)OCCOCCOCCOC(=O)c3ccc(-c4c5nc(c(-c6c(F)cccc6F)c6ccc([nH]6)c(-c6c(F)cccc6F)c6nc(c(-c7c(F)cccc7F)c7ccc4[nH]7)C=C6)C=C5)cc3)c2-c2ccc(OC)cc2)cc1
REMARK SMILES IDX 18 1 17 2 16 3 15 4 14 5 12 6 13 7 11 8 10 9 7 10 8 11 80 12
REMARK SMILES IDX 9 13 6 14 3 15 4 16 90 17 5 18 89 19 2 20 1 21 81 22 82 23
REMARK SMILES IDX 88 24 83 25 87 26 84 27 85 28 86 29 19 30 20 31 21 32 22 33
REMARK SMILES IDX 23 34 24 35 25 36 26 37 27 38 79 39 28 40 78 41 29 42 30 43
REMARK SMILES IDX 31 44 72 45 32 46 77 47 71 48 73 49 33 50 76 51 70 52 69 53
REMARK SMILES IDX 34 55 60 56 43 57 59 58 44 59 47 60 58 61 74 62 45 63 46 64
REMARK SMILES IDX 57 66 75 67 48 68 35 69 36 70 41 71 37 72 38 73 40 74 42 75
REMARK SMILES IDX 39 76 61 77 62 78 67 79 63 80 64 81 66 82 68 83 65 84 49 85
REMARK SMILES IDX 50 86 55 87 51 88 52 89 54 90 56 91 53 92
REMARK H PARENT 73 54 47 65
REMARK Flexibility Score: inf
ROOT
ATOM      1  C   UNL A   1      30.594  29.709  24.019  1.00  0.00     0.188 C 
ENDROOT
BRANCH   1   2
ATOM      2  O   UNL A   1      30.746  28.305  24.183  1.00  0.00    -0.376 OA
BRANCH   2   3
ATOM      3  C   UNL A   1      29.910  27.439  23.419  1.00  0.00     0.202 C 
BRANCH   3   4
ATOM      4  C   UNL A   1      29.734  26.002  23.935  1.00  0.00     0.261 C 
BRANCH   4   5
ATOM      5  O   UNL A   1      29.371  25.906  25.334  1.00  0.00    -0.463 OA
BRANCH   5   6
ATOM      6  C   UNL A   1      30.341  25.487  26.187  1.00  0.00     0.313 C 
ATOM      7  O   UNL A   1      30.993  26.250  26.897  1.00  0.00    -0.252 OA
BRANCH   6   8
ATOM      8  C   UNL A   1      30.439  23.984  26.374  1.00  0.00     0.201 C 
BRANCH   8   9
ATOM      9  C   UNL A   1      31.794  23.368  26.438  1.00  0.00     0.156 A 
ATOM     10  C   UNL A   1      33.927  22.713  26.449  1.00  0.00     0.122 A 
ATOM     11  N   UNL A   1      33.354  22.162  27.529  1.00  0.00    -0.079 NA
ATOM     12  C   UNL A   1      32.973  23.498  25.733  1.00  0.00     0.053 A 
ATOM     13  O   UNL A   1      32.057  22.625  27.552  1.00  0.00    -0.359 OA
BRANCH  10  14
ATOM     14  C   UNL A   1      35.350  22.543  26.175  1.00  0.00     0.005 A 
ATOM     15  C   UNL A   1      38.106  22.182  25.747  1.00  0.00     0.118 A 
ATOM     16  C   UNL A   1      37.604  23.429  26.126  1.00  0.00     0.047 A 
ATOM     17  C   UNL A   1      37.226  21.113  25.579  1.00  0.00     0.047 A 
ATOM     18  C   UNL A   1      36.232  23.617  26.324  1.00  0.00     0.014 A 
ATOM     19  C   UNL A   1      35.854  21.293  25.794  1.00  0.00     0.014 A 
BRANCH  15  20
ATOM     20  O   UNL A   1      39.465  22.112  25.621  1.00  0.00    -0.497 OA
ATOM     21  C   UNL A   1      40.169  21.631  26.761  1.00  0.00     0.278 C 
ENDBRANCH  15  20
ENDBRANCH  10  14
BRANCH  12  22
ATOM     22  C   UNL A   1      33.164  24.423  24.645  1.00  0.00    -0.012 A 
ATOM     23  C   UNL A   1      33.603  25.730  24.860  1.00  0.00     0.013 A 
ATOM     24  C   UNL A   1      32.832  24.007  23.351  1.00  0.00     0.013 A 
ATOM     25  C   UNL A   1      33.738  26.598  23.773  1.00  0.00     0.047 A 
ATOM     26  C   UNL A   1      32.980  24.867  22.270  1.00  0.00     0.047 A 
ATOM     27  C   UNL A   1      33.441  26.166  22.474  1.00  0.00     0.118 A 
BRANCH  27  28
ATOM     28  O   UNL A   1      33.625  27.098  21.489  1.00  0.00    -0.497 OA
ATOM     29  C   UNL A   1      34.040  28.390  21.925  1.00  0.00     0.278 C 
ENDBRANCH  27  28
ENDBRANCH  12  22
ENDBRANCH   8   9
ENDBRANCH   6   8
ENDBRANCH   5   6
ENDBRANCH   4   5
ENDBRANCH   3   4
ENDBRANCH   2   3
ENDBRANCH   1   2
BRANCH   1  30
ATOM     30  C   UNL A   1      31.031  30.636  25.158  1.00  0.00     0.188 C 
BRANCH  30  31
ATOM     31  O   UNL A   1      31.739  29.980  26.188  1.00  0.00    -0.376 OA
BRANCH  31  32
ATOM     32  C   UNL A   1      32.575  30.805  26.982  1.00  0.00     0.202 C 
BRANCH  32  33
ATOM     33  C   UNL A   1      31.929  32.184  27.154  1.00  0.00     0.261 C 
BRANCH  33  34
ATOM     34  O   UNL A   1      32.839  33.291  26.980  1.00  0.00    -0.460 OA
BRANCH  34  35
ATOM     35  C   UNL A   1      33.148  34.010  28.087  1.00  0.00     0.338 C 
ATOM     36  O   UNL A   1      32.459  34.868  28.614  1.00  0.00    -0.246 OA
BRANCH  35  37
ATOM     37  C   UNL A   1      34.366  33.411  28.690  1.00  0.00     0.060 A 
ATOM     38  C   UNL A   1      34.231  32.508  29.756  1.00  0.00     0.016 A 
ATOM     39  C   UNL A   1      35.629  33.684  28.164  1.00  0.00     0.016 A 
ATOM     40  C   UNL A   1      35.360  31.881  30.299  1.00  0.00     0.010 A 
ATOM     41  C   UNL A   1      36.759  33.075  28.724  1.00  0.00     0.010 A 
ATOM     42  C   UNL A   1      36.637  32.179  29.802  1.00  0.00    -0.014 A 
BRANCH  42  43
ATOM     43  C   UNL A   1      37.865  31.675  30.474  1.00  0.00     0.031 A 
ATOM     44  C   UNL A   1      38.677  30.608  29.790  1.00  0.00     0.074 A 
ATOM     45  C   UNL A   1      38.243  32.120  31.687  1.00  0.00     0.049 A 
ATOM     46  N   UNL A   1      39.695  29.918  30.239  1.00  0.00    -0.248 NA
ATOM     47  C   UNL A   1      38.281  30.272  28.414  1.00  0.00     0.031 C 
ATOM     48  C   UNL A   1      37.583  33.178  32.446  1.00  0.00     0.029 A 
ATOM     49  N   UNL A   1      39.272  31.711  32.504  1.00  0.00    -0.354 N 
ATOM     50  C   UNL A   1      40.055  29.061  29.208  1.00  0.00     0.074 A 
ATOM     51  C   UNL A   1      39.133  29.300  28.118  1.00  0.00     0.031 C 
ATOM     52  C   UNL A   1      38.207  33.319  33.630  1.00  0.00     0.029 A 
ATOM     53  C   UNL A   1      39.283  32.332  33.730  1.00  0.00     0.049 A 
ATOM     54  H   UNL A   1      39.937  31.036  32.235  1.00  0.00     0.167 HD
ATOM     55  C   UNL A   1      41.063  28.158  29.168  1.00  0.00     0.037 A 
ATOM     56  C   UNL A   1      40.044  32.105  34.820  1.00  0.00     0.037 A 
ATOM     57  C   UNL A   1      41.981  27.911  30.250  1.00  0.00     0.049 A 
ATOM     58  C   UNL A   1      41.093  31.019  34.789  1.00  0.00     0.074 A 
ATOM     59  C   UNL A   1      43.048  27.030  30.290  1.00  0.00     0.029 A 
ATOM     60  N   UNL A   1      41.934  28.536  31.485  1.00  0.00    -0.354 N 
ATOM     61  N   UNL A   1      41.444  30.233  33.801  1.00  0.00    -0.248 NA
ATOM     62  C   UNL A   1      41.847  30.786  36.032  1.00  0.00     0.031 C 
ATOM     63  C   UNL A   1      43.609  27.077  31.569  1.00  0.00     0.029 A 
ATOM     64  C   UNL A   1      42.929  28.031  32.308  1.00  0.00     0.049 A 
ATOM     65  H   UNL A   1      41.289  29.234  31.742  1.00  0.00     0.167 HD
ATOM     66  C   UNL A   1      42.471  29.434  34.293  1.00  0.00     0.074 A 
ATOM     67  C   UNL A   1      42.701  29.842  35.661  1.00  0.00     0.031 C 
ATOM     68  C   UNL A   1      43.159  28.447  33.668  1.00  0.00     0.037 A 
BRANCH  55  69
ATOM     69  C   UNL A   1      41.218  27.344  27.916  1.00  0.00     0.057 A 
ATOM     70  C   UNL A   1      40.520  26.146  27.722  1.00  0.00     0.134 A 
ATOM     71  C   UNL A   1      42.033  27.795  26.870  1.00  0.00     0.134 A 
ATOM     72  F   UNL A   1      39.731  25.653  28.688  1.00  0.00    -0.206 F 
ATOM     73  C   UNL A   1      40.643  25.414  26.538  1.00  0.00     0.040 A 
ATOM     74  C   UNL A   1      42.142  27.088  25.673  1.00  0.00     0.040 A 
ATOM     75  F   UNL A   1      42.723  28.940  26.989  1.00  0.00    -0.206 F 
ATOM     76  C   UNL A   1      41.448  25.891  25.506  1.00  0.00     0.006 A 
ENDBRANCH  55  69
BRANCH  56  77
ATOM     77  C   UNL A   1      39.827  32.887  36.067  1.00  0.00     0.057 A 
ATOM     78  C   UNL A   1      40.614  34.005  36.371  1.00  0.00     0.134 A 
ATOM     79  C   UNL A   1      38.867  32.504  37.012  1.00  0.00     0.134 A 
ATOM     80  F   UNL A   1      41.575  34.403  35.522  1.00  0.00    -0.206 F 
ATOM     81  C   UNL A   1      40.470  34.698  37.573  1.00  0.00     0.040 A 
ATOM     82  C   UNL A   1      38.691  33.206  38.205  1.00  0.00     0.040 A 
ATOM     83  F   UNL A   1      38.084  31.437  36.789  1.00  0.00    -0.206 F 
ATOM     84  C   UNL A   1      39.502  34.302  38.494  1.00  0.00     0.006 A 
ENDBRANCH  56  77
BRANCH  68  85
ATOM     85  C   UNL A   1      44.247  27.755  34.440  1.00  0.00     0.057 A 
ATOM     86  C   UNL A   1      44.008  26.581  35.166  1.00  0.00     0.134 A 
ATOM     87  C   UNL A   1      45.562  28.239  34.414  1.00  0.00     0.134 A 
ATOM     88  F   UNL A   1      42.770  26.069  35.244  1.00  0.00    -0.206 F 
ATOM     89  C   UNL A   1      45.032  25.927  35.855  1.00  0.00     0.040 A 
ATOM     90  C   UNL A   1      46.600  27.577  35.073  1.00  0.00     0.040 A 
ATOM     91  F   UNL A   1      45.865  29.352  33.730  1.00  0.00    -0.206 F 
ATOM     92  C   UNL A   1      46.334  26.420  35.802  1.00  0.00     0.006 A 
ENDBRANCH  68  85
ENDBRANCH  42  43
ENDBRANCH  35  37
ENDBRANCH  34  35
ENDBRANCH  33  34
ENDBRANCH  32  33
ENDBRANCH  31  32
ENDBRANCH  30  31
ENDBRANCH   1  30
TORSDOF 22
ENDMDL
MODEL 2
REMARK VINA RESULT:     -10.1      1.614      2.830
REMARK SMILES COc1ccc(-c2noc(CC(=O)OCCOCCOCCOC(=O)c3ccc(-c4c5nc(c(-c6c(F)cccc6F)c6ccc([nH]6)c(-c6c(F)cccc6F)c6nc(c(-c7c(F)cccc7F)c7ccc4[nH]7)C=C6)C=C5)cc3)c2-c2ccc(OC)cc2)cc1
REMARK SMILES IDX 18 1 17 2 16 3 15 4 14 5 12 6 13 7 11 8 10 9 7 10 8 11 80 12
REMARK SMILES IDX 9 13 6 14 3 15 4 16 90 17 5 18 89 19 2 20 1 21 81 22 82 23
REMARK SMILES IDX 88 24 83 25 87 26 84 27 85 28 86 29 19 30 20 31 21 32 22 33
REMARK SMILES IDX 23 34 24 35 25 36 26 37 27 38 79 39 28 40 78 41 29 42 30 43
REMARK SMILES IDX 31 44 72 45 32 46 77 47 71 48 73 49 33 50 76 51 70 52 69 53
REMARK SMILES IDX 34 55 60 56 43 57 59 58 44 59 47 60 58 61 74 62 45 63 46 64
REMARK SMILES IDX 57 66 75 67 48 68 35 69 36 70 41 71 37 72 38 73 40 74 42 75
REMARK SMILES IDX 39 76 61 77 62 78 67 79 63 80 64 81 66 82 68 83 65 84 49 85
REMARK SMILES IDX 50 86 55 87 51 88 52 89 54 90 56 91 53 92
REMARK H PARENT 73 54 47 65
REMARK Flexibility Score: inf
ROOT
ATOM      1  C   UNL A   1      33.492  27.914  23.060  1.00  0.00     0.188 C 
ENDROOT
BRANCH   1   2
ATOM      2  O   UNL A   1      32.583  26.893  22.669  1.00  0.00    -0.376 OA
BRANCH   2   3
ATOM      3  C   UNL A   1      31.197  27.216  22.587  1.00  0.00     0.202 C 
BRANCH   3   4
ATOM      4  C   UNL A   1      30.236  26.407  23.474  1.00  0.00     0.261 C 
BRANCH   4   5
ATOM      5  O   UNL A   1      30.429  26.597  24.897  1.00  0.00    -0.463 OA
BRANCH   5   6
ATOM      6  C   UNL A   1      30.353  25.487  25.675  1.00  0.00     0.313 C 
ATOM      7  O   UNL A   1      29.579  25.378  26.625  1.00  0.00    -0.252 OA
BRANCH   6   8
ATOM      8  C   UNL A   1      31.140  24.288  25.179  1.00  0.00     0.201 C 
BRANCH   8   9
ATOM      9  C   UNL A   1      32.596  24.223  25.485  1.00  0.00     0.156 A 
ATOM     10  C   UNL A   1      34.791  23.909  25.738  1.00  0.00     0.122 A 
ATOM     11  N   UNL A   1      34.590  25.234  25.771  1.00  0.00    -0.079 NA
ATOM     12  C   UNL A   1      33.551  23.228  25.547  1.00  0.00     0.053 A 
ATOM     13  O   UNL A   1      33.244  25.423  25.546  1.00  0.00    -0.359 OA
BRANCH  10  14
ATOM     14  C   UNL A   1      36.133  23.342  25.814  1.00  0.00     0.005 A 
ATOM     15  C   UNL A   1      38.744  22.300  25.868  1.00  0.00     0.118 A 
ATOM     16  C   UNL A   1      37.699  21.565  25.303  1.00  0.00     0.047 A 
ATOM     17  C   UNL A   1      38.483  23.558  26.408  1.00  0.00     0.047 A 
ATOM     18  C   UNL A   1      36.396  22.073  25.290  1.00  0.00     0.014 A 
ATOM     19  C   UNL A   1      37.182  24.078  26.380  1.00  0.00     0.014 A 
BRANCH  15  20
ATOM     20  O   UNL A   1      39.978  21.717  25.788  1.00  0.00    -0.497 OA
ATOM     21  C   UNL A   1      40.439  21.077  26.973  1.00  0.00     0.278 C 
ENDBRANCH  15  20
ENDBRANCH  10  14
BRANCH  12  22
ATOM     22  C   UNL A   1      33.290  21.842  25.251  1.00  0.00    -0.012 A 
ATOM     23  C   UNL A   1      33.306  20.863  26.245  1.00  0.00     0.013 A 
ATOM     24  C   UNL A   1      33.084  21.474  23.917  1.00  0.00     0.013 A 
ATOM     25  C   UNL A   1      33.081  19.528  25.898  1.00  0.00     0.047 A 
ATOM     26  C   UNL A   1      32.848  20.148  23.577  1.00  0.00     0.047 A 
ATOM     27  C   UNL A   1      32.837  19.167  24.567  1.00  0.00     0.118 A 
BRANCH  27  28
ATOM     28  O   UNL A   1      32.617  17.834  24.350  1.00  0.00    -0.497 OA
ATOM     29  C   UNL A   1      32.876  17.368  23.029  1.00  0.00     0.278 C 
ENDBRANCH  27  28
ENDBRANCH  12  22
ENDBRANCH   8   9
ENDBRANCH   6   8
ENDBRANCH   5   6
ENDBRANCH   4   5
ENDBRANCH   3   4
ENDBRANCH   2   3
ENDBRANCH   1   2
BRANCH   1  30
ATOM     30  C   UNL A   1      33.372  28.509  24.467  1.00  0.00     0.188 C 
BRANCH  30  31
ATOM     31  O   UNL A   1      32.744  29.773  24.500  1.00  0.00    -0.376 OA
BRANCH  31  32
ATOM     32  C   UNL A   1      31.486  29.818  25.152  1.00  0.00     0.202 C 
BRANCH  32  33
ATOM     33  C   UNL A   1      31.433  31.024  26.094  1.00  0.00     0.261 C 
BRANCH  33  34
ATOM     34  O   UNL A   1      32.425  31.003  27.143  1.00  0.00    -0.460 OA
BRANCH  34  35
ATOM     35  C   UNL A   1      33.143  32.136  27.330  1.00  0.00     0.338 C 
ATOM     36  O   UNL A   1      32.751  33.281  27.181  1.00  0.00    -0.246 OA
BRANCH  35  37
ATOM     37  C   UNL A   1      34.426  31.756  27.976  1.00  0.00     0.060 A 
ATOM     38  C   UNL A   1      34.622  30.426  28.383  1.00  0.00     0.016 A 
ATOM     39  C   UNL A   1      35.455  32.687  28.121  1.00  0.00     0.016 A 
ATOM     40  C   UNL A   1      35.846  30.030  28.936  1.00  0.00     0.010 A 
ATOM     41  C   UNL A   1      36.669  32.295  28.697  1.00  0.00     0.010 A 
ATOM     42  C   UNL A   1      36.872  30.968  29.120  1.00  0.00    -0.014 A 
BRANCH  42  43
ATOM     43  C   UNL A   1      38.110  30.623  29.871  1.00  0.00     0.031 A 
ATOM     44  C   UNL A   1      39.092  29.669  29.246  1.00  0.00     0.074 A 
ATOM     45  C   UNL A   1      38.352  31.112  31.102  1.00  0.00     0.049 A 
ATOM     46  N   UNL A   1      40.158  29.114  29.763  1.00  0.00    -0.248 NA
ATOM     47  C   UNL A   1      38.829  29.286  27.851  1.00  0.00     0.031 C 
ATOM     48  C   UNL A   1      37.516  32.077  31.811  1.00  0.00     0.029 A 
ATOM     49  N   UNL A   1      39.371  30.836  31.984  1.00  0.00    -0.354 N 
ATOM     50  C   UNL A   1      40.688  28.310  28.762  1.00  0.00     0.074 A 
ATOM     51  C   UNL A   1      39.813  28.431  27.616  1.00  0.00     0.031 C 
ATOM     52  C   UNL A   1      38.042  32.295  33.031  1.00  0.00     0.029 A 
ATOM     53  C   UNL A   1      39.225  31.452  33.204  1.00  0.00     0.049 A 
ATOM     54  H   UNL A   1      40.132  30.252  31.762  1.00  0.00     0.167 HD
ATOM     55  C   UNL A   1      41.803  27.543  28.792  1.00  0.00     0.037 A 
ATOM     56  C   UNL A   1      39.940  31.323  34.341  1.00  0.00     0.037 A 
ATOM     57  C   UNL A   1      42.675  27.413  29.930  1.00  0.00     0.049 A 
ATOM     58  C   UNL A   1      41.118  30.379  34.383  1.00  0.00     0.074 A 
ATOM     59  C   UNL A   1      43.841  26.674  30.043  1.00  0.00     0.029 A 
ATOM     60  N   UNL A   1      42.472  28.026  31.156  1.00  0.00    -0.354 N 
ATOM     61  N   UNL A   1      41.627  29.645  33.424  1.00  0.00    -0.248 NA
ATOM     62  C   UNL A   1      41.816  30.243  35.673  1.00  0.00     0.031 C 
ATOM     63  C   UNL A   1      44.310  26.792  31.354  1.00  0.00     0.029 A 
ATOM     64  C   UNL A   1      43.469  27.651  32.042  1.00  0.00     0.049 A 
ATOM     65  H   UNL A   1      41.729  28.636  31.367  1.00  0.00     0.167 HD
ATOM     66  C   UNL A   1      42.714  28.983  33.985  1.00  0.00     0.074 A 
ATOM     67  C   UNL A   1      42.805  29.416  35.362  1.00  0.00     0.031 C 
ATOM     68  C   UNL A   1      43.560  28.091  33.411  1.00  0.00     0.037 A 
BRANCH  55  69
ATOM     69  C   UNL A   1      42.138  26.756  27.558  1.00  0.00     0.057 A 
ATOM     70  C   UNL A   1      41.687  25.443  27.372  1.00  0.00     0.134 A 
ATOM     71  C   UNL A   1      42.873  27.340  26.519  1.00  0.00     0.134 A 
ATOM     72  F   UNL A   1      40.988  24.821  28.333  1.00  0.00    -0.206 F 
ATOM     73  C   UNL A   1      41.974  24.732  26.205  1.00  0.00     0.040 A 
ATOM     74  C   UNL A   1      43.141  26.650  25.337  1.00  0.00     0.040 A 
ATOM     75  F   UNL A   1      43.328  28.598  26.629  1.00  0.00    -0.206 F 
ATOM     76  C   UNL A   1      42.695  25.340  25.179  1.00  0.00     0.006 A 
ENDBRANCH  55  69
BRANCH  56  77
ATOM     77  C   UNL A   1      39.548  32.071  35.566  1.00  0.00     0.057 A 
ATOM     78  C   UNL A   1      38.598  31.559  36.458  1.00  0.00     0.134 A 
ATOM     79  C   UNL A   1      40.070  33.340  35.845  1.00  0.00     0.134 A 
ATOM     80  F   UNL A   1      38.034  30.363  36.229  1.00  0.00    -0.206 F 
ATOM     81  C   UNL A   1      38.167  32.287  37.568  1.00  0.00     0.040 A 
ATOM     82  C   UNL A   1      39.671  34.067  36.967  1.00  0.00     0.040 A 
ATOM     83  F   UNL A   1      40.978  33.894  35.027  1.00  0.00    -0.206 F 
ATOM     84  C   UNL A   1      38.708  33.545  37.828  1.00  0.00     0.006 A 
ENDBRANCH  56  77
BRANCH  68  85
ATOM     85  C   UNL A   1      44.676  27.543  34.255  1.00  0.00     0.057 A 
ATOM     86  C   UNL A   1      45.908  28.200  34.372  1.00  0.00     0.134 A 
ATOM     87  C   UNL A   1      44.498  26.371  35.002  1.00  0.00     0.134 A 
ATOM     88  F   UNL A   1      46.149  29.321  33.675  1.00  0.00    -0.206 F 
ATOM     89  C   UNL A   1      46.928  27.701  35.184  1.00  0.00     0.040 A 
ATOM     90  C   UNL A   1      45.501  25.878  35.840  1.00  0.00     0.040 A 
ATOM     91  F   UNL A   1      43.341  25.696  34.946  1.00  0.00    -0.206 F 
ATOM     92  C   UNL A   1      46.722  26.541  35.928  1.00  0.00     0.006 A 
ENDBRANCH  68  85
ENDBRANCH  42  43
ENDBRANCH  35  37
ENDBRANCH  34  35
ENDBRANCH  33  34
ENDBRANCH  32  33
ENDBRANCH  31  32
ENDBRANCH  30  31
ENDBRANCH   1  30
TORSDOF 22
ENDMDL
MODEL 3
REMARK VINA RESULT:     -10.0      2.144      6.737
REMARK SMILES COc1ccc(-c2noc(CC(=O)OCCOCCOCCOC(=O)c3ccc(-c4c5nc(c(-c6c(F)cccc6F)c6ccc([nH]6)c(-c6c(F)cccc6F)c6nc(c(-c7c(F)cccc7F)c7ccc4[nH]7)C=C6)C=C5)cc3)c2-c2ccc(OC)cc2)cc1
REMARK SMILES IDX 18 1 17 2 16 3 15 4 14 5 12 6 13 7 11 8 10 9 7 10 8 11 80 12
REMARK SMILES IDX 9 13 6 14 3 15 4 16 90 17 5 18 89 19 2 20 1 21 81 22 82 23
REMARK SMILES IDX 88 24 83 25 87 26 84 27 85 28 86 29 19 30 20 31 21 32 22 33
REMARK SMILES IDX 23 34 24 35 25 36 26 37 27 38 79 39 28 40 78 41 29 42 30 43
REMARK SMILES IDX 31 44 72 45 32 46 77 47 71 48 73 49 33 50 76 51 70 52 69 53
REMARK SMILES IDX 34 55 60 56 43 57 59 58 44 59 47 60 58 61 74 62 45 63 46 64
REMARK SMILES IDX 57 66 75 67 48 68 35 69 36 70 41 71 37 72 38 73 40 74 42 75
REMARK SMILES IDX 39 76 61 77 62 78 67 79 63 80 64 81 66 82 68 83 65 84 49 85
REMARK SMILES IDX 50 86 55 87 51 88 52 89 54 90 56 91 53 92
REMARK H PARENT 73 54 47 65
REMARK Flexibility Score: inf
ROOT
ATOM      1  C   UNL A   1      33.508  28.068  23.074  1.00  0.00     0.188 C 
ENDROOT
BRANCH   1   2
ATOM      2  O   UNL A   1      32.479  27.303  22.459  1.00  0.00    -0.376 OA
BRANCH   2   3
ATOM      3  C   UNL A   1      31.124  27.617  22.771  1.00  0.00     0.202 C 
BRANCH   3   4
ATOM      4  C   UNL A   1      30.299  26.530  23.480  1.00  0.00     0.261 C 
BRANCH   4   5
ATOM      5  O   UNL A   1      30.362  26.576  24.926  1.00  0.00    -0.463 OA
BRANCH   5   6
ATOM      6  C   UNL A   1      30.454  25.384  25.570  1.00  0.00     0.313 C 
ATOM      7  O   UNL A   1      29.820  25.115  26.589  1.00  0.00    -0.252 OA
BRANCH   6   8
ATOM      8  C   UNL A   1      31.234  24.307  24.840  1.00  0.00     0.201 C 
BRANCH   8   9
ATOM      9  C   UNL A   1      32.686  24.160  25.141  1.00  0.00     0.156 A 
ATOM     10  C   UNL A   1      34.856  23.710  25.401  1.00  0.00     0.122 A 
ATOM     11  N   UNL A   1      34.748  25.045  25.346  1.00  0.00    -0.079 NA
ATOM     12  C   UNL A   1      33.569  23.107  25.263  1.00  0.00     0.053 A 
ATOM     13  O   UNL A   1      33.417  25.313  25.117  1.00  0.00    -0.359 OA
BRANCH  10  14
ATOM     14  C   UNL A   1      36.156  23.056  25.507  1.00  0.00     0.005 A 
ATOM     15  C   UNL A   1      38.631  21.754  25.804  1.00  0.00     0.118 A 
ATOM     16  C   UNL A   1      38.466  23.072  26.238  1.00  0.00     0.047 A 
ATOM     17  C   UNL A   1      37.556  21.087  25.219  1.00  0.00     0.047 A 
ATOM     18  C   UNL A   1      37.241  23.728  26.077  1.00  0.00     0.014 A 
ATOM     19  C   UNL A   1      36.323  21.735  25.072  1.00  0.00     0.014 A 
BRANCH  15  20
ATOM     20  O   UNL A   1      39.859  21.207  26.049  1.00  0.00    -0.497 OA
ATOM     21  C   UNL A   1      39.973  19.808  25.814  1.00  0.00     0.278 C 
ENDBRANCH  15  20
ENDBRANCH  10  14
BRANCH  12  22
ATOM     22  C   UNL A   1      33.209  21.726  25.061  1.00  0.00    -0.012 A 
ATOM     23  C   UNL A   1      33.252  20.796  26.101  1.00  0.00     0.013 A 
ATOM     24  C   UNL A   1      32.876  21.307  23.769  1.00  0.00     0.013 A 
ATOM     25  C   UNL A   1      32.927  19.461  25.843  1.00  0.00     0.047 A 
ATOM     26  C   UNL A   1      32.540  19.982  23.518  1.00  0.00     0.047 A 
ATOM     27  C   UNL A   1      32.556  19.053  24.556  1.00  0.00     0.118 A 
BRANCH  27  28
ATOM     28  O   UNL A   1      32.246  17.727  24.428  1.00  0.00    -0.497 OA
ATOM     29  C   UNL A   1      32.895  16.845  25.339  1.00  0.00     0.278 C 
ENDBRANCH  27  28
ENDBRANCH  12  22
ENDBRANCH   8   9
ENDBRANCH   6   8
ENDBRANCH   5   6
ENDBRANCH   4   5
ENDBRANCH   3   4
ENDBRANCH   2   3
ENDBRANCH   1   2
BRANCH   1  30
ATOM     30  C   UNL A   1      33.392  28.394  24.567  1.00  0.00     0.188 C 
BRANCH  30  31
ATOM     31  O   UNL A   1      33.007  29.726  24.832  1.00  0.00    -0.376 OA
BRANCH  31  32
ATOM     32  C   UNL A   1      31.834  29.884  25.612  1.00  0.00     0.202 C 
BRANCH  32  33
ATOM     33  C   UNL A   1      32.050  30.982  26.658  1.00  0.00     0.261 C 
BRANCH  33  34
ATOM     34  O   UNL A   1      33.150  30.734  27.560  1.00  0.00    -0.460 OA
BRANCH  34  35
ATOM     35  C   UNL A   1      34.045  31.738  27.726  1.00  0.00     0.338 C 
ATOM     36  O   UNL A   1      33.815  32.935  27.677  1.00  0.00    -0.246 OA
BRANCH  35  37
ATOM     37  C   UNL A   1      35.313  31.137  28.213  1.00  0.00     0.060 A 
ATOM     38  C   UNL A   1      35.359  29.760  28.485  1.00  0.00     0.016 A 
ATOM     39  C   UNL A   1      36.467  31.911  28.338  1.00  0.00     0.016 A 
ATOM     40  C   UNL A   1      36.560  29.159  28.884  1.00  0.00     0.010 A 
ATOM     41  C   UNL A   1      37.660  31.313  28.761  1.00  0.00     0.010 A 
ATOM     42  C   UNL A   1      37.716  29.936  29.049  1.00  0.00    -0.014 A 
BRANCH  42  43
ATOM     43  C   UNL A   1      38.953  29.366  29.646  1.00  0.00     0.031 A 
ATOM     44  C   UNL A   1      39.487  29.969  30.918  1.00  0.00     0.074 A 
ATOM     45  C   UNL A   1      39.624  28.357  29.059  1.00  0.00     0.049 A 
ATOM     46  N   UNL A   1      40.615  29.739  31.541  1.00  0.00    -0.248 NA
ATOM     47  C   UNL A   1      38.631  30.971  31.570  1.00  0.00     0.031 C 
ATOM     48  C   UNL A   1      39.204  27.647  27.853  1.00  0.00     0.029 A 
ATOM     49  N   UNL A   1      40.822  27.770  29.395  1.00  0.00    -0.354 N 
ATOM     50  C   UNL A   1      40.609  30.572  32.651  1.00  0.00     0.074 A 
ATOM     51  C   UNL A   1      39.378  31.331  32.605  1.00  0.00     0.031 C 
ATOM     52  C   UNL A   1      40.143  26.737  27.535  1.00  0.00     0.029 A 
ATOM     53  C   UNL A   1      41.250  26.830  28.488  1.00  0.00     0.049 A 
ATOM     54  H   UNL A   1      41.327  28.004  30.208  1.00  0.00     0.167 HD
ATOM     55  C   UNL A   1      41.543  30.695  33.624  1.00  0.00     0.037 A 
ATOM     56  C   UNL A   1      42.413  26.151  28.413  1.00  0.00     0.037 A 
ATOM     57  C   UNL A   1      42.773  29.948  33.674  1.00  0.00     0.049 A 
ATOM     58  C   UNL A   1      43.484  26.383  29.451  1.00  0.00     0.074 A 
ATOM     59  C   UNL A   1      43.768  29.991  34.636  1.00  0.00     0.029 A 
ATOM     60  N   UNL A   1      43.182  29.033  32.718  1.00  0.00    -0.354 N 
ATOM     61  N   UNL A   1      43.460  27.152  30.512  1.00  0.00    -0.248 NA
ATOM     62  C   UNL A   1      44.751  25.653  29.275  1.00  0.00     0.031 C 
ATOM     63  C   UNL A   1      44.806  29.148  34.231  1.00  0.00     0.029 A 
ATOM     64  C   UNL A   1      44.432  28.533  33.047  1.00  0.00     0.049 A 
ATOM     65  H   UNL A   1      42.662  28.776  31.922  1.00  0.00     0.167 HD
ATOM     66  C   UNL A   1      44.690  26.980  31.139  1.00  0.00     0.074 A 
ATOM     67  C   UNL A   1      45.431  26.019  30.352  1.00  0.00     0.031 C 
ATOM     68  C   UNL A   1      45.164  27.570  32.264  1.00  0.00     0.037 A 
BRANCH  55  69
ATOM     69  C   UNL A   1      41.285  31.696  34.712  1.00  0.00     0.057 A 
ATOM     70  C   UNL A   1      41.772  33.008  34.642  1.00  0.00     0.134 A 
ATOM     71  C   UNL A   1      40.492  31.359  35.817  1.00  0.00     0.134 A 
ATOM     72  F   UNL A   1      42.546  33.392  33.617  1.00  0.00    -0.206 F 
ATOM     73  C   UNL A   1      41.496  33.942  35.642  1.00  0.00     0.040 A 
ATOM     74  C   UNL A   1      40.186  32.292  36.807  1.00  0.00     0.040 A 
ATOM     75  F   UNL A   1      39.988  30.122  35.941  1.00  0.00    -0.206 F 
ATOM     76  C   UNL A   1      40.693  33.587  36.724  1.00  0.00     0.006 A 
ENDBRANCH  55  69
BRANCH  56  77
ATOM     77  C   UNL A   1      42.664  25.209  27.289  1.00  0.00     0.057 A 
ATOM     78  C   UNL A   1      42.337  23.852  27.390  1.00  0.00     0.134 A 
ATOM     79  C   UNL A   1      43.289  25.631  26.109  1.00  0.00     0.134 A 
ATOM     80  F   UNL A   1      41.767  23.378  28.509  1.00  0.00    -0.206 F 
ATOM     81  C   UNL A   1      42.639  22.946  26.372  1.00  0.00     0.040 A 
ATOM     82  C   UNL A   1      43.571  24.743  25.070  1.00  0.00     0.040 A 
ATOM     83  F   UNL A   1      43.638  26.917  25.948  1.00  0.00    -0.206 F 
ATOM     84  C   UNL A   1      43.254  23.392  25.204  1.00  0.00     0.006 A 
ENDBRANCH  56  77
BRANCH  68  85
ATOM     85  C   UNL A   1      46.536  27.177  32.735  1.00  0.00     0.057 A 
ATOM     86  C   UNL A   1      47.681  27.892  32.361  1.00  0.00     0.134 A 
ATOM     87  C   UNL A   1      46.709  26.102  33.617  1.00  0.00     0.134 A 
ATOM     88  F   UNL A   1      47.589  28.926  31.509  1.00  0.00    -0.206 F 
ATOM     89  C   UNL A   1      48.948  27.540  32.829  1.00  0.00     0.040 A 
ATOM     90  C   UNL A   1      47.967  25.758  34.115  1.00  0.00     0.040 A 
ATOM     91  F   UNL A   1      45.655  25.379  34.025  1.00  0.00    -0.206 F 
ATOM     92  C   UNL A   1      49.093  26.475  33.716  1.00  0.00     0.006 A 
ENDBRANCH  68  85
ENDBRANCH  42  43
ENDBRANCH  35  37
ENDBRANCH  34  35
ENDBRANCH  33  34
ENDBRANCH  32  33
ENDBRANCH  31  32
ENDBRANCH  30  31
ENDBRANCH   1  30
TORSDOF 22
ENDMDL
