MODEL 1
REMARK VINA RESULT:     -10.9      0.000      0.000
REMARK SMILES O=C(CCN1C(=O)/C(=C/c2cc(Br)cc(Br)c2O)SC1=S)OCCOCCOCCOC(=O)c1ccc(-c2c3nc(c(-c4c(F)cccc4F)c4ccc([nH]4)c(-c4c(F)cccc4F)c4nc(c(-c5c(F)cccc5F)c5ccc2[nH]5)C=C4)C=C3)cc1
REMARK SMILES IDX 26 1 25 2 24 3 23 4 22 5 2 6 1 7 3 8 4 9 5 10 6 11 20 12
REMARK SMILES IDX 7 13 8 14 19 15 21 16 9 17 10 18 11 19 17 20 12 21 15 22
REMARK SMILES IDX 13 23 14 24 16 25 18 26 27 28 28 29 29 30 30 31 31 32 32 33
REMARK SMILES IDX 33 34 34 35 35 36 87 37 36 38 86 39 37 40 38 41 39 42 80 43
REMARK SMILES IDX 40 44 85 45 79 46 81 47 41 48 84 49 78 50 77 51 42 53 68 54
REMARK SMILES IDX 51 55 67 56 52 57 55 58 66 59 82 60 53 61 54 62 65 64 83 65
REMARK SMILES IDX 56 66 43 67 44 68 49 69 45 70 46 71 48 72 50 73 47 74 69 75
REMARK SMILES IDX 70 76 75 77 71 78 72 79 74 80 76 81 73 82 57 83 58 84 63 85
REMARK SMILES IDX 59 86 60 87 62 88 64 89 61 90
REMARK H PARENT 18 27 81 52 55 63
REMARK Flexibility Score: inf
ROOT
ATOM      1  C   UNL A   1      33.984  30.074  27.439  1.00  0.00     0.188 C 
ENDROOT
BRANCH   1   2
ATOM      2  O   UNL A   1      33.774  29.269  26.277  1.00  0.00    -0.376 OA
BRANCH   2   3
ATOM      3  C   UNL A   1      32.887  29.794  25.305  1.00  0.00     0.202 C 
BRANCH   3   4
ATOM      4  C   UNL A   1      31.548  29.071  25.227  1.00  0.00     0.261 C 
BRANCH   4   5
ATOM      5  O   UNL A   1      30.871  29.197  23.972  1.00  0.00    -0.463 OA
BRANCH   5   6
ATOM      6  C   UNL A   1      30.491  28.047  23.351  1.00  0.00     0.307 C 
ATOM      7  O   UNL A   1      30.107  28.047  22.187  1.00  0.00    -0.252 OA
BRANCH   6   8
ATOM      8  C   UNL A   1      30.368  26.824  24.234  1.00  0.00     0.144 C 
BRANCH   8   9
ATOM      9  C   UNL A   1      30.237  25.508  23.466  1.00  0.00     0.139 C 
BRANCH   9  10
ATOM     10  N   UNL A   1      31.458  24.692  23.535  1.00  0.00    -0.292 N 
ATOM     11  C   UNL A   1      31.642  23.857  24.622  1.00  0.00     0.266 C 
ATOM     12  C   UNL A   1      32.425  24.634  22.548  1.00  0.00     0.148 C 
ATOM     13  O   UNL A   1      30.919  23.783  25.606  1.00  0.00    -0.268 OA
ATOM     14  C   UNL A   1      32.761  22.910  24.362  1.00  0.00     0.081 C 
ATOM     15  S   UNL A   1      33.562  23.338  22.909  1.00  0.00    -0.054 SA
ATOM     16  S   UNL A   1      32.563  25.581  21.182  1.00  0.00    -0.052 S 
ATOM     17  C   UNL A   1      32.901  21.812  25.122  1.00  0.00     0.033 C 
BRANCH  17  18
ATOM     18  C   UNL A   1      33.785  20.653  24.897  1.00  0.00     0.020 A 
ATOM     19  C   UNL A   1      35.176  20.797  25.007  1.00  0.00     0.027 A 
ATOM     20  C   UNL A   1      33.263  19.372  24.625  1.00  0.00     0.137 A 
ATOM     21  C   UNL A   1      36.021  19.700  24.820  1.00  0.00     0.019 A 
ATOM     22  C   UNL A   1      34.122  18.274  24.462  1.00  0.00     0.061 A 
ATOM     23  Br  UNL A   1      37.892  19.937  24.938  1.00  0.00    -0.051 Br
ATOM     24  C   UNL A   1      35.502  18.438  24.554  1.00  0.00     0.035 A 
ATOM     25  Br  UNL A   1      33.454  16.529  24.119  1.00  0.00    -0.047 Br
BRANCH  20  26
ATOM     26  O   UNL A   1      31.915  19.145  24.496  1.00  0.00    -0.506 OA
ATOM     27  H   UNL A   1      31.303  19.816  24.727  1.00  0.00     0.293 HD
ENDBRANCH  20  26
ENDBRANCH  17  18
ENDBRANCH   9  10
ENDBRANCH   8   9
ENDBRANCH   6   8
ENDBRANCH   5   6
ENDBRANCH   4   5
ENDBRANCH   3   4
ENDBRANCH   2   3
ENDBRANCH   1   2
BRANCH   1  28
ATOM     28  C   UNL A   1      33.468  31.519  27.399  1.00  0.00     0.188 C 
BRANCH  28  29
ATOM     29  O   UNL A   1      34.358  32.572  27.755  1.00  0.00    -0.376 OA
BRANCH  29  30
ATOM     30  C   UNL A   1      33.857  33.714  28.440  1.00  0.00     0.202 C 
BRANCH  30  31
ATOM     31  C   UNL A   1      34.245  33.828  29.913  1.00  0.00     0.261 C 
BRANCH  31  32
ATOM     32  O   UNL A   1      34.411  32.538  30.521  1.00  0.00    -0.460 OA
BRANCH  32  33
ATOM     33  C   UNL A   1      35.320  32.465  31.520  1.00  0.00     0.338 C 
ATOM     34  O   UNL A   1      35.252  32.962  32.629  1.00  0.00    -0.246 OA
BRANCH  33  35
ATOM     35  C   UNL A   1      36.414  31.569  31.106  1.00  0.00     0.060 A 
ATOM     36  C   UNL A   1      37.217  30.982  32.094  1.00  0.00     0.016 A 
ATOM     37  C   UNL A   1      36.693  31.380  29.751  1.00  0.00     0.016 A 
ATOM     38  C   UNL A   1      38.344  30.247  31.726  1.00  0.00     0.010 A 
ATOM     39  C   UNL A   1      37.825  30.657  29.386  1.00  0.00     0.010 A 
ATOM     40  C   UNL A   1      38.677  30.126  30.372  1.00  0.00    -0.014 A 
BRANCH  40  41
ATOM     41  C   UNL A   1      40.004  29.627  29.952  1.00  0.00     0.031 A 
ATOM     42  C   UNL A   1      41.117  30.621  29.795  1.00  0.00     0.074 A 
ATOM     43  C   UNL A   1      40.186  28.337  29.627  1.00  0.00     0.049 A 
ATOM     44  N   UNL A   1      42.291  30.477  29.240  1.00  0.00    -0.248 NA
ATOM     45  C   UNL A   1      40.855  31.973  30.316  1.00  0.00     0.031 C 
ATOM     46  C   UNL A   1      39.186  27.284  29.762  1.00  0.00     0.029 A 
ATOM     47  N   UNL A   1      41.271  27.713  29.066  1.00  0.00    -0.354 N 
ATOM     48  C   UNL A   1      42.897  31.723  29.319  1.00  0.00     0.074 A 
ATOM     49  C   UNL A   1      41.957  32.616  29.961  1.00  0.00     0.031 C 
ATOM     50  C   UNL A   1      39.686  26.146  29.251  1.00  0.00     0.029 A 
ATOM     51  C   UNL A   1      41.023  26.409  28.718  1.00  0.00     0.049 A 
ATOM     52  H   UNL A   1      42.140  28.155  28.927  1.00  0.00     0.167 HD
ATOM     53  C   UNL A   1      44.126  32.092  28.886  1.00  0.00     0.037 A 
ATOM     54  C   UNL A   1      41.771  25.545  28.005  1.00  0.00     0.037 A 
ATOM     55  C   UNL A   1      45.050  31.197  28.242  1.00  0.00     0.049 A 
ATOM     56  C   UNL A   1      43.115  25.980  27.489  1.00  0.00     0.074 A 
ATOM     57  C   UNL A   1      46.335  31.452  27.800  1.00  0.00     0.029 A 
ATOM     58  N   UNL A   1      44.774  29.872  27.933  1.00  0.00    -0.354 N 
ATOM     59  N   UNL A   1      43.702  27.150  27.595  1.00  0.00    -0.248 NA
ATOM     60  C   UNL A   1      43.903  24.981  26.755  1.00  0.00     0.031 C 
ATOM     61  C   UNL A   1      46.818  30.297  27.177  1.00  0.00     0.029 A 
ATOM     62  C   UNL A   1      45.855  29.305  27.281  1.00  0.00     0.049 A 
ATOM     63  H   UNL A   1      43.935  29.405  28.147  1.00  0.00     0.167 HD
ATOM     64  C   UNL A   1      44.935  27.019  26.968  1.00  0.00     0.074 A 
ATOM     65  C   UNL A   1      45.013  25.656  26.484  1.00  0.00     0.031 C 
ATOM     66  C   UNL A   1      45.917  27.942  26.814  1.00  0.00     0.037 A 
BRANCH  53  67
ATOM     67  C   UNL A   1      44.511  33.532  29.057  1.00  0.00     0.057 A 
ATOM     68  C   UNL A   1      44.134  34.520  28.138  1.00  0.00     0.134 A 
ATOM     69  C   UNL A   1      45.282  33.935  30.156  1.00  0.00     0.134 A 
ATOM     70  F   UNL A   1      43.410  34.199  27.054  1.00  0.00    -0.206 F 
ATOM     71  C   UNL A   1      44.540  35.848  28.283  1.00  0.00     0.040 A 
ATOM     72  C   UNL A   1      45.669  35.264  30.328  1.00  0.00     0.040 A 
ATOM     73  F   UNL A   1      45.675  33.043  31.077  1.00  0.00    -0.206 F 
ATOM     74  C   UNL A   1      45.308  36.223  29.384  1.00  0.00     0.006 A 
ENDBRANCH  53  67
BRANCH  54  75
ATOM     75  C   UNL A   1      41.241  24.189  27.720  1.00  0.00     0.057 A 
ATOM     76  C   UNL A   1      40.259  23.985  26.747  1.00  0.00     0.134 A 
ATOM     77  C   UNL A   1      41.730  23.061  28.393  1.00  0.00     0.134 A 
ATOM     78  F   UNL A   1      39.738  25.029  26.084  1.00  0.00    -0.206 F 
ATOM     79  C   UNL A   1      39.779  22.708  26.451  1.00  0.00     0.040 A 
ATOM     80  C   UNL A   1      41.275  21.777  28.091  1.00  0.00     0.040 A 
ATOM     81  F   UNL A   1      42.676  23.191  29.334  1.00  0.00    -0.206 F 
ATOM     82  C   UNL A   1      40.293  21.598  27.118  1.00  0.00     0.006 A 
ENDBRANCH  54  75
BRANCH  66  83
ATOM     83  C   UNL A   1      47.180  27.505  26.132  1.00  0.00     0.057 A 
ATOM     84  C   UNL A   1      48.235  26.911  26.835  1.00  0.00     0.134 A 
ATOM     85  C   UNL A   1      47.307  27.614  24.741  1.00  0.00     0.134 A 
ATOM     86  F   UNL A   1      48.180  26.786  28.169  1.00  0.00    -0.206 F 
ATOM     87  C   UNL A   1      49.377  26.448  26.177  1.00  0.00     0.040 A 
ATOM     88  C   UNL A   1      48.432  27.133  24.071  1.00  0.00     0.040 A 
ATOM     89  F   UNL A   1      46.327  28.166  24.009  1.00  0.00    -0.206 F 
ATOM     90  C   UNL A   1      49.473  26.549  24.790  1.00  0.00     0.006 A 
ENDBRANCH  66  83
ENDBRANCH  40  41
ENDBRANCH  33  35
ENDBRANCH  32  33
ENDBRANCH  31  32
ENDBRANCH  30  31
ENDBRANCH  29  30
ENDBRANCH  28  29
ENDBRANCH   1  28
TORSDOF 21
ENDMDL
MODEL 2
REMARK VINA RESULT:     -10.6      4.707      6.927
REMARK SMILES O=C(CCN1C(=O)/C(=C/c2cc(Br)cc(Br)c2O)SC1=S)OCCOCCOCCOC(=O)c1ccc(-c2c3nc(c(-c4c(F)cccc4F)c4ccc([nH]4)c(-c4c(F)cccc4F)c4nc(c(-c5c(F)cccc5F)c5ccc2[nH]5)C=C4)C=C3)cc1
REMARK SMILES IDX 26 1 25 2 24 3 23 4 22 5 2 6 1 7 3 8 4 9 5 10 6 11 20 12
REMARK SMILES IDX 7 13 8 14 19 15 21 16 9 17 10 18 11 19 17 20 12 21 15 22
REMARK SMILES IDX 13 23 14 24 16 25 18 26 27 28 28 29 29 30 30 31 31 32 32 33
REMARK SMILES IDX 33 34 34 35 35 36 87 37 36 38 86 39 37 40 38 41 39 42 80 43
REMARK SMILES IDX 40 44 85 45 79 46 81 47 41 48 84 49 78 50 77 51 42 53 68 54
REMARK SMILES IDX 51 55 67 56 52 57 55 58 66 59 82 60 53 61 54 62 65 64 83 65
REMARK SMILES IDX 56 66 43 67 44 68 49 69 45 70 46 71 48 72 50 73 47 74 69 75
REMARK SMILES IDX 70 76 75 77 71 78 72 79 74 80 76 81 73 82 57 83 58 84 63 85
REMARK SMILES IDX 59 86 60 87 62 88 64 89 61 90
REMARK H PARENT 18 27 81 52 55 63
REMARK Flexibility Score: inf
ROOT
ATOM      1  C   UNL A   1      34.395  33.074  28.834  1.00  0.00     0.188 C 
ENDROOT
BRANCH   1   2
ATOM      2  O   UNL A   1      34.340  31.653  28.694  1.00  0.00    -0.376 OA
BRANCH   2   3
ATOM      3  C   UNL A   1      34.344  31.154  27.368  1.00  0.00     0.202 C 
BRANCH   3   4
ATOM      4  C   UNL A   1      33.197  30.200  27.057  1.00  0.00     0.261 C 
BRANCH   4   5
ATOM      5  O   UNL A   1      32.830  30.136  25.675  1.00  0.00    -0.463 OA
BRANCH   5   6
ATOM      6  C   UNL A   1      32.880  28.915  25.075  1.00  0.00     0.307 C 
ATOM      7  O   UNL A   1      33.007  27.887  25.730  1.00  0.00    -0.252 OA
BRANCH   6   8
ATOM      8  C   UNL A   1      32.986  28.920  23.565  1.00  0.00     0.144 C 
BRANCH   8   9
ATOM      9  C   UNL A   1      31.908  28.096  22.859  1.00  0.00     0.139 C 
BRANCH   9  10
ATOM     10  N   UNL A   1      32.049  26.653  23.109  1.00  0.00    -0.292 N 
ATOM     11  C   UNL A   1      33.144  25.989  22.587  1.00  0.00     0.266 C 
ATOM     12  C   UNL A   1      31.198  25.903  23.900  1.00  0.00     0.148 C 
ATOM     13  O   UNL A   1      33.991  26.467  21.845  1.00  0.00    -0.268 OA
ATOM     14  C   UNL A   1      33.265  24.635  23.194  1.00  0.00     0.081 C 
ATOM     15  S   UNL A   1      31.884  24.300  24.150  1.00  0.00    -0.054 SA
ATOM     16  S   UNL A   1      29.745  26.363  24.576  1.00  0.00    -0.052 S 
ATOM     17  C   UNL A   1      34.417  23.954  23.089  1.00  0.00     0.033 C 
BRANCH  17  18
ATOM     18  C   UNL A   1      34.815  22.721  23.794  1.00  0.00     0.020 A 
ATOM     19  C   UNL A   1      33.871  21.713  24.038  1.00  0.00     0.027 A 
ATOM     20  C   UNL A   1      36.151  22.498  24.187  1.00  0.00     0.137 A 
ATOM     21  C   UNL A   1      34.243  20.531  24.683  1.00  0.00     0.019 A 
ATOM     22  C   UNL A   1      36.516  21.297  24.815  1.00  0.00     0.061 A 
ATOM     23  Br  UNL A   1      32.938  19.209  25.029  1.00  0.00    -0.051 Br
ATOM     24  C   UNL A   1      35.562  20.314  25.068  1.00  0.00     0.035 A 
ATOM     25  Br  UNL A   1      38.310  20.951  25.336  1.00  0.00    -0.047 Br
BRANCH  20  26
ATOM     26  O   UNL A   1      37.135  23.434  23.991  1.00  0.00    -0.506 OA
ATOM     27  H   UNL A   1      37.611  23.452  23.184  1.00  0.00     0.293 HD
ENDBRANCH  20  26
ENDBRANCH  17  18
ENDBRANCH   9  10
ENDBRANCH   8   9
ENDBRANCH   6   8
ENDBRANCH   5   6
ENDBRANCH   4   5
ENDBRANCH   3   4
ENDBRANCH   2   3
ENDBRANCH   1   2
BRANCH   1  28
ATOM     28  C   UNL A   1      33.318  33.896  28.112  1.00  0.00     0.188 C 
BRANCH  28  29
ATOM     29  O   UNL A   1      32.661  34.937  28.827  1.00  0.00    -0.376 OA
BRANCH  29  30
ATOM     30  C   UNL A   1      33.189  36.258  28.788  1.00  0.00     0.202 C 
BRANCH  30  31
ATOM     31  C   UNL A   1      33.045  37.069  30.073  1.00  0.00     0.261 C 
BRANCH  31  32
ATOM     32  O   UNL A   1      32.239  36.388  31.046  1.00  0.00    -0.460 OA
BRANCH  32  33
ATOM     33  C   UNL A   1      32.742  36.331  32.300  1.00  0.00     0.338 C 
ATOM     34  O   UNL A   1      32.390  36.969  33.275  1.00  0.00    -0.246 OA
BRANCH  33  35
ATOM     35  C   UNL A   1      33.754  35.262  32.362  1.00  0.00     0.060 A 
ATOM     36  C   UNL A   1      33.430  34.062  33.010  1.00  0.00     0.016 A 
ATOM     37  C   UNL A   1      35.037  35.480  31.858  1.00  0.00     0.016 A 
ATOM     38  C   UNL A   1      34.414  33.093  33.208  1.00  0.00     0.010 A 
ATOM     39  C   UNL A   1      36.021  34.517  32.067  1.00  0.00     0.010 A 
ATOM     40  C   UNL A   1      35.723  33.341  32.780  1.00  0.00    -0.014 A 
BRANCH  40  41
ATOM     41  C   UNL A   1      36.848  32.494  33.229  1.00  0.00     0.031 A 
ATOM     42  C   UNL A   1      37.517  32.836  34.529  1.00  0.00     0.074 A 
ATOM     43  C   UNL A   1      37.323  31.507  32.454  1.00  0.00     0.049 A 
ATOM     44  N   UNL A   1      38.640  32.394  35.030  1.00  0.00    -0.248 NA
ATOM     45  C   UNL A   1      36.831  33.833  35.366  1.00  0.00     0.031 C 
ATOM     46  C   UNL A   1      36.740  31.074  31.188  1.00  0.00     0.029 A 
ATOM     47  N   UNL A   1      38.441  30.725  32.603  1.00  0.00    -0.354 N 
ATOM     48  C   UNL A   1      38.811  33.079  36.225  1.00  0.00     0.074 A 
ATOM     49  C   UNL A   1      37.685  33.977  36.368  1.00  0.00     0.031 C 
ATOM     50  C   UNL A   1      37.533  30.133  30.647  1.00  0.00     0.029 A 
ATOM     51  C   UNL A   1      38.696  29.933  31.512  1.00  0.00     0.049 A 
ATOM     52  H   UNL A   1      39.003  30.731  33.412  1.00  0.00     0.167 HD
ATOM     53  C   UNL A   1      39.823  32.975  37.119  1.00  0.00     0.037 A 
ATOM     54  C   UNL A   1      39.772  29.176  31.224  1.00  0.00     0.037 A 
ATOM     55  C   UNL A   1      40.941  32.085  36.962  1.00  0.00     0.049 A 
ATOM     56  C   UNL A   1      40.910  29.104  32.204  1.00  0.00     0.074 A 
ATOM     57  C   UNL A   1      42.001  31.867  37.824  1.00  0.00     0.029 A 
ATOM     58  N   UNL A   1      41.151  31.274  35.855  1.00  0.00    -0.354 N 
ATOM     59  N   UNL A   1      41.054  29.726  33.351  1.00  0.00    -0.248 NA
ATOM     60  C   UNL A   1      42.036  28.227  31.855  1.00  0.00     0.031 C 
ATOM     61  C   UNL A   1      42.878  30.964  37.215  1.00  0.00     0.029 A 
ATOM     62  C   UNL A   1      42.337  30.576  35.999  1.00  0.00     0.049 A 
ATOM     63  H   UNL A   1      40.545  31.205  35.082  1.00  0.00     0.167 HD
ATOM     64  C   UNL A   1      42.269  29.296  33.871  1.00  0.00     0.074 A 
ATOM     65  C   UNL A   1      42.823  28.360  32.914  1.00  0.00     0.031 C 
ATOM     66  C   UNL A   1      42.868  29.640  35.038  1.00  0.00     0.037 A 
BRANCH  53  67
ATOM     67  C   UNL A   1      39.779  33.882  38.314  1.00  0.00     0.057 A 
ATOM     68  C   UNL A   1      40.433  35.120  38.336  1.00  0.00     0.134 A 
ATOM     69  C   UNL A   1      39.078  33.502  39.467  1.00  0.00     0.134 A 
ATOM     70  F   UNL A   1      41.137  35.537  37.272  1.00  0.00    -0.206 F 
ATOM     71  C   UNL A   1      40.425  35.931  39.473  1.00  0.00     0.040 A 
ATOM     72  C   UNL A   1      39.038  34.317  40.598  1.00  0.00     0.040 A 
ATOM     73  F   UNL A   1      38.426  32.330  39.514  1.00  0.00    -0.206 F 
ATOM     74  C   UNL A   1      39.721  35.531  40.607  1.00  0.00     0.006 A 
ENDBRANCH  53  67
BRANCH  54  75
ATOM     75  C   UNL A   1      39.822  28.448  29.932  1.00  0.00     0.057 A 
ATOM     76  C   UNL A   1      40.485  28.984  28.825  1.00  0.00     0.134 A 
ATOM     77  C   UNL A   1      39.236  27.184  29.787  1.00  0.00     0.134 A 
ATOM     78  F   UNL A   1      41.048  30.199  28.898  1.00  0.00    -0.206 F 
ATOM     79  C   UNL A   1      40.565  28.291  27.616  1.00  0.00     0.040 A 
ATOM     80  C   UNL A   1      39.327  26.470  28.591  1.00  0.00     0.040 A 
ATOM     81  F   UNL A   1      38.590  26.615  30.814  1.00  0.00    -0.206 F 
ATOM     82  C   UNL A   1      39.992  27.025  27.499  1.00  0.00     0.006 A 
ENDBRANCH  54  75
BRANCH  66  83
ATOM     83  C   UNL A   1      44.169  28.974  35.374  1.00  0.00     0.057 A 
ATOM     84  C   UNL A   1      45.403  29.541  35.035  1.00  0.00     0.134 A 
ATOM     85  C   UNL A   1      44.184  27.784  36.114  1.00  0.00     0.134 A 
ATOM     86  F   UNL A   1      45.458  30.673  34.319  1.00  0.00    -0.206 F 
ATOM     87  C   UNL A   1      46.607  28.943  35.414  1.00  0.00     0.040 A 
ATOM     88  C   UNL A   1      45.380  27.190  36.519  1.00  0.00     0.040 A 
ATOM     89  F   UNL A   1      43.035  27.194  36.478  1.00  0.00    -0.206 F 
ATOM     90  C   UNL A   1      46.597  27.769  36.166  1.00  0.00     0.006 A 
ENDBRANCH  66  83
ENDBRANCH  40  41
ENDBRANCH  33  35
ENDBRANCH  32  33
ENDBRANCH  31  32
ENDBRANCH  30  31
ENDBRANCH  29  30
ENDBRANCH  28  29
ENDBRANCH   1  28
TORSDOF 21
ENDMDL
MODEL 3
REMARK VINA RESULT:     -10.4      4.627      6.718
REMARK SMILES O=C(CCN1C(=O)/C(=C/c2cc(Br)cc(Br)c2O)SC1=S)OCCOCCOCCOC(=O)c1ccc(-c2c3nc(c(-c4c(F)cccc4F)c4ccc([nH]4)c(-c4c(F)cccc4F)c4nc(c(-c5c(F)cccc5F)c5ccc2[nH]5)C=C4)C=C3)cc1
REMARK SMILES IDX 26 1 25 2 24 3 23 4 22 5 2 6 1 7 3 8 4 9 5 10 6 11 20 12
REMARK SMILES IDX 7 13 8 14 19 15 21 16 9 17 10 18 11 19 17 20 12 21 15 22
REMARK SMILES IDX 13 23 14 24 16 25 18 26 27 28 28 29 29 30 30 31 31 32 32 33
REMARK SMILES IDX 33 34 34 35 35 36 87 37 36 38 86 39 37 40 38 41 39 42 80 43
REMARK SMILES IDX 40 44 85 45 79 46 81 47 41 48 84 49 78 50 77 51 42 53 68 54
REMARK SMILES IDX 51 55 67 56 52 57 55 58 66 59 82 60 53 61 54 62 65 64 83 65
REMARK SMILES IDX 56 66 43 67 44 68 49 69 45 70 46 71 48 72 50 73 47 74 69 75
REMARK SMILES IDX 70 76 75 77 71 78 72 79 74 80 76 81 73 82 57 83 58 84 63 85
REMARK SMILES IDX 59 86 60 87 62 88 64 89 61 90
REMARK H PARENT 18 27 81 52 55 63
REMARK Flexibility Score: inf
ROOT
ATOM      1  C   UNL A   1      33.787  33.177  27.997  1.00  0.00     0.188 C 
ENDROOT
BRANCH   1   2
ATOM      2  O   UNL A   1      34.498  32.181  27.259  1.00  0.00    -0.376 OA
BRANCH   2   3
ATOM      3  C   UNL A   1      34.392  30.852  27.739  1.00  0.00     0.202 C 
BRANCH   3   4
ATOM      4  C   UNL A   1      33.005  30.240  27.580  1.00  0.00     0.261 C 
BRANCH   4   5
ATOM      5  O   UNL A   1      32.997  28.895  27.093  1.00  0.00    -0.463 OA
BRANCH   5   6
ATOM      6  C   UNL A   1      31.782  28.313  26.894  1.00  0.00     0.307 C 
ATOM      7  O   UNL A   1      31.138  27.847  27.827  1.00  0.00    -0.252 OA
BRANCH   6   8
ATOM      8  C   UNL A   1      31.381  28.085  25.452  1.00  0.00     0.144 C 
BRANCH   8   9
ATOM      9  C   UNL A   1      30.849  26.680  25.165  1.00  0.00     0.139 C 
BRANCH   9  10
ATOM     10  N   UNL A   1      31.926  25.711  24.915  1.00  0.00    -0.292 N 
ATOM     11  C   UNL A   1      32.225  24.778  25.892  1.00  0.00     0.266 C 
ATOM     12  C   UNL A   1      32.632  25.604  23.730  1.00  0.00     0.148 C 
ATOM     13  O   UNL A   1      31.734  24.724  27.011  1.00  0.00    -0.268 OA
ATOM     14  C   UNL A   1      33.111  23.717  25.340  1.00  0.00     0.081 C 
ATOM     15  S   UNL A   1      33.624  24.148  23.763  1.00  0.00    -0.054 SA
ATOM     16  S   UNL A   1      32.599  26.626  22.413  1.00  0.00    -0.052 S 
ATOM     17  C   UNL A   1      33.257  22.556  25.997  1.00  0.00     0.033 C 
BRANCH  17  18
ATOM     18  C   UNL A   1      33.895  21.313  25.524  1.00  0.00     0.020 A 
ATOM     19  C   UNL A   1      35.292  21.229  25.433  1.00  0.00     0.027 A 
ATOM     20  C   UNL A   1      33.132  20.170  25.209  1.00  0.00     0.137 A 
ATOM     21  C   UNL A   1      35.907  20.049  25.009  1.00  0.00     0.019 A 
ATOM     22  C   UNL A   1      33.764  18.983  24.805  1.00  0.00     0.061 A 
ATOM     23  Br  UNL A   1      37.790  19.982  24.861  1.00  0.00    -0.051 Br
ATOM     24  C   UNL A   1      35.152  18.923  24.700  1.00  0.00     0.035 A 
ATOM     25  Br  UNL A   1      32.772  17.416  24.396  1.00  0.00    -0.047 Br
BRANCH  20  26
ATOM     26  O   UNL A   1      31.761  20.168  25.267  1.00  0.00    -0.506 OA
ATOM     27  H   UNL A   1      31.322  20.546  26.003  1.00  0.00     0.293 HD
ENDBRANCH  20  26
ENDBRANCH  17  18
ENDBRANCH   9  10
ENDBRANCH   8   9
ENDBRANCH   6   8
ENDBRANCH   5   6
ENDBRANCH   4   5
ENDBRANCH   3   4
ENDBRANCH   2   3
ENDBRANCH   1   2
BRANCH   1  28
ATOM     28  C   UNL A   1      34.614  34.130  28.873  1.00  0.00     0.188 C 
BRANCH  28  29
ATOM     29  O   UNL A   1      34.444  35.533  28.702  1.00  0.00    -0.376 OA
BRANCH  29  30
ATOM     30  C   UNL A   1      33.149  36.106  28.840  1.00  0.00     0.202 C 
BRANCH  30  31
ATOM     31  C   UNL A   1      32.454  35.863  30.178  1.00  0.00     0.261 C 
BRANCH  31  32
ATOM     32  O   UNL A   1      32.796  36.867  31.146  1.00  0.00    -0.460 OA
BRANCH  32  33
ATOM     33  C   UNL A   1      32.944  36.438  32.420  1.00  0.00     0.338 C 
ATOM     34  O   UNL A   1      32.303  36.770  33.399  1.00  0.00    -0.246 OA
BRANCH  33  35
ATOM     35  C   UNL A   1      33.967  35.378  32.451  1.00  0.00     0.060 A 
ATOM     36  C   UNL A   1      33.623  34.121  32.966  1.00  0.00     0.016 A 
ATOM     37  C   UNL A   1      35.277  35.655  32.054  1.00  0.00     0.016 A 
ATOM     38  C   UNL A   1      34.607  33.148  33.139  1.00  0.00     0.010 A 
ATOM     39  C   UNL A   1      36.261  34.687  32.240  1.00  0.00     0.010 A 
ATOM     40  C   UNL A   1      35.937  33.448  32.823  1.00  0.00    -0.014 A 
BRANCH  40  41
ATOM     41  C   UNL A   1      37.044  32.575  33.267  1.00  0.00     0.031 A 
ATOM     42  C   UNL A   1      37.728  32.902  34.562  1.00  0.00     0.074 A 
ATOM     43  C   UNL A   1      37.492  31.576  32.489  1.00  0.00     0.049 A 
ATOM     44  N   UNL A   1      38.844  32.435  35.057  1.00  0.00    -0.248 NA
ATOM     45  C   UNL A   1      37.070  33.916  35.402  1.00  0.00     0.031 C 
ATOM     46  C   UNL A   1      36.892  31.156  31.227  1.00  0.00     0.029 A 
ATOM     47  N   UNL A   1      38.592  30.769  32.634  1.00  0.00    -0.354 N 
ATOM     48  C   UNL A   1      39.037  33.117  36.251  1.00  0.00     0.074 A 
ATOM     49  C   UNL A   1      37.933  34.041  36.399  1.00  0.00     0.031 C 
ATOM     50  C   UNL A   1      37.660  30.196  30.683  1.00  0.00     0.029 A 
ATOM     51  C   UNL A   1      38.822  29.970  31.542  1.00  0.00     0.049 A 
ATOM     52  H   UNL A   1      39.159  30.763  33.439  1.00  0.00     0.167 HD
ATOM     53  C   UNL A   1      40.051  32.990  37.139  1.00  0.00     0.037 A 
ATOM     54  C   UNL A   1      39.878  29.187  31.249  1.00  0.00     0.037 A 
ATOM     55  C   UNL A   1      41.148  32.074  36.977  1.00  0.00     0.049 A 
ATOM     56  C   UNL A   1      41.021  29.090  32.223  1.00  0.00     0.074 A 
ATOM     57  C   UNL A   1      42.206  31.833  37.833  1.00  0.00     0.029 A 
ATOM     58  N   UNL A   1      41.332  31.258  35.870  1.00  0.00    -0.354 N 
ATOM     59  N   UNL A   1      41.185  29.709  33.368  1.00  0.00    -0.248 NA
ATOM     60  C   UNL A   1      42.124  28.187  31.868  1.00  0.00     0.031 C 
ATOM     61  C   UNL A   1      43.059  30.909  37.220  1.00  0.00     0.029 A 
ATOM     62  C   UNL A   1      42.502  30.532  36.008  1.00  0.00     0.049 A 
ATOM     63  H   UNL A   1      40.720  31.202  35.100  1.00  0.00     0.167 HD
ATOM     64  C   UNL A   1      42.393  29.252  33.881  1.00  0.00     0.074 A 
ATOM     65  C   UNL A   1      42.919  28.302  32.923  1.00  0.00     0.031 C 
ATOM     66  C   UNL A   1      43.006  29.584  35.045  1.00  0.00     0.037 A 
BRANCH  53  67
ATOM     67  C   UNL A   1      40.035  33.899  38.334  1.00  0.00     0.057 A 
ATOM     68  C   UNL A   1      39.417  33.538  39.538  1.00  0.00     0.134 A 
ATOM     69  C   UNL A   1      40.638  35.162  38.272  1.00  0.00     0.134 A 
ATOM     70  F   UNL A   1      38.805  32.350  39.659  1.00  0.00    -0.206 F 
ATOM     71  C   UNL A   1      39.367  34.412  40.625  1.00  0.00     0.040 A 
ATOM     72  C   UNL A   1      40.621  36.034  39.361  1.00  0.00     0.040 A 
ATOM     73  F   UNL A   1      41.250  35.572  37.151  1.00  0.00    -0.206 F 
ATOM     74  C   UNL A   1      39.974  35.664  40.539  1.00  0.00     0.006 A 
ENDBRANCH  53  67
BRANCH  54  75
ATOM     75  C   UNL A   1      39.905  28.458  29.957  1.00  0.00     0.057 A 
ATOM     76  C   UNL A   1      40.604  28.959  28.856  1.00  0.00     0.134 A 
ATOM     77  C   UNL A   1      39.258  27.224  29.806  1.00  0.00     0.134 A 
ATOM     78  F   UNL A   1      41.226  30.145  28.935  1.00  0.00    -0.206 F 
ATOM     79  C   UNL A   1      40.660  28.262  27.648  1.00  0.00     0.040 A 
ATOM     80  C   UNL A   1      39.325  26.506  28.611  1.00  0.00     0.040 A 
ATOM     81  F   UNL A   1      38.574  26.688  30.828  1.00  0.00    -0.206 F 
ATOM     82  C   UNL A   1      40.026  27.027  27.526  1.00  0.00     0.006 A 
ENDBRANCH  54  75
BRANCH  66  83
ATOM     83  C   UNL A   1      44.293  28.887  35.375  1.00  0.00     0.057 A 
ATOM     84  C   UNL A   1      45.535  29.396  34.979  1.00  0.00     0.134 A 
ATOM     85  C   UNL A   1      44.289  27.729  36.165  1.00  0.00     0.134 A 
ATOM     86  F   UNL A   1      45.608  30.495  34.213  1.00  0.00    -0.206 F 
ATOM     87  C   UNL A   1      46.729  28.773  35.351  1.00  0.00     0.040 A 
ATOM     88  C   UNL A   1      45.475  27.112  36.562  1.00  0.00     0.040 A 
ATOM     89  F   UNL A   1      43.131  27.196  36.584  1.00  0.00    -0.206 F 
ATOM     90  C   UNL A   1      46.701  27.633  36.153  1.00  0.00     0.006 A 
ENDBRANCH  66  83
ENDBRANCH  40  41
ENDBRANCH  33  35
ENDBRANCH  32  33
ENDBRANCH  31  32
ENDBRANCH  30  31
ENDBRANCH  29  30
ENDBRANCH  28  29
ENDBRANCH   1  28
TORSDOF 21
ENDMDL
