MODEL 1
REMARK VINA RESULT:     -10.8      0.000      0.000
REMARK SMILES C[C@]1(C(=O)N2CCC(CC(=O)OCCOCCOCCOC(=O)c3ccc(-c4c5nc(c(-c6c(F)cccc6F)c6ccc([nH]6)c(-c6c(F)cccc6F)c6nc(c(-c7c(F)cccc7F)c7ccc4[nH]7)C=C6)C=C5)cc3)CC2)CCC[NH2+]1
REMARK SMILES IDX 16 1 15 2 14 3 13 4 12 5 10 6 11 7 9 8 8 9 3 10 4 11 5 12
REMARK SMILES IDX 6 13 79 14 7 15 78 16 2 17 1 18 80 19 83 20 81 21 82 22
REMARK SMILES IDX 17 25 18 26 19 27 20 28 21 29 22 30 23 31 24 32 25 33 77 34
REMARK SMILES IDX 26 35 76 36 27 37 28 38 29 39 70 40 30 41 75 42 69 43 71 44
REMARK SMILES IDX 31 45 74 46 68 47 67 48 32 50 58 51 41 52 57 53 42 54 45 55
REMARK SMILES IDX 56 56 72 57 43 58 44 59 55 61 73 62 46 63 33 64 34 65 39 66
REMARK SMILES IDX 35 67 36 68 38 69 40 70 37 71 59 72 60 73 65 74 61 75 62 76
REMARK SMILES IDX 64 77 66 78 63 79 47 80 48 81 53 82 49 83 50 84 52 85 54 86
REMARK SMILES IDX 51 87
REMARK H PARENT 83 23 83 24 71 49 45 60
REMARK Flexibility Score: inf
ROOT
ATOM      1  C   UNL A   1      41.023  20.553  26.903  1.00  0.00     0.188 C 
ENDROOT
BRANCH   1   2
ATOM      2  O   UNL A   1      39.962  21.059  26.099  1.00  0.00    -0.376 OA
BRANCH   2   3
ATOM      3  C   UNL A   1      39.493  22.370  26.420  1.00  0.00     0.202 C 
BRANCH   3   4
ATOM      4  C   UNL A   1      38.052  22.695  25.996  1.00  0.00     0.261 C 
BRANCH   4   5
ATOM      5  O   UNL A   1      37.662  22.088  24.745  1.00  0.00    -0.463 OA
BRANCH   5   6
ATOM      6  C   UNL A   1      36.712  21.120  24.814  1.00  0.00     0.306 C 
ATOM      7  O   UNL A   1      36.950  19.921  24.925  1.00  0.00    -0.252 OA
BRANCH   6   8
ATOM      8  C   UNL A   1      35.281  21.638  24.860  1.00  0.00     0.126 C 
BRANCH   8   9
ATOM      9  C   UNL A   1      34.850  22.863  24.034  1.00  0.00     0.003 C 
ATOM     10  C   UNL A   1      31.608  25.176  24.008  1.00  0.00     0.283 C 
ATOM     11  O   UNL A   1      30.853  24.221  24.219  1.00  0.00    -0.268 OA
ATOM     12  N   UNL A   1      32.894  24.957  23.530  1.00  0.00    -0.337 N 
ATOM     13  C   UNL A   1      33.090  23.896  22.564  1.00  0.00     0.120 C 
ATOM     14  C   UNL A   1      34.080  25.324  24.288  1.00  0.00     0.120 C 
ATOM     15  C   UNL A   1      33.557  22.617  23.243  1.00  0.00     0.026 C 
ATOM     16  C   UNL A   1      34.661  24.081  24.987  1.00  0.00     0.026 C 
BRANCH  10  17
ATOM     17  C   UNL A   1      31.114  26.648  24.167  1.00  0.00     0.173 C 
ATOM     18  C   UNL A   1      29.577  26.661  23.989  1.00  0.00     0.090 C 
ATOM     19  C   UNL A   1      31.518  27.280  25.495  1.00  0.00     0.084 C 
ATOM     20  N   UNL A   1      31.752  27.545  23.170  1.00  0.00    -0.334 N 
ATOM     21  C   UNL A   1      31.477  28.773  25.201  1.00  0.00     0.068 C 
ATOM     22  C   UNL A   1      31.829  28.889  23.726  1.00  0.00     0.261 C 
ATOM     23  H   UNL A   1      31.196  27.558  22.315  1.00  0.00     0.347 HD
ATOM     24  H   UNL A   1      32.690  27.207  22.950  1.00  0.00     0.347 HD
ENDBRANCH  10  17
ENDBRANCH   8   9
ENDBRANCH   6   8
ENDBRANCH   5   6
ENDBRANCH   4   5
ENDBRANCH   3   4
ENDBRANCH   2   3
ENDBRANCH   1   2
BRANCH   1  25
ATOM     25  C   UNL A   1      41.891  19.478  26.252  1.00  0.00     0.188 C 
BRANCH  25  26
ATOM     26  O   UNL A   1      42.849  19.937  25.312  1.00  0.00    -0.376 OA
BRANCH  26  27
ATOM     27  C   UNL A   1      43.673  21.037  25.709  1.00  0.00     0.202 C 
BRANCH  27  28
ATOM     28  C   UNL A   1      44.203  21.989  24.611  1.00  0.00     0.261 C 
BRANCH  28  29
ATOM     29  O   UNL A   1      43.632  23.317  24.574  1.00  0.00    -0.460 OA
BRANCH  29  30
ATOM     30  C   UNL A   1      44.390  24.343  25.022  1.00  0.00     0.338 C 
ATOM     31  O   UNL A   1      45.465  24.699  24.565  1.00  0.00    -0.246 OA
BRANCH  30  32
ATOM     32  C   UNL A   1      43.585  25.158  25.979  1.00  0.00     0.060 A 
ATOM     33  C   UNL A   1      43.945  26.502  26.154  1.00  0.00     0.016 A 
ATOM     34  C   UNL A   1      42.457  24.658  26.640  1.00  0.00     0.016 A 
ATOM     35  C   UNL A   1      43.222  27.327  27.020  1.00  0.00     0.010 A 
ATOM     36  C   UNL A   1      41.739  25.482  27.522  1.00  0.00     0.010 A 
ATOM     37  C   UNL A   1      42.142  26.811  27.749  1.00  0.00    -0.014 A 
BRANCH  37  38
ATOM     38  C   UNL A   1      41.601  27.594  28.896  1.00  0.00     0.031 A 
ATOM     39  C   UNL A   1      42.322  27.511  30.218  1.00  0.00     0.074 A 
ATOM     40  C   UNL A   1      40.546  28.420  28.771  1.00  0.00     0.049 A 
ATOM     41  N   UNL A   1      42.070  28.122  31.348  1.00  0.00    -0.248 NA
ATOM     42  C   UNL A   1      43.491  26.619  30.263  1.00  0.00     0.031 C 
ATOM     43  C   UNL A   1      39.776  28.641  27.550  1.00  0.00     0.029 A 
ATOM     44  N   UNL A   1      39.943  29.237  29.701  1.00  0.00    -0.354 N 
ATOM     45  C   UNL A   1      43.050  27.690  32.235  1.00  0.00     0.074 A 
ATOM     46  C   UNL A   1      43.870  26.733  31.526  1.00  0.00     0.031 C 
ATOM     47  C   UNL A   1      38.805  29.538  27.803  1.00  0.00     0.029 A 
ATOM     48  C   UNL A   1      38.866  29.936  29.210  1.00  0.00     0.049 A 
ATOM     49  H   UNL A   1      40.256  29.315  30.630  1.00  0.00     0.167 HD
ATOM     50  C   UNL A   1      43.262  28.064  33.520  1.00  0.00     0.037 A 
ATOM     51  C   UNL A   1      38.023  30.789  29.827  1.00  0.00     0.037 A 
ATOM     52  C   UNL A   1      42.445  29.004  34.242  1.00  0.00     0.049 A 
ATOM     53  C   UNL A   1      38.224  31.121  31.285  1.00  0.00     0.074 A 
ATOM     54  C   UNL A   1      42.584  29.441  35.549  1.00  0.00     0.029 A 
ATOM     55  N   UNL A   1      41.331  29.646  33.724  1.00  0.00    -0.354 N 
ATOM     56  N   UNL A   1      39.166  30.724  32.107  1.00  0.00    -0.248 NA
ATOM     57  C   UNL A   1      37.244  32.031  31.898  1.00  0.00     0.031 C 
ATOM     58  C   UNL A   1      41.521  30.304  35.838  1.00  0.00     0.029 A 
ATOM     59  C   UNL A   1      40.758  30.456  34.692  1.00  0.00     0.049 A 
ATOM     60  H   UNL A   1      40.995  29.540  32.805  1.00  0.00     0.167 HD
ATOM     61  C   UNL A   1      38.912  31.364  33.318  1.00  0.00     0.074 A 
ATOM     62  C   UNL A   1      37.739  32.186  33.117  1.00  0.00     0.031 C 
ATOM     63  C   UNL A   1      39.593  31.279  34.487  1.00  0.00     0.037 A 
BRANCH  50  64
ATOM     64  C   UNL A   1      44.417  27.423  34.236  1.00  0.00     0.057 A 
ATOM     65  C   UNL A   1      45.693  28.003  34.254  1.00  0.00     0.134 A 
ATOM     66  C   UNL A   1      44.248  26.214  34.924  1.00  0.00     0.134 A 
ATOM     67  F   UNL A   1      45.928  29.150  33.599  1.00  0.00    -0.206 F 
ATOM     68  C   UNL A   1      46.765  27.387  34.901  1.00  0.00     0.040 A 
ATOM     69  C   UNL A   1      45.305  25.606  35.601  1.00  0.00     0.040 A 
ATOM     70  F   UNL A   1      43.052  25.607  34.951  1.00  0.00    -0.206 F 
ATOM     71  C   UNL A   1      46.571  26.188  35.584  1.00  0.00     0.006 A 
ENDBRANCH  50  64
BRANCH  51  72
ATOM     72  C   UNL A   1      36.894  31.402  29.077  1.00  0.00     0.057 A 
ATOM     73  C   UNL A   1      36.940  32.737  28.654  1.00  0.00     0.134 A 
ATOM     74  C   UNL A   1      35.720  30.686  28.814  1.00  0.00     0.134 A 
ATOM     75  F   UNL A   1      38.023  33.486  28.905  1.00  0.00    -0.206 F 
ATOM     76  C   UNL A   1      35.856  33.342  28.016  1.00  0.00     0.040 A 
ATOM     77  C   UNL A   1      34.638  31.270  28.151  1.00  0.00     0.040 A 
ATOM     78  F   UNL A   1      35.606  29.407  29.200  1.00  0.00    -0.206 F 
ATOM     79  C   UNL A   1      34.701  32.605  27.758  1.00  0.00     0.006 A 
ENDBRANCH  51  72
BRANCH  63  80
ATOM     80  C   UNL A   1      39.116  32.135  35.630  1.00  0.00     0.057 A 
ATOM     81  C   UNL A   1      38.262  31.646  36.628  1.00  0.00     0.134 A 
ATOM     82  C   UNL A   1      39.528  33.472  35.737  1.00  0.00     0.134 A 
ATOM     83  F   UNL A   1      37.822  30.380  36.584  1.00  0.00    -0.206 F 
ATOM     84  C   UNL A   1      37.803  32.464  37.663  1.00  0.00     0.040 A 
ATOM     85  C   UNL A   1      39.103  34.288  36.786  1.00  0.00     0.040 A 
ATOM     86  F   UNL A   1      40.358  34.005  34.827  1.00  0.00    -0.206 F 
ATOM     87  C   UNL A   1      38.227  33.789  37.746  1.00  0.00     0.006 A 
ENDBRANCH  63  80
ENDBRANCH  37  38
ENDBRANCH  30  32
ENDBRANCH  29  30
ENDBRANCH  28  29
ENDBRANCH  27  28
ENDBRANCH  26  27
ENDBRANCH  25  26
ENDBRANCH   1  25
TORSDOF 19
ENDMDL
MODEL 2
REMARK VINA RESULT:     -10.4      4.872     10.335
REMARK SMILES C[C@]1(C(=O)N2CCC(CC(=O)OCCOCCOCCOC(=O)c3ccc(-c4c5nc(c(-c6c(F)cccc6F)c6ccc([nH]6)c(-c6c(F)cccc6F)c6nc(c(-c7c(F)cccc7F)c7ccc4[nH]7)C=C6)C=C5)cc3)CC2)CCC[NH2+]1
REMARK SMILES IDX 16 1 15 2 14 3 13 4 12 5 10 6 11 7 9 8 8 9 3 10 4 11 5 12
REMARK SMILES IDX 6 13 79 14 7 15 78 16 2 17 1 18 80 19 83 20 81 21 82 22
REMARK SMILES IDX 17 25 18 26 19 27 20 28 21 29 22 30 23 31 24 32 25 33 77 34
REMARK SMILES IDX 26 35 76 36 27 37 28 38 29 39 70 40 30 41 75 42 69 43 71 44
REMARK SMILES IDX 31 45 74 46 68 47 67 48 32 50 58 51 41 52 57 53 42 54 45 55
REMARK SMILES IDX 56 56 72 57 43 58 44 59 55 61 73 62 46 63 33 64 34 65 39 66
REMARK SMILES IDX 35 67 36 68 38 69 40 70 37 71 59 72 60 73 65 74 61 75 62 76
REMARK SMILES IDX 64 77 66 78 63 79 47 80 48 81 53 82 49 83 50 84 52 85 54 86
REMARK SMILES IDX 51 87
REMARK H PARENT 83 23 83 24 71 49 45 60
REMARK Flexibility Score: inf
ROOT
ATOM      1  C   UNL A   1      33.682  35.560  29.620  1.00  0.00     0.188 C 
ENDROOT
BRANCH   1   2
ATOM      2  O   UNL A   1      34.077  34.192  29.645  1.00  0.00    -0.376 OA
BRANCH   2   3
ATOM      3  C   UNL A   1      34.446  33.615  28.391  1.00  0.00     0.202 C 
BRANCH   3   4
ATOM      4  C   UNL A   1      33.709  32.327  27.996  1.00  0.00     0.261 C 
BRANCH   4   5
ATOM      5  O   UNL A   1      34.588  31.225  27.682  1.00  0.00    -0.463 OA
BRANCH   5   6
ATOM      6  C   UNL A   1      33.996  30.091  27.225  1.00  0.00     0.306 C 
ATOM      7  O   UNL A   1      34.572  29.018  27.080  1.00  0.00    -0.252 OA
BRANCH   6   8
ATOM      8  C   UNL A   1      32.495  30.207  26.999  1.00  0.00     0.126 C 
BRANCH   8   9
ATOM      9  C   UNL A   1      31.741  29.194  26.117  1.00  0.00     0.003 C 
ATOM     10  C   UNL A   1      32.802  25.866  24.208  1.00  0.00     0.283 C 
ATOM     11  O   UNL A   1      33.904  26.327  23.891  1.00  0.00    -0.268 OA
ATOM     12  N   UNL A   1      31.774  26.714  24.596  1.00  0.00    -0.337 N 
ATOM     13  C   UNL A   1      31.644  27.985  23.914  1.00  0.00     0.120 C 
ATOM     14  C   UNL A   1      31.189  26.670  25.928  1.00  0.00     0.120 C 
ATOM     15  C   UNL A   1      32.321  29.099  24.699  1.00  0.00     0.026 C 
ATOM     16  C   UNL A   1      31.781  27.793  26.799  1.00  0.00     0.026 C 
BRANCH  10  17
ATOM     17  C   UNL A   1      32.499  24.340  24.079  1.00  0.00     0.173 C 
ATOM     18  C   UNL A   1      31.090  24.181  23.458  1.00  0.00     0.090 C 
ATOM     19  C   UNL A   1      33.545  23.583  23.267  1.00  0.00     0.084 C 
ATOM     20  N   UNL A   1      32.555  23.662  25.399  1.00  0.00    -0.334 N 
ATOM     21  C   UNL A   1      33.397  22.148  23.753  1.00  0.00     0.068 C 
ATOM     22  C   UNL A   1      32.943  22.272  25.198  1.00  0.00     0.261 C 
ATOM     23  H   UNL A   1      31.639  23.702  25.845  1.00  0.00     0.347 HD
ATOM     24  H   UNL A   1      33.237  24.128  25.999  1.00  0.00     0.347 HD
ENDBRANCH  10  17
ENDBRANCH   8   9
ENDBRANCH   6   8
ENDBRANCH   5   6
ENDBRANCH   4   5
ENDBRANCH   3   4
ENDBRANCH   2   3
ENDBRANCH   1   2
BRANCH   1  25
ATOM     25  C   UNL A   1      32.847  36.030  30.809  1.00  0.00     0.188 C 
BRANCH  25  26
ATOM     26  O   UNL A   1      32.634  35.075  31.836  1.00  0.00    -0.376 OA
BRANCH  26  27
ATOM     27  C   UNL A   1      33.690  34.896  32.785  1.00  0.00     0.202 C 
BRANCH  27  28
ATOM     28  C   UNL A   1      34.029  33.456  33.239  1.00  0.00     0.261 C 
BRANCH  28  29
ATOM     29  O   UNL A   1      35.110  32.795  32.544  1.00  0.00    -0.460 OA
BRANCH  29  30
ATOM     30  C   UNL A   1      36.212  32.465  33.255  1.00  0.00     0.338 C 
ATOM     31  O   UNL A   1      36.337  32.541  34.467  1.00  0.00    -0.246 OA
BRANCH  30  32
ATOM     32  C   UNL A   1      37.158  31.727  32.368  1.00  0.00     0.060 A 
ATOM     33  C   UNL A   1      38.199  31.012  32.977  1.00  0.00     0.016 A 
ATOM     34  C   UNL A   1      37.003  31.662  30.978  1.00  0.00     0.016 A 
ATOM     35  C   UNL A   1      39.109  30.282  32.207  1.00  0.00     0.010 A 
ATOM     36  C   UNL A   1      37.926  30.942  30.203  1.00  0.00     0.010 A 
ATOM     37  C   UNL A   1      39.009  30.281  30.809  1.00  0.00    -0.014 A 
BRANCH  37  38
ATOM     38  C   UNL A   1      40.159  29.786  30.000  1.00  0.00     0.031 A 
ATOM     39  C   UNL A   1      41.307  30.729  29.742  1.00  0.00     0.074 A 
ATOM     40  C   UNL A   1      40.238  28.516  29.561  1.00  0.00     0.049 A 
ATOM     41  N   UNL A   1      42.429  30.525  29.101  1.00  0.00    -0.248 NA
ATOM     42  C   UNL A   1      41.164  32.088  30.289  1.00  0.00     0.031 C 
ATOM     43  C   UNL A   1      39.233  27.478  29.771  1.00  0.00     0.029 A 
ATOM     44  N   UNL A   1      41.229  27.884  28.844  1.00  0.00    -0.354 N 
ATOM     45  C   UNL A   1      43.127  31.726  29.171  1.00  0.00     0.074 A 
ATOM     46  C   UNL A   1      42.281  32.664  29.876  1.00  0.00     0.031 C 
ATOM     47  C   UNL A   1      39.659  26.336  29.199  1.00  0.00     0.029 A 
ATOM     48  C   UNL A   1      40.954  26.568  28.560  1.00  0.00     0.049 A 
ATOM     49  H   UNL A   1      42.058  28.334  28.563  1.00  0.00     0.167 HD
ATOM     50  C   UNL A   1      44.364  32.022  28.707  1.00  0.00     0.037 A 
ATOM     51  C   UNL A   1      41.662  25.660  27.857  1.00  0.00     0.037 A 
ATOM     52  C   UNL A   1      45.210  31.103  27.992  1.00  0.00     0.049 A 
ATOM     53  C   UNL A   1      43.000  26.040  27.270  1.00  0.00     0.074 A 
ATOM     54  C   UNL A   1      46.479  31.318  27.481  1.00  0.00     0.029 A 
ATOM     55  N   UNL A   1      44.870  29.797  27.677  1.00  0.00    -0.354 N 
ATOM     56  N   UNL A   1      43.658  27.171  27.362  1.00  0.00    -0.248 NA
ATOM     57  C   UNL A   1      43.696  25.007  26.487  1.00  0.00     0.031 C 
ATOM     58  C   UNL A   1      46.884  30.159  26.809  1.00  0.00     0.029 A 
ATOM     59  C   UNL A   1      45.894  29.201  26.957  1.00  0.00     0.049 A 
ATOM     60  H   UNL A   1      44.025  29.358  27.926  1.00  0.00     0.167 HD
ATOM     61  C   UNL A   1      44.857  26.972  26.682  1.00  0.00     0.074 A 
ATOM     62  C   UNL A   1      44.841  25.608  26.199  1.00  0.00     0.031 C 
ATOM     63  C   UNL A   1      45.879  27.841  26.482  1.00  0.00     0.037 A 
BRANCH  50  64
ATOM     64  C   UNL A   1      44.863  33.421  28.938  1.00  0.00     0.057 A 
ATOM     65  C   UNL A   1      44.683  34.439  27.991  1.00  0.00     0.134 A 
ATOM     66  C   UNL A   1      45.525  33.755  30.127  1.00  0.00     0.134 A 
ATOM     67  F   UNL A   1      44.075  34.181  26.823  1.00  0.00    -0.206 F 
ATOM     68  C   UNL A   1      45.171  35.729  28.205  1.00  0.00     0.040 A 
ATOM     69  C   UNL A   1      45.988  35.050  30.365  1.00  0.00     0.040 A 
ATOM     70  F   UNL A   1      45.727  32.831  31.078  1.00  0.00    -0.206 F 
ATOM     71  C   UNL A   1      45.820  36.039  29.398  1.00  0.00     0.006 A 
ENDBRANCH  50  64
BRANCH  51  72
ATOM     72  C   UNL A   1      41.130  24.285  27.656  1.00  0.00     0.057 A 
ATOM     73  C   UNL A   1      41.658  23.190  28.352  1.00  0.00     0.134 A 
ATOM     74  C   UNL A   1      40.119  24.025  26.723  1.00  0.00     0.134 A 
ATOM     75  F   UNL A   1      42.651  23.368  29.235  1.00  0.00    -0.206 F 
ATOM     76  C   UNL A   1      41.215  21.887  28.115  1.00  0.00     0.040 A 
ATOM     77  C   UNL A   1      39.647  22.731  26.496  1.00  0.00     0.040 A 
ATOM     78  F   UNL A   1      39.576  25.027  26.016  1.00  0.00    -0.206 F 
ATOM     79  C   UNL A   1      40.202  21.656  27.187  1.00  0.00     0.006 A 
ENDBRANCH  51  72
BRANCH  63  80
ATOM     80  C   UNL A   1      47.089  27.329  25.748  1.00  0.00     0.057 A 
ATOM     81  C   UNL A   1      47.266  27.517  24.371  1.00  0.00     0.134 A 
ATOM     82  C   UNL A   1      48.100  26.642  26.436  1.00  0.00     0.134 A 
ATOM     83  F   UNL A   1      46.334  28.158  23.647  1.00  0.00    -0.206 F 
ATOM     84  C   UNL A   1      48.380  27.007  23.699  1.00  0.00     0.040 A 
ATOM     85  C   UNL A   1      49.234  26.158  25.781  1.00  0.00     0.040 A 
ATOM     86  F   UNL A   1      48.007  26.438  27.759  1.00  0.00    -0.206 F 
ATOM     87  C   UNL A   1      49.369  26.328  24.406  1.00  0.00     0.006 A 
ENDBRANCH  63  80
ENDBRANCH  37  38
ENDBRANCH  30  32
ENDBRANCH  29  30
ENDBRANCH  28  29
ENDBRANCH  27  28
ENDBRANCH  26  27
ENDBRANCH  25  26
ENDBRANCH   1  25
TORSDOF 19
ENDMDL
MODEL 3
REMARK VINA RESULT:     -10.2      4.878     10.269
REMARK SMILES C[C@]1(C(=O)N2CCC(CC(=O)OCCOCCOCCOC(=O)c3ccc(-c4c5nc(c(-c6c(F)cccc6F)c6ccc([nH]6)c(-c6c(F)cccc6F)c6nc(c(-c7c(F)cccc7F)c7ccc4[nH]7)C=C6)C=C5)cc3)CC2)CCC[NH2+]1
REMARK SMILES IDX 16 1 15 2 14 3 13 4 12 5 10 6 11 7 9 8 8 9 3 10 4 11 5 12
REMARK SMILES IDX 6 13 79 14 7 15 78 16 2 17 1 18 80 19 83 20 81 21 82 22
REMARK SMILES IDX 17 25 18 26 19 27 20 28 21 29 22 30 23 31 24 32 25 33 77 34
REMARK SMILES IDX 26 35 76 36 27 37 28 38 29 39 70 40 30 41 75 42 69 43 71 44
REMARK SMILES IDX 31 45 74 46 68 47 67 48 32 50 58 51 41 52 57 53 42 54 45 55
REMARK SMILES IDX 56 56 72 57 43 58 44 59 55 61 73 62 46 63 33 64 34 65 39 66
REMARK SMILES IDX 35 67 36 68 38 69 40 70 37 71 59 72 60 73 65 74 61 75 62 76
REMARK SMILES IDX 64 77 66 78 63 79 47 80 48 81 53 82 49 83 50 84 52 85 54 86
REMARK SMILES IDX 51 87
REMARK H PARENT 83 23 83 24 71 49 45 60
REMARK Flexibility Score: inf
ROOT
ATOM      1  C   UNL A   1      34.796  34.774  28.584  1.00  0.00     0.188 C 
ENDROOT
BRANCH   1   2
ATOM      2  O   UNL A   1      34.512  33.775  27.610  1.00  0.00    -0.376 OA
BRANCH   2   3
ATOM      3  C   UNL A   1      34.864  32.434  27.956  1.00  0.00     0.202 C 
BRANCH   3   4
ATOM      4  C   UNL A   1      33.708  31.422  28.001  1.00  0.00     0.261 C 
BRANCH   4   5
ATOM      5  O   UNL A   1      33.873  30.308  27.096  1.00  0.00    -0.463 OA
BRANCH   5   6
ATOM      6  C   UNL A   1      32.735  29.691  26.685  1.00  0.00     0.306 C 
ATOM      7  O   UNL A   1      31.851  30.232  26.028  1.00  0.00    -0.252 OA
BRANCH   6   8
ATOM      8  C   UNL A   1      32.669  28.204  27.004  1.00  0.00     0.126 C 
BRANCH   8   9
ATOM      9  C   UNL A   1      32.557  27.153  25.885  1.00  0.00     0.003 C 
ATOM     10  C   UNL A   1      34.370  23.682  25.164  1.00  0.00     0.283 C 
ATOM     11  O   UNL A   1      35.459  24.097  25.574  1.00  0.00    -0.268 OA
ATOM     12  N   UNL A   1      33.371  24.577  24.804  1.00  0.00    -0.337 N 
ATOM     13  C   UNL A   1      33.761  25.802  24.138  1.00  0.00     0.120 C 
ATOM     14  C   UNL A   1      32.091  24.635  25.493  1.00  0.00     0.120 C 
ATOM     15  C   UNL A   1      33.878  26.950  25.130  1.00  0.00     0.026 C 
ATOM     16  C   UNL A   1      32.089  25.800  26.500  1.00  0.00     0.026 C 
BRANCH  10  17
ATOM     17  C   UNL A   1      34.120  22.158  24.934  1.00  0.00     0.173 C 
ATOM     18  C   UNL A   1      35.494  21.466  24.760  1.00  0.00     0.090 C 
ATOM     19  C   UNL A   1      33.314  21.504  26.052  1.00  0.00     0.084 C 
ATOM     20  N   UNL A   1      33.273  21.921  23.738  1.00  0.00    -0.334 N 
ATOM     21  C   UNL A   1      32.710  20.278  25.379  1.00  0.00     0.068 C 
ATOM     22  C   UNL A   1      32.528  20.683  23.926  1.00  0.00     0.261 C 
ATOM     23  H   UNL A   1      33.863  21.844  22.909  1.00  0.00     0.347 HD
ATOM     24  H   UNL A   1      32.625  22.699  23.613  1.00  0.00     0.347 HD
ENDBRANCH  10  17
ENDBRANCH   8   9
ENDBRANCH   6   8
ENDBRANCH   5   6
ENDBRANCH   4   5
ENDBRANCH   3   4
ENDBRANCH   2   3
ENDBRANCH   1   2
BRANCH   1  25
ATOM     25  C   UNL A   1      33.583  35.352  29.312  1.00  0.00     0.188 C 
BRANCH  25  26
ATOM     26  O   UNL A   1      33.276  34.770  30.569  1.00  0.00    -0.376 OA
BRANCH  26  27
ATOM     27  C   UNL A   1      34.320  34.037  31.217  1.00  0.00     0.202 C 
BRANCH  27  28
ATOM     28  C   UNL A   1      35.106  34.733  32.353  1.00  0.00     0.261 C 
BRANCH  28  29
ATOM     29  O   UNL A   1      36.442  34.245  32.610  1.00  0.00    -0.460 OA
BRANCH  29  30
ATOM     30  C   UNL A   1      36.573  33.003  33.128  1.00  0.00     0.338 C 
ATOM     31  O   UNL A   1      35.892  32.517  34.016  1.00  0.00    -0.246 OA
BRANCH  30  32
ATOM     32  C   UNL A   1      37.492  32.210  32.258  1.00  0.00     0.060 A 
ATOM     33  C   UNL A   1      38.540  31.516  32.879  1.00  0.00     0.016 A 
ATOM     34  C   UNL A   1      37.303  32.076  30.877  1.00  0.00     0.016 A 
ATOM     35  C   UNL A   1      39.425  30.739  32.127  1.00  0.00     0.010 A 
ATOM     36  C   UNL A   1      38.202  31.308  30.120  1.00  0.00     0.010 A 
ATOM     37  C   UNL A   1      39.293  30.667  30.734  1.00  0.00    -0.014 A 
BRANCH  37  38
ATOM     38  C   UNL A   1      40.419  30.120  29.926  1.00  0.00     0.031 A 
ATOM     39  C   UNL A   1      41.598  31.018  29.647  1.00  0.00     0.074 A 
ATOM     40  C   UNL A   1      40.450  28.841  29.506  1.00  0.00     0.049 A 
ATOM     41  N   UNL A   1      42.708  30.765  29.002  1.00  0.00    -0.248 NA
ATOM     42  C   UNL A   1      41.507  32.389  30.174  1.00  0.00     0.031 C 
ATOM     43  C   UNL A   1      39.410  27.843  29.738  1.00  0.00     0.029 A 
ATOM     44  N   UNL A   1      41.413  28.165  28.793  1.00  0.00    -0.354 N 
ATOM     45  C   UNL A   1      43.448  31.941  29.050  1.00  0.00     0.074 A 
ATOM     46  C   UNL A   1      42.641  32.919  29.746  1.00  0.00     0.031 C 
ATOM     47  C   UNL A   1      39.792  26.679  29.180  1.00  0.00     0.029 A 
ATOM     48  C   UNL A   1      41.091  26.855  28.530  1.00  0.00     0.049 A 
ATOM     49  H   UNL A   1      42.256  28.580  28.499  1.00  0.00     0.167 HD
ATOM     50  C   UNL A   1      44.693  32.186  28.574  1.00  0.00     0.037 A 
ATOM     51  C   UNL A   1      41.761  25.912  27.836  1.00  0.00     0.037 A 
ATOM     52  C   UNL A   1      45.501  31.227  27.868  1.00  0.00     0.049 A 
ATOM     53  C   UNL A   1      43.108  26.235  27.235  1.00  0.00     0.074 A 
ATOM     54  C   UNL A   1      46.773  31.389  27.346  1.00  0.00     0.029 A 
ATOM     55  N   UNL A   1      45.112  29.929  27.574  1.00  0.00    -0.354 N 
ATOM     56  N   UNL A   1      43.805  27.344  27.306  1.00  0.00    -0.248 NA
ATOM     57  C   UNL A   1      43.762  25.167  26.464  1.00  0.00     0.031 C 
ATOM     58  C   UNL A   1      47.132  30.207  26.689  1.00  0.00     0.029 A 
ATOM     59  C   UNL A   1      46.110  29.287  26.857  1.00  0.00     0.049 A 
ATOM     60  H   UNL A   1      44.254  29.524  27.835  1.00  0.00     0.167 HD
ATOM     61  C   UNL A   1      44.992  27.092  26.622  1.00  0.00     0.074 A 
ATOM     62  C   UNL A   1      44.925  25.723  26.160  1.00  0.00     0.031 C 
ATOM     63  C   UNL A   1      46.043  27.921  26.402  1.00  0.00     0.037 A 
BRANCH  50  64
ATOM     64  C   UNL A   1      45.242  33.570  28.781  1.00  0.00     0.057 A 
ATOM     65  C   UNL A   1      46.011  33.902  29.905  1.00  0.00     0.134 A 
ATOM     66  C   UNL A   1      45.006  34.579  27.838  1.00  0.00     0.134 A 
ATOM     67  F   UNL A   1      46.257  32.988  30.855  1.00  0.00    -0.206 F 
ATOM     68  C   UNL A   1      46.496  35.196  30.100  1.00  0.00     0.040 A 
ATOM     69  C   UNL A   1      45.515  35.868  28.008  1.00  0.00     0.040 A 
ATOM     70  F   UNL A   1      44.283  34.328  26.738  1.00  0.00    -0.206 F 
ATOM     71  C   UNL A   1      46.254  36.182  29.146  1.00  0.00     0.006 A 
ENDBRANCH  50  64
BRANCH  51  72
ATOM     72  C   UNL A   1      41.179  24.554  27.659  1.00  0.00     0.057 A 
ATOM     73  C   UNL A   1      41.666  23.453  28.376  1.00  0.00     0.134 A 
ATOM     74  C   UNL A   1      40.160  24.315  26.729  1.00  0.00     0.134 A 
ATOM     75  F   UNL A   1      42.665  23.611  29.256  1.00  0.00    -0.206 F 
ATOM     76  C   UNL A   1      41.177  22.163  28.161  1.00  0.00     0.040 A 
ATOM     77  C   UNL A   1      39.641  23.034  26.525  1.00  0.00     0.040 A 
ATOM     78  F   UNL A   1      39.654  25.323  26.004  1.00  0.00    -0.206 F 
ATOM     79  C   UNL A   1      40.156  21.952  27.236  1.00  0.00     0.006 A 
ENDBRANCH  51  72
BRANCH  63  80
ATOM     80  C   UNL A   1      47.229  27.355  25.669  1.00  0.00     0.057 A 
ATOM     81  C   UNL A   1      48.249  26.651  26.324  1.00  0.00     0.134 A 
ATOM     82  C   UNL A   1      47.348  27.511  24.280  1.00  0.00     0.134 A 
ATOM     83  F   UNL A   1      48.205  26.471  27.653  1.00  0.00    -0.206 F 
ATOM     84  C   UNL A   1      49.360  26.160  25.634  1.00  0.00     0.040 A 
ATOM     85  C   UNL A   1      48.437  26.996  23.575  1.00  0.00     0.040 A 
ATOM     86  F   UNL A   1      46.403  28.161  23.584  1.00  0.00    -0.206 F 
ATOM     87  C   UNL A   1      49.454  26.329  24.254  1.00  0.00     0.006 A 
ENDBRANCH  63  80
ENDBRANCH  37  38
ENDBRANCH  30  32
ENDBRANCH  29  30
ENDBRANCH  28  29
ENDBRANCH  27  28
ENDBRANCH  26  27
ENDBRANCH  25  26
ENDBRANCH   1  25
TORSDOF 19
ENDMDL
