MODEL 1
REMARK VINA RESULT:     -10.0      0.000      0.000
REMARK SMILES Cc1ncccc1NS(=O)(=O)[C@@H](C)C(=O)OCCOCCOCCOC(=O)c1ccc(-c2c3nc(c(-c4c(F)cccc4F)c4ccc([nH]4)c(-c4c(F)cccc4F)c4nc(c(-c5c(F)cccc5F)c5ccc2[nH]5)C=C4)C=C3)cc1
REMARK SMILES IDX 20 1 19 2 18 3 17 4 16 5 14 6 15 7 12 8 13 9 9 10 10 11
REMARK SMILES IDX 11 12 8 13 7 15 1 16 2 17 3 18 4 19 6 20 5 21 21 22 22 23
REMARK SMILES IDX 23 24 24 25 25 26 26 27 27 28 28 29 29 30 81 31 30 32 80 33
REMARK SMILES IDX 31 34 32 35 33 36 74 37 34 38 79 39 73 40 75 41 35 42 78 43
REMARK SMILES IDX 72 44 71 45 36 47 62 48 45 49 61 50 46 51 49 52 60 53 76 54
REMARK SMILES IDX 47 55 48 56 59 58 77 59 50 60 37 61 38 62 43 63 39 64 40 65
REMARK SMILES IDX 42 66 44 67 41 68 63 69 64 70 69 71 65 72 66 73 68 74 70 75
REMARK SMILES IDX 67 76 51 77 52 78 57 79 53 80 54 81 56 82 58 83 55 84
REMARK H PARENT 8 14 75 46 49 57
REMARK Flexibility Score: inf
ROOT
ATOM      1  C   UNL A   1      39.705  21.925  26.211  1.00  0.00     0.188 C 
ENDROOT
BRANCH   1   2
ATOM      2  O   UNL A   1      38.642  21.099  25.747  1.00  0.00    -0.376 OA
BRANCH   2   3
ATOM      3  C   UNL A   1      37.598  21.680  24.973  1.00  0.00     0.202 C 
BRANCH   3   4
ATOM      4  C   UNL A   1      36.452  22.374  25.722  1.00  0.00     0.261 C 
BRANCH   4   5
ATOM      5  O   UNL A   1      35.506  21.464  26.335  1.00  0.00    -0.462 OA
BRANCH   5   6
ATOM      6  C   UNL A   1      34.348  21.987  26.794  1.00  0.00     0.326 C 
ATOM      7  O   UNL A   1      34.106  22.065  27.998  1.00  0.00    -0.251 OA
BRANCH   6   8
ATOM      8  C   UNL A   1      33.410  22.598  25.780  1.00  0.00     0.235 C 
ATOM      9  C   UNL A   1      32.462  23.582  26.478  1.00  0.00     0.039 C 
BRANCH   8  10
ATOM     10  S   UNL A   1      32.457  21.563  24.645  1.00  0.00     0.246 S 
ATOM     11  O   UNL A   1      32.302  22.348  23.431  1.00  0.00    -0.206 OA
ATOM     12  O   UNL A   1      31.265  21.084  25.318  1.00  0.00    -0.206 OA
BRANCH  10  13
ATOM     13  N   UNL A   1      33.301  20.242  24.166  1.00  0.00    -0.281 N 
ATOM     14  H   UNL A   1      34.153  20.408  23.700  1.00  0.00     0.180 HD
BRANCH  13  15
ATOM     15  C   UNL A   1      32.929  18.879  24.354  1.00  0.00     0.070 A 
ATOM     16  C   UNL A   1      32.533  18.483  21.871  1.00  0.00     0.069 C 
ATOM     17  C   UNL A   1      32.863  18.008  23.258  1.00  0.00     0.061 A 
ATOM     18  N   UNL A   1      32.963  16.658  23.391  1.00  0.00    -0.259 NA
ATOM     19  C   UNL A   1      33.098  16.160  24.637  1.00  0.00     0.111 A 
ATOM     20  C   UNL A   1      32.902  18.308  25.625  1.00  0.00     0.030 A 
ATOM     21  C   UNL A   1      33.030  16.934  25.776  1.00  0.00     0.022 A 
ENDBRANCH  13  15
ENDBRANCH  10  13
ENDBRANCH   8  10
ENDBRANCH   6   8
ENDBRANCH   5   6
ENDBRANCH   4   5
ENDBRANCH   3   4
ENDBRANCH   2   3
ENDBRANCH   1   2
BRANCH   1  22
ATOM     22  C   UNL A   1      40.595  21.423  27.362  1.00  0.00     0.188 C 
BRANCH  22  23
ATOM     23  O   UNL A   1      41.693  20.629  26.970  1.00  0.00    -0.376 OA
BRANCH  23  24
ATOM     24  C   UNL A   1      42.327  20.967  25.746  1.00  0.00     0.202 C 
BRANCH  24  25
ATOM     25  C   UNL A   1      43.830  21.305  25.756  1.00  0.00     0.261 C 
BRANCH  25  26
ATOM     26  O   UNL A   1      44.208  22.550  26.372  1.00  0.00    -0.460 OA
BRANCH  26  27
ATOM     27  C   UNL A   1      44.066  23.686  25.644  1.00  0.00     0.338 C 
ATOM     28  O   UNL A   1      44.226  23.811  24.449  1.00  0.00    -0.246 OA
BRANCH  27  29
ATOM     29  C   UNL A   1      43.432  24.694  26.534  1.00  0.00     0.060 A 
ATOM     30  C   UNL A   1      43.909  26.014  26.532  1.00  0.00     0.016 A 
ATOM     31  C   UNL A   1      42.338  24.348  27.328  1.00  0.00     0.016 A 
ATOM     32  C   UNL A   1      43.305  26.983  27.339  1.00  0.00     0.010 A 
ATOM     33  C   UNL A   1      41.751  25.311  28.154  1.00  0.00     0.010 A 
ATOM     34  C   UNL A   1      42.247  26.628  28.186  1.00  0.00    -0.014 A 
BRANCH  34  35
ATOM     35  C   UNL A   1      41.791  27.556  29.251  1.00  0.00     0.031 A 
ATOM     36  C   UNL A   1      42.507  27.523  30.575  1.00  0.00     0.074 A 
ATOM     37  C   UNL A   1      40.765  28.408  29.067  1.00  0.00     0.049 A 
ATOM     38  N   UNL A   1      42.240  28.160  31.686  1.00  0.00    -0.248 NA
ATOM     39  C   UNL A   1      43.684  26.642  30.654  1.00  0.00     0.031 C 
ATOM     40  C   UNL A   1      40.013  28.576  27.827  1.00  0.00     0.029 A 
ATOM     41  N   UNL A   1      40.170  29.284  29.943  1.00  0.00    -0.354 N 
ATOM     42  C   UNL A   1      43.207  27.750  32.595  1.00  0.00     0.074 A 
ATOM     43  C   UNL A   1      44.046  26.786  31.918  1.00  0.00     0.031 C 
ATOM     44  C   UNL A   1      39.045  29.489  28.025  1.00  0.00     0.029 A 
ATOM     45  C   UNL A   1      39.085  29.940  29.416  1.00  0.00     0.049 A 
ATOM     46  H   UNL A   1      40.491  29.426  30.863  1.00  0.00     0.167 HD
ATOM     47  C   UNL A   1      43.388  28.147  33.877  1.00  0.00     0.037 A 
ATOM     48  C   UNL A   1      38.210  30.786  29.999  1.00  0.00     0.037 A 
ATOM     49  C   UNL A   1      42.551  29.101  34.555  1.00  0.00     0.049 A 
ATOM     50  C   UNL A   1      38.376  31.143  31.455  1.00  0.00     0.074 A 
ATOM     51  C   UNL A   1      42.661  29.576  35.851  1.00  0.00     0.029 A 
ATOM     52  N   UNL A   1      41.444  29.720  33.995  1.00  0.00    -0.354 N 
ATOM     53  N   UNL A   1      39.306  30.769  32.301  1.00  0.00    -0.248 NA
ATOM     54  C   UNL A   1      37.368  32.043  32.038  1.00  0.00     0.031 C 
ATOM     55  C   UNL A   1      41.587  30.437  36.094  1.00  0.00     0.029 A 
ATOM     56  C   UNL A   1      40.845  30.550  34.929  1.00  0.00     0.049 A 
ATOM     57  H   UNL A   1      41.130  29.588  33.072  1.00  0.00     0.167 HD
ATOM     58  C   UNL A   1      39.016  31.414  33.500  1.00  0.00     0.074 A 
ATOM     59  C   UNL A   1      37.832  32.211  33.268  1.00  0.00     0.031 C 
ATOM     60  C   UNL A   1      39.673  31.351  34.685  1.00  0.00     0.037 A 
BRANCH  47  61
ATOM     61  C   UNL A   1      44.522  27.524  34.638  1.00  0.00     0.057 A 
ATOM     62  C   UNL A   1      44.368  26.330  35.356  1.00  0.00     0.134 A 
ATOM     63  C   UNL A   1      45.793  28.112  34.629  1.00  0.00     0.134 A 
ATOM     64  F   UNL A   1      43.173  25.724  35.419  1.00  0.00    -0.206 F 
ATOM     65  C   UNL A   1      45.430  25.759  36.058  1.00  0.00     0.040 A 
ATOM     66  C   UNL A   1      46.870  27.533  35.302  1.00  0.00     0.040 A 
ATOM     67  F   UNL A   1      46.012  29.253  33.960  1.00  0.00    -0.206 F 
ATOM     68  C   UNL A   1      46.688  26.357  36.025  1.00  0.00     0.006 A 
ENDBRANCH  47  61
BRANCH  48  69
ATOM     69  C   UNL A   1      37.076  31.349  29.218  1.00  0.00     0.057 A 
ATOM     70  C   UNL A   1      37.109  32.665  28.737  1.00  0.00     0.134 A 
ATOM     71  C   UNL A   1      35.915  30.606  28.975  1.00  0.00     0.134 A 
ATOM     72  F   UNL A   1      38.180  33.439  28.964  1.00  0.00    -0.206 F 
ATOM     73  C   UNL A   1      36.021  33.226  28.066  1.00  0.00     0.040 A 
ATOM     74  C   UNL A   1      34.832  31.145  28.277  1.00  0.00     0.040 A 
ATOM     75  F   UNL A   1      35.815  29.341  29.411  1.00  0.00    -0.206 F 
ATOM     76  C   UNL A   1      34.880  32.463  27.830  1.00  0.00     0.006 A 
ENDBRANCH  48  69
BRANCH  60  77
ATOM     77  C   UNL A   1      39.160  32.205  35.811  1.00  0.00     0.057 A 
ATOM     78  C   UNL A   1      39.556  33.537  35.977  1.00  0.00     0.134 A 
ATOM     79  C   UNL A   1      38.217  31.696  36.716  1.00  0.00     0.134 A 
ATOM     80  F   UNL A   1      40.463  34.086  35.153  1.00  0.00    -0.206 F 
ATOM     81  C   UNL A   1      39.056  34.325  37.017  1.00  0.00     0.040 A 
ATOM     82  C   UNL A   1      37.686  32.482  37.740  1.00  0.00     0.040 A 
ATOM     83  F   UNL A   1      37.784  30.431  36.608  1.00  0.00    -0.206 F 
ATOM     84  C   UNL A   1      38.111  33.799  37.896  1.00  0.00     0.006 A 
ENDBRANCH  60  77
ENDBRANCH  34  35
ENDBRANCH  27  29
ENDBRANCH  26  27
ENDBRANCH  25  26
ENDBRANCH  24  25
ENDBRANCH  23  24
ENDBRANCH  22  23
ENDBRANCH   1  22
TORSDOF 20
ENDMDL
MODEL 2
REMARK VINA RESULT:     -10.0      5.270     10.192
REMARK SMILES Cc1ncccc1NS(=O)(=O)[C@@H](C)C(=O)OCCOCCOCCOC(=O)c1ccc(-c2c3nc(c(-c4c(F)cccc4F)c4ccc([nH]4)c(-c4c(F)cccc4F)c4nc(c(-c5c(F)cccc5F)c5ccc2[nH]5)C=C4)C=C3)cc1
REMARK SMILES IDX 20 1 19 2 18 3 17 4 16 5 14 6 15 7 12 8 13 9 9 10 10 11
REMARK SMILES IDX 11 12 8 13 7 15 1 16 2 17 3 18 4 19 6 20 5 21 21 22 22 23
REMARK SMILES IDX 23 24 24 25 25 26 26 27 27 28 28 29 29 30 81 31 30 32 80 33
REMARK SMILES IDX 31 34 32 35 33 36 74 37 34 38 79 39 73 40 75 41 35 42 78 43
REMARK SMILES IDX 72 44 71 45 36 47 62 48 45 49 61 50 46 51 49 52 60 53 76 54
REMARK SMILES IDX 47 55 48 56 59 58 77 59 50 60 37 61 38 62 43 63 39 64 40 65
REMARK SMILES IDX 42 66 44 67 41 68 63 69 64 70 69 71 65 72 66 73 68 74 70 75
REMARK SMILES IDX 67 76 51 77 52 78 57 79 53 80 54 81 56 82 58 83 55 84
REMARK H PARENT 8 14 75 46 49 57
REMARK Flexibility Score: inf
ROOT
ATOM      1  C   UNL A   1      33.845  31.506  28.000  1.00  0.00     0.188 C 
ENDROOT
BRANCH   1   2
ATOM      2  O   UNL A   1      33.904  30.760  26.790  1.00  0.00    -0.376 OA
BRANCH   2   3
ATOM      3  C   UNL A   1      32.789  29.959  26.413  1.00  0.00     0.202 C 
BRANCH   3   4
ATOM      4  C   UNL A   1      32.931  28.434  26.525  1.00  0.00     0.261 C 
BRANCH   4   5
ATOM      5  O   UNL A   1      33.986  27.875  25.703  1.00  0.00    -0.462 OA
BRANCH   5   6
ATOM      6  C   UNL A   1      33.686  27.589  24.417  1.00  0.00     0.326 C 
ATOM      7  O   UNL A   1      33.848  28.412  23.517  1.00  0.00    -0.251 OA
BRANCH   6   8
ATOM      8  C   UNL A   1      33.266  26.174  24.099  1.00  0.00     0.235 C 
ATOM      9  C   UNL A   1      34.383  25.200  24.496  1.00  0.00     0.039 C 
BRANCH   8  10
ATOM     10  S   UNL A   1      32.648  25.728  22.459  1.00  0.00     0.246 S 
ATOM     11  O   UNL A   1      32.002  24.436  22.619  1.00  0.00    -0.206 OA
ATOM     12  O   UNL A   1      33.720  25.853  21.491  1.00  0.00    -0.206 OA
BRANCH  10  13
ATOM     13  N   UNL A   1      31.441  26.724  21.969  1.00  0.00    -0.281 N 
ATOM     14  H   UNL A   1      31.468  27.021  21.031  1.00  0.00     0.180 HD
BRANCH  13  15
ATOM     15  C   UNL A   1      30.357  27.203  22.761  1.00  0.00     0.070 A 
ATOM     16  C   UNL A   1      30.688  29.619  22.030  1.00  0.00     0.069 C 
ATOM     17  C   UNL A   1      29.843  28.490  22.549  1.00  0.00     0.061 A 
ATOM     18  N   UNL A   1      28.583  28.843  22.919  1.00  0.00    -0.259 NA
ATOM     19  C   UNL A   1      27.830  27.913  23.541  1.00  0.00     0.111 A 
ATOM     20  C   UNL A   1      29.604  26.337  23.551  1.00  0.00     0.030 A 
ATOM     21  C   UNL A   1      28.306  26.674  23.913  1.00  0.00     0.022 A 
ENDBRANCH  13  15
ENDBRANCH  10  13
ENDBRANCH   8  10
ENDBRANCH   6   8
ENDBRANCH   5   6
ENDBRANCH   4   5
ENDBRANCH   3   4
ENDBRANCH   2   3
ENDBRANCH   1   2
BRANCH   1  22
ATOM     22  C   UNL A   1      34.317  32.971  27.999  1.00  0.00     0.188 C 
BRANCH  22  23
ATOM     23  O   UNL A   1      33.598  33.835  28.853  1.00  0.00    -0.376 OA
BRANCH  23  24
ATOM     24  C   UNL A   1      34.354  34.587  29.791  1.00  0.00     0.202 C 
BRANCH  24  25
ATOM     25  C   UNL A   1      34.425  34.098  31.250  1.00  0.00     0.261 C 
BRANCH  25  26
ATOM     26  O   UNL A   1      34.741  32.708  31.450  1.00  0.00    -0.460 OA
BRANCH  26  27
ATOM     27  C   UNL A   1      35.630  32.393  32.425  1.00  0.00     0.338 C 
ATOM     28  O   UNL A   1      35.475  32.516  33.621  1.00  0.00    -0.246 OA
BRANCH  27  29
ATOM     29  C   UNL A   1      36.732  31.634  31.777  1.00  0.00     0.060 A 
ATOM     30  C   UNL A   1      37.647  30.929  32.574  1.00  0.00     0.016 A 
ATOM     31  C   UNL A   1      36.827  31.576  30.386  1.00  0.00     0.016 A 
ATOM     32  C   UNL A   1      38.670  30.182  31.980  1.00  0.00     0.010 A 
ATOM     33  C   UNL A   1      37.866  30.851  29.793  1.00  0.00     0.010 A 
ATOM     34  C   UNL A   1      38.810  30.172  30.587  1.00  0.00    -0.014 A 
BRANCH  34  35
ATOM     35  C   UNL A   1      40.044  29.637  29.958  1.00  0.00     0.031 A 
ATOM     36  C   UNL A   1      41.210  30.572  29.777  1.00  0.00     0.074 A 
ATOM     37  C   UNL A   1      40.141  28.359  29.547  1.00  0.00     0.049 A 
ATOM     38  N   UNL A   1      42.354  30.374  29.174  1.00  0.00    -0.248 NA
ATOM     39  C   UNL A   1      41.057  31.918  30.352  1.00  0.00     0.031 C 
ATOM     40  C   UNL A   1      39.110  27.337  29.700  1.00  0.00     0.029 A 
ATOM     41  N   UNL A   1      41.165  27.711  28.897  1.00  0.00    -0.354 N 
ATOM     42  C   UNL A   1      43.051  31.571  29.289  1.00  0.00     0.074 A 
ATOM     43  C   UNL A   1      42.189  32.498  29.988  1.00  0.00     0.031 C 
ATOM     44  C   UNL A   1      39.547  26.192  29.145  1.00  0.00     0.029 A 
ATOM     45  C   UNL A   1      40.871  26.411  28.564  1.00  0.00     0.049 A 
ATOM     46  H   UNL A   1      42.027  28.138  28.690  1.00  0.00     0.167 HD
ATOM     47  C   UNL A   1      44.299  31.869  28.858  1.00  0.00     0.037 A 
ATOM     48  C   UNL A   1      41.580  25.513  27.849  1.00  0.00     0.037 A 
ATOM     49  C   UNL A   1      45.155  30.951  28.156  1.00  0.00     0.049 A 
ATOM     50  C   UNL A   1      42.931  25.898  27.299  1.00  0.00     0.074 A 
ATOM     51  C   UNL A   1      46.442  31.158  27.689  1.00  0.00     0.029 A 
ATOM     52  N   UNL A   1      44.809  29.653  27.811  1.00  0.00    -0.354 N 
ATOM     53  N   UNL A   1      43.592  27.024  27.432  1.00  0.00    -0.248 NA
ATOM     54  C   UNL A   1      43.637  24.884  26.500  1.00  0.00     0.031 C 
ATOM     55  C   UNL A   1      46.852  30.005  27.011  1.00  0.00     0.029 A 
ATOM     56  C   UNL A   1      45.846  29.058  27.112  1.00  0.00     0.049 A 
ATOM     57  H   UNL A   1      43.952  29.221  28.030  1.00  0.00     0.167 HD
ATOM     58  C   UNL A   1      44.800  26.840  26.765  1.00  0.00     0.074 A 
ATOM     59  C   UNL A   1      44.786  25.492  26.240  1.00  0.00     0.031 C 
ATOM     60  C   UNL A   1      45.828  27.710  26.604  1.00  0.00     0.037 A 
BRANCH  47  61
ATOM     61  C   UNL A   1      44.802  33.261  29.113  1.00  0.00     0.057 A 
ATOM     62  C   UNL A   1      45.533  33.587  30.263  1.00  0.00     0.134 A 
ATOM     63  C   UNL A   1      44.574  34.281  28.182  1.00  0.00     0.134 A 
ATOM     64  F   UNL A   1      45.773  32.660  31.203  1.00  0.00    -0.206 F 
ATOM     65  C   UNL A   1      45.997  34.884  30.489  1.00  0.00     0.040 A 
ATOM     66  C   UNL A   1      45.060  35.575  28.382  1.00  0.00     0.040 A 
ATOM     67  F   UNL A   1      43.884  34.038  27.058  1.00  0.00    -0.206 F 
ATOM     68  C   UNL A   1      45.768  35.880  29.542  1.00  0.00     0.006 A 
ENDBRANCH  47  61
BRANCH  48  69
ATOM     69  C   UNL A   1      41.027  24.158  27.586  1.00  0.00     0.057 A 
ATOM     70  C   UNL A   1      41.533  23.028  28.241  1.00  0.00     0.134 A 
ATOM     71  C   UNL A   1      40.015  23.952  26.640  1.00  0.00     0.134 A 
ATOM     72  F   UNL A   1      42.524  23.154  29.136  1.00  0.00    -0.206 F 
ATOM     73  C   UNL A   1      41.071  21.743  27.949  1.00  0.00     0.040 A 
ATOM     74  C   UNL A   1      39.522  22.675  26.361  1.00  0.00     0.040 A 
ATOM     75  F   UNL A   1      39.489  24.989  25.973  1.00  0.00    -0.206 F 
ATOM     76  C   UNL A   1      40.058  21.565  27.009  1.00  0.00     0.006 A 
ENDBRANCH  48  69
BRANCH  60  77
ATOM     77  C   UNL A   1      47.047  27.219  25.874  1.00  0.00     0.057 A 
ATOM     78  C   UNL A   1      47.253  27.468  24.513  1.00  0.00     0.134 A 
ATOM     79  C   UNL A   1      48.053  26.523  26.561  1.00  0.00     0.134 A 
ATOM     80  F   UNL A   1      46.325  28.120  23.792  1.00  0.00    -0.206 F 
ATOM     81  C   UNL A   1      48.400  27.023  23.852  1.00  0.00     0.040 A 
ATOM     82  C   UNL A   1      49.219  26.100  25.919  1.00  0.00     0.040 A 
ATOM     83  F   UNL A   1      47.928  26.260  27.870  1.00  0.00    -0.206 F 
ATOM     84  C   UNL A   1      49.390  26.343  24.559  1.00  0.00     0.006 A 
ENDBRANCH  60  77
ENDBRANCH  34  35
ENDBRANCH  27  29
ENDBRANCH  26  27
ENDBRANCH  25  26
ENDBRANCH  24  25
ENDBRANCH  23  24
ENDBRANCH  22  23
ENDBRANCH   1  22
TORSDOF 20
ENDMDL
MODEL 3
REMARK VINA RESULT:      -9.9      4.853      9.801
REMARK SMILES Cc1ncccc1NS(=O)(=O)[C@@H](C)C(=O)OCCOCCOCCOC(=O)c1ccc(-c2c3nc(c(-c4c(F)cccc4F)c4ccc([nH]4)c(-c4c(F)cccc4F)c4nc(c(-c5c(F)cccc5F)c5ccc2[nH]5)C=C4)C=C3)cc1
REMARK SMILES IDX 20 1 19 2 18 3 17 4 16 5 14 6 15 7 12 8 13 9 9 10 10 11
REMARK SMILES IDX 11 12 8 13 7 15 1 16 2 17 3 18 4 19 6 20 5 21 21 22 22 23
REMARK SMILES IDX 23 24 24 25 25 26 26 27 27 28 28 29 29 30 81 31 30 32 80 33
REMARK SMILES IDX 31 34 32 35 33 36 74 37 34 38 79 39 73 40 75 41 35 42 78 43
REMARK SMILES IDX 72 44 71 45 36 47 62 48 45 49 61 50 46 51 49 52 60 53 76 54
REMARK SMILES IDX 47 55 48 56 59 58 77 59 50 60 37 61 38 62 43 63 39 64 40 65
REMARK SMILES IDX 42 66 44 67 41 68 63 69 64 70 69 71 65 72 66 73 68 74 70 75
REMARK SMILES IDX 67 76 51 77 52 78 57 79 53 80 54 81 56 82 58 83 55 84
REMARK H PARENT 8 14 75 46 49 57
REMARK Flexibility Score: inf
ROOT
ATOM      1  C   UNL A   1      34.144  31.496  28.063  1.00  0.00     0.188 C 
ENDROOT
BRANCH   1   2
ATOM      2  O   UNL A   1      33.535  30.927  26.909  1.00  0.00    -0.376 OA
BRANCH   2   3
ATOM      3  C   UNL A   1      32.337  30.172  27.056  1.00  0.00     0.202 C 
BRANCH   3   4
ATOM      4  C   UNL A   1      32.466  28.657  27.267  1.00  0.00     0.261 C 
BRANCH   4   5
ATOM      5  O   UNL A   1      32.050  27.862  26.129  1.00  0.00    -0.462 OA
BRANCH   5   6
ATOM      6  C   UNL A   1      32.096  26.518  26.260  1.00  0.00     0.326 C 
ATOM      7  O   UNL A   1      31.383  25.922  27.066  1.00  0.00    -0.251 OA
BRANCH   6   8
ATOM      8  C   UNL A   1      32.963  25.754  25.289  1.00  0.00     0.235 C 
ATOM      9  C   UNL A   1      33.762  26.738  24.422  1.00  0.00     0.039 C 
BRANCH   8  10
ATOM     10  S   UNL A   1      32.270  24.463  24.231  1.00  0.00     0.246 S 
ATOM     11  O   UNL A   1      32.501  24.905  22.865  1.00  0.00    -0.206 OA
ATOM     12  O   UNL A   1      30.910  24.179  24.648  1.00  0.00    -0.206 OA
BRANCH  10  13
ATOM     13  N   UNL A   1      33.110  23.060  24.348  1.00  0.00    -0.281 N 
ATOM     14  H   UNL A   1      32.587  22.227  24.299  1.00  0.00     0.180 HD
BRANCH  13  15
ATOM     15  C   UNL A   1      34.519  22.922  24.512  1.00  0.00     0.070 A 
ATOM     16  C   UNL A   1      34.324  22.241  26.957  1.00  0.00     0.069 C 
ATOM     17  C   UNL A   1      35.037  22.262  25.634  1.00  0.00     0.061 A 
ATOM     18  N   UNL A   1      36.279  21.707  25.646  1.00  0.00    -0.259 NA
ATOM     19  C   UNL A   1      37.033  21.837  24.536  1.00  0.00     0.111 A 
ATOM     20  C   UNL A   1      35.395  23.171  23.457  1.00  0.00     0.030 A 
ATOM     21  C   UNL A   1      36.655  22.589  23.444  1.00  0.00     0.022 A 
ENDBRANCH  13  15
ENDBRANCH  10  13
ENDBRANCH   8  10
ENDBRANCH   6   8
ENDBRANCH   5   6
ENDBRANCH   4   5
ENDBRANCH   3   4
ENDBRANCH   2   3
ENDBRANCH   1   2
BRANCH   1  22
ATOM     22  C   UNL A   1      34.284  33.025  28.158  1.00  0.00     0.188 C 
BRANCH  22  23
ATOM     23  O   UNL A   1      33.456  33.647  29.116  1.00  0.00    -0.376 OA
BRANCH  23  24
ATOM     24  C   UNL A   1      34.089  34.503  30.055  1.00  0.00     0.202 C 
BRANCH  24  25
ATOM     25  C   UNL A   1      34.335  33.985  31.485  1.00  0.00     0.261 C 
BRANCH  25  26
ATOM     26  O   UNL A   1      34.815  32.634  31.609  1.00  0.00    -0.460 OA
BRANCH  26  27
ATOM     27  C   UNL A   1      35.758  32.379  32.550  1.00  0.00     0.338 C 
ATOM     28  O   UNL A   1      35.651  32.525  33.748  1.00  0.00    -0.246 OA
BRANCH  27  29
ATOM     29  C   UNL A   1      36.861  31.648  31.870  1.00  0.00     0.060 A 
ATOM     30  C   UNL A   1      37.774  30.908  32.637  1.00  0.00     0.016 A 
ATOM     31  C   UNL A   1      36.959  31.652  30.478  1.00  0.00     0.016 A 
ATOM     32  C   UNL A   1      38.798  30.188  32.013  1.00  0.00     0.010 A 
ATOM     33  C   UNL A   1      37.999  30.954  29.856  1.00  0.00     0.010 A 
ATOM     34  C   UNL A   1      38.941  30.240  30.621  1.00  0.00    -0.014 A 
BRANCH  34  35
ATOM     35  C   UNL A   1      40.176  29.732  29.971  1.00  0.00     0.031 A 
ATOM     36  C   UNL A   1      41.314  30.695  29.763  1.00  0.00     0.074 A 
ATOM     37  C   UNL A   1      40.298  28.455  29.565  1.00  0.00     0.049 A 
ATOM     38  N   UNL A   1      42.451  30.523  29.139  1.00  0.00    -0.248 NA
ATOM     39  C   UNL A   1      41.138  32.040  30.334  1.00  0.00     0.031 C 
ATOM     40  C   UNL A   1      39.296  27.408  29.743  1.00  0.00     0.029 A 
ATOM     41  N   UNL A   1      41.324  27.829  28.899  1.00  0.00    -0.354 N 
ATOM     42  C   UNL A   1      43.119  31.737  29.235  1.00  0.00     0.074 A 
ATOM     43  C   UNL A   1      42.248  32.647  29.946  1.00  0.00     0.031 C 
ATOM     44  C   UNL A   1      39.751  26.271  29.186  1.00  0.00     0.029 A 
ATOM     45  C   UNL A   1      41.058  26.521  28.579  1.00  0.00     0.049 A 
ATOM     46  H   UNL A   1      42.172  28.277  28.673  1.00  0.00     0.167 HD
ATOM     47  C   UNL A   1      44.352  32.065  28.779  1.00  0.00     0.037 A 
ATOM     48  C   UNL A   1      41.775  25.637  27.855  1.00  0.00     0.037 A 
ATOM     49  C   UNL A   1      45.217  31.164  28.065  1.00  0.00     0.049 A 
ATOM     50  C   UNL A   1      43.106  26.052  27.277  1.00  0.00     0.074 A 
ATOM     51  C   UNL A   1      46.489  31.401  27.572  1.00  0.00     0.029 A 
ATOM     52  N   UNL A   1      44.897  29.856  27.734  1.00  0.00    -0.354 N 
ATOM     53  N   UNL A   1      43.740  27.195  27.391  1.00  0.00    -0.248 NA
ATOM     54  C   UNL A   1      43.822  25.052  26.470  1.00  0.00     0.031 C 
ATOM     55  C   UNL A   1      46.915  30.255  26.893  1.00  0.00     0.029 A 
ATOM     56  C   UNL A   1      45.936  29.284  27.018  1.00  0.00     0.049 A 
ATOM     57  H   UNL A   1      44.056  29.404  27.971  1.00  0.00     0.167 HD
ATOM     58  C   UNL A   1      44.939  27.038  26.703  1.00  0.00     0.074 A 
ATOM     59  C   UNL A   1      44.950  25.687  26.185  1.00  0.00     0.031 C 
ATOM     60  C   UNL A   1      45.942  27.933  26.518  1.00  0.00     0.037 A 
BRANCH  47  61
ATOM     61  C   UNL A   1      44.823  33.471  29.017  1.00  0.00     0.057 A 
ATOM     62  C   UNL A   1      45.493  33.840  30.191  1.00  0.00     0.134 A 
ATOM     63  C   UNL A   1      44.630  34.460  28.045  1.00  0.00     0.134 A 
ATOM     64  F   UNL A   1      45.696  32.944  31.169  1.00  0.00    -0.206 F 
ATOM     65  C   UNL A   1      45.928  35.149  30.401  1.00  0.00     0.040 A 
ATOM     66  C   UNL A   1      45.089  35.765  28.231  1.00  0.00     0.040 A 
ATOM     67  F   UNL A   1      44.000  34.174  26.896  1.00  0.00    -0.206 F 
ATOM     68  C   UNL A   1      45.734  36.114  29.415  1.00  0.00     0.006 A 
ENDBRANCH  47  61
BRANCH  48  69
ATOM     69  C   UNL A   1      41.252  24.266  27.609  1.00  0.00     0.057 A 
ATOM     70  C   UNL A   1      40.214  24.038  26.698  1.00  0.00     0.134 A 
ATOM     71  C   UNL A   1      41.743  23.159  28.313  1.00  0.00     0.134 A 
ATOM     72  F   UNL A   1      39.679  25.060  26.014  1.00  0.00    -0.206 F 
ATOM     73  C   UNL A   1      39.667  22.766  26.513  1.00  0.00     0.040 A 
ATOM     74  C   UNL A   1      41.227  21.877  28.115  1.00  0.00     0.040 A 
ATOM     75  F   UNL A   1      42.734  23.307  29.205  1.00  0.00    -0.206 F 
ATOM     76  C   UNL A   1      40.178  21.680  27.220  1.00  0.00     0.006 A 
ENDBRANCH  48  69
BRANCH  60  77
ATOM     77  C   UNL A   1      47.159  27.468  25.767  1.00  0.00     0.057 A 
ATOM     78  C   UNL A   1      47.300  27.652  24.387  1.00  0.00     0.134 A 
ATOM     79  C   UNL A   1      48.228  26.868  26.449  1.00  0.00     0.134 A 
ATOM     80  F   UNL A   1      46.312  28.211  23.670  1.00  0.00    -0.206 F 
ATOM     81  C   UNL A   1      48.445  27.233  23.706  1.00  0.00     0.040 A 
ATOM     82  C   UNL A   1      49.390  26.473  25.785  1.00  0.00     0.040 A 
ATOM     83  F   UNL A   1      48.166  26.672  27.774  1.00  0.00    -0.206 F 
ATOM     84  C   UNL A   1      49.498  26.649  24.408  1.00  0.00     0.006 A 
ENDBRANCH  60  77
ENDBRANCH  34  35
ENDBRANCH  27  29
ENDBRANCH  26  27
ENDBRANCH  25  26
ENDBRANCH  24  25
ENDBRANCH  23  24
ENDBRANCH  22  23
ENDBRANCH   1  22
TORSDOF 20
ENDMDL
