MODEL 1
REMARK VINA RESULT:     -11.6      0.000      0.000
REMARK SMILES O=C(OCCOCCOCCOC(=O)[C@H]1[C@H]2CC[C@H](CC2)[C@@H]1C(=O)Nc1sc2c(c1C(=O)N1CCCCC1)CCCC2)c1ccc(-c2c3nc(c(-c4c(F)cccc4F)c4ccc([nH]4)c(-c4c(F)cccc4F)c4nc(c(-c5c(F)cccc5F)c5ccc2[nH]5)C=C4)C=C3)cc1
REMARK SMILES IDX 8 1 7 2 6 3 5 4 4 5 3 6 2 7 1 8 43 9 44 10 96 11 45 12 95 13
REMARK SMILES IDX 46 14 47 15 48 16 89 17 49 18 94 19 88 20 90 21 50 22 93 23
REMARK SMILES IDX 87 24 86 25 51 27 77 28 60 29 76 30 61 31 64 32 75 33 91 34
REMARK SMILES IDX 62 35 63 36 74 38 92 39 65 40 52 41 53 42 58 43 54 44 55 45
REMARK SMILES IDX 57 46 59 47 56 48 78 49 79 50 84 51 80 52 81 53 83 54 85 55
REMARK SMILES IDX 82 56 66 57 67 58 72 59 68 60 69 61 71 62 73 63 70 64 9 65
REMARK SMILES IDX 10 66 11 67 12 68 13 69 14 70 15 71 16 72 22 73 21 74 17 75
REMARK SMILES IDX 19 76 20 77 18 78 23 79 24 80 25 81 26 83 27 84 30 85 28 86
REMARK SMILES IDX 29 87 42 88 39 89 41 90 40 91 31 92 32 93 33 94 34 95 38 96
REMARK SMILES IDX 35 97 37 98 36 99
REMARK H PARENT 90 26 64 37 25 82
REMARK Flexibility Score: inf
ROOT
ATOM      1  C   UNL A   1      33.891  32.358  28.076  1.00  0.00     0.188 C 
ENDROOT
BRANCH   1   2
ATOM      2  C   UNL A   1      34.855  33.132  28.980  1.00  0.00     0.188 C 
BRANCH   2   3
ATOM      3  O   UNL A   1      34.677  34.554  28.938  1.00  0.00    -0.376 OA
BRANCH   3   4
ATOM      4  C   UNL A   1      33.306  34.931  29.075  1.00  0.00     0.202 C 
BRANCH   4   5
ATOM      5  C   UNL A   1      33.061  36.429  29.327  1.00  0.00     0.261 C 
BRANCH   5   6
ATOM      6  O   UNL A   1      32.826  36.776  30.711  1.00  0.00    -0.460 OA
BRANCH   6   7
ATOM      7  C   UNL A   1      32.720  36.040  31.850  1.00  0.00     0.338 C 
ATOM      8  O   UNL A   1      31.631  36.043  32.423  1.00  0.00    -0.246 OA
BRANCH   7   9
ATOM      9  C   UNL A   1      33.814  35.219  32.474  1.00  0.00     0.060 A 
ATOM     10  C   UNL A   1      35.106  35.652  32.645  1.00  0.00     0.016 A 
ATOM     11  C   UNL A   1      33.535  33.910  32.945  1.00  0.00     0.016 A 
ATOM     12  C   UNL A   1      36.080  34.790  33.168  1.00  0.00     0.010 A 
ATOM     13  C   UNL A   1      34.516  33.077  33.566  1.00  0.00     0.010 A 
ATOM     14  C   UNL A   1      35.826  33.522  33.698  1.00  0.00    -0.014 A 
BRANCH  14  15
ATOM     15  C   UNL A   1      37.052  32.785  34.183  1.00  0.00     0.031 A 
ATOM     16  C   UNL A   1      37.717  31.903  33.170  1.00  0.00     0.074 A 
ATOM     17  C   UNL A   1      37.776  33.104  35.288  1.00  0.00     0.049 A 
ATOM     18  N   UNL A   1      38.843  31.250  33.254  1.00  0.00    -0.248 NA
ATOM     19  C   UNL A   1      37.011  31.742  31.888  1.00  0.00     0.031 C 
ATOM     20  C   UNL A   1      37.346  33.974  36.361  1.00  0.00     0.029 A 
ATOM     21  N   UNL A   1      39.076  32.814  35.665  1.00  0.00    -0.354 N 
ATOM     22  C   UNL A   1      38.963  30.573  32.056  1.00  0.00     0.074 A 
ATOM     23  C   UNL A   1      37.832  30.941  31.233  1.00  0.00     0.031 C 
ATOM     24  C   UNL A   1      38.389  34.381  37.096  1.00  0.00     0.029 A 
ATOM     25  C   UNL A   1      39.516  33.525  36.770  1.00  0.00     0.049 A 
ATOM     26  H   UNL A   1      39.638  32.162  35.188  1.00  0.00     0.167 HD
ATOM     27  C   UNL A   1      39.895  29.660  31.708  1.00  0.00     0.037 A 
ATOM     28  C   UNL A   1      40.627  33.420  37.534  1.00  0.00     0.037 A 
ATOM     29  C   UNL A   1      40.967  29.241  32.567  1.00  0.00     0.049 A 
ATOM     30  C   UNL A   1      41.559  32.285  37.222  1.00  0.00     0.074 A 
ATOM     31  C   UNL A   1      41.861  28.205  32.383  1.00  0.00     0.029 A 
ATOM     32  N   UNL A   1      41.275  29.829  33.786  1.00  0.00    -0.354 N 
ATOM     33  N   UNL A   1      41.569  31.499  36.175  1.00  0.00    -0.248 NA
ATOM     34  C   UNL A   1      42.570  31.951  38.236  1.00  0.00     0.031 C 
ATOM     35  C   UNL A   1      42.672  28.125  33.520  1.00  0.00     0.029 A 
ATOM     36  C   UNL A   1      42.332  29.158  34.378  1.00  0.00     0.049 A 
ATOM     37  H   UNL A   1      40.812  30.607  34.172  1.00  0.00     0.167 HD
ATOM     38  C   UNL A   1      42.565  30.565  36.409  1.00  0.00     0.074 A 
ATOM     39  C   UNL A   1      43.170  30.908  37.680  1.00  0.00     0.031 C 
ATOM     40  C   UNL A   1      42.925  29.507  35.645  1.00  0.00     0.037 A 
BRANCH  27  41
ATOM     41  C   UNL A   1      39.645  28.939  30.424  1.00  0.00     0.057 A 
ATOM     42  C   UNL A   1      38.989  27.704  30.365  1.00  0.00     0.134 A 
ATOM     43  C   UNL A   1      40.168  29.460  29.233  1.00  0.00     0.134 A 
ATOM     44  F   UNL A   1      38.524  27.125  31.481  1.00  0.00    -0.206 F 
ATOM     45  C   UNL A   1      38.878  27.003  29.163  1.00  0.00     0.040 A 
ATOM     46  C   UNL A   1      40.042  28.781  28.024  1.00  0.00     0.040 A 
ATOM     47  F   UNL A   1      40.838  30.623  29.235  1.00  0.00    -0.206 F 
ATOM     48  C   UNL A   1      39.402  27.544  27.988  1.00  0.00     0.006 A 
ENDBRANCH  27  41
BRANCH  28  49
ATOM     49  C   UNL A   1      40.816  34.239  38.779  1.00  0.00     0.057 A 
ATOM     50  C   UNL A   1      40.257  33.870  40.011  1.00  0.00     0.134 A 
ATOM     51  C   UNL A   1      41.522  35.454  38.757  1.00  0.00     0.134 A 
ATOM     52  F   UNL A   1      39.507  32.763  40.109  1.00  0.00    -0.206 F 
ATOM     53  C   UNL A   1      40.412  34.655  41.161  1.00  0.00     0.040 A 
ATOM     54  C   UNL A   1      41.730  36.220  39.907  1.00  0.00     0.040 A 
ATOM     55  F   UNL A   1      42.038  35.920  37.610  1.00  0.00    -0.206 F 
ATOM     56  C   UNL A   1      41.168  35.825  41.115  1.00  0.00     0.006 A 
ENDBRANCH  28  49
BRANCH  40  57
ATOM     57  C   UNL A   1      44.062  28.669  36.142  1.00  0.00     0.057 A 
ATOM     58  C   UNL A   1      45.399  29.052  35.979  1.00  0.00     0.134 A 
ATOM     59  C   UNL A   1      43.807  27.469  36.816  1.00  0.00     0.134 A 
ATOM     60  F   UNL A   1      45.710  30.183  35.329  1.00  0.00    -0.206 F 
ATOM     61  C   UNL A   1      46.444  28.257  36.449  1.00  0.00     0.040 A 
ATOM     62  C   UNL A   1      44.841  26.680  37.315  1.00  0.00     0.040 A 
ATOM     63  F   UNL A   1      42.546  27.050  37.008  1.00  0.00    -0.206 F 
ATOM     64  C   UNL A   1      46.165  27.070  37.126  1.00  0.00     0.006 A 
ENDBRANCH  40  57
ENDBRANCH  14  15
ENDBRANCH   7   9
ENDBRANCH   6   7
ENDBRANCH   5   6
ENDBRANCH   4   5
ENDBRANCH   3   4
ENDBRANCH   2   3
ENDBRANCH   1   2
BRANCH   1  65
ATOM     65  O   UNL A   1      34.500  31.342  27.277  1.00  0.00    -0.376 OA
BRANCH  65  66
ATOM     66  C   UNL A   1      34.187  29.990  27.629  1.00  0.00     0.202 C 
BRANCH  66  67
ATOM     67  C   UNL A   1      34.750  28.942  26.664  1.00  0.00     0.261 C 
BRANCH  67  68
ATOM     68  O   UNL A   1      33.637  28.301  26.032  1.00  0.00    -0.463 OA
BRANCH  68  69
ATOM     69  C   UNL A   1      33.640  28.205  24.687  1.00  0.00     0.310 C 
ATOM     70  O   UNL A   1      34.430  28.780  23.962  1.00  0.00    -0.252 OA
BRANCH  69  71
ATOM     71  C   UNL A   1      32.539  27.263  24.198  1.00  0.00     0.115 C 
ATOM     72  C   UNL A   1      31.211  27.797  24.848  1.00  0.00     0.004 C 
ATOM     73  C   UNL A   1      32.392  27.163  22.654  1.00  0.00     0.096 C 
ATOM     74  C   UNL A   1      30.771  29.131  24.193  1.00  0.00     0.005 C 
ATOM     75  C   UNL A   1      30.100  26.768  24.633  1.00  0.00     0.005 C 
ATOM     76  C   UNL A   1      30.840  27.491  22.323  1.00  0.00     0.002 C 
ATOM     77  C   UNL A   1      30.497  28.931  22.706  1.00  0.00     0.005 C 
ATOM     78  C   UNL A   1      29.864  26.591  23.137  1.00  0.00     0.005 C 
BRANCH  73  79
ATOM     79  C   UNL A   1      32.729  25.825  21.965  1.00  0.00     0.229 C 
ATOM     80  O   UNL A   1      33.271  26.017  20.867  1.00  0.00    -0.274 OA
ATOM     81  N   UNL A   1      32.721  24.494  22.265  1.00  0.00    -0.317 N 
ATOM     82  H   UNL A   1      32.549  23.917  21.486  1.00  0.00     0.170 HD
BRANCH  81  83
ATOM     83  C   UNL A   1      32.906  23.793  23.445  1.00  0.00     0.108 A 
ATOM     84  S   UNL A   1      31.486  23.299  24.213  1.00  0.00    -0.122 S 
ATOM     85  C   UNL A   1      34.058  23.225  24.054  1.00  0.00     0.078 A 
ATOM     86  C   UNL A   1      32.323  22.778  25.573  1.00  0.00     0.011 A 
ATOM     87  C   UNL A   1      33.687  22.761  25.382  1.00  0.00    -0.019 A 
ATOM     88  C   UNL A   1      31.633  22.356  26.824  1.00  0.00     0.047 C 
ATOM     89  C   UNL A   1      34.606  22.311  26.475  1.00  0.00     0.037 C 
ATOM     90  C   UNL A   1      32.592  22.543  28.005  1.00  0.00     0.006 C 
ATOM     91  C   UNL A   1      33.900  21.803  27.734  1.00  0.00     0.005 C 
BRANCH  85  92
ATOM     92  C   UNL A   1      35.447  23.118  23.498  1.00  0.00     0.257 C 
ATOM     93  O   UNL A   1      35.678  23.332  22.311  1.00  0.00    -0.269 OA
ATOM     94  N   UNL A   1      36.488  22.733  24.381  1.00  0.00    -0.339 N 
ATOM     95  C   UNL A   1      37.523  23.703  24.735  1.00  0.00     0.120 C 
ATOM     96  C   UNL A   1      37.093  21.410  24.212  1.00  0.00     0.120 C 
ATOM     97  C   UNL A   1      38.127  23.375  26.096  1.00  0.00     0.022 C 
ATOM     98  C   UNL A   1      37.715  20.932  25.534  1.00  0.00     0.022 C 
ATOM     99  C   UNL A   1      38.684  21.953  26.139  1.00  0.00     0.004 C 
ENDBRANCH  85  92
ENDBRANCH  81  83
ENDBRANCH  73  79
ENDBRANCH  69  71
ENDBRANCH  68  69
ENDBRANCH  67  68
ENDBRANCH  66  67
ENDBRANCH  65  66
ENDBRANCH   1  65
TORSDOF 20
ENDMDL
MODEL 2
REMARK VINA RESULT:     -11.6      1.675      2.521
REMARK SMILES O=C(OCCOCCOCCOC(=O)[C@H]1[C@H]2CC[C@H](CC2)[C@@H]1C(=O)Nc1sc2c(c1C(=O)N1CCCCC1)CCCC2)c1ccc(-c2c3nc(c(-c4c(F)cccc4F)c4ccc([nH]4)c(-c4c(F)cccc4F)c4nc(c(-c5c(F)cccc5F)c5ccc2[nH]5)C=C4)C=C3)cc1
REMARK SMILES IDX 8 1 7 2 6 3 5 4 4 5 3 6 2 7 1 8 43 9 44 10 96 11 45 12 95 13
REMARK SMILES IDX 46 14 47 15 48 16 89 17 49 18 94 19 88 20 90 21 50 22 93 23
REMARK SMILES IDX 87 24 86 25 51 27 77 28 60 29 76 30 61 31 64 32 75 33 91 34
REMARK SMILES IDX 62 35 63 36 74 38 92 39 65 40 52 41 53 42 58 43 54 44 55 45
REMARK SMILES IDX 57 46 59 47 56 48 78 49 79 50 84 51 80 52 81 53 83 54 85 55
REMARK SMILES IDX 82 56 66 57 67 58 72 59 68 60 69 61 71 62 73 63 70 64 9 65
REMARK SMILES IDX 10 66 11 67 12 68 13 69 14 70 15 71 16 72 22 73 21 74 17 75
REMARK SMILES IDX 19 76 20 77 18 78 23 79 24 80 25 81 26 83 27 84 30 85 28 86
REMARK SMILES IDX 29 87 42 88 39 89 41 90 40 91 31 92 32 93 33 94 34 95 38 96
REMARK SMILES IDX 35 97 37 98 36 99
REMARK H PARENT 90 26 64 37 25 82
REMARK Flexibility Score: inf
ROOT
ATOM      1  C   UNL A   1      34.448  31.936  28.424  1.00  0.00     0.188 C 
ENDROOT
BRANCH   1   2
ATOM      2  C   UNL A   1      33.668  33.174  27.971  1.00  0.00     0.188 C 
BRANCH   2   3
ATOM      3  O   UNL A   1      33.402  34.111  29.023  1.00  0.00    -0.376 OA
BRANCH   3   4
ATOM      4  C   UNL A   1      34.015  35.379  28.786  1.00  0.00     0.202 C 
BRANCH   4   5
ATOM      5  C   UNL A   1      33.323  36.576  29.460  1.00  0.00     0.261 C 
BRANCH   5   6
ATOM      6  O   UNL A   1      32.517  36.237  30.612  1.00  0.00    -0.460 OA
BRANCH   6   7
ATOM      7  C   UNL A   1      32.797  36.108  31.937  1.00  0.00     0.338 C 
ATOM      8  O   UNL A   1      32.090  36.736  32.725  1.00  0.00    -0.246 OA
BRANCH   7   9
ATOM      9  C   UNL A   1      33.892  35.265  32.529  1.00  0.00     0.060 A 
ATOM     10  C   UNL A   1      35.178  35.701  32.739  1.00  0.00     0.016 A 
ATOM     11  C   UNL A   1      33.621  33.930  32.925  1.00  0.00     0.016 A 
ATOM     12  C   UNL A   1      36.154  34.821  33.226  1.00  0.00     0.010 A 
ATOM     13  C   UNL A   1      34.604  33.074  33.513  1.00  0.00     0.010 A 
ATOM     14  C   UNL A   1      35.907  33.524  33.684  1.00  0.00    -0.014 A 
BRANCH  14  15
ATOM     15  C   UNL A   1      37.135  32.774  34.143  1.00  0.00     0.031 A 
ATOM     16  C   UNL A   1      37.804  31.932  33.100  1.00  0.00     0.074 A 
ATOM     17  C   UNL A   1      37.856  33.054  35.260  1.00  0.00     0.049 A 
ATOM     18  N   UNL A   1      38.932  31.280  33.161  1.00  0.00    -0.248 NA
ATOM     19  C   UNL A   1      37.100  31.815  31.811  1.00  0.00     0.031 C 
ATOM     20  C   UNL A   1      37.422  33.883  36.364  1.00  0.00     0.029 A 
ATOM     21  N   UNL A   1      39.157  32.755  35.628  1.00  0.00    -0.354 N 
ATOM     22  C   UNL A   1      39.056  30.648  31.939  1.00  0.00     0.074 A 
ATOM     23  C   UNL A   1      37.925  31.042  31.128  1.00  0.00     0.031 C 
ATOM     24  C   UNL A   1      38.462  34.265  37.115  1.00  0.00     0.029 A 
ATOM     25  C   UNL A   1      39.593  33.426  36.760  1.00  0.00     0.049 A 
ATOM     26  H   UNL A   1      39.722  32.122  35.129  1.00  0.00     0.167 HD
ATOM     27  C   UNL A   1      39.991  29.751  31.560  1.00  0.00     0.037 A 
ATOM     28  C   UNL A   1      40.703  33.297  37.521  1.00  0.00     0.037 A 
ATOM     29  C   UNL A   1      41.063  29.304  32.404  1.00  0.00     0.049 A 
ATOM     30  C   UNL A   1      41.640  32.177  37.169  1.00  0.00     0.074 A 
ATOM     31  C   UNL A   1      41.962  28.279  32.184  1.00  0.00     0.029 A 
ATOM     32  N   UNL A   1      41.368  29.848  33.644  1.00  0.00    -0.354 N 
ATOM     33  N   UNL A   1      41.654  31.429  36.093  1.00  0.00    -0.248 NA
ATOM     34  C   UNL A   1      42.650  31.809  38.171  1.00  0.00     0.031 C 
ATOM     35  C   UNL A   1      42.771  28.160  33.318  1.00  0.00     0.029 A 
ATOM     36  C   UNL A   1      42.426  29.159  34.213  1.00  0.00     0.049 A 
ATOM     37  H   UNL A   1      40.902  30.610  34.058  1.00  0.00     0.167 HD
ATOM     38  C   UNL A   1      42.652  30.491  36.294  1.00  0.00     0.074 A 
ATOM     39  C   UNL A   1      43.255  30.789  37.578  1.00  0.00     0.031 C 
ATOM     40  C   UNL A   1      43.017  29.463  35.492  1.00  0.00     0.037 A 
BRANCH  27  41
ATOM     41  C   UNL A   1      39.745  29.077  30.250  1.00  0.00     0.057 A 
ATOM     42  C   UNL A   1      39.055  27.865  30.140  1.00  0.00     0.134 A 
ATOM     43  C   UNL A   1      40.307  29.618  29.085  1.00  0.00     0.134 A 
ATOM     44  F   UNL A   1      38.552  27.266  31.229  1.00  0.00    -0.206 F 
ATOM     45  C   UNL A   1      38.947  27.204  28.915  1.00  0.00     0.040 A 
ATOM     46  C   UNL A   1      40.185  28.980  27.853  1.00  0.00     0.040 A 
ATOM     47  F   UNL A   1      41.011  30.759  29.135  1.00  0.00    -0.206 F 
ATOM     48  C   UNL A   1      39.509  27.765  27.768  1.00  0.00     0.006 A 
ENDBRANCH  27  41
BRANCH  28  49
ATOM     49  C   UNL A   1      40.888  34.069  38.795  1.00  0.00     0.057 A 
ATOM     50  C   UNL A   1      40.229  33.724  39.983  1.00  0.00     0.134 A 
ATOM     51  C   UNL A   1      41.694  35.220  38.845  1.00  0.00     0.134 A 
ATOM     52  F   UNL A   1      39.383  32.684  40.011  1.00  0.00    -0.206 F 
ATOM     53  C   UNL A   1      40.382  34.469  41.161  1.00  0.00     0.040 A 
ATOM     54  C   UNL A   1      41.899  35.941  40.024  1.00  0.00     0.040 A 
ATOM     55  F   UNL A   1      42.314  35.664  37.741  1.00  0.00    -0.206 F 
ATOM     56  C   UNL A   1      41.236  35.570  41.188  1.00  0.00     0.006 A 
ENDBRANCH  28  49
BRANCH  40  57
ATOM     57  C   UNL A   1      44.156  28.611  35.960  1.00  0.00     0.057 A 
ATOM     58  C   UNL A   1      43.956  27.429  36.682  1.00  0.00     0.134 A 
ATOM     59  C   UNL A   1      45.474  28.976  35.660  1.00  0.00     0.134 A 
ATOM     60  F   UNL A   1      42.718  27.033  37.015  1.00  0.00    -0.206 F 
ATOM     61  C   UNL A   1      45.031  26.650  37.110  1.00  0.00     0.040 A 
ATOM     62  C   UNL A   1      46.555  28.192  36.057  1.00  0.00     0.040 A 
ATOM     63  F   UNL A   1      45.730  30.096  34.966  1.00  0.00    -0.206 F 
ATOM     64  C   UNL A   1      46.335  27.027  36.791  1.00  0.00     0.006 A 
ENDBRANCH  40  57
ENDBRANCH  14  15
ENDBRANCH   7   9
ENDBRANCH   6   7
ENDBRANCH   5   6
ENDBRANCH   4   5
ENDBRANCH   3   4
ENDBRANCH   2   3
ENDBRANCH   1   2
BRANCH   1  65
ATOM     65  O   UNL A   1      34.791  31.025  27.378  1.00  0.00    -0.376 OA
BRANCH  65  66
ATOM     66  C   UNL A   1      33.998  29.836  27.291  1.00  0.00     0.202 C 
BRANCH  66  67
ATOM     67  C   UNL A   1      33.188  29.711  25.997  1.00  0.00     0.261 C 
BRANCH  67  68
ATOM     68  O   UNL A   1      33.565  28.478  25.374  1.00  0.00    -0.463 OA
BRANCH  68  69
ATOM     69  C   UNL A   1      32.747  27.968  24.431  1.00  0.00     0.310 C 
ATOM     70  O   UNL A   1      32.259  28.617  23.524  1.00  0.00    -0.252 OA
BRANCH  69  71
ATOM     71  C   UNL A   1      32.533  26.468  24.639  1.00  0.00     0.115 C 
ATOM     72  C   UNL A   1      32.174  26.302  26.160  1.00  0.00     0.004 C 
ATOM     73  C   UNL A   1      31.436  25.827  23.743  1.00  0.00     0.096 C 
ATOM     74  C   UNL A   1      30.754  26.847  26.457  1.00  0.00     0.005 C 
ATOM     75  C   UNL A   1      32.203  24.816  26.520  1.00  0.00     0.005 C 
ATOM     76  C   UNL A   1      30.414  25.070  24.748  1.00  0.00     0.002 C 
ATOM     77  C   UNL A   1      29.708  26.074  25.659  1.00  0.00     0.005 C 
ATOM     78  C   UNL A   1      31.152  24.080  25.697  1.00  0.00     0.005 C 
BRANCH  73  79
ATOM     79  C   UNL A   1      31.862  24.802  22.673  1.00  0.00     0.229 C 
ATOM     80  O   UNL A   1      31.633  25.230  21.533  1.00  0.00    -0.274 OA
ATOM     81  N   UNL A   1      32.533  23.615  22.609  1.00  0.00    -0.317 N 
ATOM     82  H   UNL A   1      32.226  23.029  21.879  1.00  0.00     0.170 HD
BRANCH  81  83
ATOM     83  C   UNL A   1      33.558  23.069  23.365  1.00  0.00     0.108 A 
ATOM     84  S   UNL A   1      34.844  24.116  23.684  1.00  0.00    -0.122 S 
ATOM     85  C   UNL A   1      33.668  21.860  24.102  1.00  0.00     0.078 A 
ATOM     86  C   UNL A   1      35.767  22.883  24.356  1.00  0.00     0.011 A 
ATOM     87  C   UNL A   1      35.045  21.726  24.552  1.00  0.00    -0.019 A 
ATOM     88  C   UNL A   1      37.201  23.064  24.718  1.00  0.00     0.047 C 
ATOM     89  C   UNL A   1      35.689  20.517  25.156  1.00  0.00     0.037 C 
ATOM     90  C   UNL A   1      37.892  21.696  24.699  1.00  0.00     0.006 C 
ATOM     91  C   UNL A   1      37.139  20.721  25.602  1.00  0.00     0.005 C 
BRANCH  85  92
ATOM     92  C   UNL A   1      32.605  20.840  24.380  1.00  0.00     0.257 C 
ATOM     93  O   UNL A   1      31.524  21.160  24.867  1.00  0.00    -0.269 OA
ATOM     94  N   UNL A   1      32.893  19.482  24.087  1.00  0.00    -0.339 N 
ATOM     95  C   UNL A   1      32.181  18.815  23.000  1.00  0.00     0.120 C 
ATOM     96  C   UNL A   1      33.067  18.550  25.204  1.00  0.00     0.120 C 
ATOM     97  C   UNL A   1      33.016  17.674  22.427  1.00  0.00     0.022 C 
ATOM     98  C   UNL A   1      33.933  17.354  24.774  1.00  0.00     0.022 C 
ATOM     99  C   UNL A   1      33.414  16.669  23.506  1.00  0.00     0.004 C 
ENDBRANCH  85  92
ENDBRANCH  81  83
ENDBRANCH  73  79
ENDBRANCH  69  71
ENDBRANCH  68  69
ENDBRANCH  67  68
ENDBRANCH  66  67
ENDBRANCH  65  66
ENDBRANCH   1  65
TORSDOF 20
ENDMDL
MODEL 3
REMARK VINA RESULT:     -11.5      4.862      8.587
REMARK SMILES O=C(OCCOCCOCCOC(=O)[C@H]1[C@H]2CC[C@H](CC2)[C@@H]1C(=O)Nc1sc2c(c1C(=O)N1CCCCC1)CCCC2)c1ccc(-c2c3nc(c(-c4c(F)cccc4F)c4ccc([nH]4)c(-c4c(F)cccc4F)c4nc(c(-c5c(F)cccc5F)c5ccc2[nH]5)C=C4)C=C3)cc1
REMARK SMILES IDX 8 1 7 2 6 3 5 4 4 5 3 6 2 7 1 8 43 9 44 10 96 11 45 12 95 13
REMARK SMILES IDX 46 14 47 15 48 16 89 17 49 18 94 19 88 20 90 21 50 22 93 23
REMARK SMILES IDX 87 24 86 25 51 27 77 28 60 29 76 30 61 31 64 32 75 33 91 34
REMARK SMILES IDX 62 35 63 36 74 38 92 39 65 40 52 41 53 42 58 43 54 44 55 45
REMARK SMILES IDX 57 46 59 47 56 48 78 49 79 50 84 51 80 52 81 53 83 54 85 55
REMARK SMILES IDX 82 56 66 57 67 58 72 59 68 60 69 61 71 62 73 63 70 64 9 65
REMARK SMILES IDX 10 66 11 67 12 68 13 69 14 70 15 71 16 72 22 73 21 74 17 75
REMARK SMILES IDX 19 76 20 77 18 78 23 79 24 80 25 81 26 83 27 84 30 85 28 86
REMARK SMILES IDX 29 87 42 88 39 89 41 90 40 91 31 92 32 93 33 94 34 95 38 96
REMARK SMILES IDX 35 97 37 98 36 99
REMARK H PARENT 90 26 64 37 25 82
REMARK Flexibility Score: inf
ROOT
ATOM      1  C   UNL A   1      35.322  31.721  27.615  1.00  0.00     0.188 C 
ENDROOT
BRANCH   1   2
ATOM      2  C   UNL A   1      34.365  32.513  28.511  1.00  0.00     0.188 C 
BRANCH   2   3
ATOM      3  O   UNL A   1      34.985  33.608  29.198  1.00  0.00    -0.376 OA
BRANCH   3   4
ATOM      4  C   UNL A   1      34.100  34.232  30.130  1.00  0.00     0.202 C 
BRANCH   4   5
ATOM      5  C   UNL A   1      34.486  34.065  31.610  1.00  0.00     0.261 C 
BRANCH   5   6
ATOM      6  O   UNL A   1      34.932  32.738  31.972  1.00  0.00    -0.460 OA
BRANCH   6   7
ATOM      7  C   UNL A   1      36.049  32.268  32.590  1.00  0.00     0.338 C 
ATOM      8  O   UNL A   1      36.049  32.260  33.821  1.00  0.00    -0.246 OA
BRANCH   7   9
ATOM      9  C   UNL A   1      37.285  31.755  31.906  1.00  0.00     0.060 A 
ATOM     10  C   UNL A   1      37.656  32.086  30.625  1.00  0.00     0.016 A 
ATOM     11  C   UNL A   1      38.164  30.881  32.597  1.00  0.00     0.016 A 
ATOM     12  C   UNL A   1      38.787  31.499  30.041  1.00  0.00     0.010 A 
ATOM     13  C   UNL A   1      39.367  30.367  32.021  1.00  0.00     0.010 A 
ATOM     14  C   UNL A   1      39.705  30.687  30.711  1.00  0.00    -0.014 A 
BRANCH  14  15
ATOM     15  C   UNL A   1      40.831  30.166  29.850  1.00  0.00     0.031 A 
ATOM     16  C   UNL A   1      42.095  30.971  29.885  1.00  0.00     0.074 A 
ATOM     17  C   UNL A   1      40.921  28.906  29.349  1.00  0.00     0.049 A 
ATOM     18  N   UNL A   1      43.258  30.709  29.355  1.00  0.00    -0.248 NA
ATOM     19  C   UNL A   1      42.032  32.244  30.622  1.00  0.00     0.031 C 
ATOM     20  C   UNL A   1      39.840  27.947  29.268  1.00  0.00     0.029 A 
ATOM     21  N   UNL A   1      41.993  28.159  28.893  1.00  0.00    -0.354 N 
ATOM     22  C   UNL A   1      44.052  31.796  29.662  1.00  0.00     0.074 A 
ATOM     23  C   UNL A   1      43.266  32.694  30.477  1.00  0.00     0.031 C 
ATOM     24  C   UNL A   1      40.310  26.707  29.082  1.00  0.00     0.029 A 
ATOM     25  C   UNL A   1      41.700  26.821  28.678  1.00  0.00     0.049 A 
ATOM     26  H   UNL A   1      42.885  28.545  28.735  1.00  0.00     0.167 HD
ATOM     27  C   UNL A   1      45.304  32.058  29.228  1.00  0.00     0.037 A 
ATOM     28  C   UNL A   1      42.399  25.821  28.096  1.00  0.00     0.037 A 
ATOM     29  C   UNL A   1      46.045  31.197  28.349  1.00  0.00     0.049 A 
ATOM     30  C   UNL A   1      43.717  26.187  27.474  1.00  0.00     0.074 A 
ATOM     31  C   UNL A   1      47.246  31.444  27.714  1.00  0.00     0.029 A 
ATOM     32  N   UNL A   1      45.640  29.925  27.967  1.00  0.00    -0.354 N 
ATOM     33  N   UNL A   1      44.399  27.298  27.598  1.00  0.00    -0.248 NA
ATOM     34  C   UNL A   1      44.317  25.210  26.554  1.00  0.00     0.031 C 
ATOM     35  C   UNL A   1      47.539  30.347  26.897  1.00  0.00     0.029 A 
ATOM     36  C   UNL A   1      46.558  29.385  27.082  1.00  0.00     0.049 A 
ATOM     37  H   UNL A   1      44.823  29.474  28.279  1.00  0.00     0.167 HD
ATOM     38  C   UNL A   1      45.493  27.168  26.758  1.00  0.00     0.074 A 
ATOM     39  C   UNL A   1      45.410  25.850  26.162  1.00  0.00     0.031 C 
ATOM     40  C   UNL A   1      46.464  28.073  26.492  1.00  0.00     0.037 A 
BRANCH  27  41
ATOM     41  C   UNL A   1      45.830  33.417  29.556  1.00  0.00     0.057 A 
ATOM     42  C   UNL A   1      45.592  34.535  28.750  1.00  0.00     0.134 A 
ATOM     43  C   UNL A   1      46.680  33.574  30.659  1.00  0.00     0.134 A 
ATOM     44  F   UNL A   1      44.840  34.432  27.645  1.00  0.00    -0.206 F 
ATOM     45  C   UNL A   1      46.197  35.763  29.023  1.00  0.00     0.040 A 
ATOM     46  C   UNL A   1      47.270  34.800  30.955  1.00  0.00     0.040 A 
ATOM     47  F   UNL A   1      46.974  32.528  31.447  1.00  0.00    -0.206 F 
ATOM     48  C   UNL A   1      47.034  35.898  30.131  1.00  0.00     0.006 A 
ENDBRANCH  27  41
BRANCH  28  49
ATOM     49  C   UNL A   1      41.802  24.463  27.866  1.00  0.00     0.057 A 
ATOM     50  C   UNL A   1      40.847  24.223  26.868  1.00  0.00     0.134 A 
ATOM     51  C   UNL A   1      42.132  23.368  28.684  1.00  0.00     0.134 A 
ATOM     52  F   UNL A   1      40.418  25.226  26.087  1.00  0.00    -0.206 F 
ATOM     53  C   UNL A   1      40.271  22.960  26.680  1.00  0.00     0.040 A 
ATOM     54  C   UNL A   1      41.606  22.090  28.474  1.00  0.00     0.040 A 
ATOM     55  F   UNL A   1      42.989  23.516  29.705  1.00  0.00    -0.206 F 
ATOM     56  C   UNL A   1      40.666  21.883  27.472  1.00  0.00     0.006 A 
ENDBRANCH  28  49
BRANCH  40  57
ATOM     57  C   UNL A   1      47.545  27.648  25.548  1.00  0.00     0.057 A 
ATOM     58  C   UNL A   1      47.396  27.727  24.158  1.00  0.00     0.134 A 
ATOM     59  C   UNL A   1      48.764  27.172  26.046  1.00  0.00     0.134 A 
ATOM     60  F   UNL A   1      46.246  28.159  23.619  1.00  0.00    -0.206 F 
ATOM     61  C   UNL A   1      48.415  27.325  23.295  1.00  0.00     0.040 A 
ATOM     62  C   UNL A   1      49.800  26.794  25.194  1.00  0.00     0.040 A 
ATOM     63  F   UNL A   1      48.970  27.078  27.368  1.00  0.00    -0.206 F 
ATOM     64  C   UNL A   1      49.625  26.863  23.814  1.00  0.00     0.006 A 
ENDBRANCH  40  57
ENDBRANCH  14  15
ENDBRANCH   7   9
ENDBRANCH   6   7
ENDBRANCH   5   6
ENDBRANCH   4   5
ENDBRANCH   3   4
ENDBRANCH   2   3
ENDBRANCH   1   2
BRANCH   1  65
ATOM     65  O   UNL A   1      35.060  30.319  27.546  1.00  0.00    -0.376 OA
BRANCH  65  66
ATOM     66  C   UNL A   1      33.737  29.941  27.151  1.00  0.00     0.202 C 
BRANCH  66  67
ATOM     67  C   UNL A   1      33.685  28.973  25.965  1.00  0.00     0.261 C 
BRANCH  67  68
ATOM     68  O   UNL A   1      32.426  28.293  26.024  1.00  0.00    -0.463 OA
BRANCH  68  69
ATOM     69  C   UNL A   1      31.607  28.383  24.957  1.00  0.00     0.310 C 
ATOM     70  O   UNL A   1      31.056  29.408  24.602  1.00  0.00    -0.252 OA
BRANCH  69  71
ATOM     71  C   UNL A   1      31.480  27.036  24.244  1.00  0.00     0.115 C 
ATOM     72  C   UNL A   1      31.761  27.336  22.727  1.00  0.00     0.004 C 
ATOM     73  C   UNL A   1      32.426  25.919  24.767  1.00  0.00     0.096 C 
ATOM     74  C   UNL A   1      33.260  27.653  22.494  1.00  0.00     0.005 C 
ATOM     75  C   UNL A   1      31.397  26.103  21.898  1.00  0.00     0.005 C 
ATOM     76  C   UNL A   1      33.235  25.367  23.475  1.00  0.00     0.002 C 
ATOM     77  C   UNL A   1      34.126  26.460  22.886  1.00  0.00     0.005 C 
ATOM     78  C   UNL A   1      32.277  24.934  22.326  1.00  0.00     0.005 C 
BRANCH  73  79
ATOM     79  C   UNL A   1      31.807  24.695  25.471  1.00  0.00     0.229 C 
ATOM     80  O   UNL A   1      30.577  24.673  25.321  1.00  0.00    -0.274 OA
ATOM     81  N   UNL A   1      32.229  23.562  26.103  1.00  0.00    -0.317 N 
ATOM     82  H   UNL A   1      31.618  23.256  26.813  1.00  0.00     0.170 HD
BRANCH  81  83
ATOM     83  C   UNL A   1      33.344  22.754  25.946  1.00  0.00     0.108 A 
ATOM     84  S   UNL A   1      34.774  23.378  26.593  1.00  0.00    -0.122 S 
ATOM     85  C   UNL A   1      33.503  21.408  25.522  1.00  0.00     0.078 A 
ATOM     86  C   UNL A   1      35.697  22.151  25.910  1.00  0.00     0.011 A 
ATOM     87  C   UNL A   1      34.926  21.141  25.378  1.00  0.00    -0.019 A 
ATOM     88  C   UNL A   1      37.186  22.169  25.923  1.00  0.00     0.047 C 
ATOM     89  C   UNL A   1      35.565  19.949  24.737  1.00  0.00     0.037 C 
ATOM     90  C   UNL A   1      37.701  21.324  24.753  1.00  0.00     0.006 C 
ATOM     91  C   UNL A   1      37.093  19.924  24.817  1.00  0.00     0.005 C 
BRANCH  85  92
ATOM     92  C   UNL A   1      32.437  20.395  25.225  1.00  0.00     0.257 C 
ATOM     93  O   UNL A   1      31.246  20.669  25.338  1.00  0.00    -0.269 OA
ATOM     94  N   UNL A   1      32.847  19.094  24.834  1.00  0.00    -0.339 N 
ATOM     95  C   UNL A   1      32.590  18.642  23.468  1.00  0.00     0.120 C 
ATOM     96  C   UNL A   1      32.632  17.986  25.766  1.00  0.00     0.120 C 
ATOM     97  C   UNL A   1      33.605  17.581  23.051  1.00  0.00     0.022 C 
ATOM     98  C   UNL A   1      33.625  16.846  25.482  1.00  0.00     0.022 C 
ATOM     99  C   UNL A   1      33.614  16.398  24.017  1.00  0.00     0.004 C 
ENDBRANCH  85  92
ENDBRANCH  81  83
ENDBRANCH  73  79
ENDBRANCH  69  71
ENDBRANCH  68  69
ENDBRANCH  67  68
ENDBRANCH  66  67
ENDBRANCH  65  66
ENDBRANCH   1  65
TORSDOF 20
ENDMDL
