MODEL 1
REMARK VINA RESULT:      -9.2      0.000      0.000
REMARK SMILES COc1cc(C(=O)OCCOCCOCCOC(=O)c2ccc(-c3c4nc(c(-c5c(F)cccc5F)c5ccc([nH]5)c(-c5c(F)cccc5F)c5nc(c(-c6c(F)cccc6F)c6ccc3[nH]6)C=C5)C=C4)cc2)cc(OC)c1OCc1csc(C)n1
REMARK SMILES IDX 12 1 11 2 10 3 9 4 8 5 6 6 7 7 5 8 3 9 4 10 78 11 75 12
REMARK SMILES IDX 74 13 2 14 1 15 79 16 80 17 81 18 82 19 86 20 83 21 84 22
REMARK SMILES IDX 85 23 76 24 77 25 13 26 14 27 15 28 16 29 17 30 18 31 19 32
REMARK SMILES IDX 20 33 21 34 73 35 22 36 72 37 23 38 24 39 25 40 66 41 26 42
REMARK SMILES IDX 71 43 65 44 67 45 27 46 70 47 64 48 63 49 28 51 54 52 37 53
REMARK SMILES IDX 53 54 38 55 41 56 52 57 68 58 39 59 40 60 51 62 69 63 42 64
REMARK SMILES IDX 29 65 30 66 35 67 31 68 32 69 34 70 36 71 33 72 55 73 56 74
REMARK SMILES IDX 61 75 57 76 58 77 60 78 62 79 59 80 43 81 44 82 49 83 45 84
REMARK SMILES IDX 46 85 48 86 50 87 47 88
REMARK H PARENT 67 50 41 61
REMARK Flexibility Score: inf
ROOT
ATOM      1  C   UNL A   1      34.129  28.791  25.882  1.00  0.00     0.188 C 
ENDROOT
BRANCH   1   2
ATOM      2  O   UNL A   1      33.652  28.097  24.741  1.00  0.00    -0.376 OA
BRANCH   2   3
ATOM      3  C   UNL A   1      32.689  28.719  23.901  1.00  0.00     0.202 C 
BRANCH   3   4
ATOM      4  C   UNL A   1      31.180  28.692  24.224  1.00  0.00     0.261 C 
BRANCH   4   5
ATOM      5  O   UNL A   1      30.715  27.555  24.970  1.00  0.00    -0.460 OA
BRANCH   5   6
ATOM      6  C   UNL A   1      29.967  26.659  24.276  1.00  0.00     0.338 C 
ATOM      7  O   UNL A   1      29.052  26.898  23.507  1.00  0.00    -0.246 OA
BRANCH   6   8
ATOM      8  C   UNL A   1      30.592  25.325  24.365  1.00  0.00     0.067 A 
ATOM      9  C   UNL A   1      32.344  23.852  23.535  1.00  0.00     0.165 A 
ATOM     10  C   UNL A   1      31.640  25.057  23.489  1.00  0.00     0.066 A 
ATOM     11  C   UNL A   1      31.858  22.815  24.344  1.00  0.00     0.203 A 
ATOM     12  C   UNL A   1      30.852  23.110  25.300  1.00  0.00     0.165 A 
ATOM     13  C   UNL A   1      30.232  24.376  25.310  1.00  0.00     0.066 A 
BRANCH   9  14
ATOM     14  O   UNL A   1      33.426  23.907  22.703  1.00  0.00    -0.493 OA
ATOM     15  C   UNL A   1      34.405  24.926  22.782  1.00  0.00     0.278 C 
ENDBRANCH   9  14
BRANCH  11  16
ATOM     16  O   UNL A   1      32.433  21.588  24.269  1.00  0.00    -0.480 OA
BRANCH  16  17
ATOM     17  C   UNL A   1      33.441  21.202  25.242  1.00  0.00     0.287 C 
BRANCH  17  18
ATOM     18  C   UNL A   1      34.933  21.456  25.121  1.00  0.00     0.089 A 
ATOM     19  C   UNL A   1      35.692  22.603  25.255  1.00  0.00     0.094 A 
ATOM     20  N   UNL A   1      35.730  20.309  24.993  1.00  0.00    -0.243 NA
ATOM     21  S   UNL A   1      37.370  22.273  25.212  1.00  0.00    -0.127 S 
ATOM     22  C   UNL A   1      37.011  20.610  25.044  1.00  0.00     0.090 A 
ATOM     23  C   UNL A   1      38.127  19.629  24.999  1.00  0.00     0.079 C 
ENDBRANCH  17  18
ENDBRANCH  16  17
ENDBRANCH  11  16
BRANCH  12  24
ATOM     24  O   UNL A   1      30.339  22.304  26.283  1.00  0.00    -0.493 OA
ATOM     25  C   UNL A   1      29.470  22.861  27.254  1.00  0.00     0.278 C 
ENDBRANCH  12  24
ENDBRANCH   6   8
ENDBRANCH   5   6
ENDBRANCH   4   5
ENDBRANCH   3   4
ENDBRANCH   2   3
ENDBRANCH   1   2
BRANCH   1  26
ATOM     26  C   UNL A   1      33.245  28.888  27.145  1.00  0.00     0.188 C 
BRANCH  26  27
ATOM     27  O   UNL A   1      32.479  30.062  27.237  1.00  0.00    -0.376 OA
BRANCH  27  28
ATOM     28  C   UNL A   1      33.127  31.319  27.300  1.00  0.00     0.202 C 
BRANCH  28  29
ATOM     29  C   UNL A   1      32.428  32.690  27.432  1.00  0.00     0.261 C 
BRANCH  29  30
ATOM     30  O   UNL A   1      33.225  33.878  27.474  1.00  0.00    -0.460 OA
BRANCH  30  31
ATOM     31  C   UNL A   1      33.322  34.495  28.678  1.00  0.00     0.338 C 
ATOM     32  O   UNL A   1      32.528  35.266  29.177  1.00  0.00    -0.246 OA
BRANCH  31  33
ATOM     33  C   UNL A   1      34.491  33.947  29.397  1.00  0.00     0.060 A 
ATOM     34  C   UNL A   1      35.771  34.218  28.899  1.00  0.00     0.016 A 
ATOM     35  C   UNL A   1      34.329  33.133  30.520  1.00  0.00     0.016 A 
ATOM     36  C   UNL A   1      36.888  33.643  29.503  1.00  0.00     0.010 A 
ATOM     37  C   UNL A   1      35.454  32.549  31.117  1.00  0.00     0.010 A 
ATOM     38  C   UNL A   1      36.737  32.776  30.592  1.00  0.00    -0.014 A 
BRANCH  38  39
ATOM     39  C   UNL A   1      37.906  31.986  31.057  1.00  0.00     0.031 A 
ATOM     40  C   UNL A   1      38.465  32.252  32.429  1.00  0.00     0.074 A 
ATOM     41  C   UNL A   1      38.430  31.002  30.303  1.00  0.00     0.049 A 
ATOM     42  N   UNL A   1      39.465  31.677  33.049  1.00  0.00    -0.248 NA
ATOM     43  C   UNL A   1      37.803  33.309  33.205  1.00  0.00     0.031 C 
ATOM     44  C   UNL A   1      37.950  30.602  28.983  1.00  0.00     0.029 A 
ATOM     45  N   UNL A   1      39.484  30.157  30.552  1.00  0.00    -0.354 N 
ATOM     46  C   UNL A   1      39.551  32.303  34.287  1.00  0.00     0.074 A 
ATOM     47  C   UNL A   1      38.532  33.331  34.309  1.00  0.00     0.031 C 
ATOM     48  C   UNL A   1      38.706  29.583  28.537  1.00  0.00     0.029 A 
ATOM     49  C   UNL A   1      39.740  29.281  29.526  1.00  0.00     0.049 A 
ATOM     50  H   UNL A   1      40.005  30.178  31.386  1.00  0.00     0.167 HD
ATOM     51  C   UNL A   1      40.390  32.040  35.319  1.00  0.00     0.037 A 
ATOM     52  C   UNL A   1      40.705  28.350  29.398  1.00  0.00     0.037 A 
ATOM     53  C   UNL A   1      41.421  31.033  35.290  1.00  0.00     0.049 A 
ATOM     54  C   UNL A   1      41.698  28.149  30.514  1.00  0.00     0.074 A 
ATOM     55  C   UNL A   1      42.325  30.694  36.281  1.00  0.00     0.029 A 
ATOM     56  N   UNL A   1      41.695  30.213  34.204  1.00  0.00    -0.354 N 
ATOM     57  N   UNL A   1      41.760  28.731  31.687  1.00  0.00    -0.248 NA
ATOM     58  C   UNL A   1      42.751  27.149  30.284  1.00  0.00     0.031 C 
ATOM     59  C   UNL A   1      43.185  29.711  35.774  1.00  0.00     0.029 A 
ATOM     60  C   UNL A   1      42.773  29.389  34.491  1.00  0.00     0.049 A 
ATOM     61  H   UNL A   1      41.198  30.217  33.355  1.00  0.00     0.167 HD
ATOM     62  C   UNL A   1      42.834  28.144  32.349  1.00  0.00     0.074 A 
ATOM     63  C   UNL A   1      43.383  27.151  31.449  1.00  0.00     0.031 C 
ATOM     64  C   UNL A   1      43.318  28.402  33.591  1.00  0.00     0.037 A 
BRANCH  51  65
ATOM     65  C   UNL A   1      40.244  32.894  36.548  1.00  0.00     0.057 A 
ATOM     66  C   UNL A   1      41.089  33.984  36.802  1.00  0.00     0.134 A 
ATOM     67  C   UNL A   1      39.256  32.612  37.499  1.00  0.00     0.134 A 
ATOM     68  F   UNL A   1      42.066  34.303  35.940  1.00  0.00    -0.206 F 
ATOM     69  C   UNL A   1      40.987  34.731  37.977  1.00  0.00     0.040 A 
ATOM     70  C   UNL A   1      39.122  33.373  38.662  1.00  0.00     0.040 A 
ATOM     71  F   UNL A   1      38.407  31.589  37.320  1.00  0.00    -0.206 F 
ATOM     72  C   UNL A   1      39.998  34.428  38.910  1.00  0.00     0.006 A 
ENDBRANCH  51  65
BRANCH  52  73
ATOM     73  C   UNL A   1      40.777  27.516  28.172  1.00  0.00     0.057 A 
ATOM     74  C   UNL A   1      41.488  27.948  27.046  1.00  0.00     0.134 A 
ATOM     75  C   UNL A   1      40.121  26.282  28.084  1.00  0.00     0.134 A 
ATOM     76  F   UNL A   1      42.113  29.134  27.057  1.00  0.00    -0.206 F 
ATOM     77  C   UNL A   1      41.535  27.191  25.873  1.00  0.00     0.040 A 
ATOM     78  C   UNL A   1      40.183  25.501  26.928  1.00  0.00     0.040 A 
ATOM     79  F   UNL A   1      39.418  25.813  29.126  1.00  0.00    -0.206 F 
ATOM     80  C   UNL A   1      40.886  25.960  25.816  1.00  0.00     0.006 A 
ENDBRANCH  52  73
BRANCH  64  81
ATOM     81  C   UNL A   1      44.470  27.559  34.068  1.00  0.00     0.057 A 
ATOM     82  C   UNL A   1      44.283  26.394  34.825  1.00  0.00     0.134 A 
ATOM     83  C   UNL A   1      45.789  27.918  33.763  1.00  0.00     0.134 A 
ATOM     84  F   UNL A   1      43.047  25.994  35.164  1.00  0.00    -0.206 F 
ATOM     85  C   UNL A   1      45.363  25.645  35.297  1.00  0.00     0.040 A 
ATOM     86  C   UNL A   1      46.877  27.159  34.198  1.00  0.00     0.040 A 
ATOM     87  F   UNL A   1      46.046  29.014  33.031  1.00  0.00    -0.206 F 
ATOM     88  C   UNL A   1      46.666  26.025  34.980  1.00  0.00     0.006 A 
ENDBRANCH  64  81
ENDBRANCH  38  39
ENDBRANCH  31  33
ENDBRANCH  30  31
ENDBRANCH  29  30
ENDBRANCH  28  29
ENDBRANCH  27  28
ENDBRANCH  26  27
ENDBRANCH   1  26
TORSDOF 22
ENDMDL
MODEL 2
REMARK VINA RESULT:      -9.2      0.625      6.028
REMARK SMILES COc1cc(C(=O)OCCOCCOCCOC(=O)c2ccc(-c3c4nc(c(-c5c(F)cccc5F)c5ccc([nH]5)c(-c5c(F)cccc5F)c5nc(c(-c6c(F)cccc6F)c6ccc3[nH]6)C=C5)C=C4)cc2)cc(OC)c1OCc1csc(C)n1
REMARK SMILES IDX 12 1 11 2 10 3 9 4 8 5 6 6 7 7 5 8 3 9 4 10 78 11 75 12
REMARK SMILES IDX 74 13 2 14 1 15 79 16 80 17 81 18 82 19 86 20 83 21 84 22
REMARK SMILES IDX 85 23 76 24 77 25 13 26 14 27 15 28 16 29 17 30 18 31 19 32
REMARK SMILES IDX 20 33 21 34 73 35 22 36 72 37 23 38 24 39 25 40 66 41 26 42
REMARK SMILES IDX 71 43 65 44 67 45 27 46 70 47 64 48 63 49 28 51 54 52 37 53
REMARK SMILES IDX 53 54 38 55 41 56 52 57 68 58 39 59 40 60 51 62 69 63 42 64
REMARK SMILES IDX 29 65 30 66 35 67 31 68 32 69 34 70 36 71 33 72 55 73 56 74
REMARK SMILES IDX 61 75 57 76 58 77 60 78 62 79 59 80 43 81 44 82 49 83 45 84
REMARK SMILES IDX 46 85 48 86 50 87 47 88
REMARK H PARENT 67 50 41 61
REMARK Flexibility Score: inf
ROOT
ATOM      1  C   UNL A   1      33.818  28.862  25.671  1.00  0.00     0.188 C 
ENDROOT
BRANCH   1   2
ATOM      2  O   UNL A   1      33.474  27.978  24.616  1.00  0.00    -0.376 OA
BRANCH   2   3
ATOM      3  C   UNL A   1      32.771  28.483  23.488  1.00  0.00     0.202 C 
BRANCH   3   4
ATOM      4  C   UNL A   1      31.237  28.654  23.486  1.00  0.00     0.261 C 
BRANCH   4   5
ATOM      5  O   UNL A   1      30.532  28.028  24.571  1.00  0.00    -0.460 OA
BRANCH   5   6
ATOM      6  C   UNL A   1      29.658  27.050  24.220  1.00  0.00     0.338 C 
ATOM      7  O   UNL A   1      28.661  27.162  23.527  1.00  0.00    -0.246 OA
BRANCH   6   8
ATOM      8  C   UNL A   1      30.227  25.735  24.573  1.00  0.00     0.067 A 
ATOM      9  C   UNL A   1      31.720  23.931  23.904  1.00  0.00     0.165 A 
ATOM     10  C   UNL A   1      31.076  25.142  23.642  1.00  0.00     0.066 A 
ATOM     11  C   UNL A   1      31.350  23.201  25.043  1.00  0.00     0.203 A 
ATOM     12  C   UNL A   1      30.560  23.837  26.034  1.00  0.00     0.165 A 
ATOM     13  C   UNL A   1      30.011  25.113  25.793  1.00  0.00     0.066 A 
BRANCH   9  14
ATOM     14  O   UNL A   1      32.625  23.656  22.919  1.00  0.00    -0.493 OA
ATOM     15  C   UNL A   1      33.448  24.647  22.333  1.00  0.00     0.278 C 
ENDBRANCH   9  14
BRANCH  11  16
ATOM     16  O   UNL A   1      31.844  21.949  25.219  1.00  0.00    -0.480 OA
BRANCH  16  17
ATOM     17  C   UNL A   1      33.016  21.746  26.054  1.00  0.00     0.287 C 
BRANCH  17  18
ATOM     18  C   UNL A   1      34.446  22.088  25.674  1.00  0.00     0.089 A 
ATOM     19  C   UNL A   1      35.146  23.280  25.680  1.00  0.00     0.094 A 
ATOM     20  N   UNL A   1      35.275  20.991  25.400  1.00  0.00    -0.243 NA
ATOM     21  S   UNL A   1      36.807  23.051  25.340  1.00  0.00    -0.127 S 
ATOM     22  C   UNL A   1      36.525  21.369  25.227  1.00  0.00     0.090 A 
ATOM     23  C   UNL A   1      37.671  20.457  24.979  1.00  0.00     0.079 C 
ENDBRANCH  17  18
ENDBRANCH  16  17
ENDBRANCH  11  16
BRANCH  12  24
ATOM     24  O   UNL A   1      30.208  23.377  27.277  1.00  0.00    -0.493 OA
ATOM     25  C   UNL A   1      29.048  22.574  27.416  1.00  0.00     0.278 C 
ENDBRANCH  12  24
ENDBRANCH   6   8
ENDBRANCH   5   6
ENDBRANCH   4   5
ENDBRANCH   3   4
ENDBRANCH   2   3
ENDBRANCH   1   2
BRANCH   1  26
ATOM     26  C   UNL A   1      32.757  29.251  26.723  1.00  0.00     0.188 C 
BRANCH  26  27
ATOM     27  O   UNL A   1      32.187  30.522  26.542  1.00  0.00    -0.376 OA
BRANCH  27  28
ATOM     28  C   UNL A   1      32.768  31.648  27.173  1.00  0.00     0.202 C 
BRANCH  28  29
ATOM     29  C   UNL A   1      32.122  33.045  27.301  1.00  0.00     0.261 C 
BRANCH  29  30
ATOM     30  O   UNL A   1      32.960  34.182  27.529  1.00  0.00    -0.460 OA
BRANCH  30  31
ATOM     31  C   UNL A   1      33.264  34.457  28.823  1.00  0.00     0.338 C 
ATOM     32  O   UNL A   1      32.628  35.139  29.600  1.00  0.00    -0.246 OA
BRANCH  31  33
ATOM     33  C   UNL A   1      34.432  33.642  29.217  1.00  0.00     0.060 A 
ATOM     34  C   UNL A   1      34.252  32.629  30.165  1.00  0.00     0.016 A 
ATOM     35  C   UNL A   1      35.701  33.905  28.696  1.00  0.00     0.016 A 
ATOM     36  C   UNL A   1      35.350  31.901  30.623  1.00  0.00     0.010 A 
ATOM     37  C   UNL A   1      36.803  33.178  29.167  1.00  0.00     0.010 A 
ATOM     38  C   UNL A   1      36.637  32.193  30.156  1.00  0.00    -0.014 A 
BRANCH  38  39
ATOM     39  C   UNL A   1      37.810  31.584  30.834  1.00  0.00     0.031 A 
ATOM     40  C   UNL A   1      38.591  30.515  30.118  1.00  0.00     0.074 A 
ATOM     41  C   UNL A   1      38.220  32.012  32.042  1.00  0.00     0.049 A 
ATOM     42  N   UNL A   1      39.654  29.856  30.506  1.00  0.00    -0.248 NA
ATOM     43  C   UNL A   1      38.104  30.141  28.783  1.00  0.00     0.031 C 
ATOM     44  C   UNL A   1      37.593  33.077  32.819  1.00  0.00     0.029 A 
ATOM     45  N   UNL A   1      39.273  31.598  32.821  1.00  0.00    -0.354 N 
ATOM     46  C   UNL A   1      39.963  28.991  29.462  1.00  0.00     0.074 A 
ATOM     47  C   UNL A   1      38.947  29.179  28.448  1.00  0.00     0.031 C 
ATOM     48  C   UNL A   1      38.275  33.237  33.967  1.00  0.00     0.029 A 
ATOM     49  C   UNL A   1      39.368  32.267  34.017  1.00  0.00     0.049 A 
ATOM     50  H   UNL A   1      39.899  30.890  32.549  1.00  0.00     0.167 HD
ATOM     51  C   UNL A   1      41.003  28.129  29.349  1.00  0.00     0.037 A 
ATOM     52  C   UNL A   1      40.232  32.105  35.037  1.00  0.00     0.037 A 
ATOM     53  C   UNL A   1      42.001  27.923  30.368  1.00  0.00     0.049 A 
ATOM     54  C   UNL A   1      41.316  31.064  34.937  1.00  0.00     0.074 A 
ATOM     55  C   UNL A   1      43.091  27.070  30.350  1.00  0.00     0.029 A 
ATOM     56  N   UNL A   1      42.023  28.570  31.596  1.00  0.00    -0.354 N 
ATOM     57  N   UNL A   1      41.612  30.264  33.941  1.00  0.00    -0.248 NA
ATOM     58  C   UNL A   1      42.193  30.912  36.108  1.00  0.00     0.031 C 
ATOM     59  C   UNL A   1      43.735  27.156  31.591  1.00  0.00     0.029 A 
ATOM     60  C   UNL A   1      43.089  28.113  32.356  1.00  0.00     0.049 A 
ATOM     61  H   UNL A   1      41.375  29.252  31.885  1.00  0.00     0.167 HD
ATOM     62  C   UNL A   1      42.729  29.541  34.348  1.00  0.00     0.074 A 
ATOM     63  C   UNL A   1      43.063  30.010  35.678  1.00  0.00     0.031 C 
ATOM     64  C   UNL A   1      43.417  28.581  33.680  1.00  0.00     0.037 A 
BRANCH  51  65
ATOM     65  C   UNL A   1      41.077  27.315  28.087  1.00  0.00     0.057 A 
ATOM     66  C   UNL A   1      40.396  26.097  27.944  1.00  0.00     0.134 A 
ATOM     67  C   UNL A   1      41.852  27.747  27.003  1.00  0.00     0.134 A 
ATOM     68  F   UNL A   1      39.645  25.617  28.947  1.00  0.00    -0.206 F 
ATOM     69  C   UNL A   1      40.523  25.318  26.793  1.00  0.00     0.040 A 
ATOM     70  C   UNL A   1      41.959  26.993  25.833  1.00  0.00     0.040 A 
ATOM     71  F   UNL A   1      42.525  28.906  27.064  1.00  0.00    -0.206 F 
ATOM     72  C   UNL A   1      41.304  25.767  25.731  1.00  0.00     0.006 A 
ENDBRANCH  51  65
BRANCH  52  73
ATOM     73  C   UNL A   1      40.126  32.963  36.245  1.00  0.00     0.057 A 
ATOM     74  C   UNL A   1      40.953  34.081  36.412  1.00  0.00     0.134 A 
ATOM     75  C   UNL A   1      39.215  32.678  37.269  1.00  0.00     0.134 A 
ATOM     76  F   UNL A   1      41.866  34.389  35.479  1.00  0.00    -0.206 F 
ATOM     77  C   UNL A   1      40.889  34.875  37.558  1.00  0.00     0.040 A 
ATOM     78  C   UNL A   1      39.120  33.481  38.408  1.00  0.00     0.040 A 
ATOM     79  F   UNL A   1      38.397  31.619  37.174  1.00  0.00    -0.206 F 
ATOM     80  C   UNL A   1      39.964  34.579  38.557  1.00  0.00     0.006 A 
ENDBRANCH  52  73
BRANCH  64  81
ATOM     81  C   UNL A   1      44.632  28.009  34.359  1.00  0.00     0.057 A 
ATOM     82  C   UNL A   1      44.577  26.845  35.139  1.00  0.00     0.134 A 
ATOM     83  C   UNL A   1      45.880  28.632  34.228  1.00  0.00     0.134 A 
ATOM     84  F   UNL A   1      43.413  26.201  35.317  1.00  0.00    -0.206 F 
ATOM     85  C   UNL A   1      45.704  26.350  35.797  1.00  0.00     0.040 A 
ATOM     86  C   UNL A   1      47.023  28.128  34.852  1.00  0.00     0.040 A 
ATOM     87  F   UNL A   1      46.014  29.743  33.487  1.00  0.00    -0.206 F 
ATOM     88  C   UNL A   1      46.934  26.989  35.651  1.00  0.00     0.006 A 
ENDBRANCH  64  81
ENDBRANCH  38  39
ENDBRANCH  31  33
ENDBRANCH  30  31
ENDBRANCH  29  30
ENDBRANCH  28  29
ENDBRANCH  27  28
ENDBRANCH  26  27
ENDBRANCH   1  26
TORSDOF 22
ENDMDL
MODEL 3
REMARK VINA RESULT:      -9.1      3.268      8.643
REMARK SMILES COc1cc(C(=O)OCCOCCOCCOC(=O)c2ccc(-c3c4nc(c(-c5c(F)cccc5F)c5ccc([nH]5)c(-c5c(F)cccc5F)c5nc(c(-c6c(F)cccc6F)c6ccc3[nH]6)C=C5)C=C4)cc2)cc(OC)c1OCc1csc(C)n1
REMARK SMILES IDX 12 1 11 2 10 3 9 4 8 5 6 6 7 7 5 8 3 9 4 10 78 11 75 12
REMARK SMILES IDX 74 13 2 14 1 15 79 16 80 17 81 18 82 19 86 20 83 21 84 22
REMARK SMILES IDX 85 23 76 24 77 25 13 26 14 27 15 28 16 29 17 30 18 31 19 32
REMARK SMILES IDX 20 33 21 34 73 35 22 36 72 37 23 38 24 39 25 40 66 41 26 42
REMARK SMILES IDX 71 43 65 44 67 45 27 46 70 47 64 48 63 49 28 51 54 52 37 53
REMARK SMILES IDX 53 54 38 55 41 56 52 57 68 58 39 59 40 60 51 62 69 63 42 64
REMARK SMILES IDX 29 65 30 66 35 67 31 68 32 69 34 70 36 71 33 72 55 73 56 74
REMARK SMILES IDX 61 75 57 76 58 77 60 78 62 79 59 80 43 81 44 82 49 83 45 84
REMARK SMILES IDX 46 85 48 86 50 87 47 88
REMARK H PARENT 67 50 41 61
REMARK Flexibility Score: inf
ROOT
ATOM      1  C   UNL A   1      37.684  21.748  24.602  1.00  0.00     0.188 C 
ENDROOT
BRANCH   1   2
ATOM      2  O   UNL A   1      36.300  21.444  24.550  1.00  0.00    -0.376 OA
BRANCH   2   3
ATOM      3  C   UNL A   1      35.571  21.314  25.764  1.00  0.00     0.202 C 
BRANCH   3   4
ATOM      4  C   UNL A   1      34.314  22.160  26.060  1.00  0.00     0.261 C 
BRANCH   4   5
ATOM      5  O   UNL A   1      34.537  23.402  26.748  1.00  0.00    -0.460 OA
BRANCH   5   6
ATOM      6  C   UNL A   1      35.071  24.402  26.001  1.00  0.00     0.338 C 
ATOM      7  O   UNL A   1      36.245  24.576  25.727  1.00  0.00    -0.246 OA
BRANCH   6   8
ATOM      8  C   UNL A   1      33.987  25.132  25.314  1.00  0.00     0.067 A 
ATOM      9  C   UNL A   1      31.891  26.346  25.563  1.00  0.00     0.165 A 
ATOM     10  C   UNL A   1      32.933  25.588  26.101  1.00  0.00     0.066 A 
ATOM     11  C   UNL A   1      31.802  26.482  24.170  1.00  0.00     0.203 A 
ATOM     12  C   UNL A   1      32.914  26.102  23.376  1.00  0.00     0.165 A 
ATOM     13  C   UNL A   1      34.010  25.436  23.961  1.00  0.00     0.066 A 
BRANCH   9  14
ATOM     14  O   UNL A   1      31.087  26.816  26.562  1.00  0.00    -0.493 OA
ATOM     15  C   UNL A   1      31.486  27.840  27.454  1.00  0.00     0.278 C 
ENDBRANCH   9  14
BRANCH  11  16
ATOM     16  O   UNL A   1      30.706  27.071  23.629  1.00  0.00    -0.480 OA
BRANCH  16  17
ATOM     17  C   UNL A   1      30.328  28.413  24.042  1.00  0.00     0.287 C 
BRANCH  17  18
ATOM     18  C   UNL A   1      29.587  29.427  23.190  1.00  0.00     0.089 A 
ATOM     19  C   UNL A   1      28.678  29.283  22.159  1.00  0.00     0.094 A 
ATOM     20  N   UNL A   1      29.718  30.763  23.594  1.00  0.00    -0.243 NA
ATOM     21  S   UNL A   1      28.000  30.781  21.685  1.00  0.00    -0.127 S 
ATOM     22  C   UNL A   1      28.929  31.553  22.895  1.00  0.00     0.090 A 
ATOM     23  C   UNL A   1      28.775  33.016  23.103  1.00  0.00     0.079 C 
ENDBRANCH  17  18
ENDBRANCH  16  17
ENDBRANCH  11  16
BRANCH  12  24
ATOM     24  O   UNL A   1      33.108  26.279  22.030  1.00  0.00    -0.493 OA
ATOM     25  C   UNL A   1      32.220  25.662  21.114  1.00  0.00     0.278 C 
ENDBRANCH  12  24
ENDBRANCH   6   8
ENDBRANCH   5   6
ENDBRANCH   4   5
ENDBRANCH   3   4
ENDBRANCH   2   3
ENDBRANCH   1   2
BRANCH   1  26
ATOM     26  C   UNL A   1      38.382  21.918  25.970  1.00  0.00     0.188 C 
BRANCH  26  27
ATOM     27  O   UNL A   1      39.559  21.168  26.127  1.00  0.00    -0.376 OA
BRANCH  27  28
ATOM     28  C   UNL A   1      40.653  21.720  26.834  1.00  0.00     0.202 C 
BRANCH  28  29
ATOM     29  C   UNL A   1      41.759  22.616  26.233  1.00  0.00     0.261 C 
BRANCH  29  30
ATOM     30  O   UNL A   1      42.144  23.808  26.925  1.00  0.00    -0.460 OA
BRANCH  30  31
ATOM     31  C   UNL A   1      41.969  24.975  26.257  1.00  0.00     0.338 C 
ATOM     32  O   UNL A   1      42.007  25.150  25.057  1.00  0.00    -0.246 OA
BRANCH  31  33
ATOM     33  C   UNL A   1      41.542  26.011  27.221  1.00  0.00     0.060 A 
ATOM     34  C   UNL A   1      42.267  27.206  27.284  1.00  0.00     0.016 A 
ATOM     35  C   UNL A   1      40.470  25.789  28.088  1.00  0.00     0.016 A 
ATOM     36  C   UNL A   1      41.944  28.166  28.243  1.00  0.00     0.010 A 
ATOM     37  C   UNL A   1      40.155  26.752  29.056  1.00  0.00     0.010 A 
ATOM     38  C   UNL A   1      40.912  27.932  29.159  1.00  0.00    -0.014 A 
BRANCH  38  39
ATOM     39  C   UNL A   1      40.750  28.847  30.318  1.00  0.00     0.031 A 
ATOM     40  C   UNL A   1      39.671  29.896  30.272  1.00  0.00     0.074 A 
ATOM     41  C   UNL A   1      41.504  28.716  31.424  1.00  0.00     0.049 A 
ATOM     42  N   UNL A   1      39.335  30.789  31.170  1.00  0.00    -0.248 NA
ATOM     43  C   UNL A   1      38.859  29.938  29.047  1.00  0.00     0.031 C 
ATOM     44  C   UNL A   1      42.543  27.709  31.624  1.00  0.00     0.029 A 
ATOM     45  N   UNL A   1      41.502  29.438  32.592  1.00  0.00    -0.354 N 
ATOM     46  C   UNL A   1      38.275  31.498  30.617  1.00  0.00     0.074 A 
ATOM     47  C   UNL A   1      38.057  30.961  29.291  1.00  0.00     0.031 C 
ATOM     48  C   UNL A   1      43.078  27.874  32.846  1.00  0.00     0.029 A 
ATOM     49  C   UNL A   1      42.440  29.015  33.501  1.00  0.00     0.049 A 
ATOM     50  H   UNL A   1      40.887  30.187  32.761  1.00  0.00     0.167 HD
ATOM     51  C   UNL A   1      37.540  32.497  31.166  1.00  0.00     0.037 A 
ATOM     52  C   UNL A   1      42.754  29.502  34.718  1.00  0.00     0.037 A 
ATOM     53  C   UNL A   1      37.773  33.050  32.477  1.00  0.00     0.049 A 
ATOM     54  C   UNL A   1      41.997  30.684  35.264  1.00  0.00     0.074 A 
ATOM     55  C   UNL A   1      37.086  34.065  33.120  1.00  0.00     0.029 A 
ATOM     56  N   UNL A   1      38.779  32.641  33.340  1.00  0.00    -0.354 N 
ATOM     57  N   UNL A   1      40.985  31.337  34.744  1.00  0.00    -0.248 NA
ATOM     58  C   UNL A   1      42.425  31.190  36.576  1.00  0.00     0.031 C 
ATOM     59  C   UNL A   1      37.717  34.312  34.346  1.00  0.00     0.029 A 
ATOM     60  C   UNL A   1      38.752  33.404  34.498  1.00  0.00     0.049 A 
ATOM     61  H   UNL A   1      39.420  31.917  33.157  1.00  0.00     0.167 HD
ATOM     62  C   UNL A   1      40.632  32.305  35.679  1.00  0.00     0.074 A 
ATOM     63  C   UNL A   1      41.531  32.142  36.804  1.00  0.00     0.031 C 
ATOM     64  C   UNL A   1      39.651  33.240  35.614  1.00  0.00     0.037 A 
BRANCH  51  65
ATOM     65  C   UNL A   1      36.443  33.078  30.318  1.00  0.00     0.057 A 
ATOM     66  C   UNL A   1      36.706  33.974  29.271  1.00  0.00     0.134 A 
ATOM     67  C   UNL A   1      35.103  32.750  30.561  1.00  0.00     0.134 A 
ATOM     68  F   UNL A   1      37.966  34.342  28.991  1.00  0.00    -0.206 F 
ATOM     69  C   UNL A   1      35.676  34.558  28.531  1.00  0.00     0.040 A 
ATOM     70  C   UNL A   1      34.067  33.301  29.805  1.00  0.00     0.040 A 
ATOM     71  F   UNL A   1      34.777  31.894  31.540  1.00  0.00    -0.206 F 
ATOM     72  C   UNL A   1      34.351  34.218  28.796  1.00  0.00     0.006 A 
ENDBRANCH  51  65
BRANCH  52  73
ATOM     73  C   UNL A   1      43.828  28.863  35.521  1.00  0.00     0.057 A 
ATOM     74  C   UNL A   1      43.534  27.851  36.443  1.00  0.00     0.134 A 
ATOM     75  C   UNL A   1      45.165  29.260  35.404  1.00  0.00     0.134 A 
ATOM     76  F   UNL A   1      42.268  27.447  36.621  1.00  0.00    -0.206 F 
ATOM     77  C   UNL A   1      44.528  27.266  37.230  1.00  0.00     0.040 A 
ATOM     78  C   UNL A   1      46.174  28.664  36.164  1.00  0.00     0.040 A 
ATOM     79  F   UNL A   1      45.513  30.228  34.542  1.00  0.00    -0.206 F 
ATOM     80  C   UNL A   1      45.854  27.669  37.085  1.00  0.00     0.006 A 
ENDBRANCH  52  73
BRANCH  64  81
ATOM     81  C   UNL A   1      39.465  34.126  36.816  1.00  0.00     0.057 A 
ATOM     82  C   UNL A   1      40.036  35.404  36.900  1.00  0.00     0.134 A 
ATOM     83  C   UNL A   1      38.702  33.694  37.909  1.00  0.00     0.134 A 
ATOM     84  F   UNL A   1      40.788  35.880  35.895  1.00  0.00    -0.206 F 
ATOM     85  C   UNL A   1      39.890  36.199  38.039  1.00  0.00     0.040 A 
ATOM     86  C   UNL A   1      38.519  34.493  39.040  1.00  0.00     0.040 A 
ATOM     87  F   UNL A   1      38.114  32.488  37.896  1.00  0.00    -0.206 F 
ATOM     88  C   UNL A   1      39.126  35.745  39.112  1.00  0.00     0.006 A 
ENDBRANCH  64  81
ENDBRANCH  38  39
ENDBRANCH  31  33
ENDBRANCH  30  31
ENDBRANCH  29  30
ENDBRANCH  28  29
ENDBRANCH  27  28
ENDBRANCH  26  27
ENDBRANCH   1  26
TORSDOF 22
ENDMDL
