MODEL 1
REMARK VINA RESULT:     -10.3      0.000      0.000
REMARK SMILES CCOc1cc(OCC)cc(-c2ccc([C@@H](C)C(=O)OCCOCCOCCOC(=O)c3ccc(-c4c5nc(c(-c6c(F)cccc6F)c6ccc([nH]6)c(-c6c(F)cccc6F)c6nc(c(-c7c(F)cccc7F)c7ccc4[nH]7)C=C6)C=C5)cc3)cc2)c1
REMARK SMILES IDX 24 1 23 2 22 3 21 4 20 5 18 6 19 7 16 8 17 9 15 10 12 11
REMARK SMILES IDX 13 12 87 13 14 14 86 15 11 16 4 17 5 18 88 19 6 20 10 21
REMARK SMILES IDX 3 22 2 23 1 24 7 25 8 26 9 27 25 28 26 29 27 30 28 31 29 32
REMARK SMILES IDX 30 33 31 34 32 35 33 36 85 37 34 38 84 39 35 40 36 41 37 42
REMARK SMILES IDX 78 43 38 44 83 45 77 46 79 47 39 48 82 49 76 50 75 51 40 53
REMARK SMILES IDX 66 54 49 55 65 56 50 57 53 58 64 59 80 60 51 61 52 62 63 64
REMARK SMILES IDX 81 65 54 66 41 67 42 68 47 69 43 70 44 71 46 72 48 73 45 74
REMARK SMILES IDX 67 75 68 76 73 77 69 78 70 79 72 80 74 81 71 82 55 83 56 84
REMARK SMILES IDX 61 85 57 86 58 87 60 88 62 89 59 90
REMARK H PARENT 79 52 53 63
REMARK Flexibility Score: inf
ROOT
ATOM      1  C   UNL A   1      44.768  19.258  24.925  1.00  0.00     0.188 C 
ENDROOT
BRANCH   1   2
ATOM      2  O   UNL A   1      43.611  18.541  25.338  1.00  0.00    -0.376 OA
BRANCH   2   3
ATOM      3  C   UNL A   1      42.825  19.044  26.411  1.00  0.00     0.202 C 
BRANCH   3   4
ATOM      4  C   UNL A   1      41.442  19.636  26.092  1.00  0.00     0.261 C 
BRANCH   4   5
ATOM      5  O   UNL A   1      40.728  20.219  27.206  1.00  0.00    -0.463 OA
BRANCH   5   6
ATOM      6  C   UNL A   1      40.899  21.550  27.411  1.00  0.00     0.313 C 
ATOM      7  O   UNL A   1      41.590  22.007  28.319  1.00  0.00    -0.252 OA
BRANCH   6   8
ATOM      8  C   UNL A   1      40.188  22.491  26.430  1.00  0.00     0.126 C 
ATOM      9  C   UNL A   1      40.341  23.926  26.928  1.00  0.00     0.025 C 
BRANCH   8  10
ATOM     10  C   UNL A   1      38.750  22.235  25.981  1.00  0.00    -0.034 A 
ATOM     11  C   UNL A   1      36.089  21.644  25.121  1.00  0.00    -0.018 A 
ATOM     12  C   UNL A   1      36.420  22.883  25.700  1.00  0.00     0.009 A 
ATOM     13  C   UNL A   1      37.114  20.704  24.975  1.00  0.00     0.009 A 
ATOM     14  C   UNL A   1      37.730  23.183  26.110  1.00  0.00     0.005 A 
ATOM     15  C   UNL A   1      38.421  20.997  25.391  1.00  0.00     0.005 A 
BRANCH  11  16
ATOM     16  C   UNL A   1      34.731  21.394  24.601  1.00  0.00    -0.011 A 
ATOM     17  C   UNL A   1      32.802  19.972  24.169  1.00  0.00     0.123 A 
ATOM     18  C   UNL A   1      32.134  21.039  23.568  1.00  0.00     0.092 A 
ATOM     19  C   UNL A   1      34.097  20.144  24.673  1.00  0.00     0.055 A 
ATOM     20  C   UNL A   1      32.755  22.283  23.457  1.00  0.00     0.123 A 
ATOM     21  C   UNL A   1      34.045  22.443  23.967  1.00  0.00     0.055 A 
BRANCH  17  22
ATOM     22  O   UNL A   1      32.216  18.738  24.075  1.00  0.00    -0.494 OA
BRANCH  22  23
ATOM     23  C   UNL A   1      32.555  17.995  22.899  1.00  0.00     0.226 C 
ATOM     24  C   UNL A   1      33.646  16.983  23.178  1.00  0.00     0.049 C 
ENDBRANCH  22  23
ENDBRANCH  17  22
BRANCH  20  25
ATOM     25  O   UNL A   1      32.023  23.266  22.846  1.00  0.00    -0.494 OA
BRANCH  25  26
ATOM     26  C   UNL A   1      30.822  23.694  23.493  1.00  0.00     0.226 C 
ATOM     27  C   UNL A   1      31.116  24.398  24.810  1.00  0.00     0.049 C 
ENDBRANCH  25  26
ENDBRANCH  20  25
ENDBRANCH  11  16
ENDBRANCH   8  10
ENDBRANCH   6   8
ENDBRANCH   5   6
ENDBRANCH   4   5
ENDBRANCH   3   4
ENDBRANCH   2   3
ENDBRANCH   1   2
BRANCH   1  28
ATOM     28  C   UNL A   1      44.930  20.730  25.337  1.00  0.00     0.188 C 
BRANCH  28  29
ATOM     29  O   UNL A   1      45.411  21.571  24.315  1.00  0.00    -0.376 OA
BRANCH  29  30
ATOM     30  C   UNL A   1      44.540  22.580  23.853  1.00  0.00     0.202 C 
BRANCH  30  31
ATOM     31  C   UNL A   1      43.569  23.178  24.883  1.00  0.00     0.261 C 
BRANCH  31  32
ATOM     32  O   UNL A   1      43.491  24.616  24.942  1.00  0.00    -0.460 OA
BRANCH  32  33
ATOM     33  C   UNL A   1      44.484  25.261  25.592  1.00  0.00     0.338 C 
ATOM     34  O   UNL A   1      45.619  25.450  25.186  1.00  0.00    -0.246 OA
BRANCH  33  35
ATOM     35  C   UNL A   1      43.929  25.896  26.805  1.00  0.00     0.060 A 
ATOM     36  C   UNL A   1      43.305  25.102  27.780  1.00  0.00     0.016 A 
ATOM     37  C   UNL A   1      44.037  27.274  26.981  1.00  0.00     0.016 A 
ATOM     38  C   UNL A   1      42.809  25.687  28.949  1.00  0.00     0.010 A 
ATOM     39  C   UNL A   1      43.516  27.860  28.136  1.00  0.00     0.010 A 
ATOM     40  C   UNL A   1      42.898  27.073  29.126  1.00  0.00    -0.014 A 
BRANCH  40  41
ATOM     41  C   UNL A   1      42.281  27.744  30.295  1.00  0.00     0.031 A 
ATOM     42  C   UNL A   1      41.046  28.573  30.092  1.00  0.00     0.074 A 
ATOM     43  C   UNL A   1      42.852  27.672  31.512  1.00  0.00     0.049 A 
ATOM     44  N   UNL A   1      40.452  29.395  30.918  1.00  0.00    -0.248 NA
ATOM     45  C   UNL A   1      40.400  28.465  28.775  1.00  0.00     0.031 C 
ATOM     46  C   UNL A   1      44.021  26.864  31.850  1.00  0.00     0.029 A 
ATOM     47  N   UNL A   1      42.539  28.321  32.681  1.00  0.00    -0.354 N 
ATOM     48  C   UNL A   1      39.373  29.916  30.218  1.00  0.00     0.074 A 
ATOM     49  C   UNL A   1      39.404  29.330  28.894  1.00  0.00     0.031 C 
ATOM     50  C   UNL A   1      44.348  27.089  33.134  1.00  0.00     0.029 A 
ATOM     51  C   UNL A   1      43.444  28.095  33.690  1.00  0.00     0.049 A 
ATOM     52  H   UNL A   1      41.743  28.892  32.786  1.00  0.00     0.167 HD
ATOM     53  C   UNL A   1      38.442  30.805  30.642  1.00  0.00     0.037 A 
ATOM     54  C   UNL A   1      43.559  28.670  34.903  1.00  0.00     0.037 A 
ATOM     55  C   UNL A   1      38.423  31.391  31.957  1.00  0.00     0.049 A 
ATOM     56  C   UNL A   1      42.578  29.738  35.314  1.00  0.00     0.074 A 
ATOM     57  C   UNL A   1      37.506  32.280  32.490  1.00  0.00     0.029 A 
ATOM     58  N   UNL A   1      39.374  31.161  32.939  1.00  0.00    -0.354 N 
ATOM     59  N   UNL A   1      41.543  30.208  34.660  1.00  0.00    -0.248 NA
ATOM     60  C   UNL A   1      42.789  30.368  36.626  1.00  0.00     0.031 C 
ATOM     61  C   UNL A   1      37.939  32.638  33.770  1.00  0.00     0.029 A 
ATOM     62  C   UNL A   1      39.091  31.925  34.059  1.00  0.00     0.049 A 
ATOM     63  H   UNL A   1      40.138  30.545  32.852  1.00  0.00     0.167 HD
ATOM     64  C   UNL A   1      40.969  31.167  35.487  1.00  0.00     0.074 A 
ATOM     65  C   UNL A   1      41.760  31.202  36.698  1.00  0.00     0.031 C 
ATOM     66  C   UNL A   1      39.886  31.951  35.261  1.00  0.00     0.037 A 
BRANCH  53  67
ATOM     67  C   UNL A   1      37.388  31.228  29.660  1.00  0.00     0.057 A 
ATOM     68  C   UNL A   1      36.281  30.424  29.366  1.00  0.00     0.134 A 
ATOM     69  C   UNL A   1      37.465  32.478  29.031  1.00  0.00     0.134 A 
ATOM     70  F   UNL A   1      36.153  29.210  29.924  1.00  0.00    -0.206 F 
ATOM     71  C   UNL A   1      35.299  30.836  28.462  1.00  0.00     0.040 A 
ATOM     72  C   UNL A   1      36.475  32.913  28.149  1.00  0.00     0.040 A 
ATOM     73  F   UNL A   1      38.495  33.301  29.273  1.00  0.00    -0.206 F 
ATOM     74  C   UNL A   1      35.391  32.088  27.858  1.00  0.00     0.006 A 
ENDBRANCH  53  67
BRANCH  54  75
ATOM     75  C   UNL A   1      44.673  28.286  35.809  1.00  0.00     0.057 A 
ATOM     76  C   UNL A   1      45.935  28.880  35.696  1.00  0.00     0.134 A 
ATOM     77  C   UNL A   1      44.513  27.299  36.790  1.00  0.00     0.134 A 
ATOM     78  F   UNL A   1      46.161  29.810  34.756  1.00  0.00    -0.206 F 
ATOM     79  C   UNL A   1      47.001  28.498  36.514  1.00  0.00     0.040 A 
ATOM     80  C   UNL A   1      45.561  26.928  37.634  1.00  0.00     0.040 A 
ATOM     81  F   UNL A   1      43.331  26.685  36.948  1.00  0.00    -0.206 F 
ATOM     82  C   UNL A   1      46.812  27.524  37.491  1.00  0.00     0.006 A 
ENDBRANCH  54  75
BRANCH  66  83
ATOM     83  C   UNL A   1      39.475  32.902  36.348  1.00  0.00     0.057 A 
ATOM     84  C   UNL A   1      38.502  32.564  37.297  1.00  0.00     0.134 A 
ATOM     85  C   UNL A   1      40.109  34.144  36.489  1.00  0.00     0.134 A 
ATOM     86  F   UNL A   1      37.847  31.397  37.212  1.00  0.00    -0.206 F 
ATOM     87  C   UNL A   1      38.165  33.432  38.337  1.00  0.00     0.040 A 
ATOM     88  C   UNL A   1      39.802  35.008  37.542  1.00  0.00     0.040 A 
ATOM     89  F   UNL A   1      41.058  34.528  35.621  1.00  0.00    -0.206 F 
ATOM     90  C   UNL A   1      38.823  34.654  38.468  1.00  0.00     0.006 A 
ENDBRANCH  66  83
ENDBRANCH  40  41
ENDBRANCH  33  35
ENDBRANCH  32  33
ENDBRANCH  31  32
ENDBRANCH  30  31
ENDBRANCH  29  30
ENDBRANCH  28  29
ENDBRANCH   1  28
TORSDOF 23
ENDMDL
MODEL 2
REMARK VINA RESULT:     -10.2      2.849      8.908
REMARK SMILES CCOc1cc(OCC)cc(-c2ccc([C@@H](C)C(=O)OCCOCCOCCOC(=O)c3ccc(-c4c5nc(c(-c6c(F)cccc6F)c6ccc([nH]6)c(-c6c(F)cccc6F)c6nc(c(-c7c(F)cccc7F)c7ccc4[nH]7)C=C6)C=C5)cc3)cc2)c1
REMARK SMILES IDX 24 1 23 2 22 3 21 4 20 5 18 6 19 7 16 8 17 9 15 10 12 11
REMARK SMILES IDX 13 12 87 13 14 14 86 15 11 16 4 17 5 18 88 19 6 20 10 21
REMARK SMILES IDX 3 22 2 23 1 24 7 25 8 26 9 27 25 28 26 29 27 30 28 31 29 32
REMARK SMILES IDX 30 33 31 34 32 35 33 36 85 37 34 38 84 39 35 40 36 41 37 42
REMARK SMILES IDX 78 43 38 44 83 45 77 46 79 47 39 48 82 49 76 50 75 51 40 53
REMARK SMILES IDX 66 54 49 55 65 56 50 57 53 58 64 59 80 60 51 61 52 62 63 64
REMARK SMILES IDX 81 65 54 66 41 67 42 68 47 69 43 70 44 71 46 72 48 73 45 74
REMARK SMILES IDX 67 75 68 76 73 77 69 78 70 79 72 80 74 81 71 82 55 83 56 84
REMARK SMILES IDX 61 85 57 86 58 87 60 88 62 89 59 90
REMARK H PARENT 79 52 53 63
REMARK Flexibility Score: inf
ROOT
ATOM      1  C   UNL A   1      32.332  29.509  25.258  1.00  0.00     0.188 C 
ENDROOT
BRANCH   1   2
ATOM      2  O   UNL A   1      32.979  28.391  24.660  1.00  0.00    -0.376 OA
BRANCH   2   3
ATOM      3  C   UNL A   1      32.194  27.386  24.032  1.00  0.00     0.202 C 
BRANCH   3   4
ATOM      4  C   UNL A   1      32.094  26.007  24.706  1.00  0.00     0.261 C 
BRANCH   4   5
ATOM      5  O   UNL A   1      33.346  25.404  25.106  1.00  0.00    -0.463 OA
BRANCH   5   6
ATOM      6  C   UNL A   1      33.359  24.053  25.234  1.00  0.00     0.313 C 
ATOM      7  O   UNL A   1      32.652  23.447  26.037  1.00  0.00    -0.252 OA
BRANCH   6   8
ATOM      8  C   UNL A   1      34.306  23.286  24.303  1.00  0.00     0.126 C 
ATOM      9  C   UNL A   1      33.525  22.163  23.625  1.00  0.00     0.025 C 
BRANCH   8  10
ATOM     10  C   UNL A   1      35.659  22.771  24.791  1.00  0.00    -0.034 A 
ATOM     11  C   UNL A   1      38.203  21.906  25.769  1.00  0.00    -0.018 A 
ATOM     12  C   UNL A   1      37.379  21.060  25.004  1.00  0.00     0.009 A 
ATOM     13  C   UNL A   1      37.734  23.196  26.036  1.00  0.00     0.009 A 
ATOM     14  C   UNL A   1      36.136  21.486  24.507  1.00  0.00     0.005 A 
ATOM     15  C   UNL A   1      36.489  23.623  25.550  1.00  0.00     0.005 A 
BRANCH  11  16
ATOM     16  C   UNL A   1      39.549  21.472  26.186  1.00  0.00    -0.011 A 
ATOM     17  C   UNL A   1      41.406  19.896  26.220  1.00  0.00     0.123 A 
ATOM     18  C   UNL A   1      42.132  20.751  27.050  1.00  0.00     0.092 A 
ATOM     19  C   UNL A   1      40.118  20.248  25.798  1.00  0.00     0.055 A 
ATOM     20  C   UNL A   1      41.576  21.958  27.474  1.00  0.00     0.123 A 
ATOM     21  C   UNL A   1      40.293  22.299  27.043  1.00  0.00     0.055 A 
BRANCH  17  22
ATOM     22  O   UNL A   1      41.929  18.651  25.998  1.00  0.00    -0.494 OA
BRANCH  22  23
ATOM     23  C   UNL A   1      43.349  18.554  26.158  1.00  0.00     0.226 C 
ATOM     24  C   UNL A   1      44.076  18.909  24.878  1.00  0.00     0.049 C 
ENDBRANCH  22  23
ENDBRANCH  17  22
BRANCH  20  25
ATOM     25  O   UNL A   1      42.362  22.725  28.291  1.00  0.00    -0.494 OA
BRANCH  25  26
ATOM     26  C   UNL A   1      43.428  23.459  27.684  1.00  0.00     0.226 C 
ATOM     27  C   UNL A   1      44.761  23.176  28.363  1.00  0.00     0.049 C 
ENDBRANCH  25  26
ENDBRANCH  20  25
ENDBRANCH  11  16
ENDBRANCH   8  10
ENDBRANCH   6   8
ENDBRANCH   5   6
ENDBRANCH   4   5
ENDBRANCH   3   4
ENDBRANCH   2   3
ENDBRANCH   1   2
BRANCH   1  28
ATOM     28  C   UNL A   1      32.186  29.567  26.786  1.00  0.00     0.188 C 
BRANCH  28  29
ATOM     29  O   UNL A   1      33.326  30.042  27.463  1.00  0.00    -0.376 OA
BRANCH  29  30
ATOM     30  C   UNL A   1      33.671  31.396  27.265  1.00  0.00     0.202 C 
BRANCH  30  31
ATOM     31  C   UNL A   1      32.678  32.444  27.792  1.00  0.00     0.261 C 
BRANCH  31  32
ATOM     32  O   UNL A   1      32.991  33.825  27.522  1.00  0.00    -0.460 OA
BRANCH  32  33
ATOM     33  C   UNL A   1      33.223  34.624  28.587  1.00  0.00     0.338 C 
ATOM     34  O   UNL A   1      32.481  35.488  29.025  1.00  0.00    -0.246 OA
BRANCH  33  35
ATOM     35  C   UNL A   1      34.439  34.156  29.282  1.00  0.00     0.060 A 
ATOM     36  C   UNL A   1      35.697  34.354  28.690  1.00  0.00     0.016 A 
ATOM     37  C   UNL A   1      34.334  33.531  30.523  1.00  0.00     0.016 A 
ATOM     38  C   UNL A   1      36.857  33.948  29.356  1.00  0.00     0.010 A 
ATOM     39  C   UNL A   1      35.493  33.101  31.173  1.00  0.00     0.010 A 
ATOM     40  C   UNL A   1      36.760  33.305  30.595  1.00  0.00    -0.014 A 
BRANCH  40  41
ATOM     41  C   UNL A   1      37.957  32.755  31.277  1.00  0.00     0.031 A 
ATOM     42  C   UNL A   1      38.601  31.513  30.731  1.00  0.00     0.074 A 
ATOM     43  C   UNL A   1      38.423  33.315  32.408  1.00  0.00     0.049 A 
ATOM     44  N   UNL A   1      39.524  30.755  31.262  1.00  0.00    -0.248 NA
ATOM     45  C   UNL A   1      38.132  31.065  29.411  1.00  0.00     0.031 C 
ATOM     46  C   UNL A   1      37.919  34.546  33.012  1.00  0.00     0.029 A 
ATOM     47  N   UNL A   1      39.409  32.896  33.268  1.00  0.00    -0.354 N 
ATOM     48  C   UNL A   1      39.736  29.729  30.352  1.00  0.00     0.074 A 
ATOM     49  C   UNL A   1      38.833  29.954  29.243  1.00  0.00     0.031 C 
ATOM     50  C   UNL A   1      38.576  34.767  34.163  1.00  0.00     0.029 A 
ATOM     51  C   UNL A   1      39.509  33.666  34.401  1.00  0.00     0.049 A 
ATOM     52  H   UNL A   1      39.987  32.119  33.089  1.00  0.00     0.167 HD
ATOM     53  C   UNL A   1      40.605  28.692  30.436  1.00  0.00     0.037 A 
ATOM     54  C   UNL A   1      40.233  33.478  35.522  1.00  0.00     0.037 A 
ATOM     55  C   UNL A   1      41.493  28.470  31.547  1.00  0.00     0.049 A 
ATOM     56  C   UNL A   1      41.111  32.258  35.642  1.00  0.00     0.074 A 
ATOM     57  C   UNL A   1      42.430  27.465  31.713  1.00  0.00     0.029 A 
ATOM     58  N   UNL A   1      41.543  29.254  32.690  1.00  0.00    -0.354 N 
ATOM     59  N   UNL A   1      41.330  31.306  34.768  1.00  0.00    -0.248 NA
ATOM     60  C   UNL A   1      41.832  32.078  36.912  1.00  0.00     0.031 C 
ATOM     61  C   UNL A   1      42.998  27.602  32.983  1.00  0.00     0.029 A 
ATOM     62  C   UNL A   1      42.461  28.729  33.583  1.00  0.00     0.049 A 
ATOM     63  H   UNL A   1      41.004  30.064  32.842  1.00  0.00     0.167 HD
ATOM     64  C   UNL A   1      42.226  30.430  35.370  1.00  0.00     0.074 A 
ATOM     65  C   UNL A   1      42.525  30.973  36.678  1.00  0.00     0.031 C 
ATOM     66  C   UNL A   1      42.753  29.279  34.884  1.00  0.00     0.037 A 
BRANCH  53  67
ATOM     67  C   UNL A   1      40.610  27.697  29.313  1.00  0.00     0.057 A 
ATOM     68  C   UNL A   1      41.543  27.756  28.271  1.00  0.00     0.134 A 
ATOM     69  C   UNL A   1      39.689  26.641  29.296  1.00  0.00     0.134 A 
ATOM     70  F   UNL A   1      42.445  28.749  28.220  1.00  0.00    -0.206 F 
ATOM     71  C   UNL A   1      41.547  26.814  27.240  1.00  0.00     0.040 A 
ATOM     72  C   UNL A   1      39.701  25.677  28.287  1.00  0.00     0.040 A 
ATOM     73  F   UNL A   1      38.771  26.520  30.267  1.00  0.00    -0.206 F 
ATOM     74  C   UNL A   1      40.628  25.767  27.251  1.00  0.00     0.006 A 
ENDBRANCH  53  67
BRANCH  54  75
ATOM     75  C   UNL A   1      40.129  34.441  36.649  1.00  0.00     0.057 A 
ATOM     76  C   UNL A   1      40.997  35.535  36.747  1.00  0.00     0.134 A 
ATOM     77  C   UNL A   1      39.179  34.280  37.666  1.00  0.00     0.134 A 
ATOM     78  F   UNL A   1      41.947  35.728  35.820  1.00  0.00    -0.206 F 
ATOM     79  C   UNL A   1      40.936  36.424  37.822  1.00  0.00     0.040 A 
ATOM     80  C   UNL A   1      39.088  35.178  38.731  1.00  0.00     0.040 A 
ATOM     81  F   UNL A   1      38.321  33.251  37.636  1.00  0.00    -0.206 F 
ATOM     82  C   UNL A   1      39.974  36.249  38.814  1.00  0.00     0.006 A 
ENDBRANCH  54  75
BRANCH  66  83
ATOM     83  C   UNL A   1      43.720  28.532  35.756  1.00  0.00     0.057 A 
ATOM     84  C   UNL A   1      45.090  28.825  35.760  1.00  0.00     0.134 A 
ATOM     85  C   UNL A   1      43.267  27.554  36.652  1.00  0.00     0.134 A 
ATOM     86  F   UNL A   1      45.591  29.740  34.918  1.00  0.00    -0.206 F 
ATOM     87  C   UNL A   1      45.975  28.164  36.614  1.00  0.00     0.040 A 
ATOM     88  C   UNL A   1      44.138  26.907  37.531  1.00  0.00     0.040 A 
ATOM     89  F   UNL A   1      41.966  27.230  36.707  1.00  0.00    -0.206 F 
ATOM     90  C   UNL A   1      45.498  27.209  37.511  1.00  0.00     0.006 A 
ENDBRANCH  66  83
ENDBRANCH  40  41
ENDBRANCH  33  35
ENDBRANCH  32  33
ENDBRANCH  31  32
ENDBRANCH  30  31
ENDBRANCH  29  30
ENDBRANCH  28  29
ENDBRANCH   1  28
TORSDOF 23
ENDMDL
MODEL 3
REMARK VINA RESULT:     -10.1      2.813      8.886
REMARK SMILES CCOc1cc(OCC)cc(-c2ccc([C@@H](C)C(=O)OCCOCCOCCOC(=O)c3ccc(-c4c5nc(c(-c6c(F)cccc6F)c6ccc([nH]6)c(-c6c(F)cccc6F)c6nc(c(-c7c(F)cccc7F)c7ccc4[nH]7)C=C6)C=C5)cc3)cc2)c1
REMARK SMILES IDX 24 1 23 2 22 3 21 4 20 5 18 6 19 7 16 8 17 9 15 10 12 11
REMARK SMILES IDX 13 12 87 13 14 14 86 15 11 16 4 17 5 18 88 19 6 20 10 21
REMARK SMILES IDX 3 22 2 23 1 24 7 25 8 26 9 27 25 28 26 29 27 30 28 31 29 32
REMARK SMILES IDX 30 33 31 34 32 35 33 36 85 37 34 38 84 39 35 40 36 41 37 42
REMARK SMILES IDX 78 43 38 44 83 45 77 46 79 47 39 48 82 49 76 50 75 51 40 53
REMARK SMILES IDX 66 54 49 55 65 56 50 57 53 58 64 59 80 60 51 61 52 62 63 64
REMARK SMILES IDX 81 65 54 66 41 67 42 68 47 69 43 70 44 71 46 72 48 73 45 74
REMARK SMILES IDX 67 75 68 76 73 77 69 78 70 79 72 80 74 81 71 82 55 83 56 84
REMARK SMILES IDX 61 85 57 86 58 87 60 88 62 89 59 90
REMARK H PARENT 79 52 53 63
REMARK Flexibility Score: inf
ROOT
ATOM      1  C   UNL A   1      32.582  29.566  25.150  1.00  0.00     0.188 C 
ENDROOT
BRANCH   1   2
ATOM      2  O   UNL A   1      33.083  28.595  24.238  1.00  0.00    -0.376 OA
BRANCH   2   3
ATOM      3  C   UNL A   1      32.216  27.571  23.765  1.00  0.00     0.202 C 
BRANCH   3   4
ATOM      4  C   UNL A   1      32.311  26.176  24.406  1.00  0.00     0.261 C 
BRANCH   4   5
ATOM      5  O   UNL A   1      33.645  25.707  24.711  1.00  0.00    -0.463 OA
BRANCH   5   6
ATOM      6  C   UNL A   1      33.745  24.476  25.271  1.00  0.00     0.313 C 
ATOM      7  O   UNL A   1      33.210  24.177  26.337  1.00  0.00    -0.252 OA
BRANCH   6   8
ATOM      8  C   UNL A   1      34.564  23.435  24.497  1.00  0.00     0.126 C 
ATOM      9  C   UNL A   1      33.677  22.226  24.209  1.00  0.00     0.025 C 
BRANCH   8  10
ATOM     10  C   UNL A   1      35.939  22.980  24.985  1.00  0.00    -0.034 A 
ATOM     11  C   UNL A   1      38.501  22.033  25.829  1.00  0.00    -0.018 A 
ATOM     12  C   UNL A   1      38.032  23.311  26.184  1.00  0.00     0.009 A 
ATOM     13  C   UNL A   1      37.664  21.232  25.045  1.00  0.00     0.009 A 
ATOM     14  C   UNL A   1      36.767  23.774  25.785  1.00  0.00     0.005 A 
ATOM     15  C   UNL A   1      36.404  21.694  24.637  1.00  0.00     0.005 A 
BRANCH  11  16
ATOM     16  C   UNL A   1      39.786  21.529  26.350  1.00  0.00    -0.011 A 
ATOM     17  C   UNL A   1      41.749  21.670  27.784  1.00  0.00     0.123 A 
ATOM     18  C   UNL A   1      42.229  20.466  27.267  1.00  0.00     0.092 A 
ATOM     19  C   UNL A   1      40.539  22.204  27.323  1.00  0.00     0.055 A 
ATOM     20  C   UNL A   1      41.512  19.793  26.277  1.00  0.00     0.123 A 
ATOM     21  C   UNL A   1      40.307  20.333  25.828  1.00  0.00     0.055 A 
BRANCH  17  22
ATOM     22  O   UNL A   1      42.587  22.372  28.608  1.00  0.00    -0.494 OA
BRANCH  22  23
ATOM     23  C   UNL A   1      42.245  23.750  28.787  1.00  0.00     0.226 C 
ATOM     24  C   UNL A   1      43.425  24.657  28.505  1.00  0.00     0.049 C 
ENDBRANCH  22  23
ENDBRANCH  17  22
BRANCH  20  25
ATOM     25  O   UNL A   1      42.067  18.625  25.827  1.00  0.00    -0.494 OA
BRANCH  25  26
ATOM     26  C   UNL A   1      43.142  18.066  26.588  1.00  0.00     0.226 C 
ATOM     27  C   UNL A   1      44.461  18.142  25.833  1.00  0.00     0.049 C 
ENDBRANCH  25  26
ENDBRANCH  20  25
ENDBRANCH  11  16
ENDBRANCH   8  10
ENDBRANCH   6   8
ENDBRANCH   5   6
ENDBRANCH   4   5
ENDBRANCH   3   4
ENDBRANCH   2   3
ENDBRANCH   1   2
BRANCH   1  28
ATOM     28  C   UNL A   1      32.667  29.296  26.660  1.00  0.00     0.188 C 
BRANCH  28  29
ATOM     29  O   UNL A   1      33.728  29.955  27.310  1.00  0.00    -0.376 OA
BRANCH  29  30
ATOM     30  C   UNL A   1      33.846  31.345  27.098  1.00  0.00     0.202 C 
BRANCH  30  31
ATOM     31  C   UNL A   1      32.825  32.240  27.819  1.00  0.00     0.261 C 
BRANCH  31  32
ATOM     32  O   UNL A   1      32.937  33.660  27.595  1.00  0.00    -0.460 OA
BRANCH  32  33
ATOM     33  C   UNL A   1      33.229  34.432  28.664  1.00  0.00     0.338 C 
ATOM     34  O   UNL A   1      32.518  35.293  29.156  1.00  0.00    -0.246 OA
BRANCH  33  35
ATOM     35  C   UNL A   1      34.471  33.937  29.288  1.00  0.00     0.060 A 
ATOM     36  C   UNL A   1      35.713  34.259  28.716  1.00  0.00     0.016 A 
ATOM     37  C   UNL A   1      34.409  33.163  30.446  1.00  0.00     0.016 A 
ATOM     38  C   UNL A   1      36.898  33.826  29.319  1.00  0.00     0.010 A 
ATOM     39  C   UNL A   1      35.593  32.708  31.030  1.00  0.00     0.010 A 
ATOM     40  C   UNL A   1      36.843  33.035  30.473  1.00  0.00    -0.014 A 
BRANCH  40  41
ATOM     41  C   UNL A   1      38.070  32.459  31.074  1.00  0.00     0.031 A 
ATOM     42  C   UNL A   1      38.764  31.328  30.373  1.00  0.00     0.074 A 
ATOM     43  C   UNL A   1      38.522  32.893  32.265  1.00  0.00     0.049 A 
ATOM     44  N   UNL A   1      39.726  30.552  30.800  1.00  0.00    -0.248 NA
ATOM     45  C   UNL A   1      38.303  31.028  29.008  1.00  0.00     0.031 C 
ATOM     46  C   UNL A   1      37.968  34.013  33.022  1.00  0.00     0.029 A 
ATOM     47  N   UNL A   1      39.534  32.414  33.061  1.00  0.00    -0.354 N 
ATOM     48  C   UNL A   1      39.975  29.660  29.765  1.00  0.00     0.074 A 
ATOM     49  C   UNL A   1      39.052  29.981  28.698  1.00  0.00     0.031 C 
ATOM     50  C   UNL A   1      38.626  34.117  34.189  1.00  0.00     0.029 A 
ATOM     51  C   UNL A   1      39.611  33.039  34.281  1.00  0.00     0.049 A 
ATOM     52  H   UNL A   1      40.145  31.694  32.782  1.00  0.00     0.167 HD
ATOM     53  C   UNL A   1      40.891  28.662  29.714  1.00  0.00     0.037 A 
ATOM     54  C   UNL A   1      40.353  32.744  35.367  1.00  0.00     0.037 A 
ATOM     55  C   UNL A   1      41.799  28.343  30.785  1.00  0.00     0.049 A 
ATOM     56  C   UNL A   1      41.287  31.561  35.328  1.00  0.00     0.074 A 
ATOM     57  C   UNL A   1      42.783  27.369  30.817  1.00  0.00     0.029 A 
ATOM     58  N   UNL A   1      41.825  28.978  32.017  1.00  0.00    -0.354 N 
ATOM     59  N   UNL A   1      41.540  30.738  34.339  1.00  0.00    -0.248 NA
ATOM     60  C   UNL A   1      42.028  31.256  36.562  1.00  0.00     0.031 C 
ATOM     61  C   UNL A   1      43.357  27.371  32.092  1.00  0.00     0.029 A 
ATOM     62  C   UNL A   1      42.775  28.387  32.833  1.00  0.00     0.049 A 
ATOM     63  H   UNL A   1      41.252  29.736  32.273  1.00  0.00     0.167 HD
ATOM     64  C   UNL A   1      42.481  29.836  34.822  1.00  0.00     0.074 A 
ATOM     65  C   UNL A   1      42.768  30.222  36.187  1.00  0.00     0.031 C 
ATOM     66  C   UNL A   1      43.054  28.781  34.191  1.00  0.00     0.037 A 
BRANCH  53  67
ATOM     67  C   UNL A   1      40.930  27.819  28.474  1.00  0.00     0.057 A 
ATOM     68  C   UNL A   1      40.082  26.719  28.295  1.00  0.00     0.134 A 
ATOM     69  C   UNL A   1      41.804  28.138  27.425  1.00  0.00     0.134 A 
ATOM     70  F   UNL A   1      39.230  26.352  29.265  1.00  0.00    -0.206 F 
ATOM     71  C   UNL A   1      40.117  25.952  27.129  1.00  0.00     0.040 A 
ATOM     72  C   UNL A   1      41.827  27.397  26.243  1.00  0.00     0.040 A 
ATOM     73  F   UNL A   1      42.639  29.182  27.527  1.00  0.00    -0.206 F 
ATOM     74  C   UNL A   1      40.987  26.296  26.096  1.00  0.00     0.006 A 
ENDBRANCH  53  67
BRANCH  54  75
ATOM     75  C   UNL A   1      40.217  33.552  36.607  1.00  0.00     0.057 A 
ATOM     76  C   UNL A   1      41.010  34.684  36.823  1.00  0.00     0.134 A 
ATOM     77  C   UNL A   1      39.312  33.198  37.617  1.00  0.00     0.134 A 
ATOM     78  F   UNL A   1      41.917  35.058  35.908  1.00  0.00    -0.206 F 
ATOM     79  C   UNL A   1      40.920  35.428  38.002  1.00  0.00     0.040 A 
ATOM     80  C   UNL A   1      39.191  33.950  38.787  1.00  0.00     0.040 A 
ATOM     81  F   UNL A   1      38.526  32.121  37.476  1.00  0.00    -0.206 F 
ATOM     82  C   UNL A   1      40.003  35.064  38.984  1.00  0.00     0.006 A 
ENDBRANCH  54  75
BRANCH  66  83
ATOM     83  C   UNL A   1      44.063  27.975  34.958  1.00  0.00     0.057 A 
ATOM     84  C   UNL A   1      43.688  26.882  35.751  1.00  0.00     0.134 A 
ATOM     85  C   UNL A   1      45.432  28.253  34.849  1.00  0.00     0.134 A 
ATOM     86  F   UNL A   1      42.393  26.571  35.909  1.00  0.00    -0.206 F 
ATOM     87  C   UNL A   1      44.636  26.104  36.416  1.00  0.00     0.040 A 
ATOM     88  C   UNL A   1      46.392  27.464  35.487  1.00  0.00     0.040 A 
ATOM     89  F   UNL A   1      45.863  29.278  34.099  1.00  0.00    -0.206 F 
ATOM     90  C   UNL A   1      45.994  26.387  36.277  1.00  0.00     0.006 A 
ENDBRANCH  66  83
ENDBRANCH  40  41
ENDBRANCH  33  35
ENDBRANCH  32  33
ENDBRANCH  31  32
ENDBRANCH  30  31
ENDBRANCH  29  30
ENDBRANCH  28  29
ENDBRANCH   1  28
TORSDOF 23
ENDMDL
