MODEL 1
REMARK VINA RESULT:     -11.3      0.000      0.000
REMARK SMILES C[C@@H](C(=O)OCCOCCOCCOC(=O)c1ccc(-c2c3nc(c(-c4c(F)cccc4F)c4ccc([nH]4)c(-c4c(F)cccc4F)c4nc(c(-c5c(F)cccc5F)c5ccc2[nH]5)C=C4)C=C3)cc1)c1ccc(-c2ccc3[nH]ccc3c2)cc1
REMARK SMILES IDX 9 1 8 2 7 3 6 4 5 5 3 6 4 7 2 8 1 9 71 10 72 11 85 12 73 13
REMARK SMILES IDX 84 14 74 15 75 16 76 17 83 18 77 19 82 20 78 21 81 22 79 23
REMARK SMILES IDX 80 24 10 26 11 27 12 28 13 29 14 30 15 31 16 32 17 33 18 34
REMARK SMILES IDX 70 35 19 36 69 37 20 38 21 39 22 40 63 41 23 42 68 43 62 44
REMARK SMILES IDX 64 45 24 46 67 47 61 48 60 49 25 51 51 52 34 53 50 54 35 55
REMARK SMILES IDX 38 56 49 57 65 58 36 59 37 60 48 62 66 63 39 64 26 65 27 66
REMARK SMILES IDX 32 67 28 68 29 69 31 70 33 71 30 72 52 73 53 74 58 75 54 76
REMARK SMILES IDX 55 77 57 78 59 79 56 80 40 81 41 82 46 83 42 84 43 85 45 86
REMARK SMILES IDX 47 87 44 88
REMARK H PARENT 79 25 64 50 38 61
REMARK Flexibility Score: inf
ROOT
ATOM      1  C   UNL A   1      34.899  31.967  28.005  1.00  0.00     0.188 C 
ENDROOT
BRANCH   1   2
ATOM      2  O   UNL A   1      34.123  30.794  27.848  1.00  0.00    -0.376 OA
BRANCH   2   3
ATOM      3  C   UNL A   1      34.654  29.695  27.116  1.00  0.00     0.202 C 
BRANCH   3   4
ATOM      4  C   UNL A   1      33.776  28.589  26.489  1.00  0.00     0.261 C 
BRANCH   4   5
ATOM      5  O   UNL A   1      33.558  28.676  25.071  1.00  0.00    -0.463 OA
BRANCH   5   6
ATOM      6  C   UNL A   1      32.271  28.594  24.643  1.00  0.00     0.313 C 
ATOM      7  O   UNL A   1      31.325  29.125  25.219  1.00  0.00    -0.252 OA
BRANCH   6   8
ATOM      8  C   UNL A   1      32.106  27.827  23.322  1.00  0.00     0.126 C 
ATOM      9  C   UNL A   1      30.871  28.255  22.510  1.00  0.00     0.025 C 
BRANCH   8  10
ATOM     10  C   UNL A   1      32.335  26.316  23.452  1.00  0.00    -0.034 A 
ATOM     11  C   UNL A   1      33.042  25.569  22.505  1.00  0.00     0.005 A 
ATOM     12  C   UNL A   1      31.927  25.640  24.610  1.00  0.00     0.005 A 
ATOM     13  C   UNL A   1      33.356  24.219  22.727  1.00  0.00     0.009 A 
ATOM     14  C   UNL A   1      32.257  24.294  24.835  1.00  0.00     0.009 A 
ATOM     15  C   UNL A   1      33.017  23.553  23.916  1.00  0.00    -0.018 A 
BRANCH  15  16
ATOM     16  C   UNL A   1      33.478  22.163  24.194  1.00  0.00    -0.018 A 
ATOM     17  C   UNL A   1      34.725  21.911  24.805  1.00  0.00     0.011 A 
ATOM     18  C   UNL A   1      32.672  21.043  23.918  1.00  0.00     0.019 A 
ATOM     19  C   UNL A   1      35.245  20.623  25.005  1.00  0.00     0.027 A 
ATOM     20  C   UNL A   1      33.110  19.746  24.250  1.00  0.00    -0.000 A 
ATOM     21  C   UNL A   1      34.414  19.559  24.689  1.00  0.00     0.045 A 
ATOM     22  C   UNL A   1      32.480  18.484  24.326  1.00  0.00     0.028 A 
ATOM     23  N   UNL A   1      34.635  18.204  24.730  1.00  0.00    -0.361 N 
ATOM     24  C   UNL A   1      33.439  17.549  24.641  1.00  0.00     0.083 A 
ATOM     25  H   UNL A   1      35.517  17.772  24.810  1.00  0.00     0.166 HD
ENDBRANCH  15  16
ENDBRANCH   8  10
ENDBRANCH   6   8
ENDBRANCH   5   6
ENDBRANCH   4   5
ENDBRANCH   3   4
ENDBRANCH   2   3
ENDBRANCH   1   2
BRANCH   1  26
ATOM     26  C   UNL A   1      34.199  33.229  28.528  1.00  0.00     0.188 C 
BRANCH  26  27
ATOM     27  O   UNL A   1      34.936  34.017  29.428  1.00  0.00    -0.376 OA
BRANCH  27  28
ATOM     28  C   UNL A   1      34.328  34.481  30.621  1.00  0.00     0.202 C 
BRANCH  28  29
ATOM     29  C   UNL A   1      34.361  33.757  31.985  1.00  0.00     0.261 C 
BRANCH  29  30
ATOM     30  O   UNL A   1      34.916  32.440  32.064  1.00  0.00    -0.460 OA
BRANCH  30  31
ATOM     31  C   UNL A   1      35.966  32.258  32.897  1.00  0.00     0.338 C 
ATOM     32  O   UNL A   1      36.016  32.510  34.093  1.00  0.00    -0.246 OA
BRANCH  31  33
ATOM     33  C   UNL A   1      37.000  31.502  32.156  1.00  0.00     0.060 A 
ATOM     34  C   UNL A   1      38.011  30.832  32.861  1.00  0.00     0.016 A 
ATOM     35  C   UNL A   1      36.963  31.455  30.762  1.00  0.00     0.016 A 
ATOM     36  C   UNL A   1      38.996  30.120  32.171  1.00  0.00     0.010 A 
ATOM     37  C   UNL A   1      37.966  30.767  30.072  1.00  0.00     0.010 A 
ATOM     38  C   UNL A   1      39.002  30.116  30.770  1.00  0.00    -0.014 A 
BRANCH  38  39
ATOM     39  C   UNL A   1      40.190  29.613  30.030  1.00  0.00     0.031 A 
ATOM     40  C   UNL A   1      41.336  30.564  29.820  1.00  0.00     0.074 A 
ATOM     41  C   UNL A   1      40.236  28.359  29.538  1.00  0.00     0.049 A 
ATOM     42  N   UNL A   1      42.465  30.383  29.185  1.00  0.00    -0.248 NA
ATOM     43  C   UNL A   1      41.180  31.914  30.391  1.00  0.00     0.031 C 
ATOM     44  C   UNL A   1      39.190  27.360  29.716  1.00  0.00     0.029 A 
ATOM     45  N   UNL A   1      41.195  27.710  28.794  1.00  0.00    -0.354 N 
ATOM     46  C   UNL A   1      43.124  31.605  29.234  1.00  0.00     0.074 A 
ATOM     47  C   UNL A   1      42.278  32.519  29.968  1.00  0.00     0.031 C 
ATOM     48  C   UNL A   1      39.574  26.215  29.123  1.00  0.00     0.029 A 
ATOM     49  C   UNL A   1      40.877  26.402  28.482  1.00  0.00     0.049 A 
ATOM     50  H   UNL A   1      42.034  28.140  28.509  1.00  0.00     0.167 HD
ATOM     51  C   UNL A   1      44.322  31.935  28.696  1.00  0.00     0.037 A 
ATOM     52  C   UNL A   1      41.570  25.475  27.774  1.00  0.00     0.037 A 
ATOM     53  C   UNL A   1      45.160  31.006  27.985  1.00  0.00     0.049 A 
ATOM     54  C   UNL A   1      42.927  25.886  27.235  1.00  0.00     0.074 A 
ATOM     55  C   UNL A   1      46.399  31.228  27.414  1.00  0.00     0.029 A 
ATOM     56  N   UNL A   1      44.835  29.679  27.745  1.00  0.00    -0.354 N 
ATOM     57  N   UNL A   1      43.604  26.998  27.422  1.00  0.00    -0.248 NA
ATOM     58  C   UNL A   1      43.630  24.907  26.393  1.00  0.00     0.031 C 
ATOM     59  C   UNL A   1      46.800  30.050  26.778  1.00  0.00     0.029 A 
ATOM     60  C   UNL A   1      45.838  29.077  27.005  1.00  0.00     0.049 A 
ATOM     61  H   UNL A   1      44.013  29.232  28.052  1.00  0.00     0.167 HD
ATOM     62  C   UNL A   1      44.818  26.825  26.764  1.00  0.00     0.074 A 
ATOM     63  C   UNL A   1      44.817  25.476  26.245  1.00  0.00     0.031 C 
ATOM     64  C   UNL A   1      45.832  27.706  26.563  1.00  0.00     0.037 A 
BRANCH  51  65
ATOM     65  C   UNL A   1      44.764  33.367  28.799  1.00  0.00     0.057 A 
ATOM     66  C   UNL A   1      45.540  33.840  29.864  1.00  0.00     0.134 A 
ATOM     67  C   UNL A   1      44.424  34.281  27.792  1.00  0.00     0.134 A 
ATOM     68  F   UNL A   1      45.888  33.023  30.869  1.00  0.00    -0.206 F 
ATOM     69  C   UNL A   1      45.942  35.177  29.935  1.00  0.00     0.040 A 
ATOM     70  C   UNL A   1      44.845  35.610  27.837  1.00  0.00     0.040 A 
ATOM     71  F   UNL A   1      43.684  33.894  26.742  1.00  0.00    -0.206 F 
ATOM     72  C   UNL A   1      45.601  36.064  28.916  1.00  0.00     0.006 A 
ENDBRANCH  51  65
BRANCH  52  73
ATOM     73  C   UNL A   1      41.057  24.065  27.605  1.00  0.00     0.057 A 
ATOM     74  C   UNL A   1      40.009  23.750  26.721  1.00  0.00     0.134 A 
ATOM     75  C   UNL A   1      41.606  22.971  28.286  1.00  0.00     0.134 A 
ATOM     76  F   UNL A   1      39.316  24.715  26.103  1.00  0.00    -0.206 F 
ATOM     77  C   UNL A   1      39.613  22.441  26.436  1.00  0.00     0.040 A 
ATOM     78  C   UNL A   1      41.228  21.650  28.009  1.00  0.00     0.040 A 
ATOM     79  F   UNL A   1      42.543  23.158  29.227  1.00  0.00    -0.206 F 
ATOM     80  C   UNL A   1      40.245  21.380  27.064  1.00  0.00     0.006 A 
ENDBRANCH  52  73
BRANCH  64  81
ATOM     81  C   UNL A   1      47.027  27.218  25.789  1.00  0.00     0.057 A 
ATOM     82  C   UNL A   1      47.189  27.497  24.425  1.00  0.00     0.134 A 
ATOM     83  C   UNL A   1      48.048  26.497  26.423  1.00  0.00     0.134 A 
ATOM     84  F   UNL A   1      46.249  28.183  23.754  1.00  0.00    -0.206 F 
ATOM     85  C   UNL A   1      48.297  27.039  23.709  1.00  0.00     0.040 A 
ATOM     86  C   UNL A   1      49.179  26.067  25.727  1.00  0.00     0.040 A 
ATOM     87  F   UNL A   1      47.970  26.211  27.731  1.00  0.00    -0.206 F 
ATOM     88  C   UNL A   1      49.299  26.327  24.363  1.00  0.00     0.006 A 
ENDBRANCH  64  81
ENDBRANCH  38  39
ENDBRANCH  31  33
ENDBRANCH  30  31
ENDBRANCH  29  30
ENDBRANCH  28  29
ENDBRANCH  27  28
ENDBRANCH  26  27
ENDBRANCH   1  26
TORSDOF 19
ENDMDL
MODEL 2
REMARK VINA RESULT:     -11.2      4.861     10.149
REMARK SMILES C[C@@H](C(=O)OCCOCCOCCOC(=O)c1ccc(-c2c3nc(c(-c4c(F)cccc4F)c4ccc([nH]4)c(-c4c(F)cccc4F)c4nc(c(-c5c(F)cccc5F)c5ccc2[nH]5)C=C4)C=C3)cc1)c1ccc(-c2ccc3[nH]ccc3c2)cc1
REMARK SMILES IDX 9 1 8 2 7 3 6 4 5 5 3 6 4 7 2 8 1 9 71 10 72 11 85 12 73 13
REMARK SMILES IDX 84 14 74 15 75 16 76 17 83 18 77 19 82 20 78 21 81 22 79 23
REMARK SMILES IDX 80 24 10 26 11 27 12 28 13 29 14 30 15 31 16 32 17 33 18 34
REMARK SMILES IDX 70 35 19 36 69 37 20 38 21 39 22 40 63 41 23 42 68 43 62 44
REMARK SMILES IDX 64 45 24 46 67 47 61 48 60 49 25 51 51 52 34 53 50 54 35 55
REMARK SMILES IDX 38 56 49 57 65 58 36 59 37 60 48 62 66 63 39 64 26 65 27 66
REMARK SMILES IDX 32 67 28 68 29 69 31 70 33 71 30 72 52 73 53 74 58 75 54 76
REMARK SMILES IDX 55 77 57 78 59 79 56 80 40 81 41 82 46 83 42 84 43 85 45 86
REMARK SMILES IDX 47 87 44 88
REMARK H PARENT 79 25 64 50 38 61
REMARK Flexibility Score: inf
ROOT
ATOM      1  C   UNL A   1      40.488  21.812  27.310  1.00  0.00     0.188 C 
ENDROOT
BRANCH   1   2
ATOM      2  O   UNL A   1      39.482  22.333  26.460  1.00  0.00    -0.376 OA
BRANCH   2   3
ATOM      3  C   UNL A   1      38.604  21.439  25.786  1.00  0.00     0.202 C 
BRANCH   3   4
ATOM      4  C   UNL A   1      37.342  21.903  25.024  1.00  0.00     0.261 C 
BRANCH   4   5
ATOM      5  O   UNL A   1      36.108  21.882  25.761  1.00  0.00    -0.463 OA
BRANCH   5   6
ATOM      6  C   UNL A   1      35.159  21.005  25.341  1.00  0.00     0.313 C 
ATOM      7  O   UNL A   1      35.412  19.951  24.763  1.00  0.00    -0.252 OA
BRANCH   6   8
ATOM      8  C   UNL A   1      33.727  21.416  25.718  1.00  0.00     0.126 C 
ATOM      9  C   UNL A   1      32.659  20.398  25.286  1.00  0.00     0.025 C 
BRANCH   8  10
ATOM     10  C   UNL A   1      33.411  22.888  25.426  1.00  0.00    -0.034 A 
ATOM     11  C   UNL A   1      33.276  23.393  24.128  1.00  0.00     0.005 A 
ATOM     12  C   UNL A   1      33.131  23.771  26.478  1.00  0.00     0.005 A 
ATOM     13  C   UNL A   1      32.845  24.710  23.900  1.00  0.00     0.009 A 
ATOM     14  C   UNL A   1      32.685  25.081  26.244  1.00  0.00     0.009 A 
ATOM     15  C   UNL A   1      32.490  25.578  24.946  1.00  0.00    -0.018 A 
BRANCH  15  16
ATOM     16  C   UNL A   1      31.904  26.923  24.682  1.00  0.00    -0.018 A 
ATOM     17  C   UNL A   1      32.474  28.094  25.227  1.00  0.00     0.011 A 
ATOM     18  C   UNL A   1      30.797  27.098  23.831  1.00  0.00     0.019 A 
ATOM     19  C   UNL A   1      31.910  29.370  25.085  1.00  0.00     0.027 A 
ATOM     20  C   UNL A   1      30.305  28.387  23.550  1.00  0.00    -0.000 A 
ATOM     21  C   UNL A   1      30.804  29.474  24.255  1.00  0.00     0.045 A 
ATOM     22  C   UNL A   1      29.404  28.910  22.597  1.00  0.00     0.028 A 
ATOM     23  N   UNL A   1      30.012  30.553  23.945  1.00  0.00    -0.361 N 
ATOM     24  C   UNL A   1      29.251  30.255  22.850  1.00  0.00     0.083 A 
ATOM     25  H   UNL A   1      29.994  31.408  24.436  1.00  0.00     0.166 HD
ENDBRANCH  15  16
ENDBRANCH   8  10
ENDBRANCH   6   8
ENDBRANCH   5   6
ENDBRANCH   4   5
ENDBRANCH   3   4
ENDBRANCH   2   3
ENDBRANCH   1   2
BRANCH   1  26
ATOM     26  C   UNL A   1      40.946  20.365  27.080  1.00  0.00     0.188 C 
BRANCH  26  27
ATOM     27  O   UNL A   1      42.251  20.200  26.585  1.00  0.00    -0.376 OA
BRANCH  27  28
ATOM     28  C   UNL A   1      42.779  21.137  25.663  1.00  0.00     0.202 C 
BRANCH  28  29
ATOM     29  C   UNL A   1      44.244  21.627  25.619  1.00  0.00     0.261 C 
BRANCH  29  30
ATOM     30  O   UNL A   1      44.589  22.855  26.269  1.00  0.00    -0.460 OA
BRANCH  30  31
ATOM     31  C   UNL A   1      44.399  23.999  25.574  1.00  0.00     0.338 C 
ATOM     32  O   UNL A   1      44.617  24.190  24.385  1.00  0.00    -0.246 OA
BRANCH  31  33
ATOM     33  C   UNL A   1      43.681  24.945  26.457  1.00  0.00     0.060 A 
ATOM     34  C   UNL A   1      44.103  26.281  26.536  1.00  0.00     0.016 A 
ATOM     35  C   UNL A   1      42.586  24.507  27.203  1.00  0.00     0.016 A 
ATOM     36  C   UNL A   1      43.435  27.181  27.371  1.00  0.00     0.010 A 
ATOM     37  C   UNL A   1      41.938  25.402  28.060  1.00  0.00     0.010 A 
ATOM     38  C   UNL A   1      42.373  26.737  28.169  1.00  0.00    -0.014 A 
BRANCH  38  39
ATOM     39  C   UNL A   1      41.847  27.600  29.260  1.00  0.00     0.031 A 
ATOM     40  C   UNL A   1      42.564  27.566  30.582  1.00  0.00     0.074 A 
ATOM     41  C   UNL A   1      40.754  28.368  29.088  1.00  0.00     0.049 A 
ATOM     42  N   UNL A   1      42.289  28.195  31.696  1.00  0.00    -0.248 NA
ATOM     43  C   UNL A   1      43.743  26.687  30.666  1.00  0.00     0.031 C 
ATOM     44  C   UNL A   1      40.013  28.488  27.838  1.00  0.00     0.029 A 
ATOM     45  N   UNL A   1      40.075  29.192  29.958  1.00  0.00    -0.354 N 
ATOM     46  C   UNL A   1      43.225  27.748  32.620  1.00  0.00     0.074 A 
ATOM     47  C   UNL A   1      44.081  26.803  31.940  1.00  0.00     0.031 C 
ATOM     48  C   UNL A   1      39.000  29.356  28.012  1.00  0.00     0.029 A 
ATOM     49  C   UNL A   1      38.986  29.829  29.398  1.00  0.00     0.049 A 
ATOM     50  H   UNL A   1      40.344  29.316  30.897  1.00  0.00     0.167 HD
ATOM     51  C   UNL A   1      43.343  28.086  33.926  1.00  0.00     0.037 A 
ATOM     52  C   UNL A   1      38.098  30.697  29.946  1.00  0.00     0.037 A 
ATOM     53  C   UNL A   1      42.493  29.045  34.581  1.00  0.00     0.049 A 
ATOM     54  C   UNL A   1      38.307  31.075  31.400  1.00  0.00     0.074 A 
ATOM     55  C   UNL A   1      42.534  29.476  35.894  1.00  0.00     0.029 A 
ATOM     56  N   UNL A   1      41.444  29.715  33.968  1.00  0.00    -0.354 N 
ATOM     57  N   UNL A   1      39.288  30.762  32.218  1.00  0.00    -0.248 NA
ATOM     58  C   UNL A   1      37.291  31.944  32.012  1.00  0.00     0.031 C 
ATOM     59  C   UNL A   1      41.473  30.364  36.092  1.00  0.00     0.029 A 
ATOM     60  C   UNL A   1      40.809  30.534  34.887  1.00  0.00     0.049 A 
ATOM     61  H   UNL A   1      41.188  29.621  33.022  1.00  0.00     0.167 HD
ATOM     62  C   UNL A   1      39.026  31.431  33.409  1.00  0.00     0.074 A 
ATOM     63  C   UNL A   1      37.842  32.229  33.181  1.00  0.00     0.031 C 
ATOM     64  C   UNL A   1      39.670  31.368  34.603  1.00  0.00     0.037 A 
BRANCH  51  65
ATOM     65  C   UNL A   1      44.381  27.371  34.742  1.00  0.00     0.057 A 
ATOM     66  C   UNL A   1      45.654  27.905  34.977  1.00  0.00     0.134 A 
ATOM     67  C   UNL A   1      44.083  26.132  35.327  1.00  0.00     0.134 A 
ATOM     68  F   UNL A   1      46.010  29.079  34.435  1.00  0.00    -0.206 F 
ATOM     69  C   UNL A   1      46.602  27.221  35.743  1.00  0.00     0.040 A 
ATOM     70  C   UNL A   1      45.011  25.454  36.119  1.00  0.00     0.040 A 
ATOM     71  F   UNL A   1      42.882  25.564  35.144  1.00  0.00    -0.206 F 
ATOM     72  C   UNL A   1      46.278  25.996  36.323  1.00  0.00     0.006 A 
ENDBRANCH  51  65
BRANCH  52  73
ATOM     73  C   UNL A   1      37.003  31.331  29.123  1.00  0.00     0.057 A 
ATOM     74  C   UNL A   1      35.840  30.630  28.756  1.00  0.00     0.134 A 
ATOM     75  C   UNL A   1      37.050  32.665  28.698  1.00  0.00     0.134 A 
ATOM     76  F   UNL A   1      35.725  29.317  28.992  1.00  0.00    -0.206 F 
ATOM     77  C   UNL A   1      34.749  31.232  28.124  1.00  0.00     0.040 A 
ATOM     78  C   UNL A   1      35.963  33.289  28.068  1.00  0.00     0.040 A 
ATOM     79  F   UNL A   1      38.149  33.405  28.902  1.00  0.00    -0.206 F 
ATOM     80  C   UNL A   1      34.798  32.578  27.801  1.00  0.00     0.006 A 
ENDBRANCH  52  73
BRANCH  64  81
ATOM     81  C   UNL A   1      39.130  32.214  35.724  1.00  0.00     0.057 A 
ATOM     82  C   UNL A   1      38.237  31.699  36.675  1.00  0.00     0.134 A 
ATOM     83  C   UNL A   1      39.538  33.546  35.882  1.00  0.00     0.134 A 
ATOM     84  F   UNL A   1      37.804  30.432  36.585  1.00  0.00    -0.206 F 
ATOM     85  C   UNL A   1      37.735  32.489  37.711  1.00  0.00     0.040 A 
ATOM     86  C   UNL A   1      39.073  34.332  36.937  1.00  0.00     0.040 A 
ATOM     87  F   UNL A   1      40.407  34.099  35.022  1.00  0.00    -0.206 F 
ATOM     88  C   UNL A   1      38.159  33.808  37.847  1.00  0.00     0.006 A 
ENDBRANCH  64  81
ENDBRANCH  38  39
ENDBRANCH  31  33
ENDBRANCH  30  31
ENDBRANCH  29  30
ENDBRANCH  28  29
ENDBRANCH  27  28
ENDBRANCH  26  27
ENDBRANCH   1  26
TORSDOF 19
ENDMDL
MODEL 3
REMARK VINA RESULT:     -11.0      3.959      8.437
REMARK SMILES C[C@@H](C(=O)OCCOCCOCCOC(=O)c1ccc(-c2c3nc(c(-c4c(F)cccc4F)c4ccc([nH]4)c(-c4c(F)cccc4F)c4nc(c(-c5c(F)cccc5F)c5ccc2[nH]5)C=C4)C=C3)cc1)c1ccc(-c2ccc3[nH]ccc3c2)cc1
REMARK SMILES IDX 9 1 8 2 7 3 6 4 5 5 3 6 4 7 2 8 1 9 71 10 72 11 85 12 73 13
REMARK SMILES IDX 84 14 74 15 75 16 76 17 83 18 77 19 82 20 78 21 81 22 79 23
REMARK SMILES IDX 80 24 10 26 11 27 12 28 13 29 14 30 15 31 16 32 17 33 18 34
REMARK SMILES IDX 70 35 19 36 69 37 20 38 21 39 22 40 63 41 23 42 68 43 62 44
REMARK SMILES IDX 64 45 24 46 67 47 61 48 60 49 25 51 51 52 34 53 50 54 35 55
REMARK SMILES IDX 38 56 49 57 65 58 36 59 37 60 48 62 66 63 39 64 26 65 27 66
REMARK SMILES IDX 32 67 28 68 29 69 31 70 33 71 30 72 52 73 53 74 58 75 54 76
REMARK SMILES IDX 55 77 57 78 59 79 56 80 40 81 41 82 46 83 42 84 43 85 45 86
REMARK SMILES IDX 47 87 44 88
REMARK H PARENT 79 25 64 50 38 61
REMARK Flexibility Score: inf
ROOT
ATOM      1  C   UNL A   1      34.181  25.848  24.906  1.00  0.00     0.188 C 
ENDROOT
BRANCH   1   2
ATOM      2  O   UNL A   1      34.471  24.759  25.762  1.00  0.00    -0.376 OA
BRANCH   2   3
ATOM      3  C   UNL A   1      35.402  23.768  25.344  1.00  0.00     0.202 C 
BRANCH   3   4
ATOM      4  C   UNL A   1      34.992  22.478  24.599  1.00  0.00     0.261 C 
BRANCH   4   5
ATOM      5  O   UNL A   1      34.553  21.382  25.418  1.00  0.00    -0.463 OA
BRANCH   5   6
ATOM      6  C   UNL A   1      33.408  21.566  26.126  1.00  0.00     0.313 C 
ATOM      7  O   UNL A   1      33.381  21.806  27.330  1.00  0.00    -0.252 OA
BRANCH   6   8
ATOM      8  C   UNL A   1      32.135  21.514  25.266  1.00  0.00     0.126 C 
ATOM      9  C   UNL A   1      32.174  20.436  24.170  1.00  0.00     0.025 C 
BRANCH   8  10
ATOM     10  C   UNL A   1      31.625  22.894  24.835  1.00  0.00    -0.034 A 
ATOM     11  C   UNL A   1      31.633  23.326  23.504  1.00  0.00     0.005 A 
ATOM     12  C   UNL A   1      31.018  23.745  25.770  1.00  0.00     0.005 A 
ATOM     13  C   UNL A   1      31.029  24.536  23.127  1.00  0.00     0.009 A 
ATOM     14  C   UNL A   1      30.401  24.945  25.384  1.00  0.00     0.009 A 
ATOM     15  C   UNL A   1      30.352  25.358  24.043  1.00  0.00    -0.018 A 
BRANCH  15  16
ATOM     16  C   UNL A   1      29.598  26.566  23.603  1.00  0.00    -0.018 A 
ATOM     17  C   UNL A   1      28.248  26.762  23.966  1.00  0.00     0.011 A 
ATOM     18  C   UNL A   1      30.207  27.593  22.859  1.00  0.00     0.019 A 
ATOM     19  C   UNL A   1      27.468  27.832  23.504  1.00  0.00     0.027 A 
ATOM     20  C   UNL A   1      29.485  28.751  22.513  1.00  0.00    -0.000 A 
ATOM     21  C   UNL A   1      28.118  28.799  22.753  1.00  0.00     0.045 A 
ATOM     22  C   UNL A   1      29.844  30.019  22.002  1.00  0.00     0.028 A 
ATOM     23  N   UNL A   1      27.639  29.927  22.132  1.00  0.00    -0.361 N 
ATOM     24  C   UNL A   1      28.687  30.734  21.791  1.00  0.00     0.083 A 
ATOM     25  H   UNL A   1      26.689  30.123  21.959  1.00  0.00     0.166 HD
ENDBRANCH  15  16
ENDBRANCH   8  10
ENDBRANCH   6   8
ENDBRANCH   5   6
ENDBRANCH   4   5
ENDBRANCH   3   4
ENDBRANCH   2   3
ENDBRANCH   1   2
BRANCH   1  26
ATOM     26  C   UNL A   1      33.308  26.984  25.458  1.00  0.00     0.188 C 
BRANCH  26  27
ATOM     27  O   UNL A   1      33.765  28.291  25.212  1.00  0.00    -0.376 OA
BRANCH  27  28
ATOM     28  C   UNL A   1      32.893  29.246  24.635  1.00  0.00     0.202 C 
BRANCH  28  29
ATOM     29  C   UNL A   1      31.888  30.129  25.409  1.00  0.00     0.261 C 
BRANCH  29  30
ATOM     30  O   UNL A   1      32.108  30.382  26.800  1.00  0.00    -0.460 OA
BRANCH  30  31
ATOM     31  C   UNL A   1      32.680  31.561  27.134  1.00  0.00     0.338 C 
ATOM     32  O   UNL A   1      32.157  32.667  27.127  1.00  0.00    -0.246 OA
BRANCH  31  33
ATOM     33  C   UNL A   1      34.009  31.266  27.714  1.00  0.00     0.060 A 
ATOM     34  C   UNL A   1      34.374  29.937  27.977  1.00  0.00     0.016 A 
ATOM     35  C   UNL A   1      34.895  32.308  27.993  1.00  0.00     0.016 A 
ATOM     36  C   UNL A   1      35.624  29.648  28.530  1.00  0.00     0.010 A 
ATOM     37  C   UNL A   1      36.133  32.018  28.573  1.00  0.00     0.010 A 
ATOM     38  C   UNL A   1      36.496  30.691  28.868  1.00  0.00    -0.014 A 
BRANCH  38  39
ATOM     39  C   UNL A   1      37.692  30.420  29.711  1.00  0.00     0.031 A 
ATOM     40  C   UNL A   1      38.811  29.623  29.098  1.00  0.00     0.074 A 
ATOM     41  C   UNL A   1      37.768  30.847  30.986  1.00  0.00     0.049 A 
ATOM     42  N   UNL A   1      39.940  29.227  29.627  1.00  0.00    -0.248 NA
ATOM     43  C   UNL A   1      38.623  29.198  27.700  1.00  0.00     0.031 C 
ATOM     44  C   UNL A   1      36.750  31.648  31.655  1.00  0.00     0.029 A 
ATOM     45  N   UNL A   1      38.738  30.672  31.947  1.00  0.00    -0.354 N 
ATOM     46  C   UNL A   1      40.567  28.466  28.649  1.00  0.00     0.074 A 
ATOM     47  C   UNL A   1      39.702  28.460  27.491  1.00  0.00     0.031 C 
ATOM     48  C   UNL A   1      37.160  31.920  32.907  1.00  0.00     0.029 A 
ATOM     49  C   UNL A   1      38.453  31.279  33.154  1.00  0.00     0.049 A 
ATOM     50  H   UNL A   1      39.564  30.159  31.787  1.00  0.00     0.167 HD
ATOM     51  C   UNL A   1      41.751  27.815  28.723  1.00  0.00     0.037 A 
ATOM     52  C   UNL A   1      39.164  31.316  34.309  1.00  0.00     0.037 A 
ATOM     53  C   UNL A   1      42.609  27.848  29.878  1.00  0.00     0.049 A 
ATOM     54  C   UNL A   1      40.507  30.609  34.319  1.00  0.00     0.074 A 
ATOM     55  C   UNL A   1      43.838  27.240  30.056  1.00  0.00     0.029 A 
ATOM     56  N   UNL A   1      42.317  28.523  31.055  1.00  0.00    -0.354 N 
ATOM     57  N   UNL A   1      41.155  30.023  33.336  1.00  0.00    -0.248 NA
ATOM     58  C   UNL A   1      41.230  30.576  35.598  1.00  0.00     0.031 C 
ATOM     59  C   UNL A   1      44.265  27.499  31.361  1.00  0.00     0.029 A 
ATOM     60  C   UNL A   1      43.331  28.319  31.976  1.00  0.00     0.049 A 
ATOM     61  H   UNL A   1      41.510  29.063  31.212  1.00  0.00     0.167 HD
ATOM     62  C   UNL A   1      42.369  29.603  33.872  1.00  0.00     0.074 A 
ATOM     63  C   UNL A   1      42.400  30.071  35.239  1.00  0.00     0.031 C 
ATOM     64  C   UNL A   1      43.357  28.860  33.310  1.00  0.00     0.037 A 
BRANCH  51  65
ATOM     65  C   UNL A   1      42.156  26.965  27.552  1.00  0.00     0.057 A 
ATOM     66  C   UNL A   1      42.886  27.472  26.470  1.00  0.00     0.134 A 
ATOM     67  C   UNL A   1      41.828  25.602  27.527  1.00  0.00     0.134 A 
ATOM     68  F   UNL A   1      43.220  28.770  26.423  1.00  0.00    -0.206 F 
ATOM     69  C   UNL A   1      43.255  26.659  25.394  1.00  0.00     0.040 A 
ATOM     70  C   UNL A   1      42.216  24.775  26.473  1.00  0.00     0.040 A 
ATOM     71  F   UNL A   1      41.132  25.051  28.533  1.00  0.00    -0.206 F 
ATOM     72  C   UNL A   1      42.926  25.305  25.398  1.00  0.00     0.006 A 
ENDBRANCH  51  65
BRANCH  52  73
ATOM     73  C   UNL A   1      38.688  32.103  35.506  1.00  0.00     0.057 A 
ATOM     74  C   UNL A   1      38.098  31.484  36.623  1.00  0.00     0.134 A 
ATOM     75  C   UNL A   1      38.828  33.493  35.605  1.00  0.00     0.134 A 
ATOM     76  F   UNL A   1      37.794  30.180  36.606  1.00  0.00    -0.206 F 
ATOM     77  C   UNL A   1      37.783  32.166  37.801  1.00  0.00     0.040 A 
ATOM     78  C   UNL A   1      38.524  34.195  36.780  1.00  0.00     0.040 A 
ATOM     79  F   UNL A   1      39.285  34.206  34.564  1.00  0.00    -0.206 F 
ATOM     80  C   UNL A   1      38.022  33.528  37.892  1.00  0.00     0.006 A 
ENDBRANCH  52  73
BRANCH  64  81
ATOM     81  C   UNL A   1      44.559  28.554  34.162  1.00  0.00     0.057 A 
ATOM     82  C   UNL A   1      44.624  27.407  34.965  1.00  0.00     0.134 A 
ATOM     83  C   UNL A   1      45.683  29.392  34.148  1.00  0.00     0.134 A 
ATOM     84  F   UNL A   1      43.583  26.560  35.027  1.00  0.00    -0.206 F 
ATOM     85  C   UNL A   1      45.738  27.129  35.758  1.00  0.00     0.040 A 
ATOM     86  C   UNL A   1      46.819  29.103  34.906  1.00  0.00     0.040 A 
ATOM     87  F   UNL A   1      45.701  30.497  33.387  1.00  0.00    -0.206 F 
ATOM     88  C   UNL A   1      46.844  27.975  35.724  1.00  0.00     0.006 A 
ENDBRANCH  64  81
ENDBRANCH  38  39
ENDBRANCH  31  33
ENDBRANCH  30  31
ENDBRANCH  29  30
ENDBRANCH  28  29
ENDBRANCH  27  28
ENDBRANCH  26  27
ENDBRANCH   1  26
TORSDOF 19
ENDMDL
