MODEL 1
REMARK VINA RESULT:     -11.6      0.000      0.000
REMARK SMILES COc1cc(/C=C2\SC(=S)N([C@H](C)C(=O)Nc3ccc(C(=O)OCCOCCOCCOC(=O)c4ccc(-c5c6nc(c(-c7c(F)cccc7F)c7ccc([nH]7)c(-c7c(F)cccc7F)c7nc(c(-c8c(F)cccc8F)c8ccc5[nH]8)C=C7)C=C6)cc4)cc3)C2=O)ccc1O
REMARK SMILES IDX 26 1 25 2 24 3 23 4 21 5 22 6 20 7 17 8 18 9 90 10 19 11
REMARK SMILES IDX 89 12 16 13 14 14 15 15 12 17 13 18 11 19 6 20 7 21 8 22
REMARK SMILES IDX 91 23 9 24 92 25 10 26 5 27 3 28 4 29 95 30 94 31 93 32 2 33
REMARK SMILES IDX 1 34 96 35 27 37 28 38 29 39 30 40 31 41 32 42 33 43 34 44
REMARK SMILES IDX 35 45 36 46 88 47 37 48 87 49 38 50 39 51 40 52 81 53 41 54
REMARK SMILES IDX 86 55 80 56 82 57 42 58 85 59 79 60 78 61 43 63 69 64 52 65
REMARK SMILES IDX 68 66 53 67 56 68 67 69 83 70 54 71 55 72 66 74 84 75 57 76
REMARK SMILES IDX 44 77 45 78 50 79 46 80 47 81 49 82 51 83 48 84 70 85 71 86
REMARK SMILES IDX 76 87 72 88 73 89 75 90 77 91 74 92 58 93 59 94 64 95 60 96
REMARK SMILES IDX 61 97 63 98 65 99 62 100
REMARK H PARENT 16 16 96 36 82 62 56 73
REMARK Flexibility Score: inf
ROOT
ATOM      1  O   UNL A   1      42.198  19.670  27.380  1.00  0.00    -0.376 OA
ENDROOT
BRANCH   1   2
ATOM      2  C   UNL A   1      41.629  20.954  27.592  1.00  0.00     0.202 C 
BRANCH   2   3
ATOM      3  C   UNL A   1      40.507  21.408  26.664  1.00  0.00     0.261 C 
BRANCH   3   4
ATOM      4  O   UNL A   1      39.655  22.372  27.296  1.00  0.00    -0.460 OA
BRANCH   4   5
ATOM      5  C   UNL A   1      38.988  23.187  26.448  1.00  0.00     0.338 C 
ATOM      6  O   UNL A   1      39.367  24.269  26.028  1.00  0.00    -0.246 OA
BRANCH   5   7
ATOM      7  C   UNL A   1      37.718  22.569  25.999  1.00  0.00     0.060 A 
ATOM      8  C   UNL A   1      35.327  21.204  25.710  1.00  0.00     0.041 A 
ATOM      9  C   UNL A   1      35.322  22.463  26.302  1.00  0.00     0.027 A 
ATOM     10  C   UNL A   1      36.462  20.747  25.048  1.00  0.00     0.027 A 
ATOM     11  C   UNL A   1      36.528  23.133  26.474  1.00  0.00     0.018 A 
ATOM     12  C   UNL A   1      37.670  21.427  25.196  1.00  0.00     0.018 A 
BRANCH   8  13
ATOM     13  N   UNL A   1      34.180  20.429  25.820  1.00  0.00    -0.324 N 
ATOM     14  C   UNL A   1      33.121  20.323  24.961  1.00  0.00     0.247 C 
ATOM     15  O   UNL A   1      32.152  19.671  25.375  1.00  0.00    -0.272 OA
ATOM     16  H   UNL A   1      34.120  19.877  26.634  1.00  0.00     0.170 HD
BRANCH  14  17
ATOM     17  C   UNL A   1      33.042  21.006  23.557  1.00  0.00     0.178 C 
ATOM     18  C   UNL A   1      32.116  20.212  22.640  1.00  0.00     0.042 C 
BRANCH  17  19
ATOM     19  N   UNL A   1      32.950  22.495  23.584  1.00  0.00    -0.280 N 
ATOM     20  C   UNL A   1      30.952  25.283  24.835  1.00  0.00     0.029 C 
ATOM     21  C   UNL A   1      31.817  24.510  24.161  1.00  0.00     0.081 C 
ATOM     22  S   UNL A   1      32.952  25.000  22.980  1.00  0.00    -0.054 SA
ATOM     23  C   UNL A   1      31.900  23.031  24.331  1.00  0.00     0.266 C 
ATOM     24  C   UNL A   1      33.801  23.455  23.085  1.00  0.00     0.149 C 
ATOM     25  O   UNL A   1      31.136  22.404  25.050  1.00  0.00    -0.268 OA
ATOM     26  S   UNL A   1      35.434  23.394  22.751  1.00  0.00    -0.052 S 
BRANCH  20  27
ATOM     27  C   UNL A   1      30.654  26.683  24.498  1.00  0.00    -0.020 A 
ATOM     28  C   UNL A   1      31.043  29.091  24.620  1.00  0.00     0.161 A 
ATOM     29  C   UNL A   1      31.302  27.786  25.075  1.00  0.00     0.058 A 
ATOM     30  C   UNL A   1      30.142  29.267  23.565  1.00  0.00     0.157 A 
ATOM     31  C   UNL A   1      29.451  28.185  23.026  1.00  0.00     0.051 A 
ATOM     32  C   UNL A   1      29.708  26.898  23.490  1.00  0.00     0.012 A 
BRANCH  28  33
ATOM     33  O   UNL A   1      31.768  30.069  25.248  1.00  0.00    -0.493 OA
ATOM     34  C   UNL A   1      31.779  30.072  26.673  1.00  0.00     0.278 C 
ENDBRANCH  28  33
BRANCH  30  35
ATOM     35  O   UNL A   1      29.934  30.464  22.941  1.00  0.00    -0.504 OA
ATOM     36  H   UNL A   1      29.975  30.518  22.006  1.00  0.00     0.293 HD
ENDBRANCH  30  35
ENDBRANCH  20  27
ENDBRANCH  17  19
ENDBRANCH  14  17
ENDBRANCH   8  13
ENDBRANCH   5   7
ENDBRANCH   4   5
ENDBRANCH   3   4
ENDBRANCH   2   3
ENDBRANCH   1   2
BRANCH   1  37
ATOM     37  C   UNL A   1      42.143  19.062  26.100  1.00  0.00     0.188 C 
BRANCH  37  38
ATOM     38  C   UNL A   1      43.429  18.655  25.350  1.00  0.00     0.188 C 
BRANCH  38  39
ATOM     39  O   UNL A   1      44.625  19.403  25.485  1.00  0.00    -0.376 OA
BRANCH  39  40
ATOM     40  C   UNL A   1      44.708  20.681  24.873  1.00  0.00     0.202 C 
BRANCH  40  41
ATOM     41  C   UNL A   1      44.782  21.905  25.784  1.00  0.00     0.261 C 
BRANCH  41  42
ATOM     42  O   UNL A   1      43.763  22.871  25.485  1.00  0.00    -0.460 OA
BRANCH  42  43
ATOM     43  C   UNL A   1      44.209  24.143  25.319  1.00  0.00     0.338 C 
ATOM     44  O   UNL A   1      45.021  24.545  24.518  1.00  0.00    -0.246 OA
BRANCH  43  45
ATOM     45  C   UNL A   1      43.410  25.049  26.170  1.00  0.00     0.060 A 
ATOM     46  C   UNL A   1      43.664  26.425  26.080  1.00  0.00     0.016 A 
ATOM     47  C   UNL A   1      42.483  24.554  27.086  1.00  0.00     0.016 A 
ATOM     48  C   UNL A   1      43.021  27.310  26.942  1.00  0.00     0.010 A 
ATOM     49  C   UNL A   1      41.855  25.440  27.966  1.00  0.00     0.010 A 
ATOM     50  C   UNL A   1      42.149  26.815  27.920  1.00  0.00    -0.014 A 
BRANCH  50  51
ATOM     51  C   UNL A   1      41.705  27.694  29.025  1.00  0.00     0.031 A 
ATOM     52  C   UNL A   1      42.427  27.605  30.341  1.00  0.00     0.074 A 
ATOM     53  C   UNL A   1      40.680  28.549  28.873  1.00  0.00     0.049 A 
ATOM     54  N   UNL A   1      42.167  28.201  31.475  1.00  0.00    -0.248 NA
ATOM     55  C   UNL A   1      43.605  26.720  30.379  1.00  0.00     0.031 C 
ATOM     56  C   UNL A   1      39.934  28.765  27.635  1.00  0.00     0.029 A 
ATOM     57  N   UNL A   1      40.084  29.386  29.780  1.00  0.00    -0.354 N 
ATOM     58  C   UNL A   1      43.141  27.761  32.362  1.00  0.00     0.074 A 
ATOM     59  C   UNL A   1      43.986  26.833  31.642  1.00  0.00     0.031 C 
ATOM     60  C   UNL A   1      38.962  29.665  27.868  1.00  0.00     0.029 A 
ATOM     61  C   UNL A   1      38.998  30.059  29.276  1.00  0.00     0.049 A 
ATOM     62  H   UNL A   1      40.402  29.494  30.706  1.00  0.00     0.167 HD
ATOM     63  C   UNL A   1      43.318  28.100  33.660  1.00  0.00     0.037 A 
ATOM     64  C   UNL A   1      38.121  30.874  29.893  1.00  0.00     0.037 A 
ATOM     65  C   UNL A   1      42.471  29.010  34.381  1.00  0.00     0.049 A 
ATOM     66  C   UNL A   1      38.280  31.161  31.363  1.00  0.00     0.074 A 
ATOM     67  C   UNL A   1      42.569  29.420  35.699  1.00  0.00     0.029 A 
ATOM     68  N   UNL A   1      41.362  29.644  33.845  1.00  0.00    -0.354 N 
ATOM     69  N   UNL A   1      39.211  30.752  32.191  1.00  0.00    -0.248 NA
ATOM     70  C   UNL A   1      37.261  32.020  31.985  1.00  0.00     0.031 C 
ATOM     71  C   UNL A   1      41.492  30.272  35.972  1.00  0.00     0.029 A 
ATOM     72  C   UNL A   1      40.751  30.424  34.811  1.00  0.00     0.049 A 
ATOM     73  H   UNL A   1      41.053  29.553  32.914  1.00  0.00     0.167 HD
ATOM     74  C   UNL A   1      38.909  31.328  33.420  1.00  0.00     0.074 A 
ATOM     75  C   UNL A   1      37.710  32.117  33.229  1.00  0.00     0.031 C 
ATOM     76  C   UNL A   1      39.567  31.217  34.600  1.00  0.00     0.037 A 
BRANCH  63  77
ATOM     77  C   UNL A   1      44.458  27.452  34.386  1.00  0.00     0.057 A 
ATOM     78  C   UNL A   1      45.718  28.057  34.469  1.00  0.00     0.134 A 
ATOM     79  C   UNL A   1      44.291  26.212  35.014  1.00  0.00     0.134 A 
ATOM     80  F   UNL A   1      45.948  29.236  33.871  1.00  0.00    -0.206 F 
ATOM     81  C   UNL A   1      46.780  27.439  35.132  1.00  0.00     0.040 A 
ATOM     82  C   UNL A   1      45.338  25.596  35.700  1.00  0.00     0.040 A 
ATOM     83  F   UNL A   1      43.108  25.581  34.971  1.00  0.00    -0.206 F 
ATOM     84  C   UNL A   1      46.590  26.208  35.755  1.00  0.00     0.006 A 
ENDBRANCH  63  77
BRANCH  64  85
ATOM     85  C   UNL A   1      36.994  31.468  29.132  1.00  0.00     0.057 A 
ATOM     86  C   UNL A   1      37.039  32.798  28.696  1.00  0.00     0.134 A 
ATOM     87  C   UNL A   1      35.836  30.735  28.849  1.00  0.00     0.134 A 
ATOM     88  F   UNL A   1      38.112  33.558  28.961  1.00  0.00    -0.206 F 
ATOM     89  C   UNL A   1      35.965  33.382  28.021  1.00  0.00     0.040 A 
ATOM     90  C   UNL A   1      34.765  31.299  28.155  1.00  0.00     0.040 A 
ATOM     91  F   UNL A   1      35.731  29.457  29.243  1.00  0.00    -0.206 F 
ATOM     92  C   UNL A   1      34.826  32.629  27.745  1.00  0.00     0.006 A 
ENDBRANCH  64  85
BRANCH  76  93
ATOM     93  C   UNL A   1      39.037  32.000  35.764  1.00  0.00     0.057 A 
ATOM     94  C   UNL A   1      38.195  31.423  36.721  1.00  0.00     0.134 A 
ATOM     95  C   UNL A   1      39.424  33.333  35.958  1.00  0.00     0.134 A 
ATOM     96  F   UNL A   1      37.780  30.155  36.587  1.00  0.00    -0.206 F 
ATOM     97  C   UNL A   1      37.741  32.150  37.825  1.00  0.00     0.040 A 
ATOM     98  C   UNL A   1      38.996  34.062  37.068  1.00  0.00     0.040 A 
ATOM     99  F   UNL A   1      40.237  33.940  35.081  1.00  0.00    -0.206 F 
ATOM    100  C   UNL A   1      38.149  33.471  38.004  1.00  0.00     0.006 A 
ENDBRANCH  76  93
ENDBRANCH  50  51
ENDBRANCH  43  45
ENDBRANCH  42  43
ENDBRANCH  41  42
ENDBRANCH  40  41
ENDBRANCH  39  40
ENDBRANCH  38  39
ENDBRANCH  37  38
ENDBRANCH   1  37
TORSDOF 23
ENDMDL
MODEL 2
REMARK VINA RESULT:     -10.4      5.130     11.299
REMARK SMILES COc1cc(/C=C2\SC(=S)N([C@H](C)C(=O)Nc3ccc(C(=O)OCCOCCOCCOC(=O)c4ccc(-c5c6nc(c(-c7c(F)cccc7F)c7ccc([nH]7)c(-c7c(F)cccc7F)c7nc(c(-c8c(F)cccc8F)c8ccc5[nH]8)C=C7)C=C6)cc4)cc3)C2=O)ccc1O
REMARK SMILES IDX 26 1 25 2 24 3 23 4 21 5 22 6 20 7 17 8 18 9 90 10 19 11
REMARK SMILES IDX 89 12 16 13 14 14 15 15 12 17 13 18 11 19 6 20 7 21 8 22
REMARK SMILES IDX 91 23 9 24 92 25 10 26 5 27 3 28 4 29 95 30 94 31 93 32 2 33
REMARK SMILES IDX 1 34 96 35 27 37 28 38 29 39 30 40 31 41 32 42 33 43 34 44
REMARK SMILES IDX 35 45 36 46 88 47 37 48 87 49 38 50 39 51 40 52 81 53 41 54
REMARK SMILES IDX 86 55 80 56 82 57 42 58 85 59 79 60 78 61 43 63 69 64 52 65
REMARK SMILES IDX 68 66 53 67 56 68 67 69 83 70 54 71 55 72 66 74 84 75 57 76
REMARK SMILES IDX 44 77 45 78 50 79 46 80 47 81 49 82 51 83 48 84 70 85 71 86
REMARK SMILES IDX 76 87 72 88 73 89 75 90 77 91 74 92 58 93 59 94 64 95 60 96
REMARK SMILES IDX 61 97 63 98 65 99 62 100
REMARK H PARENT 16 16 96 36 82 62 56 73
REMARK Flexibility Score: inf
ROOT
ATOM      1  O   UNL A   1      34.732  33.337  30.918  1.00  0.00    -0.376 OA
ENDROOT
BRANCH   1   2
ATOM      2  C   UNL A   1      35.973  33.574  30.269  1.00  0.00     0.202 C 
BRANCH   2   3
ATOM      3  C   UNL A   1      36.526  32.490  29.350  1.00  0.00     0.261 C 
BRANCH   3   4
ATOM      4  O   UNL A   1      36.855  31.299  30.075  1.00  0.00    -0.460 OA
BRANCH   4   5
ATOM      5  C   UNL A   1      36.632  30.144  29.407  1.00  0.00     0.338 C 
ATOM      6  O   UNL A   1      35.559  29.743  28.983  1.00  0.00    -0.246 OA
BRANCH   5   7
ATOM      7  C   UNL A   1      37.898  29.413  29.166  1.00  0.00     0.060 A 
ATOM      8  C   UNL A   1      40.458  28.360  29.173  1.00  0.00     0.041 A 
ATOM      9  C   UNL A   1      39.512  27.848  30.055  1.00  0.00     0.027 A 
ATOM     10  C   UNL A   1      40.066  29.201  28.137  1.00  0.00     0.027 A 
ATOM     11  C   UNL A   1      38.236  28.400  30.072  1.00  0.00     0.018 A 
ATOM     12  C   UNL A   1      38.780  29.738  28.132  1.00  0.00     0.018 A 
BRANCH   8  13
ATOM     13  N   UNL A   1      41.789  28.017  29.376  1.00  0.00    -0.324 N 
ATOM     14  C   UNL A   1      42.653  27.367  28.537  1.00  0.00     0.247 C 
ATOM     15  O   UNL A   1      43.746  27.052  29.026  1.00  0.00    -0.272 OA
ATOM     16  H   UNL A   1      42.163  28.278  30.248  1.00  0.00     0.170 HD
BRANCH  14  17
ATOM     17  C   UNL A   1      42.326  26.961  27.063  1.00  0.00     0.178 C 
ATOM     18  C   UNL A   1      42.601  28.133  26.124  1.00  0.00     0.042 C 
BRANCH  17  19
ATOM     19  N   UNL A   1      42.767  25.590  26.675  1.00  0.00    -0.280 N 
ATOM     20  C   UNL A   1      41.657  22.123  26.403  1.00  0.00     0.029 C 
ATOM     21  C   UNL A   1      42.386  23.246  26.482  1.00  0.00     0.081 C 
ATOM     22  S   UNL A   1      44.084  23.399  26.346  1.00  0.00    -0.054 SA
ATOM     23  C   UNL A   1      41.796  24.591  26.742  1.00  0.00     0.266 C 
ATOM     24  C   UNL A   1      43.958  25.149  26.142  1.00  0.00     0.149 C 
ATOM     25  O   UNL A   1      40.607  24.758  26.971  1.00  0.00    -0.268 OA
ATOM     26  S   UNL A   1      45.122  25.956  25.261  1.00  0.00    -0.052 S 
BRANCH  20  27
ATOM     27  C   UNL A   1      42.220  20.764  26.424  1.00  0.00    -0.020 A 
ATOM     28  C   UNL A   1      43.800  19.041  25.717  1.00  0.00     0.161 A 
ATOM     29  C   UNL A   1      43.233  20.319  25.562  1.00  0.00     0.058 A 
ATOM     30  C   UNL A   1      43.348  18.230  26.763  1.00  0.00     0.157 A 
ATOM     31  C   UNL A   1      42.304  18.640  27.587  1.00  0.00     0.051 A 
ATOM     32  C   UNL A   1      41.743  19.903  27.418  1.00  0.00     0.012 A 
BRANCH  28  33
ATOM     33  O   UNL A   1      44.801  18.750  24.829  1.00  0.00    -0.493 OA
ATOM     34  C   UNL A   1      44.715  19.318  23.525  1.00  0.00     0.278 C 
ENDBRANCH  28  33
BRANCH  30  35
ATOM     35  O   UNL A   1      43.932  17.044  27.104  1.00  0.00    -0.504 OA
ATOM     36  H   UNL A   1      44.467  16.589  26.483  1.00  0.00     0.293 HD
ENDBRANCH  30  35
ENDBRANCH  20  27
ENDBRANCH  17  19
ENDBRANCH  14  17
ENDBRANCH   8  13
ENDBRANCH   5   7
ENDBRANCH   4   5
ENDBRANCH   3   4
ENDBRANCH   2   3
ENDBRANCH   1   2
BRANCH   1  37
ATOM     37  C   UNL A   1      34.267  34.223  31.924  1.00  0.00     0.188 C 
BRANCH  37  38
ATOM     38  C   UNL A   1      35.179  35.327  32.502  1.00  0.00     0.188 C 
BRANCH  38  39
ATOM     39  O   UNL A   1      35.854  35.150  33.735  1.00  0.00    -0.376 OA
BRANCH  39  40
ATOM     40  C   UNL A   1      36.888  34.182  33.818  1.00  0.00     0.202 C 
BRANCH  40  41
ATOM     41  C   UNL A   1      37.251  33.642  35.200  1.00  0.00     0.261 C 
BRANCH  41  42
ATOM     42  O   UNL A   1      37.012  32.231  35.315  1.00  0.00    -0.460 OA
BRANCH  42  43
ATOM     43  C   UNL A   1      38.034  31.518  35.854  1.00  0.00     0.338 C 
ATOM     44  O   UNL A   1      38.061  30.953  36.923  1.00  0.00    -0.246 OA
BRANCH  43  45
ATOM     45  C   UNL A   1      39.103  31.368  34.845  1.00  0.00     0.060 A 
ATOM     46  C   UNL A   1      38.811  30.639  33.684  1.00  0.00     0.016 A 
ATOM     47  C   UNL A   1      40.385  31.873  35.067  1.00  0.00     0.016 A 
ATOM     48  C   UNL A   1      39.817  30.373  32.758  1.00  0.00     0.010 A 
ATOM     49  C   UNL A   1      41.398  31.585  34.149  1.00  0.00     0.010 A 
ATOM     50  C   UNL A   1      41.124  30.804  33.011  1.00  0.00    -0.014 A 
BRANCH  50  51
ATOM     51  C   UNL A   1      42.246  30.271  32.205  1.00  0.00     0.031 A 
ATOM     52  C   UNL A   1      42.879  28.976  32.634  1.00  0.00     0.074 A 
ATOM     53  C   UNL A   1      42.701  30.920  31.121  1.00  0.00     0.049 A 
ATOM     54  N   UNL A   1      43.925  28.360  32.147  1.00  0.00    -0.248 NA
ATOM     55  C   UNL A   1      42.243  28.284  33.767  1.00  0.00     0.031 C 
ATOM     56  C   UNL A   1      42.140  32.154  30.574  1.00  0.00     0.029 A 
ATOM     57  N   UNL A   1      43.756  30.630  30.293  1.00  0.00    -0.354 N 
ATOM     58  C   UNL A   1      44.076  27.214  32.916  1.00  0.00     0.074 A 
ATOM     59  C   UNL A   1      43.030  27.229  33.914  1.00  0.00     0.031 C 
ATOM     60  C   UNL A   1      42.873  32.527  29.509  1.00  0.00     0.029 A 
ATOM     61  C   UNL A   1      43.970  31.579  29.323  1.00  0.00     0.049 A 
ATOM     62  H   UNL A   1      44.307  29.820  30.385  1.00  0.00     0.167 HD
ATOM     63  C   UNL A   1      45.004  26.235  32.801  1.00  0.00     0.037 A 
ATOM     64  C   UNL A   1      44.957  31.679  28.413  1.00  0.00     0.037 A 
ATOM     65  C   UNL A   1      46.054  26.226  31.821  1.00  0.00     0.049 A 
ATOM     66  C   UNL A   1      46.035  30.628  28.367  1.00  0.00     0.074 A 
ATOM     67  C   UNL A   1      47.041  25.278  31.622  1.00  0.00     0.029 A 
ATOM     68  N   UNL A   1      46.258  27.222  30.878  1.00  0.00    -0.354 N 
ATOM     69  N   UNL A   1      46.164  29.541  29.088  1.00  0.00    -0.248 NA
ATOM     70  C   UNL A   1      47.110  30.823  27.382  1.00  0.00     0.031 C 
ATOM     71  C   UNL A   1      47.870  25.721  30.584  1.00  0.00     0.029 A 
ATOM     72  C   UNL A   1      47.370  26.924  30.110  1.00  0.00     0.049 A 
ATOM     73  H   UNL A   1      45.696  28.024  30.772  1.00  0.00     0.167 HD
ATOM     74  C   UNL A   1      47.312  28.907  28.624  1.00  0.00     0.074 A 
ATOM     75  C   UNL A   1      47.841  29.731  27.557  1.00  0.00     0.031 C 
ATOM     76  C   UNL A   1      47.874  27.747  29.040  1.00  0.00     0.037 A 
BRANCH  63  77
ATOM     77  C   UNL A   1      44.934  25.110  33.789  1.00  0.00     0.057 A 
ATOM     78  C   UNL A   1      44.358  23.876  33.463  1.00  0.00     0.134 A 
ATOM     79  C   UNL A   1      45.457  25.260  35.079  1.00  0.00     0.134 A 
ATOM     80  F   UNL A   1      43.822  23.676  32.248  1.00  0.00    -0.206 F 
ATOM     81  C   UNL A   1      44.282  22.839  34.393  1.00  0.00     0.040 A 
ATOM     82  C   UNL A   1      45.407  24.223  36.011  1.00  0.00     0.040 A 
ATOM     83  F   UNL A   1      46.023  26.417  35.454  1.00  0.00    -0.206 F 
ATOM     84  C   UNL A   1      44.812  23.009  35.670  1.00  0.00     0.006 A 
ENDBRANCH  63  77
BRANCH  64  85
ATOM     85  C   UNL A   1      44.992  32.829  27.476  1.00  0.00     0.057 A 
ATOM     86  C   UNL A   1      44.305  32.788  26.257  1.00  0.00     0.134 A 
ATOM     87  C   UNL A   1      45.737  33.980  27.759  1.00  0.00     0.134 A 
ATOM     88  F   UNL A   1      43.596  31.700  25.919  1.00  0.00    -0.206 F 
ATOM     89  C   UNL A   1      44.369  33.844  25.346  1.00  0.00     0.040 A 
ATOM     90  C   UNL A   1      45.791  35.052  26.867  1.00  0.00     0.040 A 
ATOM     91  F   UNL A   1      46.421  34.078  28.908  1.00  0.00    -0.206 F 
ATOM     92  C   UNL A   1      45.111  34.983  25.654  1.00  0.00     0.006 A 
ENDBRANCH  64  85
BRANCH  76  93
ATOM     93  C   UNL A   1      49.098  27.270  28.315  1.00  0.00     0.057 A 
ATOM     94  C   UNL A   1      50.382  27.692  28.677  1.00  0.00     0.134 A 
ATOM     95  C   UNL A   1      48.988  26.335  27.278  1.00  0.00     0.134 A 
ATOM     96  F   UNL A   1      50.553  28.594  29.654  1.00  0.00    -0.206 F 
ATOM     97  C   UNL A   1      51.518  27.209  28.021  1.00  0.00     0.040 A 
ATOM     98  C   UNL A   1      50.116  25.829  26.631  1.00  0.00     0.040 A 
ATOM     99  F   UNL A   1      47.785  25.885  26.890  1.00  0.00    -0.206 F 
ATOM    100  C   UNL A   1      51.386  26.269  27.000  1.00  0.00     0.006 A 
ENDBRANCH  76  93
ENDBRANCH  50  51
ENDBRANCH  43  45
ENDBRANCH  42  43
ENDBRANCH  41  42
ENDBRANCH  40  41
ENDBRANCH  39  40
ENDBRANCH  38  39
ENDBRANCH  37  38
ENDBRANCH   1  37
TORSDOF 23
ENDMDL
MODEL 3
REMARK VINA RESULT:     -10.1      4.472     10.310
REMARK SMILES COc1cc(/C=C2\SC(=S)N([C@H](C)C(=O)Nc3ccc(C(=O)OCCOCCOCCOC(=O)c4ccc(-c5c6nc(c(-c7c(F)cccc7F)c7ccc([nH]7)c(-c7c(F)cccc7F)c7nc(c(-c8c(F)cccc8F)c8ccc5[nH]8)C=C7)C=C6)cc4)cc3)C2=O)ccc1O
REMARK SMILES IDX 26 1 25 2 24 3 23 4 21 5 22 6 20 7 17 8 18 9 90 10 19 11
REMARK SMILES IDX 89 12 16 13 14 14 15 15 12 17 13 18 11 19 6 20 7 21 8 22
REMARK SMILES IDX 91 23 9 24 92 25 10 26 5 27 3 28 4 29 95 30 94 31 93 32 2 33
REMARK SMILES IDX 1 34 96 35 27 37 28 38 29 39 30 40 31 41 32 42 33 43 34 44
REMARK SMILES IDX 35 45 36 46 88 47 37 48 87 49 38 50 39 51 40 52 81 53 41 54
REMARK SMILES IDX 86 55 80 56 82 57 42 58 85 59 79 60 78 61 43 63 69 64 52 65
REMARK SMILES IDX 68 66 53 67 56 68 67 69 83 70 54 71 55 72 66 74 84 75 57 76
REMARK SMILES IDX 44 77 45 78 50 79 46 80 47 81 49 82 51 83 48 84 70 85 71 86
REMARK SMILES IDX 76 87 72 88 73 89 75 90 77 91 74 92 58 93 59 94 64 95 60 96
REMARK SMILES IDX 61 97 63 98 65 99 62 100
REMARK H PARENT 16 16 96 36 82 62 56 73
REMARK Flexibility Score: inf
ROOT
ATOM      1  O   UNL A   1      35.514  33.650  30.483  1.00  0.00    -0.376 OA
ENDROOT
BRANCH   1   2
ATOM      2  C   UNL A   1      36.903  33.946  30.428  1.00  0.00     0.202 C 
BRANCH   2   3
ATOM      3  C   UNL A   1      37.842  32.898  29.839  1.00  0.00     0.261 C 
BRANCH   3   4
ATOM      4  O   UNL A   1      37.767  31.659  30.554  1.00  0.00    -0.460 OA
BRANCH   4   5
ATOM      5  C   UNL A   1      37.388  30.594  29.812  1.00  0.00     0.338 C 
ATOM      6  O   UNL A   1      36.309  30.436  29.262  1.00  0.00    -0.246 OA
BRANCH   5   7
ATOM      7  C   UNL A   1      38.496  29.622  29.666  1.00  0.00     0.060 A 
ATOM      8  C   UNL A   1      40.744  28.024  29.908  1.00  0.00     0.041 A 
ATOM      9  C   UNL A   1      39.580  27.662  30.578  1.00  0.00     0.027 A 
ATOM     10  C   UNL A   1      40.712  29.020  28.938  1.00  0.00     0.027 A 
ATOM     11  C   UNL A   1      38.461  28.483  30.480  1.00  0.00     0.018 A 
ATOM     12  C   UNL A   1      39.585  29.831  28.816  1.00  0.00     0.018 A 
BRANCH   8  13
ATOM     13  N   UNL A   1      41.922  27.374  30.254  1.00  0.00    -0.324 N 
ATOM     14  C   UNL A   1      42.737  26.592  29.484  1.00  0.00     0.247 C 
ATOM     15  O   UNL A   1      43.650  26.007  30.084  1.00  0.00    -0.272 OA
ATOM     16  H   UNL A   1      42.210  27.494  31.188  1.00  0.00     0.170 HD
BRANCH  14  17
ATOM     17  C   UNL A   1      42.553  26.354  27.950  1.00  0.00     0.178 C 
ATOM     18  C   UNL A   1      43.878  26.569  27.224  1.00  0.00     0.042 C 
BRANCH  17  19
ATOM     19  N   UNL A   1      41.701  25.183  27.592  1.00  0.00    -0.280 N 
ATOM     20  C   UNL A   1      38.717  24.188  25.739  1.00  0.00     0.029 C 
ATOM     21  C   UNL A   1      39.766  24.237  26.574  1.00  0.00     0.081 C 
ATOM     22  S   UNL A   1      40.320  23.008  27.625  1.00  0.00    -0.054 SA
ATOM     23  C   UNL A   1      40.630  25.441  26.737  1.00  0.00     0.266 C 
ATOM     24  C   UNL A   1      41.856  23.843  27.872  1.00  0.00     0.149 C 
ATOM     25  O   UNL A   1      40.402  26.500  26.169  1.00  0.00    -0.268 OA
ATOM     26  S   UNL A   1      43.224  22.956  28.224  1.00  0.00    -0.052 S 
BRANCH  20  27
ATOM     27  C   UNL A   1      37.693  23.133  25.754  1.00  0.00    -0.020 A 
ATOM     28  C   UNL A   1      35.414  22.302  26.037  1.00  0.00     0.161 A 
ATOM     29  C   UNL A   1      36.364  23.331  26.158  1.00  0.00     0.058 A 
ATOM     30  C   UNL A   1      35.814  21.082  25.484  1.00  0.00     0.157 A 
ATOM     31  C   UNL A   1      37.142  20.856  25.133  1.00  0.00     0.051 A 
ATOM     32  C   UNL A   1      38.077  21.879  25.266  1.00  0.00     0.012 A 
BRANCH  28  33
ATOM     33  O   UNL A   1      34.150  22.643  26.438  1.00  0.00    -0.493 OA
ATOM     34  C   UNL A   1      33.746  24.000  26.273  1.00  0.00     0.278 C 
ENDBRANCH  28  33
BRANCH  30  35
ATOM     35  O   UNL A   1      34.947  20.073  25.174  1.00  0.00    -0.504 OA
ATOM     36  H   UNL A   1      34.509  19.605  25.858  1.00  0.00     0.293 HD
ENDBRANCH  30  35
ENDBRANCH  20  27
ENDBRANCH  17  19
ENDBRANCH  14  17
ENDBRANCH   8  13
ENDBRANCH   5   7
ENDBRANCH   4   5
ENDBRANCH   3   4
ENDBRANCH   2   3
ENDBRANCH   1   2
BRANCH   1  37
ATOM     37  C   UNL A   1      34.653  34.400  31.325  1.00  0.00     0.188 C 
BRANCH  37  38
ATOM     38  C   UNL A   1      35.208  35.230  32.503  1.00  0.00     0.188 C 
BRANCH  38  39
ATOM     39  O   UNL A   1      35.317  34.677  33.802  1.00  0.00    -0.376 OA
BRANCH  39  40
ATOM     40  C   UNL A   1      36.335  33.720  34.057  1.00  0.00     0.202 C 
BRANCH  40  41
ATOM     41  C   UNL A   1      36.960  33.698  35.450  1.00  0.00     0.261 C 
BRANCH  41  42
ATOM     42  O   UNL A   1      36.987  32.378  36.016  1.00  0.00    -0.460 OA
BRANCH  42  43
ATOM     43  C   UNL A   1      38.178  32.008  36.552  1.00  0.00     0.338 C 
ATOM     44  O   UNL A   1      38.427  31.771  37.712  1.00  0.00    -0.246 OA
BRANCH  43  45
ATOM     45  C   UNL A   1      39.140  31.751  35.461  1.00  0.00     0.060 A 
ATOM     46  C   UNL A   1      38.787  30.811  34.483  1.00  0.00     0.016 A 
ATOM     47  C   UNL A   1      40.391  32.368  35.438  1.00  0.00     0.016 A 
ATOM     48  C   UNL A   1      39.705  30.449  33.500  1.00  0.00     0.010 A 
ATOM     49  C   UNL A   1      41.319  31.988  34.465  1.00  0.00     0.010 A 
ATOM     50  C   UNL A   1      40.991  31.002  33.516  1.00  0.00    -0.014 A 
BRANCH  50  51
ATOM     51  C   UNL A   1      42.061  30.408  32.682  1.00  0.00     0.031 A 
ATOM     52  C   UNL A   1      42.731  29.154  33.169  1.00  0.00     0.074 A 
ATOM     53  C   UNL A   1      42.436  30.968  31.520  1.00  0.00     0.049 A 
ATOM     54  N   UNL A   1      43.747  28.503  32.664  1.00  0.00    -0.248 NA
ATOM     55  C   UNL A   1      42.178  28.554  34.396  1.00  0.00     0.031 C 
ATOM     56  C   UNL A   1      41.830  32.153  30.915  1.00  0.00     0.029 A 
ATOM     57  N   UNL A   1      43.434  30.614  30.649  1.00  0.00    -0.354 N 
ATOM     58  C   UNL A   1      43.958  27.423  33.511  1.00  0.00     0.074 A 
ATOM     59  C   UNL A   1      42.981  27.516  34.574  1.00  0.00     0.031 C 
ATOM     60  C   UNL A   1      42.486  32.440  29.776  1.00  0.00     0.029 A 
ATOM     61  C   UNL A   1      43.575  31.482  29.593  1.00  0.00     0.049 A 
ATOM     62  H   UNL A   1      43.997  29.816  30.769  1.00  0.00     0.167 HD
ATOM     63  C   UNL A   1      44.884  26.441  33.413  1.00  0.00     0.037 A 
ATOM     64  C   UNL A   1      44.498  31.510  28.613  1.00  0.00     0.037 A 
ATOM     65  C   UNL A   1      45.866  26.355  32.368  1.00  0.00     0.049 A 
ATOM     66  C   UNL A   1      45.579  30.462  28.579  1.00  0.00     0.074 A 
ATOM     67  C   UNL A   1      46.845  25.395  32.179  1.00  0.00     0.029 A 
ATOM     68  N   UNL A   1      45.997  27.271  31.336  1.00  0.00    -0.354 N 
ATOM     69  N   UNL A   1      45.764  29.437  29.375  1.00  0.00    -0.248 NA
ATOM     70  C   UNL A   1      46.583  30.579  27.510  1.00  0.00     0.031 C 
ATOM     71  C   UNL A   1      47.598  25.756  31.055  1.00  0.00     0.029 A 
ATOM     72  C   UNL A   1      47.057  26.915  30.521  1.00  0.00     0.049 A 
ATOM     73  H   UNL A   1      45.423  28.060  31.204  1.00  0.00     0.167 HD
ATOM     74  C   UNL A   1      46.883  28.771  28.887  1.00  0.00     0.074 A 
ATOM     75  C   UNL A   1      47.333  29.506  27.724  1.00  0.00     0.031 C 
ATOM     76  C   UNL A   1      47.482  27.649  29.356  1.00  0.00     0.037 A 
BRANCH  63  77
ATOM     77  C   UNL A   1      44.890  25.399  34.491  1.00  0.00     0.057 A 
ATOM     78  C   UNL A   1      44.251  24.164  34.327  1.00  0.00     0.134 A 
ATOM     79  C   UNL A   1      45.549  25.632  35.704  1.00  0.00     0.134 A 
ATOM     80  F   UNL A   1      43.585  23.887  33.195  1.00  0.00    -0.206 F 
ATOM     81  C   UNL A   1      44.247  23.205  35.342  1.00  0.00     0.040 A 
ATOM     82  C   UNL A   1      45.571  24.672  36.717  1.00  0.00     0.040 A 
ATOM     83  F   UNL A   1      46.180  26.795  35.924  1.00  0.00    -0.206 F 
ATOM     84  C   UNL A   1      44.913  23.456  36.539  1.00  0.00     0.006 A 
ENDBRANCH  63  77
BRANCH  64  85
ATOM     85  C   UNL A   1      44.460  32.580  27.586  1.00  0.00     0.057 A 
ATOM     86  C   UNL A   1      43.899  32.351  26.324  1.00  0.00     0.134 A 
ATOM     87  C   UNL A   1      45.012  33.845  27.827  1.00  0.00     0.134 A 
ATOM     88  F   UNL A   1      43.380  31.150  26.026  1.00  0.00    -0.206 F 
ATOM     89  C   UNL A   1      43.901  33.334  25.334  1.00  0.00     0.040 A 
ATOM     90  C   UNL A   1      45.000  34.844  26.854  1.00  0.00     0.040 A 
ATOM     91  F   UNL A   1      45.567  34.125  29.015  1.00  0.00    -0.206 F 
ATOM     92  C   UNL A   1      44.449  34.588  25.600  1.00  0.00     0.006 A 
ENDBRANCH  64  85
BRANCH  76  93
ATOM     93  C   UNL A   1      48.657  27.118  28.590  1.00  0.00     0.057 A 
ATOM     94  C   UNL A   1      48.502  26.231  27.519  1.00  0.00     0.134 A 
ATOM     95  C   UNL A   1      49.955  27.547  28.897  1.00  0.00     0.134 A 
ATOM     96  F   UNL A   1      47.286  25.775  27.184  1.00  0.00    -0.206 F 
ATOM     97  C   UNL A   1      49.601  25.776  26.786  1.00  0.00     0.040 A 
ATOM     98  C   UNL A   1      51.058  27.117  28.157  1.00  0.00     0.040 A 
ATOM     99  F   UNL A   1      50.170  28.404  29.906  1.00  0.00    -0.206 F 
ATOM    100  C   UNL A   1      50.882  26.226  27.100  1.00  0.00     0.006 A 
ENDBRANCH  76  93
ENDBRANCH  50  51
ENDBRANCH  43  45
ENDBRANCH  42  43
ENDBRANCH  41  42
ENDBRANCH  40  41
ENDBRANCH  39  40
ENDBRANCH  38  39
ENDBRANCH  37  38
ENDBRANCH   1  37
TORSDOF 23
ENDMDL
