MODEL 1
REMARK VINA RESULT:     -10.9      0.000      0.000
REMARK SMILES CCCc1cc(S(F)(F)(F)(F)F)cc2c1O[C@@H](C(F)(F)F)C(C(=O)OCCOCCOCCOC(=O)c1ccc(-c3c4nc(c(-c5c(F)cccc5F)c5ccc([nH]5)c(-c5c(F)cccc5F)c5nc(c(-c6c(F)cccc6F)c6ccc3[nH]6)C=C5)C=C4)cc1)=C2
REMARK SMILES IDX 29 1 28 2 27 3 26 4 25 5 23 6 24 7 22 8 4 9 5 10 15 11 6 12
REMARK SMILES IDX 14 13 16 14 13 15 91 16 17 17 3 18 2 19 1 20 7 21 8 22 9 23
REMARK SMILES IDX 10 24 11 25 12 26 18 27 19 28 20 29 21 30 30 31 31 32 32 33
REMARK SMILES IDX 33 34 34 35 35 36 36 37 37 38 38 39 90 40 39 41 89 42 40 43
REMARK SMILES IDX 41 44 42 45 83 46 43 47 88 48 82 49 84 50 44 51 87 52 81 53
REMARK SMILES IDX 80 54 45 56 71 57 54 58 70 59 55 60 58 61 69 62 85 63 56 64
REMARK SMILES IDX 57 65 68 67 86 68 59 69 46 70 47 71 52 72 48 73 49 74 51 75
REMARK SMILES IDX 53 76 50 77 72 78 73 79 78 80 74 81 75 82 77 83 79 84 76 85
REMARK SMILES IDX 60 86 61 87 66 88 62 89 63 90 65 91 67 92 64 93
REMARK H PARENT 84 55 58 66
REMARK Flexibility Score: inf
ROOT
ATOM      1  C   UNL A   1      34.925  31.565  27.982  1.00  0.00     0.188 C 
ENDROOT
BRANCH   1   2
ATOM      2  O   UNL A   1      34.146  30.781  27.091  1.00  0.00    -0.376 OA
BRANCH   2   3
ATOM      3  C   UNL A   1      32.776  31.122  27.232  1.00  0.00     0.202 C 
BRANCH   3   4
ATOM      4  C   UNL A   1      31.913  29.957  26.777  1.00  0.00     0.261 C 
BRANCH   4   5
ATOM      5  O   UNL A   1      32.740  28.836  26.501  1.00  0.00    -0.460 OA
BRANCH   5   6
ATOM      6  C   UNL A   1      32.845  28.341  25.175  1.00  0.00     0.338 C 
ATOM      7  O   UNL A   1      32.819  29.145  24.191  1.00  0.00    -0.246 OA
BRANCH   6   8
ATOM      8  C   UNL A   1      32.986  26.846  24.930  1.00  0.00     0.087 C 
ATOM      9  C   UNL A   1      33.172  22.679  24.722  1.00  0.00    -0.004 A 
ATOM     10  C   UNL A   1      34.401  22.043  24.703  1.00  0.00     0.032 A 
ATOM     11  C   UNL A   1      33.140  24.047  24.844  1.00  0.00     0.131 A 
ATOM     12  C   UNL A   1      35.565  22.757  24.810  1.00  0.00     0.108 A 
ATOM     13  C   UNL A   1      34.295  24.802  24.936  1.00  0.00     0.019 A 
ATOM     14  O   UNL A   1      31.914  24.652  24.975  1.00  0.00    -0.475 OA
ATOM     15  C   UNL A   1      35.512  24.131  24.919  1.00  0.00     0.036 A 
ATOM     16  C   UNL A   1      34.153  26.239  25.102  1.00  0.00     0.027 C 
ATOM     17  C   UNL A   1      31.791  26.016  24.480  1.00  0.00     0.316 C 
BRANCH   9  18
ATOM     18  C   UNL A   1      31.858  21.931  24.572  1.00  0.00     0.039 C 
BRANCH  18  19
ATOM     19  C   UNL A   1      32.052  20.746  23.640  1.00  0.00     0.001 C 
ATOM     20  C   UNL A   1      32.001  21.224  22.198  1.00  0.00     0.004 C 
ENDBRANCH  18  19
ENDBRANCH   9  18
BRANCH  12  21
ATOM     21  S   UNL A   1      37.162  21.904  24.807  1.00  0.00     0.310 S 
ATOM     22  F   UNL A   1      36.480  20.473  24.745  1.00  0.00    -0.094 F 
ATOM     23  F   UNL A   1      37.074  21.801  26.377  1.00  0.00    -0.094 F 
ATOM     24  F   UNL A   1      38.537  21.181  24.808  1.00  0.00    -0.094 F 
ATOM     25  F   UNL A   1      37.165  21.891  23.228  1.00  0.00    -0.094 F 
ATOM     26  F   UNL A   1      35.713  22.537  24.784  1.00  0.00    -0.094 F 
ENDBRANCH  12  21
BRANCH  17  27
ATOM     27  C   UNL A   1      30.519  26.633  25.039  1.00  0.00     0.430 C 
ATOM     28  F   UNL A   1      30.672  26.860  26.341  1.00  0.00    -0.167 F 
ATOM     29  F   UNL A   1      30.273  27.781  24.414  1.00  0.00    -0.167 F 
ATOM     30  F   UNL A   1      29.501  25.798  24.851  1.00  0.00    -0.167 F 
ENDBRANCH  17  27
ENDBRANCH   6   8
ENDBRANCH   5   6
ENDBRANCH   4   5
ENDBRANCH   3   4
ENDBRANCH   2   3
ENDBRANCH   1   2
BRANCH   1  31
ATOM     31  C   UNL A   1      34.353  32.973  28.050  1.00  0.00     0.188 C 
BRANCH  31  32
ATOM     32  O   UNL A   1      35.000  33.697  29.086  1.00  0.00    -0.376 OA
BRANCH  32  33
ATOM     33  C   UNL A   1      34.048  34.061  30.074  1.00  0.00     0.202 C 
BRANCH  33  34
ATOM     34  C   UNL A   1      34.659  33.889  31.455  1.00  0.00     0.261 C 
BRANCH  34  35
ATOM     35  O   UNL A   1      34.954  32.517  31.675  1.00  0.00    -0.460 OA
BRANCH  35  36
ATOM     36  C   UNL A   1      36.084  32.149  32.451  1.00  0.00     0.338 C 
ATOM     37  O   UNL A   1      36.043  32.242  33.719  1.00  0.00    -0.246 OA
BRANCH  36  38
ATOM     38  C   UNL A   1      37.344  31.643  31.767  1.00  0.00     0.060 A 
ATOM     39  C   UNL A   1      37.493  31.833  30.403  1.00  0.00     0.016 A 
ATOM     40  C   UNL A   1      38.280  31.032  32.484  1.00  0.00     0.016 A 
ATOM     41  C   UNL A   1      38.545  31.079  29.831  1.00  0.00     0.010 A 
ATOM     42  C   UNL A   1      39.352  30.434  31.869  1.00  0.00     0.010 A 
ATOM     43  C   UNL A   1      39.532  30.529  30.517  1.00  0.00    -0.014 A 
BRANCH  43  44
ATOM     44  C   UNL A   1      40.797  30.032  29.839  1.00  0.00     0.031 A 
ATOM     45  C   UNL A   1      40.840  28.692  29.450  1.00  0.00     0.074 A 
ATOM     46  C   UNL A   1      41.835  30.927  29.645  1.00  0.00     0.049 A 
ATOM     47  N   UNL A   1      41.827  28.060  28.814  1.00  0.00    -0.248 NA
ATOM     48  C   UNL A   1      39.752  27.730  29.686  1.00  0.00     0.031 C 
ATOM     49  C   UNL A   1      41.797  32.282  30.028  1.00  0.00     0.029 A 
ATOM     50  N   UNL A   1      43.061  30.687  29.065  1.00  0.00    -0.354 N 
ATOM     51  C   UNL A   1      41.494  26.786  28.595  1.00  0.00     0.074 A 
ATOM     52  C   UNL A   1      40.157  26.555  29.158  1.00  0.00     0.031 C 
ATOM     53  C   UNL A   1      42.986  32.848  29.693  1.00  0.00     0.029 A 
ATOM     54  C   UNL A   1      43.788  31.857  29.096  1.00  0.00     0.049 A 
ATOM     55  H   UNL A   1      43.364  29.829  28.692  1.00  0.00     0.167 HD
ATOM     56  C   UNL A   1      42.252  25.810  27.947  1.00  0.00     0.037 A 
ATOM     57  C   UNL A   1      45.078  32.067  28.637  1.00  0.00     0.037 A 
ATOM     58  C   UNL A   1      43.526  26.031  27.447  1.00  0.00     0.049 A 
ATOM     59  C   UNL A   1      45.859  31.074  28.039  1.00  0.00     0.074 A 
ATOM     60  C   UNL A   1      44.301  25.060  26.784  1.00  0.00     0.029 A 
ATOM     61  N   UNL A   1      44.262  27.194  27.501  1.00  0.00    -0.354 N 
ATOM     62  N   UNL A   1      45.511  29.812  27.784  1.00  0.00    -0.248 NA
ATOM     63  C   UNL A   1      47.239  31.277  27.578  1.00  0.00     0.031 C 
ATOM     64  C   UNL A   1      45.491  25.627  26.450  1.00  0.00     0.029 A 
ATOM     65  C   UNL A   1      45.480  26.960  26.900  1.00  0.00     0.049 A 
ATOM     66  H   UNL A   1      43.969  28.045  27.900  1.00  0.00     0.167 HD
ATOM     67  C   UNL A   1      46.516  29.170  27.186  1.00  0.00     0.074 A 
ATOM     68  C   UNL A   1      47.645  30.100  27.052  1.00  0.00     0.031 C 
ATOM     69  C   UNL A   1      46.536  27.846  26.745  1.00  0.00     0.037 A 
BRANCH  56  70
ATOM     70  C   UNL A   1      41.646  24.427  27.777  1.00  0.00     0.057 A 
ATOM     71  C   UNL A   1      42.037  23.405  28.626  1.00  0.00     0.134 A 
ATOM     72  C   UNL A   1      40.745  24.223  26.822  1.00  0.00     0.134 A 
ATOM     73  F   UNL A   1      42.730  23.614  29.741  1.00  0.00    -0.206 F 
ATOM     74  C   UNL A   1      41.631  22.118  28.199  1.00  0.00     0.040 A 
ATOM     75  C   UNL A   1      40.291  22.956  26.548  1.00  0.00     0.040 A 
ATOM     76  F   UNL A   1      40.280  25.255  26.123  1.00  0.00    -0.206 F 
ATOM     77  C   UNL A   1      40.682  21.888  27.309  1.00  0.00     0.006 A 
ENDBRANCH  56  70
BRANCH  57  78
ATOM     78  C   UNL A   1      45.677  33.455  28.792  1.00  0.00     0.057 A 
ATOM     79  C   UNL A   1      46.294  33.799  29.983  1.00  0.00     0.134 A 
ATOM     80  C   UNL A   1      45.595  34.317  27.785  1.00  0.00     0.134 A 
ATOM     81  F   UNL A   1      46.624  32.907  30.914  1.00  0.00    -0.206 F 
ATOM     82  C   UNL A   1      46.541  35.185  30.122  1.00  0.00     0.040 A 
ATOM     83  C   UNL A   1      45.982  35.624  27.950  1.00  0.00     0.040 A 
ATOM     84  F   UNL A   1      45.134  33.910  26.606  1.00  0.00    -0.206 F 
ATOM     85  C   UNL A   1      46.544  36.048  29.122  1.00  0.00     0.006 A 
ENDBRANCH  57  78
BRANCH  69  86
ATOM     86  C   UNL A   1      47.792  27.343  26.050  1.00  0.00     0.057 A 
ATOM     87  C   UNL A   1      47.877  27.428  24.670  1.00  0.00     0.134 A 
ATOM     88  C   UNL A   1      48.783  26.836  26.773  1.00  0.00     0.134 A 
ATOM     89  F   UNL A   1      47.035  28.148  23.934  1.00  0.00    -0.206 F 
ATOM     90  C   UNL A   1      48.941  26.679  24.115  1.00  0.00     0.040 A 
ATOM     91  C   UNL A   1      49.860  26.239  26.161  1.00  0.00     0.040 A 
ATOM     92  F   UNL A   1      48.736  26.907  28.099  1.00  0.00    -0.206 F 
ATOM     93  C   UNL A   1      49.979  26.233  24.799  1.00  0.00     0.006 A 
ENDBRANCH  69  86
ENDBRANCH  43  44
ENDBRANCH  36  38
ENDBRANCH  35  36
ENDBRANCH  34  35
ENDBRANCH  33  34
ENDBRANCH  32  33
ENDBRANCH  31  32
ENDBRANCH   1  31
TORSDOF 21
ENDMDL
MODEL 2
REMARK VINA RESULT:     -10.8      4.687      9.759
REMARK SMILES CCCc1cc(S(F)(F)(F)(F)F)cc2c1O[C@@H](C(F)(F)F)C(C(=O)OCCOCCOCCOC(=O)c1ccc(-c3c4nc(c(-c5c(F)cccc5F)c5ccc([nH]5)c(-c5c(F)cccc5F)c5nc(c(-c6c(F)cccc6F)c6ccc3[nH]6)C=C5)C=C4)cc1)=C2
REMARK SMILES IDX 29 1 28 2 27 3 26 4 25 5 23 6 24 7 22 8 4 9 5 10 15 11 6 12
REMARK SMILES IDX 14 13 16 14 13 15 91 16 17 17 3 18 2 19 1 20 7 21 8 22 9 23
REMARK SMILES IDX 10 24 11 25 12 26 18 27 19 28 20 29 21 30 30 31 31 32 32 33
REMARK SMILES IDX 33 34 34 35 35 36 36 37 37 38 38 39 90 40 39 41 89 42 40 43
REMARK SMILES IDX 41 44 42 45 83 46 43 47 88 48 82 49 84 50 44 51 87 52 81 53
REMARK SMILES IDX 80 54 45 56 71 57 54 58 70 59 55 60 58 61 69 62 85 63 56 64
REMARK SMILES IDX 57 65 68 67 86 68 59 69 46 70 47 71 52 72 48 73 49 74 51 75
REMARK SMILES IDX 53 76 50 77 72 78 73 79 78 80 74 81 75 82 77 83 79 84 76 85
REMARK SMILES IDX 60 86 61 87 66 88 62 89 63 90 65 91 67 92 64 93
REMARK H PARENT 84 55 58 66
REMARK Flexibility Score: inf
ROOT
ATOM      1  C   UNL A   1      39.932  21.847  26.121  1.00  0.00     0.188 C 
ENDROOT
BRANCH   1   2
ATOM      2  O   UNL A   1      38.566  21.475  26.236  1.00  0.00    -0.376 OA
BRANCH   2   3
ATOM      3  C   UNL A   1      38.095  21.008  24.981  1.00  0.00     0.202 C 
BRANCH   3   4
ATOM      4  C   UNL A   1      36.591  20.799  25.050  1.00  0.00     0.261 C 
BRANCH   4   5
ATOM      5  O   UNL A   1      35.963  22.008  25.452  1.00  0.00    -0.460 OA
BRANCH   5   6
ATOM      6  C   UNL A   1      35.613  22.983  24.482  1.00  0.00     0.338 C 
ATOM      7  O   UNL A   1      36.337  23.141  23.449  1.00  0.00    -0.246 OA
BRANCH   6   8
ATOM      8  C   UNL A   1      34.373  23.840  24.679  1.00  0.00     0.087 C 
ATOM      9  C   UNL A   1      30.979  26.276  24.720  1.00  0.00    -0.004 A 
ATOM     10  C   UNL A   1      31.022  27.507  25.349  1.00  0.00     0.032 A 
ATOM     11  C   UNL A   1      32.125  25.518  24.676  1.00  0.00     0.131 A 
ATOM     12  C   UNL A   1      32.181  27.970  25.913  1.00  0.00     0.108 A 
ATOM     13  C   UNL A   1      33.309  25.946  25.251  1.00  0.00     0.019 A 
ATOM     14  O   UNL A   1      32.098  24.352  23.952  1.00  0.00    -0.475 OA
ATOM     15  C   UNL A   1      33.317  27.190  25.870  1.00  0.00     0.036 A 
ATOM     16  C   UNL A   1      34.475  25.089  25.116  1.00  0.00     0.027 C 
ATOM     17  C   UNL A   1      32.987  23.282  24.383  1.00  0.00     0.316 C 
BRANCH   9  18
ATOM     18  C   UNL A   1      29.709  25.707  24.110  1.00  0.00     0.039 C 
BRANCH  18  19
ATOM     19  C   UNL A   1      28.911  26.829  23.465  1.00  0.00     0.001 C 
ATOM     20  C   UNL A   1      27.497  26.830  24.024  1.00  0.00     0.004 C 
ENDBRANCH  18  19
ENDBRANCH   9  18
BRANCH  12  21
ATOM     21  S   UNL A   1      32.221  29.595  26.710  1.00  0.00     0.310 S 
ATOM     22  F   UNL A   1      33.483  30.059  25.868  1.00  0.00    -0.094 F 
ATOM     23  F   UNL A   1      33.230  29.015  27.772  1.00  0.00    -0.094 F 
ATOM     24  F   UNL A   1      32.249  30.987  27.402  1.00  0.00    -0.094 F 
ATOM     25  F   UNL A   1      31.323  30.196  25.558  1.00  0.00    -0.094 F 
ATOM     26  F   UNL A   1      32.273  28.220  25.932  1.00  0.00    -0.094 F 
ENDBRANCH  12  21
BRANCH  17  27
ATOM     27  C   UNL A   1      33.095  22.250  23.272  1.00  0.00     0.430 C 
ATOM     28  F   UNL A   1      33.790  22.759  22.260  1.00  0.00    -0.167 F 
ATOM     29  F   UNL A   1      33.712  21.166  23.734  1.00  0.00    -0.167 F 
ATOM     30  F   UNL A   1      31.876  21.921  22.852  1.00  0.00    -0.167 F 
ENDBRANCH  17  27
ENDBRANCH   6   8
ENDBRANCH   5   6
ENDBRANCH   4   5
ENDBRANCH   3   4
ENDBRANCH   2   3
ENDBRANCH   1   2
BRANCH   1  31
ATOM     31  C   UNL A   1      40.812  20.681  26.544  1.00  0.00     0.188 C 
BRANCH  31  32
ATOM     32  O   UNL A   1      42.117  21.156  26.841  1.00  0.00    -0.376 OA
BRANCH  32  33
ATOM     33  C   UNL A   1      43.016  20.733  25.827  1.00  0.00     0.202 C 
BRANCH  33  34
ATOM     34  C   UNL A   1      43.920  21.890  25.436  1.00  0.00     0.261 C 
BRANCH  34  35
ATOM     35  O   UNL A   1      43.134  23.054  25.221  1.00  0.00    -0.460 OA
BRANCH  35  36
ATOM     36  C   UNL A   1      43.704  24.340  25.413  1.00  0.00     0.338 C 
ATOM     37  O   UNL A   1      44.604  24.762  24.620  1.00  0.00    -0.246 OA
BRANCH  36  38
ATOM     38  C   UNL A   1      43.237  25.214  26.567  1.00  0.00     0.060 A 
ATOM     39  C   UNL A   1      42.288  24.718  27.447  1.00  0.00     0.016 A 
ATOM     40  C   UNL A   1      43.744  26.431  26.715  1.00  0.00     0.016 A 
ATOM     41  C   UNL A   1      41.721  25.701  28.291  1.00  0.00     0.010 A 
ATOM     42  C   UNL A   1      43.231  27.293  27.653  1.00  0.00     0.010 A 
ATOM     43  C   UNL A   1      42.251  26.890  28.517  1.00  0.00    -0.014 A 
BRANCH  43  44
ATOM     44  C   UNL A   1      41.795  27.762  29.675  1.00  0.00     0.031 A 
ATOM     45  C   UNL A   1      42.481  27.643  30.885  1.00  0.00     0.074 A 
ATOM     46  C   UNL A   1      40.730  28.623  29.471  1.00  0.00     0.049 A 
ATOM     47  N   UNL A   1      42.274  28.330  32.010  1.00  0.00    -0.248 NA
ATOM     48  C   UNL A   1      43.591  26.705  31.115  1.00  0.00     0.031 C 
ATOM     49  C   UNL A   1      40.038  28.755  28.252  1.00  0.00     0.029 A 
ATOM     50  N   UNL A   1      40.155  29.486  30.378  1.00  0.00    -0.354 N 
ATOM     51  C   UNL A   1      43.143  27.951  32.949  1.00  0.00     0.074 A 
ATOM     52  C   UNL A   1      43.998  26.895  32.388  1.00  0.00     0.031 C 
ATOM     53  C   UNL A   1      39.053  29.675  28.424  1.00  0.00     0.029 A 
ATOM     54  C   UNL A   1      39.114  30.135  29.752  1.00  0.00     0.049 A 
ATOM     55  H   UNL A   1      40.441  29.617  31.310  1.00  0.00     0.167 HD
ATOM     56  C   UNL A   1      43.256  28.443  34.250  1.00  0.00     0.037 A 
ATOM     57  C   UNL A   1      38.252  31.076  30.294  1.00  0.00     0.037 A 
ATOM     58  C   UNL A   1      42.422  29.416  34.778  1.00  0.00     0.049 A 
ATOM     59  C   UNL A   1      38.329  31.527  31.614  1.00  0.00     0.074 A 
ATOM     60  C   UNL A   1      42.528  29.931  36.085  1.00  0.00     0.029 A 
ATOM     61  N   UNL A   1      41.365  30.047  34.161  1.00  0.00    -0.354 N 
ATOM     62  N   UNL A   1      39.222  31.177  32.540  1.00  0.00    -0.248 NA
ATOM     63  C   UNL A   1      37.402  32.500  32.208  1.00  0.00     0.031 C 
ATOM     64  C   UNL A   1      41.542  30.852  36.257  1.00  0.00     0.029 A 
ATOM     65  C   UNL A   1      40.804  30.927  35.061  1.00  0.00     0.049 A 
ATOM     66  H   UNL A   1      41.062  29.895  33.236  1.00  0.00     0.167 HD
ATOM     67  C   UNL A   1      38.987  31.834  33.678  1.00  0.00     0.074 A 
ATOM     68  C   UNL A   1      37.808  32.688  33.483  1.00  0.00     0.031 C 
ATOM     69  C   UNL A   1      39.710  31.757  34.869  1.00  0.00     0.037 A 
BRANCH  56  70
ATOM     70  C   UNL A   1      44.356  27.883  35.136  1.00  0.00     0.057 A 
ATOM     71  C   UNL A   1      45.591  28.510  35.164  1.00  0.00     0.134 A 
ATOM     72  C   UNL A   1      44.113  26.805  35.873  1.00  0.00     0.134 A 
ATOM     73  F   UNL A   1      45.802  29.719  34.651  1.00  0.00    -0.206 F 
ATOM     74  C   UNL A   1      46.606  27.748  35.790  1.00  0.00     0.040 A 
ATOM     75  C   UNL A   1      45.127  26.190  36.567  1.00  0.00     0.040 A 
ATOM     76  F   UNL A   1      42.878  26.316  35.939  1.00  0.00    -0.206 F 
ATOM     77  C   UNL A   1      46.387  26.721  36.591  1.00  0.00     0.006 A 
ENDBRANCH  56  70
BRANCH  57  78
ATOM     78  C   UNL A   1      37.163  31.648  29.402  1.00  0.00     0.057 A 
ATOM     79  C   UNL A   1      37.357  32.878  28.797  1.00  0.00     0.134 A 
ATOM     80  C   UNL A   1      36.040  30.963  29.224  1.00  0.00     0.134 A 
ATOM     81  F   UNL A   1      38.544  33.479  28.737  1.00  0.00    -0.206 F 
ATOM     82  C   UNL A   1      36.181  33.439  28.246  1.00  0.00     0.040 A 
ATOM     83  C   UNL A   1      34.977  31.523  28.558  1.00  0.00     0.040 A 
ATOM     84  F   UNL A   1      35.944  29.723  29.694  1.00  0.00    -0.206 F 
ATOM     85  C   UNL A   1      35.079  32.760  27.986  1.00  0.00     0.006 A 
ENDBRANCH  57  78
BRANCH  69  86
ATOM     86  C   UNL A   1      39.272  32.639  36.028  1.00  0.00     0.057 A 
ATOM     87  C   UNL A   1      39.738  33.940  36.098  1.00  0.00     0.134 A 
ATOM     88  C   UNL A   1      38.451  32.150  36.951  1.00  0.00     0.134 A 
ATOM     89  F   UNL A   1      40.346  34.549  35.083  1.00  0.00    -0.206 F 
ATOM     90  C   UNL A   1      39.509  34.565  37.346  1.00  0.00     0.040 A 
ATOM     91  C   UNL A   1      38.163  32.873  38.084  1.00  0.00     0.040 A 
ATOM     92  F   UNL A   1      37.903  30.951  36.777  1.00  0.00    -0.206 F 
ATOM     93  C   UNL A   1      38.639  34.143  38.246  1.00  0.00     0.006 A 
ENDBRANCH  69  86
ENDBRANCH  43  44
ENDBRANCH  36  38
ENDBRANCH  35  36
ENDBRANCH  34  35
ENDBRANCH  33  34
ENDBRANCH  32  33
ENDBRANCH  31  32
ENDBRANCH   1  31
TORSDOF 21
ENDMDL
MODEL 3
REMARK VINA RESULT:     -10.8      4.490      9.807
REMARK SMILES CCCc1cc(S(F)(F)(F)(F)F)cc2c1O[C@@H](C(F)(F)F)C(C(=O)OCCOCCOCCOC(=O)c1ccc(-c3c4nc(c(-c5c(F)cccc5F)c5ccc([nH]5)c(-c5c(F)cccc5F)c5nc(c(-c6c(F)cccc6F)c6ccc3[nH]6)C=C5)C=C4)cc1)=C2
REMARK SMILES IDX 29 1 28 2 27 3 26 4 25 5 23 6 24 7 22 8 4 9 5 10 15 11 6 12
REMARK SMILES IDX 14 13 16 14 13 15 91 16 17 17 3 18 2 19 1 20 7 21 8 22 9 23
REMARK SMILES IDX 10 24 11 25 12 26 18 27 19 28 20 29 21 30 30 31 31 32 32 33
REMARK SMILES IDX 33 34 34 35 35 36 36 37 37 38 38 39 90 40 39 41 89 42 40 43
REMARK SMILES IDX 41 44 42 45 83 46 43 47 88 48 82 49 84 50 44 51 87 52 81 53
REMARK SMILES IDX 80 54 45 56 71 57 54 58 70 59 55 60 58 61 69 62 85 63 56 64
REMARK SMILES IDX 57 65 68 67 86 68 59 69 46 70 47 71 52 72 48 73 49 74 51 75
REMARK SMILES IDX 53 76 50 77 72 78 73 79 78 80 74 81 75 82 77 83 79 84 76 85
REMARK SMILES IDX 60 86 61 87 66 88 62 89 63 90 65 91 67 92 64 93
REMARK H PARENT 84 55 58 66
REMARK Flexibility Score: inf
ROOT
ATOM      1  C   UNL A   1      38.200  22.200  25.819  1.00  0.00     0.188 C 
ENDROOT
BRANCH   1   2
ATOM      2  O   UNL A   1      37.055  21.378  25.989  1.00  0.00    -0.376 OA
BRANCH   2   3
ATOM      3  C   UNL A   1      36.650  20.863  24.730  1.00  0.00     0.202 C 
BRANCH   3   4
ATOM      4  C   UNL A   1      35.134  20.761  24.687  1.00  0.00     0.261 C 
BRANCH   4   5
ATOM      5  O   UNL A   1      34.601  21.907  24.039  1.00  0.00    -0.460 OA
BRANCH   5   6
ATOM      6  C   UNL A   1      33.223  22.222  24.173  1.00  0.00     0.338 C 
ATOM      7  O   UNL A   1      32.344  21.324  23.981  1.00  0.00    -0.246 OA
BRANCH   6   8
ATOM      8  C   UNL A   1      32.799  23.635  24.542  1.00  0.00     0.087 C 
ATOM      9  C   UNL A   1      31.272  27.299  25.842  1.00  0.00    -0.004 A 
ATOM     10  C   UNL A   1      30.651  28.146  24.941  1.00  0.00     0.032 A 
ATOM     11  C   UNL A   1      31.718  26.077  25.398  1.00  0.00     0.131 A 
ATOM     12  C   UNL A   1      30.476  27.778  23.634  1.00  0.00     0.108 A 
ATOM     13  C   UNL A   1      31.575  25.680  24.081  1.00  0.00     0.019 A 
ATOM     14  O   UNL A   1      32.229  25.203  26.326  1.00  0.00    -0.475 OA
ATOM     15  C   UNL A   1      30.942  26.553  23.204  1.00  0.00     0.036 A 
ATOM     16  C   UNL A   1      32.044  24.352  23.720  1.00  0.00     0.027 C 
ATOM     17  C   UNL A   1      33.234  24.257  25.862  1.00  0.00     0.316 C 
BRANCH   9  18
ATOM     18  C   UNL A   1      31.518  27.678  27.293  1.00  0.00     0.039 C 
BRANCH  18  19
ATOM     19  C   UNL A   1      32.394  28.919  27.350  1.00  0.00     0.001 C 
ATOM     20  C   UNL A   1      33.850  28.520  27.167  1.00  0.00     0.004 C 
ENDBRANCH  18  19
ENDBRANCH   9  18
BRANCH  12  21
ATOM     21  S   UNL A   1      29.640  28.891  22.477  1.00  0.00     0.310 S 
ATOM     22  F   UNL A   1      29.325  29.954  23.613  1.00  0.00    -0.094 F 
ATOM     23  F   UNL A   1      28.274  28.198  22.845  1.00  0.00    -0.094 F 
ATOM     24  F   UNL A   1      28.921  29.840  21.477  1.00  0.00    -0.094 F 
ATOM     25  F   UNL A   1      30.993  29.667  22.228  1.00  0.00    -0.094 F 
ATOM     26  F   UNL A   1      30.364  28.012  23.574  1.00  0.00    -0.094 F 
ENDBRANCH  12  21
BRANCH  17  27
ATOM     27  C   UNL A   1      33.395  23.157  26.900  1.00  0.00     0.430 C 
ATOM     28  F   UNL A   1      32.722  22.078  26.509  1.00  0.00    -0.167 F 
ATOM     29  F   UNL A   1      34.684  22.855  27.028  1.00  0.00    -0.167 F 
ATOM     30  F   UNL A   1      32.919  23.577  28.069  1.00  0.00    -0.167 F 
ENDBRANCH  17  27
ENDBRANCH   6   8
ENDBRANCH   5   6
ENDBRANCH   4   5
ENDBRANCH   3   4
ENDBRANCH   2   3
ENDBRANCH   1   2
BRANCH   1  31
ATOM     31  C   UNL A   1      39.452  21.397  26.139  1.00  0.00     0.188 C 
BRANCH  31  32
ATOM     32  O   UNL A   1      40.602  22.172  25.832  1.00  0.00    -0.376 OA
BRANCH  32  33
ATOM     33  C   UNL A   1      41.764  21.492  26.284  1.00  0.00     0.202 C 
BRANCH  33  34
ATOM     34  C   UNL A   1      42.973  21.979  25.502  1.00  0.00     0.261 C 
BRANCH  34  35
ATOM     35  O   UNL A   1      42.731  23.297  25.029  1.00  0.00    -0.460 OA
BRANCH  35  36
ATOM     36  C   UNL A   1      43.558  24.368  25.458  1.00  0.00     0.338 C 
ATOM     37  O   UNL A   1      44.680  24.571  24.894  1.00  0.00    -0.246 OA
BRANCH  36  38
ATOM     38  C   UNL A   1      43.103  25.272  26.592  1.00  0.00     0.060 A 
ATOM     39  C   UNL A   1      42.167  24.799  27.498  1.00  0.00     0.016 A 
ATOM     40  C   UNL A   1      43.607  26.495  26.699  1.00  0.00     0.016 A 
ATOM     41  C   UNL A   1      41.607  25.804  28.321  1.00  0.00     0.010 A 
ATOM     42  C   UNL A   1      43.103  27.382  27.619  1.00  0.00     0.010 A 
ATOM     43  C   UNL A   1      42.135  27.001  28.506  1.00  0.00    -0.014 A 
BRANCH  43  44
ATOM     44  C   UNL A   1      41.690  27.904  29.645  1.00  0.00     0.031 A 
ATOM     45  C   UNL A   1      40.613  28.760  29.409  1.00  0.00     0.074 A 
ATOM     46  C   UNL A   1      42.373  27.831  30.846  1.00  0.00     0.049 A 
ATOM     47  N   UNL A   1      40.040  29.603  30.269  1.00  0.00    -0.248 NA
ATOM     48  C   UNL A   1      39.908  28.863  28.122  1.00  0.00     0.031 C 
ATOM     49  C   UNL A   1      43.456  26.966  31.094  1.00  0.00     0.029 A 
ATOM     50  N   UNL A   1      42.144  28.559  31.994  1.00  0.00    -0.354 N 
ATOM     51  C   UNL A   1      39.023  30.239  29.685  1.00  0.00     0.074 A 
ATOM     52  C   UNL A   1      38.927  29.776  28.293  1.00  0.00     0.031 C 
ATOM     53  C   UNL A   1      43.880  27.176  32.368  1.00  0.00     0.029 A 
ATOM     54  C   UNL A   1      43.070  28.175  32.938  1.00  0.00     0.049 A 
ATOM     55  H   UNL A   1      41.439  29.235  32.117  1.00  0.00     0.167 HD
ATOM     56  C   UNL A   1      38.171  31.185  30.257  1.00  0.00     0.037 A 
ATOM     57  C   UNL A   1      43.218  28.660  34.228  1.00  0.00     0.037 A 
ATOM     58  C   UNL A   1      38.291  31.637  31.561  1.00  0.00     0.049 A 
ATOM     59  C   UNL A   1      42.400  29.649  34.783  1.00  0.00     0.074 A 
ATOM     60  C   UNL A   1      37.435  32.584  32.157  1.00  0.00     0.029 A 
ATOM     61  N   UNL A   1      39.233  31.272  32.497  1.00  0.00    -0.354 N 
ATOM     62  N   UNL A   1      41.359  30.254  34.211  1.00  0.00    -0.248 NA
ATOM     63  C   UNL A   1      42.567  30.192  36.137  1.00  0.00     0.031 C 
ATOM     64  C   UNL A   1      37.860  32.795  33.431  1.00  0.00     0.029 A 
ATOM     65  C   UNL A   1      38.989  31.983  33.652  1.00  0.00     0.049 A 
ATOM     66  H   UNL A   1      39.955  30.617  32.364  1.00  0.00     0.167 HD
ATOM     67  C   UNL A   1      40.814  31.129  35.059  1.00  0.00     0.074 A 
ATOM     68  C   UNL A   1      41.588  31.108  36.307  1.00  0.00     0.031 C 
ATOM     69  C   UNL A   1      39.700  31.942  34.842  1.00  0.00     0.037 A 
BRANCH  56  70
ATOM     70  C   UNL A   1      37.048  31.748  29.402  1.00  0.00     0.057 A 
ATOM     71  C   UNL A   1      37.199  32.994  28.817  1.00  0.00     0.134 A 
ATOM     72  C   UNL A   1      35.942  31.033  29.225  1.00  0.00     0.134 A 
ATOM     73  F   UNL A   1      38.367  33.629  28.753  1.00  0.00    -0.206 F 
ATOM     74  C   UNL A   1      36.000  33.530  28.292  1.00  0.00     0.040 A 
ATOM     75  C   UNL A   1      34.854  31.575  28.584  1.00  0.00     0.040 A 
ATOM     76  F   UNL A   1      35.888  29.782  29.674  1.00  0.00    -0.206 F 
ATOM     77  C   UNL A   1      34.913  32.825  28.033  1.00  0.00     0.006 A 
ENDBRANCH  56  70
BRANCH  57  78
ATOM     78  C   UNL A   1      44.330  28.084  35.088  1.00  0.00     0.057 A 
ATOM     79  C   UNL A   1      44.083  26.956  35.852  1.00  0.00     0.134 A 
ATOM     80  C   UNL A   1      45.519  28.675  35.097  1.00  0.00     0.134 A 
ATOM     81  F   UNL A   1      43.008  26.188  35.688  1.00  0.00    -0.206 F 
ATOM     82  C   UNL A   1      45.077  26.692  36.824  1.00  0.00     0.040 A 
ATOM     83  C   UNL A   1      46.492  28.276  35.981  1.00  0.00     0.040 A 
ATOM     84  F   UNL A   1      45.770  29.662  34.241  1.00  0.00    -0.206 F 
ATOM     85  C   UNL A   1      46.293  27.206  36.809  1.00  0.00     0.006 A 
ENDBRANCH  57  78
BRANCH  69  86
ATOM     86  C   UNL A   1      39.237  32.837  35.981  1.00  0.00     0.057 A 
ATOM     87  C   UNL A   1      39.694  34.143  36.039  1.00  0.00     0.134 A 
ATOM     88  C   UNL A   1      38.404  32.356  36.897  1.00  0.00     0.134 A 
ATOM     89  F   UNL A   1      40.315  34.740  35.026  1.00  0.00    -0.206 F 
ATOM     90  C   UNL A   1      39.441  34.784  37.275  1.00  0.00     0.040 A 
ATOM     91  C   UNL A   1      38.093  33.093  38.015  1.00  0.00     0.040 A 
ATOM     92  F   UNL A   1      37.866  31.151  36.732  1.00  0.00    -0.206 F 
ATOM     93  C   UNL A   1      38.558  34.369  38.167  1.00  0.00     0.006 A 
ENDBRANCH  69  86
ENDBRANCH  43  44
ENDBRANCH  36  38
ENDBRANCH  35  36
ENDBRANCH  34  35
ENDBRANCH  33  34
ENDBRANCH  32  33
ENDBRANCH  31  32
ENDBRANCH   1  31
TORSDOF 21
ENDMDL
