MODEL 1
REMARK VINA RESULT:      -9.5      0.000      0.000
REMARK SMILES COc1ccc(C2=NO[C@](C)(C(=O)OCCOCCOCCOC(=O)c3ccc(-c4c5nc(c(-c6c(F)cccc6F)c6ccc([nH]6)c(-c6c(F)cccc6F)c6nc(c(-c7c(F)cccc7F)c7ccc4[nH]7)C=C6)C=C5)cc3)C2)c(OC)c1OC
REMARK SMILES IDX 18 1 17 2 16 3 15 4 14 5 12 6 13 7 10 8 7 9 8 10 80 11 9 12
REMARK SMILES IDX 11 13 6 14 3 15 4 16 84 17 5 18 81 19 2 20 1 21 85 22 86 23
REMARK SMILES IDX 82 24 83 25 19 26 20 27 21 28 22 29 23 30 24 31 25 32 26 33
REMARK SMILES IDX 27 34 79 35 28 36 78 37 29 38 30 39 31 40 72 41 32 42 77 43
REMARK SMILES IDX 71 44 73 45 33 46 76 47 70 48 69 49 34 51 60 52 43 53 59 54
REMARK SMILES IDX 44 55 47 56 58 57 74 58 45 59 46 60 57 62 75 63 48 64 35 65
REMARK SMILES IDX 36 66 41 67 37 68 38 69 40 70 42 71 39 72 61 73 62 74 67 75
REMARK SMILES IDX 63 76 64 77 66 78 68 79 65 80 49 81 50 82 55 83 51 84 52 85
REMARK SMILES IDX 54 86 56 87 53 88
REMARK H PARENT 73 50 47 61
REMARK Flexibility Score: inf
ROOT
ATOM      1  C   UNL A   1      34.254  31.195  27.480  1.00  0.00     0.188 C 
ENDROOT
BRANCH   1   2
ATOM      2  O   UNL A   1      32.885  30.837  27.335  1.00  0.00    -0.376 OA
BRANCH   2   3
ATOM      3  C   UNL A   1      32.568  29.538  26.851  1.00  0.00     0.202 C 
BRANCH   3   4
ATOM      4  C   UNL A   1      33.417  28.968  25.705  1.00  0.00     0.261 C 
BRANCH   4   5
ATOM      5  O   UNL A   1      32.660  28.432  24.596  1.00  0.00    -0.460 OA
BRANCH   5   6
ATOM      6  C   UNL A   1      33.353  28.023  23.486  1.00  0.00     0.353 C 
ATOM      7  O   UNL A   1      34.298  28.647  23.020  1.00  0.00    -0.247 OA
BRANCH   6   8
ATOM      8  C   UNL A   1      32.856  26.653  22.956  1.00  0.00     0.236 C 
ATOM      9  C   UNL A   1      33.437  24.443  23.257  1.00  0.00     0.096 C 
ATOM     10  N   UNL A   1      33.971  24.780  22.130  1.00  0.00    -0.089 NA
ATOM     11  C   UNL A   1      32.853  25.569  24.034  1.00  0.00     0.124 C 
ATOM     12  O   UNL A   1      33.841  26.186  22.009  1.00  0.00    -0.377 OA
ATOM     13  C   UNL A   1      31.522  26.754  22.209  1.00  0.00     0.073 C 
BRANCH   9  14
ATOM     14  C   UNL A   1      33.384  23.045  23.742  1.00  0.00     0.046 A 
ATOM     15  C   UNL A   1      33.428  20.312  24.299  1.00  0.00     0.164 A 
ATOM     16  C   UNL A   1      32.374  20.864  23.557  1.00  0.00     0.051 A 
ATOM     17  C   UNL A   1      34.465  21.127  24.801  1.00  0.00     0.203 A 
ATOM     18  C   UNL A   1      32.353  22.228  23.271  1.00  0.00     0.018 A 
ATOM     19  C   UNL A   1      34.422  22.521  24.544  1.00  0.00     0.173 A 
BRANCH  15  20
ATOM     20  O   UNL A   1      33.512  18.943  24.344  1.00  0.00    -0.493 OA
ATOM     21  C   UNL A   1      32.794  18.376  25.441  1.00  0.00     0.278 C 
ENDBRANCH  15  20
BRANCH  17  22
ATOM     22  O   UNL A   1      35.581  20.652  25.435  1.00  0.00    -0.490 OA
ATOM     23  C   UNL A   1      36.854  20.760  24.818  1.00  0.00     0.278 C 
ENDBRANCH  17  22
BRANCH  19  24
ATOM     24  O   UNL A   1      35.292  23.477  25.011  1.00  0.00    -0.492 OA
ATOM     25  C   UNL A   1      35.150  23.984  26.329  1.00  0.00     0.278 C 
ENDBRANCH  19  24
ENDBRANCH   9  14
ENDBRANCH   6   8
ENDBRANCH   5   6
ENDBRANCH   4   5
ENDBRANCH   3   4
ENDBRANCH   2   3
ENDBRANCH   1   2
BRANCH   1  26
ATOM     26  C   UNL A   1      34.613  32.674  27.743  1.00  0.00     0.188 C 
BRANCH  26  27
ATOM     27  O   UNL A   1      35.826  32.819  28.448  1.00  0.00    -0.376 OA
BRANCH  27  28
ATOM     28  C   UNL A   1      35.798  33.502  29.683  1.00  0.00     0.202 C 
BRANCH  28  29
ATOM     29  C   UNL A   1      37.110  33.703  30.460  1.00  0.00     0.261 C 
BRANCH  29  30
ATOM     30  O   UNL A   1      37.396  32.786  31.532  1.00  0.00    -0.460 OA
BRANCH  30  31
ATOM     31  C   UNL A   1      37.083  31.489  31.347  1.00  0.00     0.338 C 
ATOM     32  O   UNL A   1      35.974  30.978  31.458  1.00  0.00    -0.246 OA
BRANCH  31  33
ATOM     33  C   UNL A   1      38.261  30.785  30.791  1.00  0.00     0.060 A 
ATOM     34  C   UNL A   1      39.258  30.333  31.667  1.00  0.00     0.016 A 
ATOM     35  C   UNL A   1      38.399  30.593  29.413  1.00  0.00     0.016 A 
ATOM     36  C   UNL A   1      40.416  29.732  31.165  1.00  0.00     0.010 A 
ATOM     37  C   UNL A   1      39.568  30.004  28.912  1.00  0.00     0.010 A 
ATOM     38  C   UNL A   1      40.600  29.606  29.782  1.00  0.00    -0.014 A 
BRANCH  38  39
ATOM     39  C   UNL A   1      41.938  29.235  29.246  1.00  0.00     0.031 A 
ATOM     40  C   UNL A   1      42.165  27.822  28.775  1.00  0.00     0.074 A 
ATOM     41  C   UNL A   1      42.928  30.138  29.133  1.00  0.00     0.049 A 
ATOM     42  N   UNL A   1      43.237  27.273  28.260  1.00  0.00    -0.248 NA
ATOM     43  C   UNL A   1      41.022  26.904  28.901  1.00  0.00     0.031 C 
ATOM     44  C   UNL A   1      42.837  31.547  29.510  1.00  0.00     0.029 A 
ATOM     45  N   UNL A   1      44.212  29.996  28.666  1.00  0.00    -0.354 N 
ATOM     46  C   UNL A   1      42.899  25.951  28.000  1.00  0.00     0.074 A 
ATOM     47  C   UNL A   1      41.537  25.768  28.453  1.00  0.00     0.031 C 
ATOM     48  C   UNL A   1      44.016  32.142  29.256  1.00  0.00     0.029 A 
ATOM     49  C   UNL A   1      44.953  31.152  28.726  1.00  0.00     0.049 A 
ATOM     50  H   UNL A   1      44.568  29.146  28.318  1.00  0.00     0.167 HD
ATOM     51  C   UNL A   1      43.645  24.977  27.423  1.00  0.00     0.037 A 
ATOM     52  C   UNL A   1      46.240  31.379  28.401  1.00  0.00     0.037 A 
ATOM     53  C   UNL A   1      45.009  25.146  26.993  1.00  0.00     0.049 A 
ATOM     54  C   UNL A   1      47.082  30.255  27.852  1.00  0.00     0.074 A 
ATOM     55  C   UNL A   1      45.848  24.217  26.402  1.00  0.00     0.029 A 
ATOM     56  N   UNL A   1      45.741  26.316  27.124  1.00  0.00    -0.354 N 
ATOM     57  N   UNL A   1      46.744  29.017  27.583  1.00  0.00    -0.248 NA
ATOM     58  C   UNL A   1      48.488  30.569  27.554  1.00  0.00     0.031 C 
ATOM     59  C   UNL A   1      47.104  24.811  26.224  1.00  0.00     0.029 A 
ATOM     60  C   UNL A   1      47.027  26.129  26.643  1.00  0.00     0.049 A 
ATOM     61  H   UNL A   1      45.397  27.158  27.504  1.00  0.00     0.167 HD
ATOM     62  C   UNL A   1      47.881  28.419  27.047  1.00  0.00     0.074 A 
ATOM     63  C   UNL A   1      48.913  29.433  27.021  1.00  0.00     0.031 C 
ATOM     64  C   UNL A   1      48.050  27.145  26.611  1.00  0.00     0.037 A 
BRANCH  51  65
ATOM     65  C   UNL A   1      42.999  23.631  27.254  1.00  0.00     0.057 A 
ATOM     66  C   UNL A   1      42.866  22.732  28.323  1.00  0.00     0.134 A 
ATOM     67  C   UNL A   1      42.503  23.225  26.009  1.00  0.00     0.134 A 
ATOM     68  F   UNL A   1      43.332  23.050  29.541  1.00  0.00    -0.206 F 
ATOM     69  C   UNL A   1      42.296  21.469  28.150  1.00  0.00     0.040 A 
ATOM     70  C   UNL A   1      41.904  21.978  25.830  1.00  0.00     0.040 A 
ATOM     71  F   UNL A   1      42.592  24.037  24.943  1.00  0.00    -0.206 F 
ATOM     72  C   UNL A   1      41.809  21.091  26.901  1.00  0.00     0.006 A 
ENDBRANCH  51  65
BRANCH  52  73
ATOM     73  C   UNL A   1      46.823  32.735  28.572  1.00  0.00     0.057 A 
ATOM     74  C   UNL A   1      46.793  33.670  27.530  1.00  0.00     0.134 A 
ATOM     75  C   UNL A   1      47.452  33.117  29.762  1.00  0.00     0.134 A 
ATOM     76  F   UNL A   1      46.229  33.354  26.355  1.00  0.00    -0.206 F 
ATOM     77  C   UNL A   1      47.383  34.930  27.660  1.00  0.00     0.040 A 
ATOM     78  C   UNL A   1      48.021  34.382  29.916  1.00  0.00     0.040 A 
ATOM     79  F   UNL A   1      47.520  32.265  30.796  1.00  0.00    -0.206 F 
ATOM     80  C   UNL A   1      47.995  35.290  28.859  1.00  0.00     0.006 A 
ENDBRANCH  52  73
BRANCH  64  81
ATOM     81  C   UNL A   1      49.382  26.791  26.009  1.00  0.00     0.057 A 
ATOM     82  C   UNL A   1      50.390  26.150  26.742  1.00  0.00     0.134 A 
ATOM     83  C   UNL A   1      49.654  27.085  24.666  1.00  0.00     0.134 A 
ATOM     84  F   UNL A   1      50.203  25.846  28.035  1.00  0.00    -0.206 F 
ATOM     85  C   UNL A   1      51.630  25.849  26.172  1.00  0.00     0.040 A 
ATOM     86  C   UNL A   1      50.877  26.759  24.076  1.00  0.00     0.040 A 
ATOM     87  F   UNL A   1      48.732  27.687  23.900  1.00  0.00    -0.206 F 
ATOM     88  C   UNL A   1      51.874  26.150  24.834  1.00  0.00     0.006 A 
ENDBRANCH  64  81
ENDBRANCH  38  39
ENDBRANCH  31  33
ENDBRANCH  30  31
ENDBRANCH  29  30
ENDBRANCH  28  29
ENDBRANCH  27  28
ENDBRANCH  26  27
ENDBRANCH   1  26
TORSDOF 21
ENDMDL
MODEL 2
REMARK VINA RESULT:      -9.2      4.472     10.201
REMARK SMILES COc1ccc(C2=NO[C@](C)(C(=O)OCCOCCOCCOC(=O)c3ccc(-c4c5nc(c(-c6c(F)cccc6F)c6ccc([nH]6)c(-c6c(F)cccc6F)c6nc(c(-c7c(F)cccc7F)c7ccc4[nH]7)C=C6)C=C5)cc3)C2)c(OC)c1OC
REMARK SMILES IDX 18 1 17 2 16 3 15 4 14 5 12 6 13 7 10 8 7 9 8 10 80 11 9 12
REMARK SMILES IDX 11 13 6 14 3 15 4 16 84 17 5 18 81 19 2 20 1 21 85 22 86 23
REMARK SMILES IDX 82 24 83 25 19 26 20 27 21 28 22 29 23 30 24 31 25 32 26 33
REMARK SMILES IDX 27 34 79 35 28 36 78 37 29 38 30 39 31 40 72 41 32 42 77 43
REMARK SMILES IDX 71 44 73 45 33 46 76 47 70 48 69 49 34 51 60 52 43 53 59 54
REMARK SMILES IDX 44 55 47 56 58 57 74 58 45 59 46 60 57 62 75 63 48 64 35 65
REMARK SMILES IDX 36 66 41 67 37 68 38 69 40 70 42 71 39 72 61 73 62 74 67 75
REMARK SMILES IDX 63 76 64 77 66 78 68 79 65 80 49 81 50 82 55 83 51 84 52 85
REMARK SMILES IDX 54 86 56 87 53 88
REMARK H PARENT 73 50 47 61
REMARK Flexibility Score: inf
ROOT
ATOM      1  C   UNL A   1      40.594  23.128  26.688  1.00  0.00     0.188 C 
ENDROOT
BRANCH   1   2
ATOM      2  O   UNL A   1      39.329  22.506  26.876  1.00  0.00    -0.376 OA
BRANCH   2   3
ATOM      3  C   UNL A   1      38.724  21.845  25.773  1.00  0.00     0.202 C 
BRANCH   3   4
ATOM      4  C   UNL A   1      37.291  21.318  25.943  1.00  0.00     0.261 C 
BRANCH   4   5
ATOM      5  O   UNL A   1      36.617  20.978  24.710  1.00  0.00    -0.460 OA
BRANCH   5   6
ATOM      6  C   UNL A   1      35.326  21.408  24.547  1.00  0.00     0.353 C 
ATOM      7  O   UNL A   1      34.357  20.796  24.978  1.00  0.00    -0.247 OA
BRANCH   6   8
ATOM      8  C   UNL A   1      35.252  22.786  23.838  1.00  0.00     0.236 C 
ATOM      9  C   UNL A   1      33.927  24.665  23.990  1.00  0.00     0.096 C 
ATOM     10  N   UNL A   1      33.478  24.019  22.965  1.00  0.00    -0.089 NA
ATOM     11  C   UNL A   1      34.932  23.928  24.802  1.00  0.00     0.124 C 
ATOM     12  O   UNL A   1      34.104  22.748  22.964  1.00  0.00    -0.377 OA
ATOM     13  C   UNL A   1      36.478  23.070  22.963  1.00  0.00     0.073 C 
BRANCH   9  14
ATOM     14  C   UNL A   1      33.499  26.041  24.332  1.00  0.00     0.046 A 
ATOM     15  C   UNL A   1      32.422  28.589  24.687  1.00  0.00     0.164 A 
ATOM     16  C   UNL A   1      33.342  28.350  23.656  1.00  0.00     0.051 A 
ATOM     17  C   UNL A   1      32.049  27.561  25.579  1.00  0.00     0.203 A 
ATOM     18  C   UNL A   1      33.876  27.075  23.471  1.00  0.00     0.018 A 
ATOM     19  C   UNL A   1      32.624  26.275  25.415  1.00  0.00     0.173 A 
BRANCH  15  20
ATOM     20  O   UNL A   1      31.762  29.792  24.670  1.00  0.00    -0.493 OA
ATOM     21  C   UNL A   1      30.473  29.713  24.058  1.00  0.00     0.278 C 
ENDBRANCH  15  20
BRANCH  17  22
ATOM     22  O   UNL A   1      31.079  27.685  26.537  1.00  0.00    -0.490 OA
ATOM     23  C   UNL A   1      31.405  28.190  27.822  1.00  0.00     0.278 C 
ENDBRANCH  17  22
BRANCH  19  24
ATOM     24  O   UNL A   1      32.444  25.177  26.223  1.00  0.00    -0.492 OA
ATOM     25  C   UNL A   1      31.166  24.567  26.317  1.00  0.00     0.278 C 
ENDBRANCH  19  24
ENDBRANCH   9  14
ENDBRANCH   6   8
ENDBRANCH   5   6
ENDBRANCH   4   5
ENDBRANCH   3   4
ENDBRANCH   2   3
ENDBRANCH   1   2
BRANCH   1  26
ATOM     26  C   UNL A   1      41.864  22.251  26.692  1.00  0.00     0.188 C 
BRANCH  26  27
ATOM     27  O   UNL A   1      42.275  21.888  25.393  1.00  0.00    -0.376 OA
BRANCH  27  28
ATOM     28  C   UNL A   1      43.408  22.532  24.850  1.00  0.00     0.202 C 
BRANCH  28  29
ATOM     29  C   UNL A   1      43.516  24.064  24.939  1.00  0.00     0.261 C 
BRANCH  29  30
ATOM     30  O   UNL A   1      44.773  24.664  24.576  1.00  0.00    -0.460 OA
BRANCH  30  31
ATOM     31  C   UNL A   1      45.484  25.266  25.550  1.00  0.00     0.338 C 
ATOM     32  O   UNL A   1      46.703  25.386  25.599  1.00  0.00    -0.246 OA
BRANCH  31  33
ATOM     33  C   UNL A   1      44.551  25.944  26.478  1.00  0.00     0.060 A 
ATOM     34  C   UNL A   1      44.400  27.335  26.392  1.00  0.00     0.016 A 
ATOM     35  C   UNL A   1      43.846  25.220  27.444  1.00  0.00     0.016 A 
ATOM     36  C   UNL A   1      43.582  28.011  27.302  1.00  0.00     0.010 A 
ATOM     37  C   UNL A   1      43.040  25.903  28.365  1.00  0.00     0.010 A 
ATOM     38  C   UNL A   1      42.934  27.305  28.325  1.00  0.00    -0.014 A 
BRANCH  38  39
ATOM     39  C   UNL A   1      42.305  28.048  29.450  1.00  0.00     0.031 A 
ATOM     40  C   UNL A   1      42.985  28.042  30.795  1.00  0.00     0.074 A 
ATOM     41  C   UNL A   1      41.175  28.757  29.283  1.00  0.00     0.049 A 
ATOM     42  N   UNL A   1      42.634  28.627  31.913  1.00  0.00    -0.248 NA
ATOM     43  C   UNL A   1      44.235  27.272  30.887  1.00  0.00     0.031 C 
ATOM     44  C   UNL A   1      40.433  28.886  28.030  1.00  0.00     0.029 A 
ATOM     45  N   UNL A   1      40.452  29.504  30.181  1.00  0.00    -0.354 N 
ATOM     46  C   UNL A   1      43.616  28.297  32.838  1.00  0.00     0.074 A 
ATOM     47  C   UNL A   1      44.554  27.427  32.163  1.00  0.00     0.031 C 
ATOM     48  C   UNL A   1      39.360  29.668  28.239  1.00  0.00     0.029 A 
ATOM     49  C   UNL A   1      39.322  30.072  29.644  1.00  0.00     0.049 A 
ATOM     50  H   UNL A   1      40.719  29.622  31.122  1.00  0.00     0.167 HD
ATOM     51  C   UNL A   1      43.739  28.692  34.129  1.00  0.00     0.037 A 
ATOM     52  C   UNL A   1      38.364  30.822  30.224  1.00  0.00     0.037 A 
ATOM     53  C   UNL A   1      42.795  29.537  34.814  1.00  0.00     0.049 A 
ATOM     54  C   UNL A   1      38.470  31.168  31.687  1.00  0.00     0.074 A 
ATOM     55  C   UNL A   1      42.831  29.988  36.123  1.00  0.00     0.029 A 
ATOM     56  N   UNL A   1      41.634  30.045  34.251  1.00  0.00    -0.354 N 
ATOM     57  N   UNL A   1      39.418  30.876  32.546  1.00  0.00    -0.248 NA
ATOM     58  C   UNL A   1      37.369  31.959  32.259  1.00  0.00     0.031 C 
ATOM     59  C   UNL A   1      41.665  30.725  36.365  1.00  0.00     0.029 A 
ATOM     60  C   UNL A   1      40.936  30.789  35.189  1.00  0.00     0.049 A 
ATOM     61  H   UNL A   1      41.347  29.899  33.320  1.00  0.00     0.167 HD
ATOM     62  C   UNL A   1      39.048  31.480  33.744  1.00  0.00     0.074 A 
ATOM     63  C   UNL A   1      37.796  32.163  33.497  1.00  0.00     0.031 C 
ATOM     64  C   UNL A   1      39.694  31.474  34.937  1.00  0.00     0.037 A 
BRANCH  51  65
ATOM     65  C   UNL A   1      44.930  28.181  34.890  1.00  0.00     0.057 A 
ATOM     66  C   UNL A   1      46.156  28.863  34.894  1.00  0.00     0.134 A 
ATOM     67  C   UNL A   1      44.854  26.994  35.629  1.00  0.00     0.134 A 
ATOM     68  F   UNL A   1      46.304  30.000  34.196  1.00  0.00    -0.206 F 
ATOM     69  C   UNL A   1      47.269  28.364  35.574  1.00  0.00     0.040 A 
ATOM     70  C   UNL A   1      45.950  26.501  36.338  1.00  0.00     0.040 A 
ATOM     71  F   UNL A   1      43.711  26.292  35.674  1.00  0.00    -0.206 F 
ATOM     72  C   UNL A   1      47.166  27.182  36.303  1.00  0.00     0.006 A 
ENDBRANCH  51  65
BRANCH  52  73
ATOM     73  C   UNL A   1      37.216  31.315  29.420  1.00  0.00     0.057 A 
ATOM     74  C   UNL A   1      36.111  30.495  29.161  1.00  0.00     0.134 A 
ATOM     75  C   UNL A   1      37.209  32.599  28.864  1.00  0.00     0.134 A 
ATOM     76  F   UNL A   1      36.072  29.244  29.643  1.00  0.00    -0.206 F 
ATOM     77  C   UNL A   1      35.049  30.927  28.364  1.00  0.00     0.040 A 
ATOM     78  C   UNL A   1      36.141  33.055  28.089  1.00  0.00     0.040 A 
ATOM     79  F   UNL A   1      38.241  33.432  29.069  1.00  0.00    -0.206 F 
ATOM     80  C   UNL A   1      35.061  32.214  27.830  1.00  0.00     0.006 A 
ENDBRANCH  52  73
BRANCH  64  81
ATOM     81  C   UNL A   1      39.089  32.281  36.054  1.00  0.00     0.057 A 
ATOM     82  C   UNL A   1      38.151  31.743  36.946  1.00  0.00     0.134 A 
ATOM     83  C   UNL A   1      39.466  33.617  36.248  1.00  0.00     0.134 A 
ATOM     84  F   UNL A   1      37.737  30.474  36.815  1.00  0.00    -0.206 F 
ATOM     85  C   UNL A   1      37.584  32.514  37.963  1.00  0.00     0.040 A 
ATOM     86  C   UNL A   1      38.931  34.388  37.282  1.00  0.00     0.040 A 
ATOM     87  F   UNL A   1      40.368  34.195  35.440  1.00  0.00    -0.206 F 
ATOM     88  C   UNL A   1      37.978  33.839  38.136  1.00  0.00     0.006 A 
ENDBRANCH  64  81
ENDBRANCH  38  39
ENDBRANCH  31  33
ENDBRANCH  30  31
ENDBRANCH  29  30
ENDBRANCH  28  29
ENDBRANCH  27  28
ENDBRANCH  26  27
ENDBRANCH   1  26
TORSDOF 21
ENDMDL
MODEL 3
REMARK VINA RESULT:      -9.2      3.927      7.536
REMARK SMILES COc1ccc(C2=NO[C@](C)(C(=O)OCCOCCOCCOC(=O)c3ccc(-c4c5nc(c(-c6c(F)cccc6F)c6ccc([nH]6)c(-c6c(F)cccc6F)c6nc(c(-c7c(F)cccc7F)c7ccc4[nH]7)C=C6)C=C5)cc3)C2)c(OC)c1OC
REMARK SMILES IDX 18 1 17 2 16 3 15 4 14 5 12 6 13 7 10 8 7 9 8 10 80 11 9 12
REMARK SMILES IDX 11 13 6 14 3 15 4 16 84 17 5 18 81 19 2 20 1 21 85 22 86 23
REMARK SMILES IDX 82 24 83 25 19 26 20 27 21 28 22 29 23 30 24 31 25 32 26 33
REMARK SMILES IDX 27 34 79 35 28 36 78 37 29 38 30 39 31 40 72 41 32 42 77 43
REMARK SMILES IDX 71 44 73 45 33 46 76 47 70 48 69 49 34 51 60 52 43 53 59 54
REMARK SMILES IDX 44 55 47 56 58 57 74 58 45 59 46 60 57 62 75 63 48 64 35 65
REMARK SMILES IDX 36 66 41 67 37 68 38 69 40 70 42 71 39 72 61 73 62 74 67 75
REMARK SMILES IDX 63 76 64 77 66 78 68 79 65 80 49 81 50 82 55 83 51 84 52 85
REMARK SMILES IDX 54 86 56 87 53 88
REMARK H PARENT 73 50 47 61
REMARK Flexibility Score: inf
ROOT
ATOM      1  C   UNL A   1      35.411  32.250  28.012  1.00  0.00     0.188 C 
ENDROOT
BRANCH   1   2
ATOM      2  O   UNL A   1      35.572  30.867  27.720  1.00  0.00    -0.376 OA
BRANCH   2   3
ATOM      3  C   UNL A   1      36.294  30.057  28.639  1.00  0.00     0.202 C 
BRANCH   3   4
ATOM      4  C   UNL A   1      37.822  29.992  28.499  1.00  0.00     0.261 C 
BRANCH   4   5
ATOM      5  O   UNL A   1      38.335  28.727  28.020  1.00  0.00    -0.460 OA
BRANCH   5   6
ATOM      6  C   UNL A   1      39.199  28.039  28.832  1.00  0.00     0.353 C 
ATOM      7  O   UNL A   1      38.904  27.670  29.962  1.00  0.00    -0.247 OA
BRANCH   6   8
ATOM      8  C   UNL A   1      40.539  27.716  28.123  1.00  0.00     0.236 C 
ATOM      9  C   UNL A   1      41.622  25.816  27.397  1.00  0.00     0.096 C 
ATOM     10  N   UNL A   1      42.190  26.120  28.516  1.00  0.00    -0.089 NA
ATOM     11  C   UNL A   1      40.403  26.607  27.080  1.00  0.00     0.124 C 
ATOM     12  O   UNL A   1      41.414  27.141  29.117  1.00  0.00    -0.377 OA
ATOM     13  C   UNL A   1      41.237  28.966  27.575  1.00  0.00     0.073 C 
BRANCH   9  14
ATOM     14  C   UNL A   1      42.143  24.777  26.479  1.00  0.00     0.046 A 
ATOM     15  C   UNL A   1      43.406  22.760  25.025  1.00  0.00     0.164 A 
ATOM     16  C   UNL A   1      43.912  24.067  25.003  1.00  0.00     0.051 A 
ATOM     17  C   UNL A   1      42.239  22.446  25.752  1.00  0.00     0.203 A 
ATOM     18  C   UNL A   1      43.287  25.076  25.735  1.00  0.00     0.018 A 
ATOM     19  C   UNL A   1      41.580  23.481  26.464  1.00  0.00     0.173 A 
BRANCH  15  20
ATOM     20  O   UNL A   1      44.193  21.775  24.481  1.00  0.00    -0.493 OA
ATOM     21  C   UNL A   1      45.238  21.348  25.356  1.00  0.00     0.278 C 
ENDBRANCH  15  20
BRANCH  17  22
ATOM     22  O   UNL A   1      41.746  21.179  25.913  1.00  0.00    -0.490 OA
ATOM     23  C   UNL A   1      42.125  20.404  27.039  1.00  0.00     0.278 C 
ENDBRANCH  17  22
BRANCH  19  24
ATOM     24  O   UNL A   1      40.399  23.387  27.161  1.00  0.00    -0.492 OA
ATOM     25  C   UNL A   1      39.226  22.925  26.510  1.00  0.00     0.278 C 
ENDBRANCH  19  24
ENDBRANCH   9  14
ENDBRANCH   6   8
ENDBRANCH   5   6
ENDBRANCH   4   5
ENDBRANCH   3   4
ENDBRANCH   2   3
ENDBRANCH   1   2
BRANCH   1  26
ATOM     26  C   UNL A   1      34.387  32.670  29.089  1.00  0.00     0.188 C 
BRANCH  26  27
ATOM     27  O   UNL A   1      34.975  32.835  30.360  1.00  0.00    -0.376 OA
BRANCH  27  28
ATOM     28  C   UNL A   1      34.701  34.024  31.069  1.00  0.00     0.202 C 
BRANCH  28  29
ATOM     29  C   UNL A   1      35.348  34.245  32.447  1.00  0.00     0.261 C 
BRANCH  29  30
ATOM     30  O   UNL A   1      36.685  33.749  32.640  1.00  0.00    -0.460 OA
BRANCH  30  31
ATOM     31  C   UNL A   1      36.895  32.896  33.662  1.00  0.00     0.338 C 
ATOM     32  O   UNL A   1      36.171  32.728  34.638  1.00  0.00    -0.246 OA
BRANCH  31  33
ATOM     33  C   UNL A   1      38.055  32.035  33.339  1.00  0.00     0.060 A 
ATOM     34  C   UNL A   1      39.269  32.251  34.006  1.00  0.00     0.016 A 
ATOM     35  C   UNL A   1      37.958  31.035  32.367  1.00  0.00     0.016 A 
ATOM     36  C   UNL A   1      40.400  31.503  33.669  1.00  0.00     0.010 A 
ATOM     37  C   UNL A   1      39.098  30.297  32.020  1.00  0.00     0.010 A 
ATOM     38  C   UNL A   1      40.335  30.554  32.640  1.00  0.00    -0.014 A 
BRANCH  38  39
ATOM     39  C   UNL A   1      41.589  29.970  32.093  1.00  0.00     0.031 A 
ATOM     40  C   UNL A   1      42.283  30.673  30.956  1.00  0.00     0.074 A 
ATOM     41  C   UNL A   1      42.138  28.860  32.619  1.00  0.00     0.049 A 
ATOM     42  N   UNL A   1      43.390  30.362  30.330  1.00  0.00    -0.248 NA
ATOM     43  C   UNL A   1      41.637  31.898  30.460  1.00  0.00     0.031 C 
ATOM     44  C   UNL A   1      41.600  28.101  33.746  1.00  0.00     0.029 A 
ATOM     45  N   UNL A   1      43.278  28.179  32.266  1.00  0.00    -0.354 N 
ATOM     46  C   UNL A   1      43.574  31.349  29.370  1.00  0.00     0.074 A 
ATOM     47  C   UNL A   1      42.443  32.246  29.467  1.00  0.00     0.031 C 
ATOM     48  C   UNL A   1      42.412  27.058  33.994  1.00  0.00     0.029 A 
ATOM     49  C   UNL A   1      43.509  27.059  33.028  1.00  0.00     0.049 A 
ATOM     50  H   UNL A   1      43.873  28.467  31.537  1.00  0.00     0.167 HD
ATOM     51  C   UNL A   1      44.596  31.508  28.494  1.00  0.00     0.037 A 
ATOM     52  C   UNL A   1      44.488  26.137  32.945  1.00  0.00     0.037 A 
ATOM     53  C   UNL A   1      45.712  30.605  28.375  1.00  0.00     0.049 A 
ATOM     54  C   UNL A   1      45.564  26.280  31.898  1.00  0.00     0.074 A 
ATOM     55  C   UNL A   1      46.795  30.680  27.515  1.00  0.00     0.029 A 
ATOM     56  N   UNL A   1      45.879  29.452  29.126  1.00  0.00    -0.354 N 
ATOM     57  N   UNL A   1      45.744  27.233  31.016  1.00  0.00    -0.248 NA
ATOM     58  C   UNL A   1      46.579  25.216  31.845  1.00  0.00     0.031 C 
ATOM     59  C   UNL A   1      47.589  29.543  27.711  1.00  0.00     0.029 A 
ATOM     60  C   UNL A   1      47.037  28.795  28.738  1.00  0.00     0.049 A 
ATOM     61  H   UNL A   1      45.267  29.143  29.833  1.00  0.00     0.167 HD
ATOM     62  C   UNL A   1      46.912  26.905  30.333  1.00  0.00     0.074 A 
ATOM     63  C   UNL A   1      47.401  25.672  30.912  1.00  0.00     0.031 C 
ATOM     64  C   UNL A   1      47.525  27.572  29.322  1.00  0.00     0.037 A 
BRANCH  51  65
ATOM     65  C   UNL A   1      44.531  32.696  27.575  1.00  0.00     0.057 A 
ATOM     66  C   UNL A   1      43.987  32.608  26.286  1.00  0.00     0.134 A 
ATOM     67  C   UNL A   1      45.019  33.944  27.983  1.00  0.00     0.134 A 
ATOM     68  F   UNL A   1      43.514  31.439  25.825  1.00  0.00    -0.206 F 
ATOM     69  C   UNL A   1      43.962  33.707  25.426  1.00  0.00     0.040 A 
ATOM     70  C   UNL A   1      44.971  35.058  27.143  1.00  0.00     0.040 A 
ATOM     71  F   UNL A   1      45.549  34.102  29.206  1.00  0.00    -0.206 F 
ATOM     72  C   UNL A   1      44.451  34.938  25.856  1.00  0.00     0.006 A 
ENDBRANCH  51  65
BRANCH  52  73
ATOM     73  C   UNL A   1      44.514  24.991  33.891  1.00  0.00     0.057 A 
ATOM     74  C   UNL A   1      44.983  25.147  35.201  1.00  0.00     0.134 A 
ATOM     75  C   UNL A   1      44.104  23.711  33.502  1.00  0.00     0.134 A 
ATOM     76  F   UNL A   1      45.417  26.343  35.625  1.00  0.00    -0.206 F 
ATOM     77  C   UNL A   1      45.062  24.068  36.084  1.00  0.00     0.040 A 
ATOM     78  C   UNL A   1      44.150  22.629  34.382  1.00  0.00     0.040 A 
ATOM     79  F   UNL A   1      43.650  23.494  32.259  1.00  0.00    -0.206 F 
ATOM     80  C   UNL A   1      44.638  22.804  35.675  1.00  0.00     0.006 A 
ENDBRANCH  52  73
BRANCH  64  81
ATOM     81  C   UNL A   1      48.828  27.014  28.818  1.00  0.00     0.057 A 
ATOM     82  C   UNL A   1      50.064  27.379  29.369  1.00  0.00     0.134 A 
ATOM     83  C   UNL A   1      48.843  26.082  27.771  1.00  0.00     0.134 A 
ATOM     84  F   UNL A   1      50.127  28.273  30.367  1.00  0.00    -0.206 F 
ATOM     85  C   UNL A   1      51.266  26.867  28.872  1.00  0.00     0.040 A 
ATOM     86  C   UNL A   1      50.035  25.537  27.289  1.00  0.00     0.040 A 
ATOM     87  F   UNL A   1      47.696  25.676  27.204  1.00  0.00    -0.206 F 
ATOM     88  C   UNL A   1      51.252  25.939  27.833  1.00  0.00     0.006 A 
ENDBRANCH  64  81
ENDBRANCH  38  39
ENDBRANCH  31  33
ENDBRANCH  30  31
ENDBRANCH  29  30
ENDBRANCH  28  29
ENDBRANCH  27  28
ENDBRANCH  26  27
ENDBRANCH   1  26
TORSDOF 21
ENDMDL
