MODEL 1
REMARK VINA RESULT:     -10.5      0.000      0.000
REMARK SMILES Cc1cc(=O)cc(C)n1C[C@H]1CCCC[C@@H]1C(=O)OCCOCCOCCOC(=O)c1ccc(-c2c3nc(c(-c4c(F)cccc4F)c4ccc([nH]4)c(-c4c(F)cccc4F)c4nc(c(-c5c(F)cccc5F)c5ccc2[nH]5)C=C4)C=C3)cc1
REMARK SMILES IDX 23 1 22 2 21 3 20 4 19 5 17 6 18 7 16 8 11 9 12 10 13 11
REMARK SMILES IDX 15 12 14 13 10 14 9 15 1 16 2 17 3 18 4 19 7 20 5 21 6 22
REMARK SMILES IDX 8 23 24 24 25 25 26 26 27 27 28 28 29 29 30 30 31 31 32 32
REMARK SMILES IDX 84 33 33 34 83 35 34 36 35 37 36 38 77 39 37 40 82 41 76 42
REMARK SMILES IDX 78 43 38 44 81 45 75 46 74 47 39 49 65 50 48 51 64 52 49 53
REMARK SMILES IDX 52 54 63 55 79 56 50 57 51 58 62 60 80 61 53 62 40 63 41 64
REMARK SMILES IDX 46 65 42 66 43 67 45 68 47 69 44 70 66 71 67 72 72 73 68 74
REMARK SMILES IDX 69 75 71 76 73 77 70 78 54 79 55 80 60 81 56 82 57 83 59 84
REMARK SMILES IDX 61 85 58 86
REMARK H PARENT 78 48 52 59
REMARK Flexibility Score: inf
ROOT
ATOM      1  C   UNL A   1      40.043  21.200  26.048  1.00  0.00     0.188 C 
ENDROOT
BRANCH   1   2
ATOM      2  O   UNL A   1      38.705  21.612  26.242  1.00  0.00    -0.376 OA
BRANCH   2   3
ATOM      3  C   UNL A   1      38.454  23.006  26.178  1.00  0.00     0.202 C 
BRANCH   3   4
ATOM      4  C   UNL A   1      37.010  23.456  25.888  1.00  0.00     0.261 C 
BRANCH   4   5
ATOM      5  O   UNL A   1      35.970  22.471  26.094  1.00  0.00    -0.463 OA
BRANCH   5   6
ATOM      6  C   UNL A   1      34.809  22.908  26.645  1.00  0.00     0.309 C 
ATOM      7  O   UNL A   1      34.540  22.743  27.827  1.00  0.00    -0.252 OA
BRANCH   6   8
ATOM      8  C   UNL A   1      33.910  23.642  25.609  1.00  0.00     0.104 C 
ATOM      9  C   UNL A   1      32.439  23.973  26.089  1.00  0.00     0.023 C 
ATOM     10  C   UNL A   1      31.796  22.635  26.458  1.00  0.00     0.006 C 
ATOM     11  C   UNL A   1      31.757  21.657  25.278  1.00  0.00     0.000 C 
ATOM     12  C   UNL A   1      33.882  22.766  24.349  1.00  0.00     0.016 C 
ATOM     13  C   UNL A   1      33.084  21.472  24.544  1.00  0.00     0.001 C 
BRANCH   9  14
ATOM     14  C   UNL A   1      31.618  24.789  25.012  1.00  0.00     0.126 C 
BRANCH  14  15
ATOM     15  N   UNL A   1      32.231  26.064  24.455  1.00  0.00    -0.349 N 
ATOM     16  C   UNL A   1      32.086  25.160  22.043  1.00  0.00     0.064 C 
ATOM     17  C   UNL A   1      32.526  26.191  23.056  1.00  0.00     0.018 A 
ATOM     18  C   UNL A   1      33.117  27.283  22.528  1.00  0.00     0.073 A 
ATOM     19  C   UNL A   1      33.468  28.422  23.382  1.00  0.00     0.182 A 
ATOM     20  C   UNL A   1      32.331  27.278  25.215  1.00  0.00     0.018 A 
ATOM     21  O   UNL A   1      34.117  29.368  22.958  1.00  0.00    -0.290 OA
ATOM     22  C   UNL A   1      32.933  28.392  24.745  1.00  0.00     0.073 A 
ATOM     23  C   UNL A   1      31.665  27.468  26.550  1.00  0.00     0.064 C 
ENDBRANCH  14  15
ENDBRANCH   9  14
ENDBRANCH   6   8
ENDBRANCH   5   6
ENDBRANCH   4   5
ENDBRANCH   3   4
ENDBRANCH   2   3
ENDBRANCH   1   2
BRANCH   1  24
ATOM     24  C   UNL A   1      40.833  20.996  27.362  1.00  0.00     0.188 C 
BRANCH  24  25
ATOM     25  O   UNL A   1      42.248  20.890  27.316  1.00  0.00    -0.376 OA
BRANCH  25  26
ATOM     26  C   UNL A   1      42.860  20.510  26.092  1.00  0.00     0.202 C 
BRANCH  26  27
ATOM     27  C   UNL A   1      43.791  21.509  25.382  1.00  0.00     0.261 C 
BRANCH  27  28
ATOM     28  O   UNL A   1      43.161  22.698  24.858  1.00  0.00    -0.460 OA
BRANCH  28  29
ATOM     29  C   UNL A   1      43.855  23.854  24.986  1.00  0.00     0.338 C 
ATOM     30  O   UNL A   1      44.872  24.174  24.379  1.00  0.00    -0.246 OA
BRANCH  29  31
ATOM     31  C   UNL A   1      43.125  24.807  25.850  1.00  0.00     0.060 A 
ATOM     32  C   UNL A   1      43.557  26.137  25.899  1.00  0.00     0.016 A 
ATOM     33  C   UNL A   1      42.077  24.389  26.673  1.00  0.00     0.016 A 
ATOM     34  C   UNL A   1      42.947  27.042  26.766  1.00  0.00     0.010 A 
ATOM     35  C   UNL A   1      41.502  25.296  27.581  1.00  0.00     0.010 A 
ATOM     36  C   UNL A   1      41.951  26.625  27.653  1.00  0.00    -0.014 A 
BRANCH  36  37
ATOM     37  C   UNL A   1      41.543  27.528  28.766  1.00  0.00     0.031 A 
ATOM     38  C   UNL A   1      42.360  27.528  30.035  1.00  0.00     0.074 A 
ATOM     39  C   UNL A   1      40.523  28.400  28.647  1.00  0.00     0.049 A 
ATOM     40  N   UNL A   1      42.135  28.144  31.169  1.00  0.00    -0.248 NA
ATOM     41  C   UNL A   1      43.595  26.730  30.017  1.00  0.00     0.031 C 
ATOM     42  C   UNL A   1      39.715  28.602  27.446  1.00  0.00     0.029 A 
ATOM     43  N   UNL A   1      39.993  29.285  29.558  1.00  0.00    -0.354 N 
ATOM     44  C   UNL A   1      43.202  27.807  31.996  1.00  0.00     0.074 A 
ATOM     45  C   UNL A   1      44.053  26.912  31.247  1.00  0.00     0.031 C 
ATOM     46  C   UNL A   1      38.786  29.541  27.699  1.00  0.00     0.029 A 
ATOM     47  C   UNL A   1      38.900  29.975  29.092  1.00  0.00     0.049 A 
ATOM     48  H   UNL A   1      40.364  29.411  30.462  1.00  0.00     0.167 HD
ATOM     49  C   UNL A   1      43.456  28.214  33.263  1.00  0.00     0.037 A 
ATOM     50  C   UNL A   1      38.068  30.831  29.723  1.00  0.00     0.037 A 
ATOM     51  C   UNL A   1      42.629  29.121  34.013  1.00  0.00     0.049 A 
ATOM     52  C   UNL A   1      38.294  31.161  31.180  1.00  0.00     0.074 A 
ATOM     53  C   UNL A   1      42.797  29.561  35.315  1.00  0.00     0.029 A 
ATOM     54  N   UNL A   1      41.489  29.737  33.526  1.00  0.00    -0.354 N 
ATOM     55  N   UNL A   1      39.275  30.798  31.970  1.00  0.00    -0.248 NA
ATOM     56  C   UNL A   1      37.289  32.015  31.835  1.00  0.00     0.031 C 
ATOM     57  C   UNL A   1      41.731  30.407  35.631  1.00  0.00     0.029 A 
ATOM     58  C   UNL A   1      40.930  30.537  34.509  1.00  0.00     0.049 A 
ATOM     59  H   UNL A   1      41.129  29.624  32.616  1.00  0.00     0.167 HD
ATOM     60  C   UNL A   1      39.023  31.403  33.198  1.00  0.00     0.074 A 
ATOM     61  C   UNL A   1      37.806  32.169  33.047  1.00  0.00     0.031 C 
ATOM     62  C   UNL A   1      39.735  31.323  34.348  1.00  0.00     0.037 A 
BRANCH  49  63
ATOM     63  C   UNL A   1      44.678  27.672  33.943  1.00  0.00     0.057 A 
ATOM     64  C   UNL A   1      45.890  28.372  33.949  1.00  0.00     0.134 A 
ATOM     65  C   UNL A   1      44.613  26.483  34.682  1.00  0.00     0.134 A 
ATOM     66  F   UNL A   1      46.020  29.514  33.260  1.00  0.00    -0.206 F 
ATOM     67  C   UNL A   1      46.996  27.905  34.661  1.00  0.00     0.040 A 
ATOM     68  C   UNL A   1      45.703  26.021  35.419  1.00  0.00     0.040 A 
ATOM     69  F   UNL A   1      43.477  25.771  34.726  1.00  0.00    -0.206 F 
ATOM     70  C   UNL A   1      46.900  26.733  35.410  1.00  0.00     0.006 A 
ENDBRANCH  49  63
BRANCH  50  71
ATOM     71  C   UNL A   1      36.909  31.428  29.005  1.00  0.00     0.057 A 
ATOM     72  C   UNL A   1      36.922  32.767  28.596  1.00  0.00     0.134 A 
ATOM     73  C   UNL A   1      35.740  30.697  28.765  1.00  0.00     0.134 A 
ATOM     74  F   UNL A   1      38.000  33.533  28.825  1.00  0.00    -0.206 F 
ATOM     75  C   UNL A   1      35.810  33.363  27.996  1.00  0.00     0.040 A 
ATOM     76  C   UNL A   1      34.631  31.270  28.138  1.00  0.00     0.040 A 
ATOM     77  F   UNL A   1      35.654  29.412  29.141  1.00  0.00    -0.206 F 
ATOM     78  C   UNL A   1      34.662  32.611  27.761  1.00  0.00     0.006 A 
ENDBRANCH  50  71
BRANCH  62  79
ATOM     79  C   UNL A   1      39.258  32.110  35.536  1.00  0.00     0.057 A 
ATOM     80  C   UNL A   1      39.572  33.465  35.701  1.00  0.00     0.134 A 
ATOM     81  C   UNL A   1      38.397  31.530  36.478  1.00  0.00     0.134 A 
ATOM     82  F   UNL A   1      40.396  34.081  34.840  1.00  0.00    -0.206 F 
ATOM     83  C   UNL A   1      39.056  34.210  36.763  1.00  0.00     0.040 A 
ATOM     84  C   UNL A   1      37.852  32.271  37.527  1.00  0.00     0.040 A 
ATOM     85  F   UNL A   1      38.043  30.239  36.374  1.00  0.00    -0.206 F 
ATOM     86  C   UNL A   1      38.184  33.616  37.673  1.00  0.00     0.006 A 
ENDBRANCH  62  79
ENDBRANCH  36  37
ENDBRANCH  29  31
ENDBRANCH  28  29
ENDBRANCH  27  28
ENDBRANCH  26  27
ENDBRANCH  25  26
ENDBRANCH  24  25
ENDBRANCH   1  24
TORSDOF 19
ENDMDL
MODEL 2
REMARK VINA RESULT:     -10.5      1.015      6.218
REMARK SMILES Cc1cc(=O)cc(C)n1C[C@H]1CCCC[C@@H]1C(=O)OCCOCCOCCOC(=O)c1ccc(-c2c3nc(c(-c4c(F)cccc4F)c4ccc([nH]4)c(-c4c(F)cccc4F)c4nc(c(-c5c(F)cccc5F)c5ccc2[nH]5)C=C4)C=C3)cc1
REMARK SMILES IDX 23 1 22 2 21 3 20 4 19 5 17 6 18 7 16 8 11 9 12 10 13 11
REMARK SMILES IDX 15 12 14 13 10 14 9 15 1 16 2 17 3 18 4 19 7 20 5 21 6 22
REMARK SMILES IDX 8 23 24 24 25 25 26 26 27 27 28 28 29 29 30 30 31 31 32 32
REMARK SMILES IDX 84 33 33 34 83 35 34 36 35 37 36 38 77 39 37 40 82 41 76 42
REMARK SMILES IDX 78 43 38 44 81 45 75 46 74 47 39 49 65 50 48 51 64 52 49 53
REMARK SMILES IDX 52 54 63 55 79 56 50 57 51 58 62 60 80 61 53 62 40 63 41 64
REMARK SMILES IDX 46 65 42 66 43 67 45 68 47 69 44 70 66 71 67 72 72 73 68 74
REMARK SMILES IDX 69 75 71 76 73 77 70 78 54 79 55 80 60 81 56 82 57 83 59 84
REMARK SMILES IDX 61 85 58 86
REMARK H PARENT 78 48 52 59
REMARK Flexibility Score: inf
ROOT
ATOM      1  C   UNL A   1      40.460  21.572  27.117  1.00  0.00     0.188 C 
ENDROOT
BRANCH   1   2
ATOM      2  O   UNL A   1      39.784  22.407  26.197  1.00  0.00    -0.376 OA
BRANCH   2   3
ATOM      3  C   UNL A   1      38.528  21.948  25.727  1.00  0.00     0.202 C 
BRANCH   3   4
ATOM      4  C   UNL A   1      37.358  22.949  25.731  1.00  0.00     0.261 C 
BRANCH   4   5
ATOM      5  O   UNL A   1      36.601  23.068  24.503  1.00  0.00    -0.463 OA
BRANCH   5   6
ATOM      6  C   UNL A   1      35.479  22.314  24.398  1.00  0.00     0.309 C 
ATOM      7  O   UNL A   1      35.450  21.131  24.709  1.00  0.00    -0.252 OA
BRANCH   6   8
ATOM      8  C   UNL A   1      34.268  23.136  23.868  1.00  0.00     0.104 C 
ATOM      9  C   UNL A   1      33.991  24.505  24.610  1.00  0.00     0.023 C 
ATOM     10  C   UNL A   1      33.760  24.158  26.083  1.00  0.00     0.006 C 
ATOM     11  C   UNL A   1      32.579  23.202  26.282  1.00  0.00     0.000 C 
ATOM     12  C   UNL A   1      33.040  22.218  23.953  1.00  0.00     0.016 C 
ATOM     13  C   UNL A   1      32.593  21.958  25.395  1.00  0.00     0.001 C 
BRANCH   9  14
ATOM     14  C   UNL A   1      32.797  25.316  23.962  1.00  0.00     0.126 C 
BRANCH  14  15
ATOM     15  N   UNL A   1      32.564  26.745  24.426  1.00  0.00    -0.349 N 
ATOM     16  C   UNL A   1      33.764  27.687  22.345  1.00  0.00     0.064 C 
ATOM     17  C   UNL A   1      33.103  27.855  23.694  1.00  0.00     0.018 A 
ATOM     18  C   UNL A   1      32.965  29.135  24.096  1.00  0.00     0.073 A 
ATOM     19  C   UNL A   1      32.217  29.451  25.318  1.00  0.00     0.182 A 
ATOM     20  C   UNL A   1      31.621  27.088  25.452  1.00  0.00     0.018 A 
ATOM     21  O   UNL A   1      32.184  30.585  25.776  1.00  0.00    -0.290 OA
ATOM     22  C   UNL A   1      31.459  28.348  25.910  1.00  0.00     0.073 A 
ATOM     23  C   UNL A   1      30.636  26.106  26.023  1.00  0.00     0.064 C 
ENDBRANCH  14  15
ENDBRANCH   9  14
ENDBRANCH   6   8
ENDBRANCH   5   6
ENDBRANCH   4   5
ENDBRANCH   3   4
ENDBRANCH   2   3
ENDBRANCH   1   2
BRANCH   1  24
ATOM     24  C   UNL A   1      41.099  20.319  26.472  1.00  0.00     0.188 C 
BRANCH  24  25
ATOM     25  O   UNL A   1      42.301  20.454  25.727  1.00  0.00    -0.376 OA
BRANCH  25  26
ATOM     26  C   UNL A   1      43.214  21.478  26.094  1.00  0.00     0.202 C 
BRANCH  26  27
ATOM     27  C   UNL A   1      43.937  22.263  24.986  1.00  0.00     0.261 C 
BRANCH  27  28
ATOM     28  O   UNL A   1      43.419  23.580  24.702  1.00  0.00    -0.460 OA
BRANCH  28  29
ATOM     29  C   UNL A   1      44.185  24.626  25.093  1.00  0.00     0.338 C 
ATOM     30  O   UNL A   1      45.276  24.953  24.635  1.00  0.00    -0.246 OA
BRANCH  29  31
ATOM     31  C   UNL A   1      43.454  25.476  26.058  1.00  0.00     0.060 A 
ATOM     32  C   UNL A   1      43.993  26.721  26.401  1.00  0.00     0.016 A 
ATOM     33  C   UNL A   1      42.293  25.026  26.690  1.00  0.00     0.016 A 
ATOM     34  C   UNL A   1      43.376  27.510  27.370  1.00  0.00     0.010 A 
ATOM     35  C   UNL A   1      41.706  25.806  27.703  1.00  0.00     0.010 A 
ATOM     36  C   UNL A   1      42.260  27.045  28.070  1.00  0.00    -0.014 A 
BRANCH  36  37
ATOM     37  C   UNL A   1      41.817  27.766  29.297  1.00  0.00     0.031 A 
ATOM     38  C   UNL A   1      40.600  28.653  29.215  1.00  0.00     0.074 A 
ATOM     39  C   UNL A   1      42.417  27.588  30.490  1.00  0.00     0.049 A 
ATOM     40  N   UNL A   1      40.095  29.458  30.117  1.00  0.00    -0.248 NA
ATOM     41  C   UNL A   1      39.852  28.622  27.949  1.00  0.00     0.031 C 
ATOM     42  C   UNL A   1      43.528  26.677  30.754  1.00  0.00     0.029 A 
ATOM     43  N   UNL A   1      42.167  28.173  31.711  1.00  0.00    -0.354 N 
ATOM     44  C   UNL A   1      38.971  30.026  29.525  1.00  0.00     0.074 A 
ATOM     45  C   UNL A   1      38.887  29.500  28.182  1.00  0.00     0.031 C 
ATOM     46  C   UNL A   1      43.871  26.773  32.052  1.00  0.00     0.029 A 
ATOM     47  C   UNL A   1      43.037  27.785  32.701  1.00  0.00     0.049 A 
ATOM     48  H   UNL A   1      41.432  28.811  31.859  1.00  0.00     0.167 HD
ATOM     49  C   UNL A   1      38.083  30.901  30.055  1.00  0.00     0.037 A 
ATOM     50  C   UNL A   1      43.168  28.219  33.973  1.00  0.00     0.037 A 
ATOM     51  C   UNL A   1      38.143  31.417  31.396  1.00  0.00     0.049 A 
ATOM     52  C   UNL A   1      42.250  29.298  34.497  1.00  0.00     0.074 A 
ATOM     53  C   UNL A   1      37.300  32.332  32.003  1.00  0.00     0.029 A 
ATOM     54  N   UNL A   1      39.087  31.053  32.342  1.00  0.00    -0.354 N 
ATOM     55  N   UNL A   1      41.224  29.868  33.915  1.00  0.00    -0.248 NA
ATOM     56  C   UNL A   1      42.517  29.801  35.855  1.00  0.00     0.031 C 
ATOM     57  C   UNL A   1      37.763  32.559  33.302  1.00  0.00     0.029 A 
ATOM     58  C   UNL A   1      38.860  31.743  33.521  1.00  0.00     0.049 A 
ATOM     59  H   UNL A   1      39.810  30.401  32.197  1.00  0.00     0.167 HD
ATOM     60  C   UNL A   1      40.706  30.767  34.843  1.00  0.00     0.074 A 
ATOM     61  C   UNL A   1      41.520  30.658  36.033  1.00  0.00     0.031 C 
ATOM     62  C   UNL A   1      39.654  31.611  34.715  1.00  0.00     0.037 A 
BRANCH  49  63
ATOM     63  C   UNL A   1      36.963  31.381  29.180  1.00  0.00     0.057 A 
ATOM     64  C   UNL A   1      35.843  30.586  28.913  1.00  0.00     0.134 A 
ATOM     65  C   UNL A   1      36.962  32.691  28.680  1.00  0.00     0.134 A 
ATOM     66  F   UNL A   1      35.783  29.323  29.360  1.00  0.00    -0.206 F 
ATOM     67  C   UNL A   1      34.764  31.074  28.174  1.00  0.00     0.040 A 
ATOM     68  C   UNL A   1      35.878  33.197  27.964  1.00  0.00     0.040 A 
ATOM     69  F   UNL A   1      38.000  33.508  28.911  1.00  0.00    -0.206 F 
ATOM     70  C   UNL A   1      34.774  32.388  27.708  1.00  0.00     0.006 A 
ENDBRANCH  49  63
BRANCH  50  71
ATOM     71  C   UNL A   1      44.232  27.666  34.855  1.00  0.00     0.057 A 
ATOM     72  C   UNL A   1      45.546  28.145  34.793  1.00  0.00     0.134 A 
ATOM     73  C   UNL A   1      43.978  26.606  35.734  1.00  0.00     0.134 A 
ATOM     74  F   UNL A   1      45.865  29.137  33.948  1.00  0.00    -0.206 F 
ATOM     75  C   UNL A   1      46.571  27.578  35.555  1.00  0.00     0.040 A 
ATOM     76  C   UNL A   1      44.986  26.050  36.525  1.00  0.00     0.040 A 
ATOM     77  F   UNL A   1      42.744  26.090  35.836  1.00  0.00    -0.206 F 
ATOM     78  C   UNL A   1      46.290  26.531  36.428  1.00  0.00     0.006 A 
ENDBRANCH  50  71
BRANCH  62  79
ATOM     79  C   UNL A   1      39.278  32.463  35.894  1.00  0.00     0.057 A 
ATOM     80  C   UNL A   1      38.430  31.994  36.905  1.00  0.00     0.134 A 
ATOM     81  C   UNL A   1      39.845  33.733  36.068  1.00  0.00     0.134 A 
ATOM     82  F   UNL A   1      37.847  30.791  36.800  1.00  0.00    -0.206 F 
ATOM     83  C   UNL A   1      38.152  32.760  38.039  1.00  0.00     0.040 A 
ATOM     84  C   UNL A   1      39.598  34.496  37.210  1.00  0.00     0.040 A 
ATOM     85  F   UNL A   1      40.678  34.240  35.144  1.00  0.00    -0.206 F 
ATOM     86  C   UNL A   1      38.746  34.011  38.199  1.00  0.00     0.006 A 
ENDBRANCH  62  79
ENDBRANCH  36  37
ENDBRANCH  29  31
ENDBRANCH  28  29
ENDBRANCH  27  28
ENDBRANCH  26  27
ENDBRANCH  25  26
ENDBRANCH  24  25
ENDBRANCH   1  24
TORSDOF 19
ENDMDL
MODEL 3
REMARK VINA RESULT:      -9.8      1.699      6.533
REMARK SMILES Cc1cc(=O)cc(C)n1C[C@H]1CCCC[C@@H]1C(=O)OCCOCCOCCOC(=O)c1ccc(-c2c3nc(c(-c4c(F)cccc4F)c4ccc([nH]4)c(-c4c(F)cccc4F)c4nc(c(-c5c(F)cccc5F)c5ccc2[nH]5)C=C4)C=C3)cc1
REMARK SMILES IDX 23 1 22 2 21 3 20 4 19 5 17 6 18 7 16 8 11 9 12 10 13 11
REMARK SMILES IDX 15 12 14 13 10 14 9 15 1 16 2 17 3 18 4 19 7 20 5 21 6 22
REMARK SMILES IDX 8 23 24 24 25 25 26 26 27 27 28 28 29 29 30 30 31 31 32 32
REMARK SMILES IDX 84 33 33 34 83 35 34 36 35 37 36 38 77 39 37 40 82 41 76 42
REMARK SMILES IDX 78 43 38 44 81 45 75 46 74 47 39 49 65 50 48 51 64 52 49 53
REMARK SMILES IDX 52 54 63 55 79 56 50 57 51 58 62 60 80 61 53 62 40 63 41 64
REMARK SMILES IDX 46 65 42 66 43 67 45 68 47 69 44 70 66 71 67 72 72 73 68 74
REMARK SMILES IDX 69 75 71 76 73 77 70 78 54 79 55 80 60 81 56 82 57 83 59 84
REMARK SMILES IDX 61 85 58 86
REMARK H PARENT 78 48 52 59
REMARK Flexibility Score: inf
ROOT
ATOM      1  C   UNL A   1      39.312  21.648  25.774  1.00  0.00     0.188 C 
ENDROOT
BRANCH   1   2
ATOM      2  O   UNL A   1      37.900  21.620  25.844  1.00  0.00    -0.376 OA
BRANCH   2   3
ATOM      3  C   UNL A   1      37.225  22.832  25.550  1.00  0.00     0.202 C 
BRANCH   3   4
ATOM      4  C   UNL A   1      36.117  22.787  24.481  1.00  0.00     0.261 C 
BRANCH   4   5
ATOM      5  O   UNL A   1      34.762  22.610  24.958  1.00  0.00    -0.463 OA
BRANCH   5   6
ATOM      6  C   UNL A   1      34.234  23.617  25.698  1.00  0.00     0.309 C 
ATOM      7  O   UNL A   1      33.835  23.454  26.843  1.00  0.00    -0.252 OA
BRANCH   6   8
ATOM      8  C   UNL A   1      34.228  24.969  24.926  1.00  0.00     0.104 C 
ATOM      9  C   UNL A   1      33.765  26.232  25.757  1.00  0.00     0.023 C 
ATOM     10  C   UNL A   1      32.349  25.926  26.252  1.00  0.00     0.006 C 
ATOM     11  C   UNL A   1      31.369  25.664  25.102  1.00  0.00     0.000 C 
ATOM     12  C   UNL A   1      33.329  24.771  23.697  1.00  0.00     0.016 C 
ATOM     13  C   UNL A   1      31.846  24.650  24.062  1.00  0.00     0.001 C 
BRANCH   9  14
ATOM     14  C   UNL A   1      33.863  27.575  24.926  1.00  0.00     0.126 C 
BRANCH  14  15
ATOM     15  N   UNL A   1      33.119  28.796  25.444  1.00  0.00    -0.349 N 
ATOM     16  C   UNL A   1      35.016  29.328  27.110  1.00  0.00     0.064 C 
ATOM     17  C   UNL A   1      33.638  29.566  26.537  1.00  0.00     0.018 A 
ATOM     18  C   UNL A   1      32.987  30.625  27.062  1.00  0.00     0.073 A 
ATOM     19  C   UNL A   1      31.701  31.055  26.503  1.00  0.00     0.182 A 
ATOM     20  C   UNL A   1      32.012  29.388  24.748  1.00  0.00     0.018 A 
ATOM     21  O   UNL A   1      31.028  31.927  27.036  1.00  0.00    -0.290 OA
ATOM     22  C   UNL A   1      31.310  30.432  25.237  1.00  0.00     0.073 A 
ATOM     23  C   UNL A   1      31.610  28.989  23.355  1.00  0.00     0.064 C 
ENDBRANCH  14  15
ENDBRANCH   9  14
ENDBRANCH   6   8
ENDBRANCH   5   6
ENDBRANCH   4   5
ENDBRANCH   3   4
ENDBRANCH   2   3
ENDBRANCH   1   2
BRANCH   1  24
ATOM     24  C   UNL A   1      39.993  22.164  27.063  1.00  0.00     0.188 C 
BRANCH  24  25
ATOM     25  O   UNL A   1      41.375  22.489  27.040  1.00  0.00    -0.376 OA
BRANCH  25  26
ATOM     26  C   UNL A   1      42.137  22.131  25.895  1.00  0.00     0.202 C 
BRANCH  26  27
ATOM     27  C   UNL A   1      42.907  23.229  25.141  1.00  0.00     0.261 C 
BRANCH  27  28
ATOM     28  O   UNL A   1      42.329  24.551  25.183  1.00  0.00    -0.460 OA
BRANCH  28  29
ATOM     29  C   UNL A   1      43.148  25.554  25.579  1.00  0.00     0.338 C 
ATOM     30  O   UNL A   1      44.222  25.871  25.077  1.00  0.00    -0.246 OA
BRANCH  29  31
ATOM     31  C   UNL A   1      42.498  26.377  26.623  1.00  0.00     0.060 A 
ATOM     32  C   UNL A   1      42.884  27.715  26.761  1.00  0.00     0.016 A 
ATOM     33  C   UNL A   1      41.579  25.824  27.518  1.00  0.00     0.016 A 
ATOM     34  C   UNL A   1      42.355  28.494  27.788  1.00  0.00     0.010 A 
ATOM     35  C   UNL A   1      41.090  26.604  28.581  1.00  0.00     0.010 A 
ATOM     36  C   UNL A   1      41.495  27.940  28.741  1.00  0.00    -0.014 A 
BRANCH  36  37
ATOM     37  C   UNL A   1      41.198  28.703  29.986  1.00  0.00     0.031 A 
ATOM     38  C   UNL A   1      40.064  29.698  29.972  1.00  0.00     0.074 A 
ATOM     39  C   UNL A   1      41.853  28.476  31.141  1.00  0.00     0.049 A 
ATOM     40  N   UNL A   1      39.692  30.549  30.895  1.00  0.00    -0.248 NA
ATOM     41  C   UNL A   1      39.239  29.730  28.755  1.00  0.00     0.031 C 
ATOM     42  C   UNL A   1      42.891  27.469  31.344  1.00  0.00     0.029 A 
ATOM     43  N   UNL A   1      41.735  29.087  32.369  1.00  0.00    -0.354 N 
ATOM     44  C   UNL A   1      38.590  31.216  30.369  1.00  0.00     0.074 A 
ATOM     45  C   UNL A   1      38.374  30.693  29.038  1.00  0.00     0.031 C 
ATOM     46  C   UNL A   1      43.322  27.538  32.617  1.00  0.00     0.029 A 
ATOM     47  C   UNL A   1      42.627  28.625  33.307  1.00  0.00     0.049 A 
ATOM     48  H   UNL A   1      41.072  29.790  32.557  1.00  0.00     0.167 HD
ATOM     49  C   UNL A   1      37.820  32.170  30.944  1.00  0.00     0.037 A 
ATOM     50  C   UNL A   1      42.877  29.050  34.564  1.00  0.00     0.037 A 
ATOM     51  C   UNL A   1      38.010  32.683  32.274  1.00  0.00     0.049 A 
ATOM     52  C   UNL A   1      42.095  30.211  35.134  1.00  0.00     0.074 A 
ATOM     53  C   UNL A   1      37.294  33.674  32.923  1.00  0.00     0.029 A 
ATOM     54  N   UNL A   1      38.975  32.239  33.162  1.00  0.00    -0.354 N 
ATOM     55  N   UNL A   1      41.091  30.870  34.611  1.00  0.00    -0.248 NA
ATOM     56  C   UNL A   1      42.491  30.693  36.467  1.00  0.00     0.031 C 
ATOM     57  C   UNL A   1      37.857  33.863  34.188  1.00  0.00     0.029 A 
ATOM     58  C   UNL A   1      38.887  32.952  34.346  1.00  0.00     0.049 A 
ATOM     59  H   UNL A   1      39.626  31.523  32.979  1.00  0.00     0.167 HD
ATOM     60  C   UNL A   1      40.716  31.817  35.560  1.00  0.00     0.074 A 
ATOM     61  C   UNL A   1      41.590  31.638  36.699  1.00  0.00     0.031 C 
ATOM     62  C   UNL A   1      39.739  32.753  35.490  1.00  0.00     0.037 A 
BRANCH  49  63
ATOM     63  C   UNL A   1      36.696  32.747  30.136  1.00  0.00     0.057 A 
ATOM     64  C   UNL A   1      36.926  33.649  29.091  1.00  0.00     0.134 A 
ATOM     65  C   UNL A   1      35.377  32.317  30.343  1.00  0.00     0.134 A 
ATOM     66  F   UNL A   1      38.163  34.101  28.843  1.00  0.00    -0.206 F 
ATOM     67  C   UNL A   1      35.883  34.110  28.285  1.00  0.00     0.040 A 
ATOM     68  C   UNL A   1      34.333  32.749  29.525  1.00  0.00     0.040 A 
ATOM     69  F   UNL A   1      35.091  31.444  31.320  1.00  0.00    -0.206 F 
ATOM     70  C   UNL A   1      34.584  33.649  28.493  1.00  0.00     0.006 A 
ENDBRANCH  49  63
BRANCH  50  71
ATOM     71  C   UNL A   1      43.939  28.406  35.383  1.00  0.00     0.057 A 
ATOM     72  C   UNL A   1      43.631  27.399  36.307  1.00  0.00     0.134 A 
ATOM     73  C   UNL A   1      45.274  28.821  35.310  1.00  0.00     0.134 A 
ATOM     74  F   UNL A   1      42.365  26.978  36.451  1.00  0.00    -0.206 F 
ATOM     75  C   UNL A   1      44.605  26.845  37.141  1.00  0.00     0.040 A 
ATOM     76  C   UNL A   1      46.265  28.255  36.116  1.00  0.00     0.040 A 
ATOM     77  F   UNL A   1      45.638  29.789  34.456  1.00  0.00    -0.206 F 
ATOM     78  C   UNL A   1      45.928  27.270  37.042  1.00  0.00     0.006 A 
ENDBRANCH  50  71
BRANCH  62  79
ATOM     79  C   UNL A   1      39.517  33.640  36.682  1.00  0.00     0.057 A 
ATOM     80  C   UNL A   1      38.634  33.290  37.711  1.00  0.00     0.134 A 
ATOM     81  C   UNL A   1      40.265  34.813  36.848  1.00  0.00     0.134 A 
ATOM     82  F   UNL A   1      37.881  32.184  37.614  1.00  0.00    -0.206 F 
ATOM     83  C   UNL A   1      38.496  34.079  38.855  1.00  0.00     0.040 A 
ATOM     84  C   UNL A   1      40.157  35.595  37.999  1.00  0.00     0.040 A 
ATOM     85  F   UNL A   1      41.141  35.203  35.907  1.00  0.00    -0.206 F 
ATOM     86  C   UNL A   1      39.267  35.229  39.006  1.00  0.00     0.006 A 
ENDBRANCH  62  79
ENDBRANCH  36  37
ENDBRANCH  29  31
ENDBRANCH  28  29
ENDBRANCH  27  28
ENDBRANCH  26  27
ENDBRANCH  25  26
ENDBRANCH  24  25
ENDBRANCH   1  24
TORSDOF 19
ENDMDL
