MODEL 1
REMARK VINA RESULT:      -8.9      0.000      0.000
REMARK SMILES CCC(C)(C)[C@@H]([NH3+])C(C)(C)C(=O)OCCOCCOCCOC(=O)c1ccc(-c2c3nc(c(-c4c(F)cccc4F)c4ccc([nH]4)c(-c4c(F)cccc4F)c4nc(c(-c5c(F)cccc5F)c5ccc2[nH]5)C=C4)C=C3)cc1
REMARK SMILES IDX 17 1 16 2 15 3 14 4 13 5 11 6 12 7 8 8 9 9 10 10 6 11 3 12
REMARK SMILES IDX 4 13 5 14 2 15 1 16 7 17 18 21 19 22 20 23 21 24 22 25 23 26
REMARK SMILES IDX 24 27 25 28 26 29 78 30 27 31 77 32 28 33 29 34 30 35 71 36
REMARK SMILES IDX 31 37 76 38 70 39 72 40 32 41 75 42 69 43 68 44 33 46 59 47
REMARK SMILES IDX 42 48 58 49 43 50 46 51 57 52 73 53 44 54 45 55 56 57 74 58
REMARK SMILES IDX 47 59 34 60 35 61 40 62 36 63 37 64 39 65 41 66 38 67 60 68
REMARK SMILES IDX 61 69 66 70 62 71 63 72 65 73 67 74 64 75 48 76 49 77 54 78
REMARK SMILES IDX 50 79 51 80 53 81 55 82 52 83
REMARK H PARENT 7 18 7 19 7 20 72 45 46 56
REMARK Flexibility Score: inf
ROOT
ATOM      1  C   UNL A   1      32.735  36.031  32.241  1.00  0.00     0.188 C 
ENDROOT
BRANCH   1   2
ATOM      2  O   UNL A   1      32.475  36.875  31.134  1.00  0.00    -0.376 OA
BRANCH   2   3
ATOM      3  C   UNL A   1      33.446  36.915  30.106  1.00  0.00     0.202 C 
BRANCH   3   4
ATOM      4  C   UNL A   1      33.276  36.018  28.851  1.00  0.00     0.261 C 
BRANCH   4   5
ATOM      5  O   UNL A   1      34.333  35.140  28.397  1.00  0.00    -0.463 OA
BRANCH   5   6
ATOM      6  C   UNL A   1      33.938  33.870  28.139  1.00  0.00     0.317 C 
ATOM      7  O   UNL A   1      32.847  33.668  27.651  1.00  0.00    -0.251 OA
BRANCH   6   8
ATOM      8  C   UNL A   1      34.911  32.763  28.570  1.00  0.00     0.114 C 
ATOM      9  C   UNL A   1      34.740  32.600  30.089  1.00  0.00     0.030 C 
ATOM     10  C   UNL A   1      36.409  33.181  28.401  1.00  0.00     0.030 C 
BRANCH   8  11
ATOM     11  C   UNL A   1      34.633  31.411  27.752  1.00  0.00     0.203 C 
BRANCH  11  12
ATOM     12  C   UNL A   1      35.650  30.138  27.739  1.00  0.00     0.017 C 
ATOM     13  C   UNL A   1      34.974  28.909  27.100  1.00  0.00     0.017 C 
ATOM     14  C   UNL A   1      35.921  29.718  29.225  1.00  0.00     0.017 C 
BRANCH  12  15
ATOM     15  C   UNL A   1      37.085  30.331  27.145  1.00  0.00     0.009 C 
ATOM     16  C   UNL A   1      38.252  29.636  27.859  1.00  0.00     0.005 C 
ENDBRANCH  12  15
ENDBRANCH  11  12
BRANCH  11  17
ATOM     17  N   UNL A   1      33.226  30.984  27.995  1.00  0.00    -0.354 N 
ATOM     18  H   UNL A   1      33.188  30.393  28.825  1.00  0.00     0.344 HD
ATOM     19  H   UNL A   1      32.885  30.461  27.189  1.00  0.00     0.344 HD
ATOM     20  H   UNL A   1      32.641  31.808  28.137  1.00  0.00     0.344 HD
ENDBRANCH  11  17
ENDBRANCH   8  11
ENDBRANCH   6   8
ENDBRANCH   5   6
ENDBRANCH   4   5
ENDBRANCH   3   4
ENDBRANCH   2   3
ENDBRANCH   1   2
BRANCH   1  21
ATOM     21  C   UNL A   1      33.936  36.509  33.063  1.00  0.00     0.188 C 
BRANCH  21  22
ATOM     22  O   UNL A   1      35.160  35.788  33.036  1.00  0.00    -0.376 OA
BRANCH  22  23
ATOM     23  C   UNL A   1      35.185  34.504  33.634  1.00  0.00     0.202 C 
BRANCH  23  24
ATOM     24  C   UNL A   1      36.506  33.713  33.628  1.00  0.00     0.261 C 
BRANCH  24  25
ATOM     25  O   UNL A   1      36.403  32.282  33.786  1.00  0.00    -0.460 OA
BRANCH  25  26
ATOM     26  C   UNL A   1      37.488  31.655  34.302  1.00  0.00     0.338 C 
ATOM     27  O   UNL A   1      37.733  31.467  35.488  1.00  0.00    -0.246 OA
BRANCH  26  28
ATOM     28  C   UNL A   1      38.296  31.034  33.223  1.00  0.00     0.060 A 
ATOM     29  C   UNL A   1      39.352  30.176  33.579  1.00  0.00     0.016 A 
ATOM     30  C   UNL A   1      38.090  31.353  31.881  1.00  0.00     0.016 A 
ATOM     31  C   UNL A   1      40.204  29.646  32.609  1.00  0.00     0.010 A 
ATOM     32  C   UNL A   1      38.975  30.856  30.911  1.00  0.00     0.010 A 
ATOM     33  C   UNL A   1      40.054  30.024  31.272  1.00  0.00    -0.014 A 
BRANCH  33  34
ATOM     34  C   UNL A   1      41.150  29.748  30.305  1.00  0.00     0.031 A 
ATOM     35  C   UNL A   1      41.176  28.402  29.629  1.00  0.00     0.074 A 
ATOM     36  C   UNL A   1      42.083  30.664  29.994  1.00  0.00     0.049 A 
ATOM     37  N   UNL A   1      42.083  27.878  28.844  1.00  0.00    -0.248 NA
ATOM     38  C   UNL A   1      40.017  27.529  29.874  1.00  0.00     0.031 C 
ATOM     39  C   UNL A   1      42.131  32.034  30.497  1.00  0.00     0.029 A 
ATOM     40  N   UNL A   1      43.187  30.563  29.180  1.00  0.00    -0.354 N 
ATOM     41  C   UNL A   1      41.615  26.611  28.519  1.00  0.00     0.074 A 
ATOM     42  C   UNL A   1      40.353  26.437  29.206  1.00  0.00     0.031 C 
ATOM     43  C   UNL A   1      43.226  32.640  30.002  1.00  0.00     0.029 A 
ATOM     44  C   UNL A   1      43.978  31.687  29.184  1.00  0.00     0.049 A 
ATOM     45  H   UNL A   1      43.392  29.763  28.646  1.00  0.00     0.167 HD
ATOM     46  C   UNL A   1      42.182  25.673  27.722  1.00  0.00     0.037 A 
ATOM     47  C   UNL A   1      45.187  31.905  28.626  1.00  0.00     0.037 A 
ATOM     48  C   UNL A   1      43.438  25.841  27.039  1.00  0.00     0.049 A 
ATOM     49  C   UNL A   1      45.853  30.807  27.833  1.00  0.00     0.074 A 
ATOM     50  C   UNL A   1      44.095  24.946  26.212  1.00  0.00     0.029 A 
ATOM     51  N   UNL A   1      44.229  26.977  27.108  1.00  0.00    -0.354 N 
ATOM     52  N   UNL A   1      45.412  29.608  27.540  1.00  0.00    -0.248 NA
ATOM     53  C   UNL A   1      47.194  31.094  27.298  1.00  0.00     0.031 C 
ATOM     54  C   UNL A   1      45.311  25.517  25.827  1.00  0.00     0.029 A 
ATOM     55  C   UNL A   1      45.382  26.794  26.361  1.00  0.00     0.049 A 
ATOM     56  H   UNL A   1      44.005  27.792  27.613  1.00  0.00     0.167 HD
ATOM     57  C   UNL A   1      46.401  29.015  26.759  1.00  0.00     0.074 A 
ATOM     58  C   UNL A   1      47.460  29.990  26.615  1.00  0.00     0.031 C 
ATOM     59  C   UNL A   1      46.427  27.775  26.209  1.00  0.00     0.037 A 
BRANCH  46  60
ATOM     60  C   UNL A   1      41.466  24.361  27.584  1.00  0.00     0.057 A 
ATOM     61  C   UNL A   1      40.380  24.192  26.717  1.00  0.00     0.134 A 
ATOM     62  C   UNL A   1      41.890  23.243  28.314  1.00  0.00     0.134 A 
ATOM     63  F   UNL A   1      39.914  25.227  26.001  1.00  0.00    -0.206 F 
ATOM     64  C   UNL A   1      39.722  22.966  26.601  1.00  0.00     0.040 A 
ATOM     65  C   UNL A   1      41.260  22.004  28.184  1.00  0.00     0.040 A 
ATOM     66  F   UNL A   1      42.929  23.333  29.159  1.00  0.00    -0.206 F 
ATOM     67  C   UNL A   1      40.168  21.866  27.331  1.00  0.00     0.006 A 
ENDBRANCH  46  60
BRANCH  47  68
ATOM     68  C   UNL A   1      45.882  33.205  28.823  1.00  0.00     0.057 A 
ATOM     69  C   UNL A   1      46.743  33.414  29.907  1.00  0.00     0.134 A 
ATOM     70  C   UNL A   1      45.658  34.289  27.965  1.00  0.00     0.134 A 
ATOM     71  F   UNL A   1      46.974  32.426  30.785  1.00  0.00    -0.206 F 
ATOM     72  C   UNL A   1      47.338  34.655  30.144  1.00  0.00     0.040 A 
ATOM     73  C   UNL A   1      46.270  35.527  28.170  1.00  0.00     0.040 A 
ATOM     74  F   UNL A   1      44.837  34.161  26.911  1.00  0.00    -0.206 F 
ATOM     75  C   UNL A   1      47.105  35.715  29.270  1.00  0.00     0.006 A 
ENDBRANCH  47  68
BRANCH  59  76
ATOM     76  C   UNL A   1      47.609  27.414  25.354  1.00  0.00     0.057 A 
ATOM     77  C   UNL A   1      47.638  27.663  23.976  1.00  0.00     0.134 A 
ATOM     78  C   UNL A   1      48.757  26.852  25.930  1.00  0.00     0.134 A 
ATOM     79  F   UNL A   1      46.570  28.189  23.357  1.00  0.00    -0.206 F 
ATOM     80  C   UNL A   1      48.753  27.343  23.198  1.00  0.00     0.040 A 
ATOM     81  C   UNL A   1      49.890  26.557  25.169  1.00  0.00     0.040 A 
ATOM     82  F   UNL A   1      48.805  26.597  27.246  1.00  0.00    -0.206 F 
ATOM     83  C   UNL A   1      49.887  26.796  23.797  1.00  0.00     0.006 A 
ENDBRANCH  59  76
ENDBRANCH  33  34
ENDBRANCH  26  28
ENDBRANCH  25  26
ENDBRANCH  24  25
ENDBRANCH  23  24
ENDBRANCH  22  23
ENDBRANCH  21  22
ENDBRANCH   1  21
TORSDOF 21
ENDMDL
MODEL 2
REMARK VINA RESULT:      -8.8      2.376      7.221
REMARK SMILES CCC(C)(C)[C@@H]([NH3+])C(C)(C)C(=O)OCCOCCOCCOC(=O)c1ccc(-c2c3nc(c(-c4c(F)cccc4F)c4ccc([nH]4)c(-c4c(F)cccc4F)c4nc(c(-c5c(F)cccc5F)c5ccc2[nH]5)C=C4)C=C3)cc1
REMARK SMILES IDX 17 1 16 2 15 3 14 4 13 5 11 6 12 7 8 8 9 9 10 10 6 11 3 12
REMARK SMILES IDX 4 13 5 14 2 15 1 16 7 17 18 21 19 22 20 23 21 24 22 25 23 26
REMARK SMILES IDX 24 27 25 28 26 29 78 30 27 31 77 32 28 33 29 34 30 35 71 36
REMARK SMILES IDX 31 37 76 38 70 39 72 40 32 41 75 42 69 43 68 44 33 46 59 47
REMARK SMILES IDX 42 48 58 49 43 50 46 51 57 52 73 53 44 54 45 55 56 57 74 58
REMARK SMILES IDX 47 59 34 60 35 61 40 62 36 63 37 64 39 65 41 66 38 67 60 68
REMARK SMILES IDX 61 69 66 70 62 71 63 72 65 73 67 74 64 75 48 76 49 77 54 78
REMARK SMILES IDX 50 79 51 80 53 81 55 82 52 83
REMARK H PARENT 7 18 7 19 7 20 72 45 46 56
REMARK Flexibility Score: inf
ROOT
ATOM      1  C   UNL A   1      33.534  32.958  27.621  1.00  0.00     0.188 C 
ENDROOT
BRANCH   1   2
ATOM      2  O   UNL A   1      33.644  31.687  28.236  1.00  0.00    -0.376 OA
BRANCH   2   3
ATOM      3  C   UNL A   1      34.704  30.851  27.812  1.00  0.00     0.202 C 
BRANCH   3   4
ATOM      4  C   UNL A   1      34.457  29.800  26.696  1.00  0.00     0.261 C 
BRANCH   4   5
ATOM      5  O   UNL A   1      33.899  28.498  26.990  1.00  0.00    -0.463 OA
BRANCH   5   6
ATOM      6  C   UNL A   1      32.558  28.408  26.818  1.00  0.00     0.317 C 
ATOM      7  O   UNL A   1      31.813  28.917  27.627  1.00  0.00    -0.251 OA
BRANCH   6   8
ATOM      8  C   UNL A   1      32.090  27.579  25.613  1.00  0.00     0.114 C 
ATOM      9  C   UNL A   1      30.971  26.659  26.125  1.00  0.00     0.030 C 
ATOM     10  C   UNL A   1      33.189  26.590  25.101  1.00  0.00     0.030 C 
BRANCH   8  11
ATOM     11  C   UNL A   1      31.624  28.535  24.411  1.00  0.00     0.203 C 
BRANCH  11  12
ATOM     12  C   UNL A   1      30.540  28.097  23.277  1.00  0.00     0.017 C 
ATOM     13  C   UNL A   1      30.983  26.799  22.574  1.00  0.00     0.017 C 
ATOM     14  C   UNL A   1      30.548  29.186  22.150  1.00  0.00     0.017 C 
BRANCH  12  15
ATOM     15  C   UNL A   1      29.030  27.999  23.682  1.00  0.00     0.009 C 
ATOM     16  C   UNL A   1      28.432  26.599  23.871  1.00  0.00     0.005 C 
ENDBRANCH  12  15
ENDBRANCH  11  12
BRANCH  11  17
ATOM     17  N   UNL A   1      31.325  29.887  24.962  1.00  0.00    -0.354 N 
ATOM     18  H   UNL A   1      31.235  29.828  25.976  1.00  0.00     0.344 HD
ATOM     19  H   UNL A   1      30.452  30.231  24.563  1.00  0.00     0.344 HD
ATOM     20  H   UNL A   1      32.083  30.526  24.725  1.00  0.00     0.344 HD
ENDBRANCH  11  17
ENDBRANCH   8  11
ENDBRANCH   6   8
ENDBRANCH   5   6
ENDBRANCH   4   5
ENDBRANCH   3   4
ENDBRANCH   2   3
ENDBRANCH   1   2
BRANCH   1  21
ATOM     21  C   UNL A   1      33.940  34.094  28.566  1.00  0.00     0.188 C 
BRANCH  21  22
ATOM     22  O   UNL A   1      33.142  34.406  29.699  1.00  0.00    -0.376 OA
BRANCH  22  23
ATOM     23  C   UNL A   1      33.649  35.352  30.625  1.00  0.00     0.202 C 
BRANCH  23  24
ATOM     24  C   UNL A   1      34.491  34.845  31.810  1.00  0.00     0.261 C 
BRANCH  24  25
ATOM     25  O   UNL A   1      35.636  34.027  31.486  1.00  0.00    -0.460 OA
BRANCH  25  26
ATOM     26  C   UNL A   1      35.737  32.847  32.145  1.00  0.00     0.338 C 
ATOM     27  O   UNL A   1      35.038  32.463  33.076  1.00  0.00    -0.246 OA
BRANCH  26  28
ATOM     28  C   UNL A   1      36.712  31.953  31.472  1.00  0.00     0.060 A 
ATOM     29  C   UNL A   1      37.517  31.115  32.263  1.00  0.00     0.016 A 
ATOM     30  C   UNL A   1      36.907  31.995  30.091  1.00  0.00     0.016 A 
ATOM     31  C   UNL A   1      38.517  30.329  31.688  1.00  0.00     0.010 A 
ATOM     32  C   UNL A   1      37.943  31.238  29.519  1.00  0.00     0.010 A 
ATOM     33  C   UNL A   1      38.772  30.425  30.317  1.00  0.00    -0.014 A 
BRANCH  33  34
ATOM     34  C   UNL A   1      40.038  29.869  29.767  1.00  0.00     0.031 A 
ATOM     35  C   UNL A   1      41.212  30.799  29.609  1.00  0.00     0.074 A 
ATOM     36  C   UNL A   1      40.173  28.570  29.446  1.00  0.00     0.049 A 
ATOM     37  N   UNL A   1      42.376  30.588  29.048  1.00  0.00    -0.248 NA
ATOM     38  C   UNL A   1      41.047  32.153  30.161  1.00  0.00     0.031 C 
ATOM     39  C   UNL A   1      39.156  27.538  29.630  1.00  0.00     0.029 A 
ATOM     40  N   UNL A   1      41.233  27.903  28.876  1.00  0.00    -0.354 N 
ATOM     41  C   UNL A   1      43.071  31.786  29.162  1.00  0.00     0.074 A 
ATOM     42  C   UNL A   1      42.193  32.723  29.828  1.00  0.00     0.031 C 
ATOM     43  C   UNL A   1      39.632  26.371  29.156  1.00  0.00     0.029 A 
ATOM     44  C   UNL A   1      40.967  26.585  28.597  1.00  0.00     0.049 A 
ATOM     45  H   UNL A   1      42.099  28.330  28.688  1.00  0.00     0.167 HD
ATOM     46  C   UNL A   1      44.328  32.082  28.750  1.00  0.00     0.037 A 
ATOM     47  C   UNL A   1      41.701  25.670  27.930  1.00  0.00     0.037 A 
ATOM     48  C   UNL A   1      45.203  31.153  28.085  1.00  0.00     0.049 A 
ATOM     49  C   UNL A   1      43.054  26.053  27.380  1.00  0.00     0.074 A 
ATOM     50  C   UNL A   1      46.493  31.362  27.627  1.00  0.00     0.029 A 
ATOM     51  N   UNL A   1      44.878  29.841  27.779  1.00  0.00    -0.354 N 
ATOM     52  N   UNL A   1      43.701  27.189  27.480  1.00  0.00    -0.248 NA
ATOM     53  C   UNL A   1      43.777  25.022  26.617  1.00  0.00     0.031 C 
ATOM     54  C   UNL A   1      46.926  30.195  26.992  1.00  0.00     0.029 A 
ATOM     55  C   UNL A   1      45.931  29.237  27.112  1.00  0.00     0.049 A 
ATOM     56  H   UNL A   1      44.024  29.404  28.002  1.00  0.00     0.167 HD
ATOM     57  C   UNL A   1      44.916  26.997  26.828  1.00  0.00     0.074 A 
ATOM     58  C   UNL A   1      44.921  25.633  26.345  1.00  0.00     0.031 C 
ATOM     59  C   UNL A   1      45.937  27.873  26.647  1.00  0.00     0.037 A 
BRANCH  46  60
ATOM     60  C   UNL A   1      44.812  33.486  28.967  1.00  0.00     0.057 A 
ATOM     61  C   UNL A   1      44.591  34.504  28.032  1.00  0.00     0.134 A 
ATOM     62  C   UNL A   1      45.489  33.827  30.146  1.00  0.00     0.134 A 
ATOM     63  F   UNL A   1      43.963  34.240  26.875  1.00  0.00    -0.206 F 
ATOM     64  C   UNL A   1      45.049  35.805  28.246  1.00  0.00     0.040 A 
ATOM     65  C   UNL A   1      45.924  35.131  30.385  1.00  0.00     0.040 A 
ATOM     66  F   UNL A   1      45.729  32.902  31.087  1.00  0.00    -0.206 F 
ATOM     67  C   UNL A   1      45.711  36.122  29.431  1.00  0.00     0.006 A 
ENDBRANCH  46  60
BRANCH  47  68
ATOM     68  C   UNL A   1      41.166  24.302  27.699  1.00  0.00     0.057 A 
ATOM     69  C   UNL A   1      41.631  23.204  28.435  1.00  0.00     0.134 A 
ATOM     70  C   UNL A   1      40.220  24.047  26.699  1.00  0.00     0.134 A 
ATOM     71  F   UNL A   1      42.562  23.376  29.386  1.00  0.00    -0.206 F 
ATOM     72  C   UNL A   1      41.193  21.905  28.172  1.00  0.00     0.040 A 
ATOM     73  C   UNL A   1      39.749  22.758  26.445  1.00  0.00     0.040 A 
ATOM     74  F   UNL A   1      39.739  25.051  25.950  1.00  0.00    -0.206 F 
ATOM     75  C   UNL A   1      40.244  21.680  27.176  1.00  0.00     0.006 A 
ENDBRANCH  47  68
BRANCH  59  76
ATOM     76  C   UNL A   1      47.170  27.375  25.947  1.00  0.00     0.057 A 
ATOM     77  C   UNL A   1      48.188  26.690  26.622  1.00  0.00     0.134 A 
ATOM     78  C   UNL A   1      47.317  27.542  24.562  1.00  0.00     0.134 A 
ATOM     79  F   UNL A   1      48.118  26.503  27.948  1.00  0.00    -0.206 F 
ATOM     80  C   UNL A   1      49.317  26.212  25.952  1.00  0.00     0.040 A 
ATOM     81  C   UNL A   1      48.425  27.042  23.877  1.00  0.00     0.040 A 
ATOM     82  F   UNL A   1      46.375  28.178  23.849  1.00  0.00    -0.206 F 
ATOM     83  C   UNL A   1      49.434  26.381  24.573  1.00  0.00     0.006 A 
ENDBRANCH  59  76
ENDBRANCH  33  34
ENDBRANCH  26  28
ENDBRANCH  25  26
ENDBRANCH  24  25
ENDBRANCH  23  24
ENDBRANCH  22  23
ENDBRANCH  21  22
ENDBRANCH   1  21
TORSDOF 21
ENDMDL
MODEL 3
REMARK VINA RESULT:      -8.6      5.676     12.126
REMARK SMILES CCC(C)(C)[C@@H]([NH3+])C(C)(C)C(=O)OCCOCCOCCOC(=O)c1ccc(-c2c3nc(c(-c4c(F)cccc4F)c4ccc([nH]4)c(-c4c(F)cccc4F)c4nc(c(-c5c(F)cccc5F)c5ccc2[nH]5)C=C4)C=C3)cc1
REMARK SMILES IDX 17 1 16 2 15 3 14 4 13 5 11 6 12 7 8 8 9 9 10 10 6 11 3 12
REMARK SMILES IDX 4 13 5 14 2 15 1 16 7 17 18 21 19 22 20 23 21 24 22 25 23 26
REMARK SMILES IDX 24 27 25 28 26 29 78 30 27 31 77 32 28 33 29 34 30 35 71 36
REMARK SMILES IDX 31 37 76 38 70 39 72 40 32 41 75 42 69 43 68 44 33 46 59 47
REMARK SMILES IDX 42 48 58 49 43 50 46 51 57 52 73 53 44 54 45 55 56 57 74 58
REMARK SMILES IDX 47 59 34 60 35 61 40 62 36 63 37 64 39 65 41 66 38 67 60 68
REMARK SMILES IDX 61 69 66 70 62 71 63 72 65 73 67 74 64 75 48 76 49 77 54 78
REMARK SMILES IDX 50 79 51 80 53 81 55 82 52 83
REMARK H PARENT 7 18 7 19 7 20 72 45 46 56
REMARK Flexibility Score: inf
ROOT
ATOM      1  C   UNL A   1      46.013  19.219  25.381  1.00  0.00     0.188 C 
ENDROOT
BRANCH   1   2
ATOM      2  O   UNL A   1      46.695  20.335  24.836  1.00  0.00    -0.376 OA
BRANCH   2   3
ATOM      3  C   UNL A   1      45.929  21.491  24.558  1.00  0.00     0.202 C 
BRANCH   3   4
ATOM      4  C   UNL A   1      46.036  22.728  25.489  1.00  0.00     0.261 C 
BRANCH   4   5
ATOM      5  O   UNL A   1      45.642  24.048  25.045  1.00  0.00    -0.463 OA
BRANCH   5   6
ATOM      6  C   UNL A   1      46.629  24.975  25.091  1.00  0.00     0.317 C 
ATOM      7  O   UNL A   1      47.479  24.991  24.226  1.00  0.00    -0.251 OA
BRANCH   6   8
ATOM      8  C   UNL A   1      46.623  25.903  26.314  1.00  0.00     0.114 C 
ATOM      9  C   UNL A   1      48.089  26.281  26.581  1.00  0.00     0.030 C 
ATOM     10  C   UNL A   1      46.177  25.170  27.622  1.00  0.00     0.030 C 
BRANCH   8  11
ATOM     11  C   UNL A   1      45.676  27.174  26.060  1.00  0.00     0.203 C 
BRANCH  11  12
ATOM     12  C   UNL A   1      45.745  28.542  26.941  1.00  0.00     0.017 C 
ATOM     13  C   UNL A   1      45.983  28.217  28.430  1.00  0.00     0.017 C 
ATOM     14  C   UNL A   1      44.331  29.217  26.901  1.00  0.00     0.017 C 
BRANCH  12  15
ATOM     15  C   UNL A   1      46.711  29.684  26.480  1.00  0.00     0.009 C 
ATOM     16  C   UNL A   1      47.634  30.307  27.536  1.00  0.00     0.005 C 
ENDBRANCH  12  15
ENDBRANCH  11  12
BRANCH  11  17
ATOM     17  N   UNL A   1      45.648  27.466  24.598  1.00  0.00    -0.354 N 
ATOM     18  H   UNL A   1      45.022  26.809  24.133  1.00  0.00     0.344 HD
ATOM     19  H   UNL A   1      46.588  27.370  24.215  1.00  0.00     0.344 HD
ATOM     20  H   UNL A   1      45.315  28.417  24.449  1.00  0.00     0.344 HD
ENDBRANCH  11  17
ENDBRANCH   8  11
ENDBRANCH   6   8
ENDBRANCH   5   6
ENDBRANCH   4   5
ENDBRANCH   3   4
ENDBRANCH   2   3
ENDBRANCH   1   2
BRANCH   1  21
ATOM     21  C   UNL A   1      44.642  19.006  24.732  1.00  0.00     0.188 C 
BRANCH  21  22
ATOM     22  O   UNL A   1      43.577  18.429  25.474  1.00  0.00    -0.376 OA
BRANCH  22  23
ATOM     23  C   UNL A   1      43.002  19.199  26.515  1.00  0.00     0.202 C 
BRANCH  23  24
ATOM     24  C   UNL A   1      42.098  20.388  26.139  1.00  0.00     0.261 C 
BRANCH  24  25
ATOM     25  O   UNL A   1      42.466  21.675  26.677  1.00  0.00    -0.460 OA
BRANCH  25  26
ATOM     26  C   UNL A   1      42.430  22.720  25.814  1.00  0.00     0.338 C 
ATOM     27  O   UNL A   1      42.615  22.679  24.603  1.00  0.00    -0.246 OA
BRANCH  26  28
ATOM     28  C   UNL A   1      41.946  23.946  26.496  1.00  0.00     0.060 A 
ATOM     29  C   UNL A   1      42.702  25.125  26.382  1.00  0.00     0.016 A 
ATOM     30  C   UNL A   1      40.815  23.928  27.312  1.00  0.00     0.016 A 
ATOM     31  C   UNL A   1      42.344  26.278  27.083  1.00  0.00     0.010 A 
ATOM     32  C   UNL A   1      40.481  25.074  28.052  1.00  0.00     0.010 A 
ATOM     33  C   UNL A   1      41.261  26.245  27.965  1.00  0.00    -0.014 A 
BRANCH  33  34
ATOM     34  C   UNL A   1      41.090  27.340  28.958  1.00  0.00     0.031 A 
ATOM     35  C   UNL A   1      42.008  27.363  30.152  1.00  0.00     0.074 A 
ATOM     36  C   UNL A   1      40.178  28.315  28.803  1.00  0.00     0.049 A 
ATOM     37  N   UNL A   1      41.986  28.136  31.209  1.00  0.00    -0.248 NA
ATOM     38  C   UNL A   1      43.101  26.379  30.151  1.00  0.00     0.031 C 
ATOM     39  C   UNL A   1      39.287  28.473  27.657  1.00  0.00     0.029 A 
ATOM     40  N   UNL A   1      39.845  29.357  29.638  1.00  0.00    -0.354 N 
ATOM     41  C   UNL A   1      43.045  27.717  32.004  1.00  0.00     0.074 A 
ATOM     42  C   UNL A   1      43.679  26.612  31.318  1.00  0.00     0.031 C 
ATOM     43  C   UNL A   1      38.487  29.535  27.873  1.00  0.00     0.029 A 
ATOM     44  C   UNL A   1      38.781  30.102  29.189  1.00  0.00     0.049 A 
ATOM     45  H   UNL A   1      40.322  29.551  30.476  1.00  0.00     0.167 HD
ATOM     46  C   UNL A   1      43.456  28.207  33.199  1.00  0.00     0.037 A 
ATOM     47  C   UNL A   1      38.098  31.098  29.791  1.00  0.00     0.037 A 
ATOM     48  C   UNL A   1      42.827  29.304  33.886  1.00  0.00     0.049 A 
ATOM     49  C   UNL A   1      38.503  31.554  31.172  1.00  0.00     0.074 A 
ATOM     50  C   UNL A   1      43.170  29.868  35.103  1.00  0.00     0.029 A 
ATOM     51  N   UNL A   1      41.723  30.000  33.419  1.00  0.00    -0.354 N 
ATOM     52  N   UNL A   1      39.497  31.148  31.924  1.00  0.00    -0.248 NA
ATOM     53  C   UNL A   1      37.683  32.608  31.791  1.00  0.00     0.031 C 
ATOM     54  C   UNL A   1      42.238  30.867  35.400  1.00  0.00     0.029 A 
ATOM     55  C   UNL A   1      41.354  30.969  34.338  1.00  0.00     0.049 A 
ATOM     56  H   UNL A   1      41.269  29.829  32.563  1.00  0.00     0.167 HD
ATOM     57  C   UNL A   1      39.443  31.918  33.082  1.00  0.00     0.074 A 
ATOM     58  C   UNL A   1      38.325  32.823  32.929  1.00  0.00     0.031 C 
ATOM     59  C   UNL A   1      40.249  31.879  34.173  1.00  0.00     0.037 A 
BRANCH  46  60
ATOM     60  C   UNL A   1      44.617  27.524  33.861  1.00  0.00     0.057 A 
ATOM     61  C   UNL A   1      45.932  27.982  33.718  1.00  0.00     0.134 A 
ATOM     62  C   UNL A   1      44.409  26.403  34.676  1.00  0.00     0.134 A 
ATOM     63  F   UNL A   1      46.203  29.041  32.939  1.00  0.00    -0.206 F 
ATOM     64  C   UNL A   1      47.003  27.335  34.338  1.00  0.00     0.040 A 
ATOM     65  C   UNL A   1      45.467  25.766  35.326  1.00  0.00     0.040 A 
ATOM     66  F   UNL A   1      43.173  25.914  34.862  1.00  0.00    -0.206 F 
ATOM     67  C   UNL A   1      46.769  26.228  35.152  1.00  0.00     0.006 A 
ENDBRANCH  46  60
BRANCH  47  68
ATOM     68  C   UNL A   1      36.927  31.719  29.118  1.00  0.00     0.057 A 
ATOM     69  C   UNL A   1      36.994  33.014  28.588  1.00  0.00     0.134 A 
ATOM     70  C   UNL A   1      35.696  31.057  29.039  1.00  0.00     0.134 A 
ATOM     71  F   UNL A   1      38.135  33.715  28.661  1.00  0.00    -0.206 F 
ATOM     72  C   UNL A   1      35.877  33.635  28.025  1.00  0.00     0.040 A 
ATOM     73  C   UNL A   1      34.578  31.653  28.451  1.00  0.00     0.040 A 
ATOM     74  F   UNL A   1      35.559  29.818  29.535  1.00  0.00    -0.206 F 
ATOM     75  C   UNL A   1      34.665  32.951  27.951  1.00  0.00     0.006 A 
ENDBRANCH  47  68
BRANCH  59  76
ATOM     76  C   UNL A   1      39.993  32.877  35.267  1.00  0.00     0.057 A 
ATOM     77  C   UNL A   1      39.130  32.608  36.338  1.00  0.00     0.134 A 
ATOM     78  C   UNL A   1      40.661  34.111  35.275  1.00  0.00     0.134 A 
ATOM     79  F   UNL A   1      38.451  31.452  36.389  1.00  0.00    -0.206 F 
ATOM     80  C   UNL A   1      38.921  33.536  37.360  1.00  0.00     0.040 A 
ATOM     81  C   UNL A   1      40.484  35.034  36.307  1.00  0.00     0.040 A 
ATOM     82  F   UNL A   1      41.511  34.431  34.288  1.00  0.00    -0.206 F 
ATOM     83  C   UNL A   1      39.606  34.751  37.351  1.00  0.00     0.006 A 
ENDBRANCH  59  76
ENDBRANCH  33  34
ENDBRANCH  26  28
ENDBRANCH  25  26
ENDBRANCH  24  25
ENDBRANCH  23  24
ENDBRANCH  22  23
ENDBRANCH  21  22
ENDBRANCH   1  21
TORSDOF 21
ENDMDL
