MODEL 1
REMARK VINA RESULT:     -11.8      0.000      0.000
REMARK SMILES O=C(OCCOCCOCCOC(=O)c1nnn(-c2cccc(Br)c2)c1[C@@H]1COc2ccccc2O1)c1ccc(-c2c3nc(c(-c4c(F)cccc4F)c4ccc([nH]4)c(-c4c(F)cccc4F)c4nc(c(-c5c(F)cccc5F)c5ccc2[nH]5)C=C4)C=C3)cc1
REMARK SMILES IDX 7 1 6 2 5 3 4 4 3 5 2 6 1 7 37 8 38 9 90 10 39 11 89 12
REMARK SMILES IDX 40 13 41 14 42 15 83 16 43 17 88 18 82 19 84 20 44 21 87 22
REMARK SMILES IDX 81 23 80 24 45 26 71 27 54 28 70 29 55 30 58 31 69 32 85 33
REMARK SMILES IDX 56 34 57 35 68 37 86 38 59 39 46 40 47 41 52 42 48 43 49 44
REMARK SMILES IDX 51 45 53 46 50 47 72 48 73 49 78 50 74 51 75 52 77 53 79 54
REMARK SMILES IDX 76 55 60 56 61 57 66 58 62 59 63 60 65 61 67 62 64 63 8 64
REMARK SMILES IDX 9 65 10 66 11 67 12 68 13 69 14 70 15 71 16 72 26 73 17 74
REMARK SMILES IDX 18 75 27 76 28 77 36 78 29 79 35 80 30 81 34 82 31 83 33 84
REMARK SMILES IDX 32 85 19 86 20 87 25 88 21 89 23 90 22 91 24 92
REMARK H PARENT 84 25 58 36
REMARK Flexibility Score: inf
ROOT
ATOM      1  C   UNL A   1      34.755  34.048  27.990  1.00  0.00     0.188 C 
ENDROOT
BRANCH   1   2
ATOM      2  O   UNL A   1      34.175  34.691  29.125  1.00  0.00    -0.376 OA
BRANCH   2   3
ATOM      3  C   UNL A   1      33.016  35.490  28.996  1.00  0.00     0.202 C 
BRANCH   3   4
ATOM      4  C   UNL A   1      33.047  36.684  29.947  1.00  0.00     0.261 C 
BRANCH   4   5
ATOM      5  O   UNL A   1      32.314  36.433  31.156  1.00  0.00    -0.460 OA
BRANCH   5   6
ATOM      6  C   UNL A   1      32.537  35.571  32.170  1.00  0.00     0.338 C 
ATOM      7  O   UNL A   1      31.561  35.214  32.833  1.00  0.00    -0.246 OA
BRANCH   6   8
ATOM      8  C   UNL A   1      33.860  34.987  32.551  1.00  0.00     0.060 A 
ATOM      9  C   UNL A   1      35.019  35.686  32.895  1.00  0.00     0.016 A 
ATOM     10  C   UNL A   1      33.937  33.580  32.485  1.00  0.00     0.016 A 
ATOM     11  C   UNL A   1      36.247  35.040  32.959  1.00  0.00     0.010 A 
ATOM     12  C   UNL A   1      35.154  32.922  32.590  1.00  0.00     0.010 A 
ATOM     13  C   UNL A   1      36.318  33.671  32.723  1.00  0.00    -0.014 A 
BRANCH  13  14
ATOM     14  C   UNL A   1      37.638  33.083  32.537  1.00  0.00     0.031 A 
ATOM     15  C   UNL A   1      38.591  33.147  33.677  1.00  0.00     0.074 A 
ATOM     16  C   UNL A   1      37.948  32.433  31.399  1.00  0.00     0.049 A 
ATOM     17  N   UNL A   1      39.809  33.592  33.691  1.00  0.00    -0.248 NA
ATOM     18  C   UNL A   1      38.111  32.671  34.984  1.00  0.00     0.031 C 
ATOM     19  C   UNL A   1      37.045  32.058  30.304  1.00  0.00     0.029 A 
ATOM     20  N   UNL A   1      39.129  31.861  31.036  1.00  0.00    -0.354 N 
ATOM     21  C   UNL A   1      40.309  33.300  34.958  1.00  0.00     0.074 A 
ATOM     22  C   UNL A   1      39.199  32.815  35.739  1.00  0.00     0.031 C 
ATOM     23  C   UNL A   1      37.649  31.132  29.531  1.00  0.00     0.029 A 
ATOM     24  C   UNL A   1      39.012  30.953  29.996  1.00  0.00     0.049 A 
ATOM     25  H   UNL A   1      39.986  32.073  31.471  1.00  0.00     0.167 HD
ATOM     26  C   UNL A   1      41.639  33.305  35.243  1.00  0.00     0.037 A 
ATOM     27  C   UNL A   1      39.942  30.055  29.596  1.00  0.00     0.037 A 
ATOM     28  C   UNL A   1      42.404  34.085  34.313  1.00  0.00     0.049 A 
ATOM     29  C   UNL A   1      41.259  30.493  30.113  1.00  0.00     0.074 A 
ATOM     30  C   UNL A   1      42.406  35.412  33.930  1.00  0.00     0.029 A 
ATOM     31  N   UNL A   1      43.177  33.437  33.383  1.00  0.00    -0.354 N 
ATOM     32  N   UNL A   1      41.911  31.536  29.684  1.00  0.00    -0.248 NA
ATOM     33  C   UNL A   1      41.691  29.975  31.402  1.00  0.00     0.031 C 
ATOM     34  C   UNL A   1      42.753  35.400  32.548  1.00  0.00     0.029 A 
ATOM     35  C   UNL A   1      42.954  34.069  32.186  1.00  0.00     0.049 A 
ATOM     36  H   UNL A   1      43.773  32.671  33.544  1.00  0.00     0.167 HD
ATOM     37  C   UNL A   1      42.541  32.049  30.809  1.00  0.00     0.074 A 
ATOM     38  C   UNL A   1      42.464  30.985  31.804  1.00  0.00     0.031 C 
ATOM     39  C   UNL A   1      42.819  33.380  30.924  1.00  0.00     0.037 A 
BRANCH  26  40
ATOM     40  C   UNL A   1      42.274  32.356  36.223  1.00  0.00     0.057 A 
ATOM     41  C   UNL A   1      43.031  32.845  37.301  1.00  0.00     0.134 A 
ATOM     42  C   UNL A   1      42.384  30.972  35.985  1.00  0.00     0.134 A 
ATOM     43  F   UNL A   1      43.045  34.153  37.596  1.00  0.00    -0.206 F 
ATOM     44  C   UNL A   1      43.856  32.015  38.071  1.00  0.00     0.040 A 
ATOM     45  C   UNL A   1      43.165  30.126  36.776  1.00  0.00     0.040 A 
ATOM     46  F   UNL A   1      41.814  30.391  34.919  1.00  0.00    -0.206 F 
ATOM     47  C   UNL A   1      43.924  30.650  37.811  1.00  0.00     0.006 A 
ENDBRANCH  26  40
BRANCH  27  48
ATOM     48  C   UNL A   1      39.702  28.708  29.039  1.00  0.00     0.057 A 
ATOM     49  C   UNL A   1      40.095  28.378  27.737  1.00  0.00     0.134 A 
ATOM     50  C   UNL A   1      39.291  27.636  29.853  1.00  0.00     0.134 A 
ATOM     51  F   UNL A   1      40.551  29.323  26.903  1.00  0.00    -0.206 F 
ATOM     52  C   UNL A   1      40.084  27.055  27.273  1.00  0.00     0.040 A 
ATOM     53  C   UNL A   1      39.261  26.316  29.398  1.00  0.00     0.040 A 
ATOM     54  F   UNL A   1      38.984  27.822  31.145  1.00  0.00    -0.206 F 
ATOM     55  C   UNL A   1      39.669  26.020  28.106  1.00  0.00     0.006 A 
ENDBRANCH  27  48
BRANCH  39  56
ATOM     56  C   UNL A   1      42.668  34.237  29.697  1.00  0.00     0.057 A 
ATOM     57  C   UNL A   1      41.469  34.874  29.342  1.00  0.00     0.134 A 
ATOM     58  C   UNL A   1      43.800  34.552  28.939  1.00  0.00     0.134 A 
ATOM     59  F   UNL A   1      40.361  34.722  30.078  1.00  0.00    -0.206 F 
ATOM     60  C   UNL A   1      41.390  35.741  28.249  1.00  0.00     0.040 A 
ATOM     61  C   UNL A   1      43.742  35.444  27.864  1.00  0.00     0.040 A 
ATOM     62  F   UNL A   1      44.997  34.036  29.261  1.00  0.00    -0.206 F 
ATOM     63  C   UNL A   1      42.531  36.032  27.508  1.00  0.00     0.006 A 
ENDBRANCH  39  56
ENDBRANCH  13  14
ENDBRANCH   6   8
ENDBRANCH   5   6
ENDBRANCH   4   5
ENDBRANCH   3   4
ENDBRANCH   2   3
ENDBRANCH   1   2
BRANCH   1  64
ATOM     64  C   UNL A   1      34.757  32.517  27.790  1.00  0.00     0.188 C 
BRANCH  64  65
ATOM     65  O   UNL A   1      33.599  31.776  28.162  1.00  0.00    -0.376 OA
BRANCH  65  66
ATOM     66  C   UNL A   1      33.102  30.814  27.236  1.00  0.00     0.202 C 
BRANCH  66  67
ATOM     67  C   UNL A   1      31.890  31.279  26.442  1.00  0.00     0.261 C 
BRANCH  67  68
ATOM     68  O   UNL A   1      31.318  30.120  25.822  1.00  0.00    -0.458 OA
BRANCH  68  69
ATOM     69  C   UNL A   1      32.195  29.219  25.322  1.00  0.00     0.361 C 
ATOM     70  O   UNL A   1      33.165  29.492  24.632  1.00  0.00    -0.244 OA
BRANCH  69  71
ATOM     71  C   UNL A   1      31.860  27.871  25.723  1.00  0.00     0.198 A 
ATOM     72  N   UNL A   1      31.846  27.489  27.046  1.00  0.00    -0.122 NA
ATOM     73  C   UNL A   1      31.494  26.789  24.943  1.00  0.00     0.123 A 
ATOM     74  N   UNL A   1      31.557  26.195  27.103  1.00  0.00    -0.061 NA
ATOM     75  N   UNL A   1      31.561  25.736  25.836  1.00  0.00    -0.213 N 
BRANCH  73  76
ATOM     76  C   UNL A   1      31.039  26.581  23.533  1.00  0.00     0.262 C 
ATOM     77  C   UNL A   1      31.751  27.354  22.430  1.00  0.00     0.281 C 
ATOM     78  O   UNL A   1      29.618  26.738  23.542  1.00  0.00    -0.477 OA
ATOM     79  O   UNL A   1      31.351  28.716  22.304  1.00  0.00    -0.485 OA
ATOM     80  C   UNL A   1      29.180  27.944  23.082  1.00  0.00     0.162 A 
ATOM     81  C   UNL A   1      30.002  28.878  22.455  1.00  0.00     0.161 A 
ATOM     82  C   UNL A   1      27.831  28.233  23.293  1.00  0.00     0.050 A 
ATOM     83  C   UNL A   1      29.470  30.091  22.018  1.00  0.00     0.050 A 
ATOM     84  C   UNL A   1      27.304  29.456  22.878  1.00  0.00     0.004 A 
ATOM     85  C   UNL A   1      28.122  30.381  22.230  1.00  0.00     0.004 A 
ENDBRANCH  73  76
BRANCH  75  86
ATOM     86  C   UNL A   1      31.842  24.388  25.539  1.00  0.00     0.068 A 
ATOM     87  C   UNL A   1      30.826  23.436  25.729  1.00  0.00     0.028 A 
ATOM     88  C   UNL A   1      33.116  24.008  25.117  1.00  0.00     0.044 A 
ATOM     89  C   UNL A   1      31.101  22.085  25.554  1.00  0.00     0.003 A 
ATOM     90  C   UNL A   1      33.385  22.646  24.981  1.00  0.00     0.020 A 
ATOM     91  C   UNL A   1      32.390  21.687  25.203  1.00  0.00     0.016 A 
ATOM     92  Br  UNL A   1      35.134  22.076  24.545  1.00  0.00    -0.051 Br
ENDBRANCH  75  86
ENDBRANCH  69  71
ENDBRANCH  68  69
ENDBRANCH  67  68
ENDBRANCH  66  67
ENDBRANCH  65  66
ENDBRANCH  64  65
ENDBRANCH   1  64
TORSDOF 19
ENDMDL
MODEL 2
REMARK VINA RESULT:     -11.6      1.837      2.520
REMARK SMILES O=C(OCCOCCOCCOC(=O)c1nnn(-c2cccc(Br)c2)c1[C@@H]1COc2ccccc2O1)c1ccc(-c2c3nc(c(-c4c(F)cccc4F)c4ccc([nH]4)c(-c4c(F)cccc4F)c4nc(c(-c5c(F)cccc5F)c5ccc2[nH]5)C=C4)C=C3)cc1
REMARK SMILES IDX 7 1 6 2 5 3 4 4 3 5 2 6 1 7 37 8 38 9 90 10 39 11 89 12
REMARK SMILES IDX 40 13 41 14 42 15 83 16 43 17 88 18 82 19 84 20 44 21 87 22
REMARK SMILES IDX 81 23 80 24 45 26 71 27 54 28 70 29 55 30 58 31 69 32 85 33
REMARK SMILES IDX 56 34 57 35 68 37 86 38 59 39 46 40 47 41 52 42 48 43 49 44
REMARK SMILES IDX 51 45 53 46 50 47 72 48 73 49 78 50 74 51 75 52 77 53 79 54
REMARK SMILES IDX 76 55 60 56 61 57 66 58 62 59 63 60 65 61 67 62 64 63 8 64
REMARK SMILES IDX 9 65 10 66 11 67 12 68 13 69 14 70 15 71 16 72 26 73 17 74
REMARK SMILES IDX 18 75 27 76 28 77 36 78 29 79 35 80 30 81 34 82 31 83 33 84
REMARK SMILES IDX 32 85 19 86 20 87 25 88 21 89 23 90 22 91 24 92
REMARK H PARENT 84 25 58 36
REMARK Flexibility Score: inf
ROOT
ATOM      1  C   UNL A   1      34.152  31.991  28.009  1.00  0.00     0.188 C 
ENDROOT
BRANCH   1   2
ATOM      2  O   UNL A   1      35.073  33.045  27.729  1.00  0.00    -0.376 OA
BRANCH   2   3
ATOM      3  C   UNL A   1      34.795  34.376  28.118  1.00  0.00     0.202 C 
BRANCH   3   4
ATOM      4  C   UNL A   1      33.429  34.493  28.790  1.00  0.00     0.261 C 
BRANCH   4   5
ATOM      5  O   UNL A   1      33.504  35.164  30.057  1.00  0.00    -0.460 OA
BRANCH   5   6
ATOM      6  C   UNL A   1      33.786  34.702  31.294  1.00  0.00     0.338 C 
ATOM      7  O   UNL A   1      32.946  34.900  32.175  1.00  0.00    -0.246 OA
BRANCH   6   8
ATOM      8  C   UNL A   1      35.016  33.950  31.692  1.00  0.00     0.060 A 
ATOM      9  C   UNL A   1      36.245  34.492  32.073  1.00  0.00     0.016 A 
ATOM     10  C   UNL A   1      34.917  32.547  31.599  1.00  0.00     0.016 A 
ATOM     11  C   UNL A   1      37.380  33.696  32.152  1.00  0.00     0.010 A 
ATOM     12  C   UNL A   1      36.039  31.738  31.718  1.00  0.00     0.010 A 
ATOM     13  C   UNL A   1      37.284  32.333  31.890  1.00  0.00    -0.014 A 
BRANCH  13  14
ATOM     14  C   UNL A   1      38.524  31.587  31.721  1.00  0.00     0.031 A 
ATOM     15  C   UNL A   1      39.355  31.340  32.930  1.00  0.00     0.074 A 
ATOM     16  C   UNL A   1      38.858  31.069  30.523  1.00  0.00     0.049 A 
ATOM     17  N   UNL A   1      40.614  31.591  33.112  1.00  0.00    -0.248 NA
ATOM     18  C   UNL A   1      38.683  30.758  34.102  1.00  0.00     0.031 C 
ATOM     19  C   UNL A   1      38.030  30.996  29.313  1.00  0.00     0.029 A 
ATOM     20  N   UNL A   1      39.981  30.385  30.171  1.00  0.00    -0.354 N 
ATOM     21  C   UNL A   1      40.937  31.047  34.353  1.00  0.00     0.074 A 
ATOM     22  C   UNL A   1      39.697  30.626  34.955  1.00  0.00     0.031 C 
ATOM     23  C   UNL A   1      38.578  30.112  28.455  1.00  0.00     0.029 A 
ATOM     24  C   UNL A   1      39.849  29.665  28.994  1.00  0.00     0.049 A 
ATOM     25  H   UNL A   1      40.810  30.400  30.702  1.00  0.00     0.167 HD
ATOM     26  C   UNL A   1      42.218  30.811  34.742  1.00  0.00     0.037 A 
ATOM     27  C   UNL A   1      40.685  28.706  28.533  1.00  0.00     0.037 A 
ATOM     28  C   UNL A   1      43.174  31.593  34.012  1.00  0.00     0.049 A 
ATOM     29  C   UNL A   1      41.988  28.861  29.218  1.00  0.00     0.074 A 
ATOM     30  C   UNL A   1      43.396  32.947  33.845  1.00  0.00     0.029 A 
ATOM     31  N   UNL A   1      43.943  30.979  33.057  1.00  0.00    -0.354 N 
ATOM     32  N   UNL A   1      42.818  29.845  29.014  1.00  0.00    -0.248 NA
ATOM     33  C   UNL A   1      42.211  28.103  30.439  1.00  0.00     0.031 C 
ATOM     34  C   UNL A   1      43.878  33.083  32.511  1.00  0.00     0.029 A 
ATOM     35  C   UNL A   1      43.933  31.803  31.960  1.00  0.00     0.049 A 
ATOM     36  H   UNL A   1      44.410  30.117  33.142  1.00  0.00     0.167 HD
ATOM     37  C   UNL A   1      43.392  30.089  30.253  1.00  0.00     0.074 A 
ATOM     38  C   UNL A   1      43.070  28.916  31.057  1.00  0.00     0.031 C 
ATOM     39  C   UNL A   1      43.835  31.333  30.599  1.00  0.00     0.037 A 
BRANCH  26  40
ATOM     40  C   UNL A   1      42.615  29.646  35.608  1.00  0.00     0.057 A 
ATOM     41  C   UNL A   1      43.535  29.816  36.655  1.00  0.00     0.134 A 
ATOM     42  C   UNL A   1      42.319  28.309  35.273  1.00  0.00     0.134 A 
ATOM     43  F   UNL A   1      43.931  31.041  37.033  1.00  0.00    -0.206 F 
ATOM     44  C   UNL A   1      44.135  28.730  37.306  1.00  0.00     0.040 A 
ATOM     45  C   UNL A   1      42.874  27.219  35.946  1.00  0.00     0.040 A 
ATOM     46  F   UNL A   1      41.553  27.998  34.217  1.00  0.00    -0.206 F 
ATOM     47  C   UNL A   1      43.804  27.426  36.953  1.00  0.00     0.006 A 
ENDBRANCH  26  40
BRANCH  27  48
ATOM     48  C   UNL A   1      40.322  27.504  27.753  1.00  0.00     0.057 A 
ATOM     49  C   UNL A   1      40.925  27.228  26.521  1.00  0.00     0.134 A 
ATOM     50  C   UNL A   1      39.543  26.472  28.308  1.00  0.00     0.134 A 
ATOM     51  F   UNL A   1      41.727  28.130  25.937  1.00  0.00    -0.206 F 
ATOM     52  C   UNL A   1      40.765  25.992  25.879  1.00  0.00     0.040 A 
ATOM     53  C   UNL A   1      39.364  25.242  27.672  1.00  0.00     0.040 A 
ATOM     54  F   UNL A   1      38.997  26.591  29.527  1.00  0.00    -0.206 F 
ATOM     55  C   UNL A   1      39.986  24.994  26.456  1.00  0.00     0.006 A 
ENDBRANCH  27  48
BRANCH  39  56
ATOM     56  C   UNL A   1      43.929  32.371  29.515  1.00  0.00     0.057 A 
ATOM     57  C   UNL A   1      42.899  33.278  29.222  1.00  0.00     0.134 A 
ATOM     58  C   UNL A   1      45.147  32.562  28.853  1.00  0.00     0.134 A 
ATOM     59  F   UNL A   1      41.737  33.243  29.886  1.00  0.00    -0.206 F 
ATOM     60  C   UNL A   1      43.057  34.292  28.274  1.00  0.00     0.040 A 
ATOM     61  C   UNL A   1      45.329  33.595  27.928  1.00  0.00     0.040 A 
ATOM     62  F   UNL A   1      46.200  31.778  29.133  1.00  0.00    -0.206 F 
ATOM     63  C   UNL A   1      44.277  34.456  27.626  1.00  0.00     0.006 A 
ENDBRANCH  39  56
ENDBRANCH  13  14
ENDBRANCH   6   8
ENDBRANCH   5   6
ENDBRANCH   4   5
ENDBRANCH   3   4
ENDBRANCH   2   3
ENDBRANCH   1   2
BRANCH   1  64
ATOM     64  C   UNL A   1      34.184  30.623  27.292  1.00  0.00     0.188 C 
BRANCH  64  65
ATOM     65  O   UNL A   1      33.277  30.391  26.219  1.00  0.00    -0.376 OA
BRANCH  65  66
ATOM     66  C   UNL A   1      32.460  29.225  26.284  1.00  0.00     0.202 C 
BRANCH  66  67
ATOM     67  C   UNL A   1      33.026  28.113  27.156  1.00  0.00     0.261 C 
BRANCH  67  68
ATOM     68  O   UNL A   1      32.871  26.885  26.432  1.00  0.00    -0.458 OA
BRANCH  68  69
ATOM     69  C   UNL A   1      31.651  26.305  26.500  1.00  0.00     0.361 C 
ATOM     70  O   UNL A   1      30.592  26.906  26.591  1.00  0.00    -0.244 OA
BRANCH  69  71
ATOM     71  C   UNL A   1      31.742  24.863  26.428  1.00  0.00     0.198 A 
ATOM     72  N   UNL A   1      31.561  24.068  27.537  1.00  0.00    -0.122 NA
ATOM     73  C   UNL A   1      31.982  24.054  25.332  1.00  0.00     0.123 A 
ATOM     74  N   UNL A   1      31.755  22.804  27.179  1.00  0.00    -0.061 NA
ATOM     75  N   UNL A   1      32.216  22.821  25.913  1.00  0.00    -0.213 N 
BRANCH  73  76
ATOM     76  C   UNL A   1      31.972  24.219  23.846  1.00  0.00     0.262 C 
ATOM     77  C   UNL A   1      33.214  24.803  23.182  1.00  0.00     0.281 C 
ATOM     78  O   UNL A   1      30.756  24.899  23.525  1.00  0.00    -0.477 OA
ATOM     79  O   UNL A   1      33.335  26.219  23.289  1.00  0.00    -0.485 OA
ATOM     80  C   UNL A   1      30.903  26.231  23.272  1.00  0.00     0.162 A 
ATOM     81  C   UNL A   1      32.138  26.857  23.121  1.00  0.00     0.161 A 
ATOM     82  C   UNL A   1      29.727  26.977  23.190  1.00  0.00     0.050 A 
ATOM     83  C   UNL A   1      32.196  28.227  22.866  1.00  0.00     0.050 A 
ATOM     84  C   UNL A   1      29.786  28.351  22.959  1.00  0.00     0.004 A 
ATOM     85  C   UNL A   1      31.021  28.976  22.786  1.00  0.00     0.004 A 
ENDBRANCH  73  76
BRANCH  75  86
ATOM     86  C   UNL A   1      33.025  21.784  25.409  1.00  0.00     0.068 A 
ATOM     87  C   UNL A   1      32.413  20.570  25.057  1.00  0.00     0.028 A 
ATOM     88  C   UNL A   1      34.406  21.950  25.311  1.00  0.00     0.044 A 
ATOM     89  C   UNL A   1      33.193  19.489  24.663  1.00  0.00     0.003 A 
ATOM     90  C   UNL A   1      35.177  20.845  24.947  1.00  0.00     0.020 A 
ATOM     91  C   UNL A   1      34.580  19.620  24.631  1.00  0.00     0.016 A 
ATOM     92  Br  UNL A   1      37.063  20.983  24.934  1.00  0.00    -0.051 Br
ENDBRANCH  75  86
ENDBRANCH  69  71
ENDBRANCH  68  69
ENDBRANCH  67  68
ENDBRANCH  66  67
ENDBRANCH  65  66
ENDBRANCH  64  65
ENDBRANCH   1  64
TORSDOF 19
ENDMDL
MODEL 3
REMARK VINA RESULT:     -11.4      3.842      6.172
REMARK SMILES O=C(OCCOCCOCCOC(=O)c1nnn(-c2cccc(Br)c2)c1[C@@H]1COc2ccccc2O1)c1ccc(-c2c3nc(c(-c4c(F)cccc4F)c4ccc([nH]4)c(-c4c(F)cccc4F)c4nc(c(-c5c(F)cccc5F)c5ccc2[nH]5)C=C4)C=C3)cc1
REMARK SMILES IDX 7 1 6 2 5 3 4 4 3 5 2 6 1 7 37 8 38 9 90 10 39 11 89 12
REMARK SMILES IDX 40 13 41 14 42 15 83 16 43 17 88 18 82 19 84 20 44 21 87 22
REMARK SMILES IDX 81 23 80 24 45 26 71 27 54 28 70 29 55 30 58 31 69 32 85 33
REMARK SMILES IDX 56 34 57 35 68 37 86 38 59 39 46 40 47 41 52 42 48 43 49 44
REMARK SMILES IDX 51 45 53 46 50 47 72 48 73 49 78 50 74 51 75 52 77 53 79 54
REMARK SMILES IDX 76 55 60 56 61 57 66 58 62 59 63 60 65 61 67 62 64 63 8 64
REMARK SMILES IDX 9 65 10 66 11 67 12 68 13 69 14 70 15 71 16 72 26 73 17 74
REMARK SMILES IDX 18 75 27 76 28 77 36 78 29 79 35 80 30 81 34 82 31 83 33 84
REMARK SMILES IDX 32 85 19 86 20 87 25 88 21 89 23 90 22 91 24 92
REMARK H PARENT 84 25 58 36
REMARK Flexibility Score: inf
ROOT
ATOM      1  C   UNL A   1      31.721  31.873  27.267  1.00  0.00     0.188 C 
ENDROOT
BRANCH   1   2
ATOM      2  O   UNL A   1      32.131  33.238  27.202  1.00  0.00    -0.376 OA
BRANCH   2   3
ATOM      3  C   UNL A   1      33.210  33.712  27.984  1.00  0.00     0.202 C 
BRANCH   3   4
ATOM      4  C   UNL A   1      34.256  32.624  28.218  1.00  0.00     0.261 C 
BRANCH   4   5
ATOM      5  O   UNL A   1      35.065  32.890  29.374  1.00  0.00    -0.460 OA
BRANCH   5   6
ATOM      6  C   UNL A   1      35.707  32.059  30.222  1.00  0.00     0.338 C 
ATOM      7  O   UNL A   1      35.370  32.089  31.407  1.00  0.00    -0.246 OA
BRANCH   6   8
ATOM      8  C   UNL A   1      36.779  31.084  29.852  1.00  0.00     0.060 A 
ATOM      9  C   UNL A   1      36.646  29.701  29.717  1.00  0.00     0.016 A 
ATOM     10  C   UNL A   1      38.066  31.638  29.692  1.00  0.00     0.016 A 
ATOM     11  C   UNL A   1      37.766  28.882  29.640  1.00  0.00     0.010 A 
ATOM     12  C   UNL A   1      39.187  30.829  29.573  1.00  0.00     0.010 A 
ATOM     13  C   UNL A   1      39.035  29.449  29.654  1.00  0.00    -0.014 A 
BRANCH  13  14
ATOM     14  C   UNL A   1      40.173  28.559  29.840  1.00  0.00     0.031 A 
ATOM     15  C   UNL A   1      40.754  28.452  31.205  1.00  0.00     0.074 A 
ATOM     16  C   UNL A   1      40.626  27.799  28.824  1.00  0.00     0.049 A 
ATOM     17  N   UNL A   1      41.988  28.599  31.574  1.00  0.00    -0.248 NA
ATOM     18  C   UNL A   1      39.827  28.168  32.311  1.00  0.00     0.031 C 
ATOM     19  C   UNL A   1      40.005  27.593  27.510  1.00  0.00     0.029 A 
ATOM     20  N   UNL A   1      41.688  26.948  28.801  1.00  0.00    -0.354 N 
ATOM     21  C   UNL A   1      42.027  28.260  32.925  1.00  0.00     0.074 A 
ATOM     22  C   UNL A   1      40.660  28.088  33.347  1.00  0.00     0.031 C 
ATOM     23  C   UNL A   1      40.562  26.514  26.922  1.00  0.00     0.029 A 
ATOM     24  C   UNL A   1      41.655  26.043  27.752  1.00  0.00     0.049 A 
ATOM     25  H   UNL A   1      42.414  26.974  29.466  1.00  0.00     0.167 HD
ATOM     26  C   UNL A   1      43.184  27.966  33.577  1.00  0.00     0.037 A 
ATOM     27  C   UNL A   1      42.417  24.934  27.615  1.00  0.00     0.037 A 
ATOM     28  C   UNL A   1      44.343  28.498  32.920  1.00  0.00     0.049 A 
ATOM     29  C   UNL A   1      43.600  25.074  28.494  1.00  0.00     0.074 A 
ATOM     30  C   UNL A   1      44.770  29.767  32.580  1.00  0.00     0.029 A 
ATOM     31  N   UNL A   1      45.168  27.642  32.235  1.00  0.00    -0.354 N 
ATOM     32  N   UNL A   1      44.577  25.913  28.291  1.00  0.00    -0.248 NA
ATOM     33  C   UNL A   1      43.515  24.533  29.842  1.00  0.00     0.031 C 
ATOM     34  C   UNL A   1      45.479  29.606  31.354  1.00  0.00     0.029 A 
ATOM     35  C   UNL A   1      45.449  28.249  31.037  1.00  0.00     0.049 A 
ATOM     36  H   UNL A   1      45.493  26.766  32.543  1.00  0.00     0.167 HD
ATOM     37  C   UNL A   1      44.968  26.317  29.558  1.00  0.00     0.074 A 
ATOM     38  C   UNL A   1      44.363  25.351  30.468  1.00  0.00     0.031 C 
ATOM     39  C   UNL A   1      45.513  27.550  29.775  1.00  0.00     0.037 A 
BRANCH  26  40
ATOM     40  C   UNL A   1      43.272  26.944  34.678  1.00  0.00     0.057 A 
ATOM     41  C   UNL A   1      43.289  25.572  34.377  1.00  0.00     0.134 A 
ATOM     42  C   UNL A   1      43.071  27.264  36.035  1.00  0.00     0.134 A 
ATOM     43  F   UNL A   1      43.425  25.145  33.113  1.00  0.00    -0.206 F 
ATOM     44  C   UNL A   1      43.097  24.590  35.358  1.00  0.00     0.040 A 
ATOM     45  C   UNL A   1      42.927  26.293  37.030  1.00  0.00     0.040 A 
ATOM     46  F   UNL A   1      42.912  28.530  36.447  1.00  0.00    -0.206 F 
ATOM     47  C   UNL A   1      42.917  24.950  36.690  1.00  0.00     0.006 A 
ENDBRANCH  26  40
BRANCH  27  48
ATOM     48  C   UNL A   1      42.029  23.654  26.985  1.00  0.00     0.057 A 
ATOM     49  C   UNL A   1      42.917  22.946  26.169  1.00  0.00     0.134 A 
ATOM     50  C   UNL A   1      40.854  22.976  27.359  1.00  0.00     0.134 A 
ATOM     51  F   UNL A   1      44.086  23.489  25.801  1.00  0.00    -0.206 F 
ATOM     52  C   UNL A   1      42.653  21.634  25.751  1.00  0.00     0.040 A 
ATOM     53  C   UNL A   1      40.572  21.674  26.938  1.00  0.00     0.040 A 
ATOM     54  F   UNL A   1      39.978  23.522  28.215  1.00  0.00    -0.206 F 
ATOM     55  C   UNL A   1      41.480  20.994  26.138  1.00  0.00     0.006 A 
ENDBRANCH  27  48
BRANCH  39  56
ATOM     56  C   UNL A   1      45.922  28.357  28.574  1.00  0.00     0.057 A 
ATOM     57  C   UNL A   1      47.180  28.246  27.961  1.00  0.00     0.134 A 
ATOM     58  C   UNL A   1      44.971  29.151  27.926  1.00  0.00     0.134 A 
ATOM     59  F   UNL A   1      48.116  27.421  28.446  1.00  0.00    -0.206 F 
ATOM     60  C   UNL A   1      47.492  28.939  26.788  1.00  0.00     0.040 A 
ATOM     61  C   UNL A   1      45.260  29.823  26.734  1.00  0.00     0.040 A 
ATOM     62  F   UNL A   1      43.724  29.250  28.415  1.00  0.00    -0.206 F 
ATOM     63  C   UNL A   1      46.528  29.727  26.168  1.00  0.00     0.006 A 
ENDBRANCH  39  56
ENDBRANCH  13  14
ENDBRANCH   6   8
ENDBRANCH   5   6
ENDBRANCH   4   5
ENDBRANCH   3   4
ENDBRANCH   2   3
ENDBRANCH   1   2
BRANCH   1  64
ATOM     64  C   UNL A   1      31.774  30.912  26.059  1.00  0.00     0.188 C 
BRANCH  64  65
ATOM     65  O   UNL A   1      31.920  29.516  26.301  1.00  0.00    -0.376 OA
BRANCH  65  66
ATOM     66  C   UNL A   1      32.965  29.101  27.176  1.00  0.00     0.202 C 
BRANCH  66  67
ATOM     67  C   UNL A   1      34.060  28.288  26.499  1.00  0.00     0.261 C 
BRANCH  67  68
ATOM     68  O   UNL A   1      33.551  26.961  26.313  1.00  0.00    -0.458 OA
BRANCH  68  69
ATOM     69  C   UNL A   1      33.641  26.460  25.060  1.00  0.00     0.361 C 
ATOM     70  O   UNL A   1      34.401  25.569  24.712  1.00  0.00    -0.244 OA
BRANCH  69  71
ATOM     71  C   UNL A   1      32.700  27.096  24.164  1.00  0.00     0.198 A 
ATOM     72  N   UNL A   1      33.109  27.975  23.185  1.00  0.00    -0.122 NA
ATOM     73  C   UNL A   1      31.326  26.953  24.090  1.00  0.00     0.123 A 
ATOM     74  N   UNL A   1      32.031  28.433  22.561  1.00  0.00    -0.061 NA
ATOM     75  N   UNL A   1      30.961  27.986  23.246  1.00  0.00    -0.213 N 
BRANCH  73  76
ATOM     76  C   UNL A   1      30.312  25.990  24.619  1.00  0.00     0.262 C 
ATOM     77  C   UNL A   1      30.123  25.908  26.129  1.00  0.00     0.281 C 
ATOM     78  O   UNL A   1      30.581  24.735  23.988  1.00  0.00    -0.477 OA
ATOM     79  O   UNL A   1      31.120  25.155  26.814  1.00  0.00    -0.485 OA
ATOM     80  C   UNL A   1      31.250  23.842  24.771  1.00  0.00     0.162 A 
ATOM     81  C   UNL A   1      31.476  24.024  26.133  1.00  0.00     0.161 A 
ATOM     82  C   UNL A   1      31.741  22.705  24.128  1.00  0.00     0.050 A 
ATOM     83  C   UNL A   1      32.175  23.059  26.858  1.00  0.00     0.050 A 
ATOM     84  C   UNL A   1      32.460  21.751  24.847  1.00  0.00     0.004 A 
ATOM     85  C   UNL A   1      32.668  21.922  26.216  1.00  0.00     0.004 A 
ENDBRANCH  73  76
BRANCH  75  86
ATOM     86  C   UNL A   1      29.734  28.679  23.234  1.00  0.00     0.068 A 
ATOM     87  C   UNL A   1      28.544  27.932  23.250  1.00  0.00     0.028 A 
ATOM     88  C   UNL A   1      29.710  30.071  23.158  1.00  0.00     0.044 A 
ATOM     89  C   UNL A   1      27.320  28.577  23.126  1.00  0.00     0.003 A 
ATOM     90  C   UNL A   1      28.475  30.700  22.998  1.00  0.00     0.020 A 
ATOM     91  C   UNL A   1      27.286  29.962  22.976  1.00  0.00     0.016 A 
ATOM     92  Br  UNL A   1      28.403  32.573  22.752  1.00  0.00    -0.051 Br
ENDBRANCH  75  86
ENDBRANCH  69  71
ENDBRANCH  68  69
ENDBRANCH  67  68
ENDBRANCH  66  67
ENDBRANCH  65  66
ENDBRANCH  64  65
ENDBRANCH   1  64
TORSDOF 19
ENDMDL
