MODEL 1
REMARK VINA RESULT:     -11.3      0.000      0.000
REMARK SMILES O=C(OCCOCCOCCOC(=O)c1cc(-c2cccc(Cl)c2)ccc1Cl)c1ccc(-c2c3nc(c(-c4c(F)cccc4F)c4ccc([nH]4)c(-c4c(F)cccc4F)c4nc(c(-c5c(F)cccc5F)c5ccc2[nH]5)C=C4)C=C3)cc1
REMARK SMILES IDX 7 1 6 2 5 3 4 4 3 5 2 6 1 7 29 8 30 9 82 10 31 11 81 12
REMARK SMILES IDX 32 13 33 14 34 15 75 16 35 17 80 18 74 19 76 20 36 21 79 22
REMARK SMILES IDX 73 23 72 24 37 26 63 27 46 28 62 29 47 30 50 31 61 32 77 33
REMARK SMILES IDX 48 34 49 35 60 37 78 38 51 39 38 40 39 41 44 42 40 43 41 44
REMARK SMILES IDX 43 45 45 46 42 47 64 48 65 49 70 50 66 51 67 52 69 53 71 54
REMARK SMILES IDX 68 55 52 56 53 57 58 58 54 59 55 60 57 61 59 62 56 63 8 64
REMARK SMILES IDX 9 65 10 66 11 67 12 68 13 69 14 70 15 71 16 72 27 73 17 74
REMARK SMILES IDX 26 75 28 76 25 77 18 78 19 79 24 80 20 81 22 82 21 83 23 84
REMARK H PARENT 76 25 50 36
REMARK Flexibility Score: inf
ROOT
ATOM      1  C   UNL A   1      40.168  20.083  26.422  1.00  0.00     0.188 C 
ENDROOT
BRANCH   1   2
ATOM      2  O   UNL A   1      41.268  19.782  25.551  1.00  0.00    -0.376 OA
BRANCH   2   3
ATOM      3  C   UNL A   1      42.549  19.867  26.182  1.00  0.00     0.202 C 
BRANCH   3   4
ATOM      4  C   UNL A   1      43.474  20.919  25.564  1.00  0.00     0.261 C 
BRANCH   4   5
ATOM      5  O   UNL A   1      42.771  22.139  25.291  1.00  0.00    -0.460 OA
BRANCH   5   6
ATOM      6  C   UNL A   1      43.303  23.384  25.223  1.00  0.00     0.338 C 
ATOM      7  O   UNL A   1      44.119  23.640  24.341  1.00  0.00    -0.246 OA
BRANCH   6   8
ATOM      8  C   UNL A   1      42.886  24.495  26.126  1.00  0.00     0.060 A 
ATOM      9  C   UNL A   1      43.303  25.825  26.025  1.00  0.00     0.016 A 
ATOM     10  C   UNL A   1      41.933  24.175  27.102  1.00  0.00     0.016 A 
ATOM     11  C   UNL A   1      42.878  26.789  26.939  1.00  0.00     0.010 A 
ATOM     12  C   UNL A   1      41.435  25.156  27.963  1.00  0.00     0.010 A 
ATOM     13  C   UNL A   1      41.940  26.462  27.917  1.00  0.00    -0.014 A 
BRANCH  13  14
ATOM     14  C   UNL A   1      41.592  27.423  28.989  1.00  0.00     0.031 A 
ATOM     15  C   UNL A   1      42.395  27.389  30.254  1.00  0.00     0.074 A 
ATOM     16  C   UNL A   1      40.601  28.321  28.844  1.00  0.00     0.049 A 
ATOM     17  N   UNL A   1      42.162  27.958  31.405  1.00  0.00    -0.248 NA
ATOM     18  C   UNL A   1      43.630  26.586  30.212  1.00  0.00     0.031 C 
ATOM     19  C   UNL A   1      39.823  28.531  27.626  1.00  0.00     0.029 A 
ATOM     20  N   UNL A   1      40.078  29.225  29.734  1.00  0.00    -0.354 N 
ATOM     21  C   UNL A   1      43.190  27.537  32.239  1.00  0.00     0.074 A 
ATOM     22  C   UNL A   1      44.033  26.650  31.470  1.00  0.00     0.031 C 
ATOM     23  C   UNL A   1      38.919  29.498  27.847  1.00  0.00     0.029 A 
ATOM     24  C   UNL A   1      39.000  29.915  29.239  1.00  0.00     0.049 A 
ATOM     25  H   UNL A   1      40.441  29.364  30.638  1.00  0.00     0.167 HD
ATOM     26  C   UNL A   1      43.412  27.869  33.531  1.00  0.00     0.037 A 
ATOM     27  C   UNL A   1      38.142  30.754  29.849  1.00  0.00     0.037 A 
ATOM     28  C   UNL A   1      42.588  28.786  34.268  1.00  0.00     0.049 A 
ATOM     29  C   UNL A   1      38.364  31.072  31.299  1.00  0.00     0.074 A 
ATOM     30  C   UNL A   1      42.700  29.190  35.585  1.00  0.00     0.029 A 
ATOM     31  N   UNL A   1      41.497  29.455  33.730  1.00  0.00    -0.354 N 
ATOM     32  N   UNL A   1      39.299  30.624  32.103  1.00  0.00    -0.248 NA
ATOM     33  C   UNL A   1      37.425  32.009  31.928  1.00  0.00     0.031 C 
ATOM     34  C   UNL A   1      41.662  30.092  35.849  1.00  0.00     0.029 A 
ATOM     35  C   UNL A   1      40.926  30.273  34.688  1.00  0.00     0.049 A 
ATOM     36  H   UNL A   1      41.177  29.363  32.804  1.00  0.00     0.167 HD
ATOM     37  C   UNL A   1      39.084  31.247  33.322  1.00  0.00     0.074 A 
ATOM     38  C   UNL A   1      37.925  32.102  33.153  1.00  0.00     0.031 C 
ATOM     39  C   UNL A   1      39.787  31.131  34.475  1.00  0.00     0.037 A 
BRANCH  26  40
ATOM     40  C   UNL A   1      44.563  27.187  34.206  1.00  0.00     0.057 A 
ATOM     41  C   UNL A   1      44.416  25.960  34.870  1.00  0.00     0.134 A 
ATOM     42  C   UNL A   1      45.815  27.810  34.271  1.00  0.00     0.134 A 
ATOM     43  F   UNL A   1      43.232  25.328  34.875  1.00  0.00    -0.206 F 
ATOM     44  C   UNL A   1      45.459  25.404  35.613  1.00  0.00     0.040 A 
ATOM     45  C   UNL A   1      46.873  27.251  34.989  1.00  0.00     0.040 A 
ATOM     46  F   UNL A   1      46.022  28.988  33.662  1.00  0.00    -0.206 F 
ATOM     47  C   UNL A   1      46.692  26.051  35.674  1.00  0.00     0.006 A 
ENDBRANCH  26  40
BRANCH  27  48
ATOM     48  C   UNL A   1      36.993  31.317  29.092  1.00  0.00     0.057 A 
ATOM     49  C   UNL A   1      35.842  30.562  28.844  1.00  0.00     0.134 A 
ATOM     50  C   UNL A   1      37.006  32.640  28.628  1.00  0.00     0.134 A 
ATOM     51  F   UNL A   1      35.773  29.286  29.250  1.00  0.00    -0.206 F 
ATOM     52  C   UNL A   1      34.749  31.097  28.159  1.00  0.00     0.040 A 
ATOM     53  C   UNL A   1      35.913  33.194  27.958  1.00  0.00     0.040 A 
ATOM     54  F   UNL A   1      38.071  33.426  28.847  1.00  0.00    -0.206 F 
ATOM     55  C   UNL A   1      34.781  32.420  27.719  1.00  0.00     0.006 A 
ENDBRANCH  27  48
BRANCH  39  56
ATOM     56  C   UNL A   1      39.358  31.989  35.622  1.00  0.00     0.057 A 
ATOM     57  C   UNL A   1      39.822  33.300  35.776  1.00  0.00     0.134 A 
ATOM     58  C   UNL A   1      38.413  31.517  36.541  1.00  0.00     0.134 A 
ATOM     59  F   UNL A   1      40.737  33.800  34.933  1.00  0.00    -0.206 F 
ATOM     60  C   UNL A   1      39.362  34.113  36.812  1.00  0.00     0.040 A 
ATOM     61  C   UNL A   1      37.934  32.325  37.570  1.00  0.00     0.040 A 
ATOM     62  F   UNL A   1      37.930  30.269  36.440  1.00  0.00    -0.206 F 
ATOM     63  C   UNL A   1      38.409  33.628  37.707  1.00  0.00     0.006 A 
ENDBRANCH  39  56
ENDBRANCH  13  14
ENDBRANCH   6   8
ENDBRANCH   5   6
ENDBRANCH   4   5
ENDBRANCH   3   4
ENDBRANCH   2   3
ENDBRANCH   1   2
BRANCH   1  64
ATOM     64  C   UNL A   1      39.514  21.406  26.016  1.00  0.00     0.188 C 
BRANCH  64  65
ATOM     65  O   UNL A   1      38.311  21.273  25.257  1.00  0.00    -0.376 OA
BRANCH  65  66
ATOM     66  C   UNL A   1      37.582  22.465  24.983  1.00  0.00     0.202 C 
BRANCH  66  67
ATOM     67  C   UNL A   1      36.716  22.470  23.719  1.00  0.00     0.261 C 
BRANCH  67  68
ATOM     68  O   UNL A   1      35.628  23.413  23.708  1.00  0.00    -0.460 OA
BRANCH  68  69
ATOM     69  C   UNL A   1      34.684  23.177  24.651  1.00  0.00     0.339 C 
ATOM     70  O   UNL A   1      34.604  23.674  25.768  1.00  0.00    -0.246 OA
BRANCH  69  71
ATOM     71  C   UNL A   1      33.745  22.142  24.210  1.00  0.00     0.079 A 
ATOM     72  C   UNL A   1      33.873  20.825  24.693  1.00  0.00     0.026 A 
ATOM     73  C   UNL A   1      32.878  22.433  23.153  1.00  0.00     0.055 A 
ATOM     74  C   UNL A   1      33.143  19.779  24.100  1.00  0.00    -0.017 A 
ATOM     75  C   UNL A   1      32.154  21.403  22.559  1.00  0.00     0.022 A 
ATOM     76  Cl  UNL A   1      32.661  24.030  22.536  1.00  0.00    -0.083 Cl
ATOM     77  C   UNL A   1      32.285  20.095  23.030  1.00  0.00     0.010 A 
BRANCH  74  78
ATOM     78  C   UNL A   1      33.281  18.370  24.515  1.00  0.00    -0.017 A 
ATOM     79  C   UNL A   1      32.134  17.605  24.799  1.00  0.00     0.009 A 
ATOM     80  C   UNL A   1      34.533  17.769  24.710  1.00  0.00     0.029 A 
ATOM     81  C   UNL A   1      32.228  16.300  25.290  1.00  0.00     0.002 A 
ATOM     82  C   UNL A   1      34.624  16.465  25.209  1.00  0.00     0.041 A 
ATOM     83  C   UNL A   1      33.478  15.732  25.505  1.00  0.00     0.020 A 
ATOM     84  Cl  UNL A   1      36.159  15.741  25.495  1.00  0.00    -0.084 Cl
ENDBRANCH  74  78
ENDBRANCH  69  71
ENDBRANCH  68  69
ENDBRANCH  67  68
ENDBRANCH  66  67
ENDBRANCH  65  66
ENDBRANCH  64  65
ENDBRANCH   1  64
TORSDOF 18
ENDMDL
MODEL 2
REMARK VINA RESULT:     -11.1      3.927      9.189
REMARK SMILES O=C(OCCOCCOCCOC(=O)c1cc(-c2cccc(Cl)c2)ccc1Cl)c1ccc(-c2c3nc(c(-c4c(F)cccc4F)c4ccc([nH]4)c(-c4c(F)cccc4F)c4nc(c(-c5c(F)cccc5F)c5ccc2[nH]5)C=C4)C=C3)cc1
REMARK SMILES IDX 7 1 6 2 5 3 4 4 3 5 2 6 1 7 29 8 30 9 82 10 31 11 81 12
REMARK SMILES IDX 32 13 33 14 34 15 75 16 35 17 80 18 74 19 76 20 36 21 79 22
REMARK SMILES IDX 73 23 72 24 37 26 63 27 46 28 62 29 47 30 50 31 61 32 77 33
REMARK SMILES IDX 48 34 49 35 60 37 78 38 51 39 38 40 39 41 44 42 40 43 41 44
REMARK SMILES IDX 43 45 45 46 42 47 64 48 65 49 70 50 66 51 67 52 69 53 71 54
REMARK SMILES IDX 68 55 52 56 53 57 58 58 54 59 55 60 57 61 59 62 56 63 8 64
REMARK SMILES IDX 9 65 10 66 11 67 12 68 13 69 14 70 15 71 16 72 27 73 17 74
REMARK SMILES IDX 26 75 28 76 25 77 18 78 19 79 24 80 20 81 22 82 21 83 23 84
REMARK H PARENT 76 25 50 36
REMARK Flexibility Score: inf
ROOT
ATOM      1  C   UNL A   1      34.308  33.592  29.314  1.00  0.00     0.188 C 
ENDROOT
BRANCH   1   2
ATOM      2  O   UNL A   1      34.337  34.992  28.999  1.00  0.00    -0.376 OA
BRANCH   2   3
ATOM      3  C   UNL A   1      33.053  35.621  29.033  1.00  0.00     0.202 C 
BRANCH   3   4
ATOM      4  C   UNL A   1      33.002  36.874  29.914  1.00  0.00     0.261 C 
BRANCH   4   5
ATOM      5  O   UNL A   1      32.174  36.670  31.067  1.00  0.00    -0.460 OA
BRANCH   5   6
ATOM      6  C   UNL A   1      32.586  36.320  32.310  1.00  0.00     0.338 C 
ATOM      7  O   UNL A   1      32.013  36.793  33.288  1.00  0.00    -0.246 OA
BRANCH   6   8
ATOM      8  C   UNL A   1      33.663  35.316  32.555  1.00  0.00     0.060 A 
ATOM      9  C   UNL A   1      33.462  33.976  32.897  1.00  0.00     0.016 A 
ATOM     10  C   UNL A   1      34.976  35.752  32.339  1.00  0.00     0.016 A 
ATOM     11  C   UNL A   1      34.538  33.121  33.135  1.00  0.00     0.010 A 
ATOM     12  C   UNL A   1      36.054  34.876  32.488  1.00  0.00     0.010 A 
ATOM     13  C   UNL A   1      35.844  33.563  32.933  1.00  0.00    -0.014 A 
BRANCH  13  14
ATOM     14  C   UNL A   1      37.001  32.726  33.325  1.00  0.00     0.031 A 
ATOM     15  C   UNL A   1      37.636  32.982  34.658  1.00  0.00     0.074 A 
ATOM     16  C   UNL A   1      37.470  31.747  32.532  1.00  0.00     0.049 A 
ATOM     17  N   UNL A   1      38.771  32.552  35.138  1.00  0.00    -0.248 NA
ATOM     18  C   UNL A   1      36.885  33.861  35.572  1.00  0.00     0.031 C 
ATOM     19  C   UNL A   1      36.873  31.325  31.267  1.00  0.00     0.029 A 
ATOM     20  N   UNL A   1      38.563  30.929  32.674  1.00  0.00    -0.354 N 
ATOM     21  C   UNL A   1      38.896  33.151  36.384  1.00  0.00     0.074 A 
ATOM     22  C   UNL A   1      37.735  33.990  36.577  1.00  0.00     0.031 C 
ATOM     23  C   UNL A   1      37.611  30.331  30.747  1.00  0.00     0.029 A 
ATOM     24  C   UNL A   1      38.769  30.104  31.597  1.00  0.00     0.049 A 
ATOM     25  H   UNL A   1      39.142  30.936  33.470  1.00  0.00     0.167 HD
ATOM     26  C   UNL A   1      39.890  33.006  37.289  1.00  0.00     0.037 A 
ATOM     27  C   UNL A   1      39.801  29.290  31.303  1.00  0.00     0.037 A 
ATOM     28  C   UNL A   1      41.015  32.134  37.100  1.00  0.00     0.049 A 
ATOM     29  C   UNL A   1      40.927  29.179  32.289  1.00  0.00     0.074 A 
ATOM     30  C   UNL A   1      42.093  31.913  37.935  1.00  0.00     0.029 A 
ATOM     31  N   UNL A   1      41.191  31.322  35.987  1.00  0.00    -0.354 N 
ATOM     32  N   UNL A   1      41.074  29.795  33.438  1.00  0.00    -0.248 NA
ATOM     33  C   UNL A   1      42.024  28.265  31.949  1.00  0.00     0.031 C 
ATOM     34  C   UNL A   1      42.933  30.978  37.317  1.00  0.00     0.029 A 
ATOM     35  C   UNL A   1      42.360  30.596  36.113  1.00  0.00     0.049 A 
ATOM     36  H   UNL A   1      40.574  31.270  35.222  1.00  0.00     0.167 HD
ATOM     37  C   UNL A   1      42.260  29.320  33.976  1.00  0.00     0.074 A 
ATOM     38  C   UNL A   1      42.797  28.367  33.023  1.00  0.00     0.031 C 
ATOM     39  C   UNL A   1      42.849  29.636  35.155  1.00  0.00     0.037 A 
BRANCH  26  40
ATOM     40  C   UNL A   1      39.796  33.852  38.523  1.00  0.00     0.057 A 
ATOM     41  C   UNL A   1      39.065  33.448  39.649  1.00  0.00     0.134 A 
ATOM     42  C   UNL A   1      40.371  35.128  38.550  1.00  0.00     0.134 A 
ATOM     43  F   UNL A   1      38.461  32.249  39.673  1.00  0.00    -0.206 F 
ATOM     44  C   UNL A   1      38.869  34.302  40.736  1.00  0.00     0.040 A 
ATOM     45  C   UNL A   1      40.204  35.981  39.642  1.00  0.00     0.040 A 
ATOM     46  F   UNL A   1      41.079  35.578  37.503  1.00  0.00    -0.206 F 
ATOM     47  C   UNL A   1      39.439  35.574  40.733  1.00  0.00     0.006 A 
ENDBRANCH  26  40
BRANCH  27  48
ATOM     48  C   UNL A   1      39.815  28.551  30.013  1.00  0.00     0.057 A 
ATOM     49  C   UNL A   1      40.456  29.069  28.883  1.00  0.00     0.134 A 
ATOM     50  C   UNL A   1      39.216  27.289  29.891  1.00  0.00     0.134 A 
ATOM     51  F   UNL A   1      41.036  30.276  28.931  1.00  0.00    -0.206 F 
ATOM     52  C   UNL A   1      40.497  28.364  27.678  1.00  0.00     0.040 A 
ATOM     53  C   UNL A   1      39.265  26.565  28.698  1.00  0.00     0.040 A 
ATOM     54  F   UNL A   1      38.599  26.726  30.941  1.00  0.00    -0.206 F 
ATOM     55  C   UNL A   1      39.905  27.105  27.585  1.00  0.00     0.006 A 
ENDBRANCH  27  48
BRANCH  39  56
ATOM     56  C   UNL A   1      44.105  28.903  35.505  1.00  0.00     0.057 A 
ATOM     57  C   UNL A   1      45.368  29.398  35.163  1.00  0.00     0.134 A 
ATOM     58  C   UNL A   1      44.045  27.723  36.257  1.00  0.00     0.134 A 
ATOM     59  F   UNL A   1      45.484  30.516  34.432  1.00  0.00    -0.206 F 
ATOM     60  C   UNL A   1      46.533  28.738  35.555  1.00  0.00     0.040 A 
ATOM     61  C   UNL A   1      45.202  27.065  36.669  1.00  0.00     0.040 A 
ATOM     62  F   UNL A   1      42.860  27.205  36.617  1.00  0.00    -0.206 F 
ATOM     63  C   UNL A   1      46.451  27.574  36.318  1.00  0.00     0.006 A 
ENDBRANCH  39  56
ENDBRANCH  13  14
ENDBRANCH   6   8
ENDBRANCH   5   6
ENDBRANCH   4   5
ENDBRANCH   3   4
ENDBRANCH   2   3
ENDBRANCH   1   2
BRANCH   1  64
ATOM     64  C   UNL A   1      34.084  32.766  28.045  1.00  0.00     0.188 C 
BRANCH  64  65
ATOM     65  O   UNL A   1      35.235  32.063  27.575  1.00  0.00    -0.376 OA
BRANCH  65  66
ATOM     66  C   UNL A   1      35.234  30.647  27.722  1.00  0.00     0.202 C 
BRANCH  66  67
ATOM     67  C   UNL A   1      34.214  29.866  26.888  1.00  0.00     0.261 C 
BRANCH  67  68
ATOM     68  O   UNL A   1      34.018  28.490  27.264  1.00  0.00    -0.460 OA
BRANCH  68  69
ATOM     69  C   UNL A   1      32.840  27.967  26.847  1.00  0.00     0.339 C 
ATOM     70  O   UNL A   1      31.724  28.181  27.306  1.00  0.00    -0.246 OA
BRANCH  69  71
ATOM     71  C   UNL A   1      33.045  26.993  25.771  1.00  0.00     0.079 A 
ATOM     72  C   UNL A   1      33.742  25.797  26.029  1.00  0.00     0.026 A 
ATOM     73  C   UNL A   1      32.736  27.369  24.461  1.00  0.00     0.055 A 
ATOM     74  C   UNL A   1      34.157  24.975  24.966  1.00  0.00    -0.017 A 
ATOM     75  C   UNL A   1      33.145  26.563  23.403  1.00  0.00     0.022 A 
ATOM     76  Cl  UNL A   1      31.863  28.811  24.085  1.00  0.00    -0.083 Cl
ATOM     77  C   UNL A   1      33.844  25.381  23.655  1.00  0.00     0.010 A 
BRANCH  74  78
ATOM     78  C   UNL A   1      34.945  23.744  25.165  1.00  0.00    -0.017 A 
ATOM     79  C   UNL A   1      36.303  23.830  25.527  1.00  0.00     0.009 A 
ATOM     80  C   UNL A   1      34.407  22.468  24.938  1.00  0.00     0.029 A 
ATOM     81  C   UNL A   1      37.106  22.691  25.629  1.00  0.00     0.002 A 
ATOM     82  C   UNL A   1      35.217  21.331  25.033  1.00  0.00     0.041 A 
ATOM     83  C   UNL A   1      36.563  21.438  25.371  1.00  0.00     0.020 A 
ATOM     84  Cl  UNL A   1      34.573  19.768  24.708  1.00  0.00    -0.084 Cl
ENDBRANCH  74  78
ENDBRANCH  69  71
ENDBRANCH  68  69
ENDBRANCH  67  68
ENDBRANCH  66  67
ENDBRANCH  65  66
ENDBRANCH  64  65
ENDBRANCH   1  64
TORSDOF 18
ENDMDL
MODEL 3
REMARK VINA RESULT:     -11.0      5.426     10.817
REMARK SMILES O=C(OCCOCCOCCOC(=O)c1cc(-c2cccc(Cl)c2)ccc1Cl)c1ccc(-c2c3nc(c(-c4c(F)cccc4F)c4ccc([nH]4)c(-c4c(F)cccc4F)c4nc(c(-c5c(F)cccc5F)c5ccc2[nH]5)C=C4)C=C3)cc1
REMARK SMILES IDX 7 1 6 2 5 3 4 4 3 5 2 6 1 7 29 8 30 9 82 10 31 11 81 12
REMARK SMILES IDX 32 13 33 14 34 15 75 16 35 17 80 18 74 19 76 20 36 21 79 22
REMARK SMILES IDX 73 23 72 24 37 26 63 27 46 28 62 29 47 30 50 31 61 32 77 33
REMARK SMILES IDX 48 34 49 35 60 37 78 38 51 39 38 40 39 41 44 42 40 43 41 44
REMARK SMILES IDX 43 45 45 46 42 47 64 48 65 49 70 50 66 51 67 52 69 53 71 54
REMARK SMILES IDX 68 55 52 56 53 57 58 58 54 59 55 60 57 61 59 62 56 63 8 64
REMARK SMILES IDX 9 65 10 66 11 67 12 68 13 69 14 70 15 71 16 72 27 73 17 74
REMARK SMILES IDX 26 75 28 76 25 77 18 78 19 79 24 80 20 81 22 82 21 83 23 84
REMARK H PARENT 76 25 50 36
REMARK Flexibility Score: inf
ROOT
ATOM      1  C   UNL A   1      34.641  34.040  27.937  1.00  0.00     0.188 C 
ENDROOT
BRANCH   1   2
ATOM      2  O   UNL A   1      35.080  34.337  29.271  1.00  0.00    -0.376 OA
BRANCH   2   3
ATOM      3  C   UNL A   1      34.028  34.741  30.152  1.00  0.00     0.202 C 
BRANCH   3   4
ATOM      4  C   UNL A   1      34.081  34.068  31.527  1.00  0.00     0.261 C 
BRANCH   4   5
ATOM      5  O   UNL A   1      34.648  32.754  31.445  1.00  0.00    -0.460 OA
BRANCH   5   6
ATOM      6  C   UNL A   1      35.623  32.241  32.235  1.00  0.00     0.338 C 
ATOM      7  O   UNL A   1      35.512  32.326  33.456  1.00  0.00    -0.246 OA
BRANCH   6   8
ATOM      8  C   UNL A   1      36.799  31.499  31.694  1.00  0.00     0.060 A 
ATOM      9  C   UNL A   1      37.558  30.557  32.395  1.00  0.00     0.016 A 
ATOM     10  C   UNL A   1      37.103  31.720  30.345  1.00  0.00     0.016 A 
ATOM     11  C   UNL A   1      38.661  29.937  31.809  1.00  0.00     0.010 A 
ATOM     12  C   UNL A   1      38.151  31.034  29.727  1.00  0.00     0.010 A 
ATOM     13  C   UNL A   1      38.969  30.171  30.469  1.00  0.00    -0.014 A 
BRANCH  13  14
ATOM     14  C   UNL A   1      40.218  29.647  29.872  1.00  0.00     0.031 A 
ATOM     15  C   UNL A   1      41.379  30.585  29.732  1.00  0.00     0.074 A 
ATOM     16  C   UNL A   1      40.335  28.366  29.479  1.00  0.00     0.049 A 
ATOM     17  N   UNL A   1      42.487  30.445  29.057  1.00  0.00    -0.248 NA
ATOM     18  C   UNL A   1      41.261  31.868  30.446  1.00  0.00     0.031 C 
ATOM     19  C   UNL A   1      39.323  27.330  29.665  1.00  0.00     0.029 A 
ATOM     20  N   UNL A   1      41.362  27.719  28.839  1.00  0.00    -0.354 N 
ATOM     21  C   UNL A   1      43.173  31.642  29.220  1.00  0.00     0.074 A 
ATOM     22  C   UNL A   1      42.347  32.502  30.037  1.00  0.00     0.031 C 
ATOM     23  C   UNL A   1      39.777  26.179  29.144  1.00  0.00     0.029 A 
ATOM     24  C   UNL A   1      41.070  26.416  28.521  1.00  0.00     0.049 A 
ATOM     25  H   UNL A   1      42.222  28.148  28.628  1.00  0.00     0.167 HD
ATOM     26  C   UNL A   1      44.387  31.986  28.736  1.00  0.00     0.037 A 
ATOM     27  C   UNL A   1      41.746  25.525  27.771  1.00  0.00     0.037 A 
ATOM     28  C   UNL A   1      45.213  31.103  27.961  1.00  0.00     0.049 A 
ATOM     29  C   UNL A   1      43.067  25.937  27.190  1.00  0.00     0.074 A 
ATOM     30  C   UNL A   1      46.453  31.341  27.401  1.00  0.00     0.029 A 
ATOM     31  N   UNL A   1      44.873  29.793  27.652  1.00  0.00    -0.354 N 
ATOM     32  N   UNL A   1      43.684  27.090  27.293  1.00  0.00    -0.248 NA
ATOM     33  C   UNL A   1      43.790  24.934  26.398  1.00  0.00     0.031 C 
ATOM     34  C   UNL A   1      46.857  30.177  26.736  1.00  0.00     0.029 A 
ATOM     35  C   UNL A   1      45.882  29.206  26.910  1.00  0.00     0.049 A 
ATOM     36  H   UNL A   1      44.039  29.346  27.922  1.00  0.00     0.167 HD
ATOM     37  C   UNL A   1      44.881  26.945  26.609  1.00  0.00     0.074 A 
ATOM     38  C   UNL A   1      44.901  25.591  26.090  1.00  0.00     0.031 C 
ATOM     39  C   UNL A   1      45.878  27.846  26.433  1.00  0.00     0.037 A 
BRANCH  26  40
ATOM     40  C   UNL A   1      44.838  33.390  29.006  1.00  0.00     0.057 A 
ATOM     41  C   UNL A   1      44.542  34.448  28.134  1.00  0.00     0.134 A 
ATOM     42  C   UNL A   1      45.657  33.670  30.106  1.00  0.00     0.134 A 
ATOM     43  F   UNL A   1      43.789  34.239  27.043  1.00  0.00    -0.206 F 
ATOM     44  C   UNL A   1      45.084  35.721  28.322  1.00  0.00     0.040 A 
ATOM     45  C   UNL A   1      46.184  34.944  30.319  1.00  0.00     0.040 A 
ATOM     46  F   UNL A   1      45.984  32.702  30.976  1.00  0.00    -0.206 F 
ATOM     47  C   UNL A   1      45.909  35.971  29.417  1.00  0.00     0.006 A 
ENDBRANCH  26  40
BRANCH  27  48
ATOM     48  C   UNL A   1      41.164  24.181  27.515  1.00  0.00     0.057 A 
ATOM     49  C   UNL A   1      41.629  23.045  28.184  1.00  0.00     0.134 A 
ATOM     50  C   UNL A   1      40.101  24.009  26.616  1.00  0.00     0.134 A 
ATOM     51  F   UNL A   1      42.651  23.142  29.046  1.00  0.00    -0.206 F 
ATOM     52  C   UNL A   1      41.065  21.786  27.967  1.00  0.00     0.040 A 
ATOM     53  C   UNL A   1      39.516  22.759  26.403  1.00  0.00     0.040 A 
ATOM     54  F   UNL A   1      39.595  25.059  25.954  1.00  0.00    -0.206 F 
ATOM     55  C   UNL A   1      40.001  21.642  27.078  1.00  0.00     0.006 A 
ENDBRANCH  27  48
BRANCH  39  56
ATOM     56  C   UNL A   1      47.095  27.378  25.701  1.00  0.00     0.057 A 
ATOM     57  C   UNL A   1      47.261  27.598  24.329  1.00  0.00     0.134 A 
ATOM     58  C   UNL A   1      48.143  26.763  26.398  1.00  0.00     0.134 A 
ATOM     59  F   UNL A   1      46.285  28.170  23.610  1.00  0.00    -0.206 F 
ATOM     60  C   UNL A   1      48.431  27.216  23.672  1.00  0.00     0.040 A 
ATOM     61  C   UNL A   1      49.323  26.394  25.755  1.00  0.00     0.040 A 
ATOM     62  F   UNL A   1      48.040  26.531  27.715  1.00  0.00    -0.206 F 
ATOM     63  C   UNL A   1      49.469  26.621  24.388  1.00  0.00     0.006 A 
ENDBRANCH  39  56
ENDBRANCH  13  14
ENDBRANCH   6   8
ENDBRANCH   5   6
ENDBRANCH   4   5
ENDBRANCH   3   4
ENDBRANCH   2   3
ENDBRANCH   1   2
BRANCH   1  64
ATOM     64  C   UNL A   1      33.522  32.996  27.966  1.00  0.00     0.188 C 
BRANCH  64  65
ATOM     65  O   UNL A   1      33.943  31.674  28.309  1.00  0.00    -0.376 OA
BRANCH  65  66
ATOM     66  C   UNL A   1      34.217  30.781  27.234  1.00  0.00     0.202 C 
BRANCH  66  67
ATOM     67  C   UNL A   1      33.900  29.301  27.469  1.00  0.00     0.261 C 
BRANCH  67  68
ATOM     68  O   UNL A   1      32.726  28.798  26.804  1.00  0.00    -0.460 OA
BRANCH  68  69
ATOM     69  C   UNL A   1      32.994  28.003  25.739  1.00  0.00     0.339 C 
ATOM     70  O   UNL A   1      34.077  27.529  25.416  1.00  0.00    -0.246 OA
BRANCH  69  71
ATOM     71  C   UNL A   1      31.802  27.813  24.909  1.00  0.00     0.079 A 
ATOM     72  C   UNL A   1      31.229  28.912  24.240  1.00  0.00     0.026 A 
ATOM     73  C   UNL A   1      31.131  26.589  24.973  1.00  0.00     0.055 A 
ATOM     74  C   UNL A   1      29.959  28.796  23.645  1.00  0.00    -0.017 A 
ATOM     75  C   UNL A   1      29.874  26.466  24.389  1.00  0.00     0.022 A 
ATOM     76  Cl  UNL A   1      31.794  25.201  25.757  1.00  0.00    -0.083 Cl
ATOM     77  C   UNL A   1      29.299  27.556  23.732  1.00  0.00     0.010 A 
BRANCH  74  78
ATOM     78  C   UNL A   1      29.277  29.926  22.987  1.00  0.00    -0.017 A 
ATOM     79  C   UNL A   1      28.532  29.710  21.812  1.00  0.00     0.009 A 
ATOM     80  C   UNL A   1      29.398  31.244  23.453  1.00  0.00     0.029 A 
ATOM     81  C   UNL A   1      27.955  30.770  21.107  1.00  0.00     0.002 A 
ATOM     82  C   UNL A   1      28.826  32.303  22.740  1.00  0.00     0.041 A 
ATOM     83  C   UNL A   1      28.111  32.072  21.568  1.00  0.00     0.020 A 
ATOM     84  Cl  UNL A   1      29.012  33.926  23.281  1.00  0.00    -0.084 Cl
ENDBRANCH  74  78
ENDBRANCH  69  71
ENDBRANCH  68  69
ENDBRANCH  67  68
ENDBRANCH  66  67
ENDBRANCH  65  66
ENDBRANCH  64  65
ENDBRANCH   1  64
TORSDOF 18
ENDMDL
