MODEL 1
REMARK VINA RESULT:     -11.3      0.000      0.000
REMARK SMILES Cc1ccc(Nc2c(Cl)cccc2Cl)c(CC(=O)OCCOCCOCCOC(=O)c2ccc(-c3c4nc(c(-c5c(F)cccc5F)c5ccc([nH]5)c(-c5c(F)cccc5F)c5nc(c(-c6c(F)cccc6F)c6ccc3[nH]6)C=C5)C=C4)cc2)c1
REMARK SMILES IDX 23 1 22 2 21 3 20 4 19 5 17 6 18 7 16 8 15 9 1 10 2 11 3 12
REMARK SMILES IDX 85 13 4 14 5 15 6 16 7 18 8 19 13 20 9 21 10 22 12 23 14 24
REMARK SMILES IDX 11 25 24 26 25 27 26 28 27 29 28 30 29 31 30 32 31 33 32 34
REMARK SMILES IDX 84 35 33 36 83 37 34 38 35 39 36 40 77 41 37 42 82 43 76 44
REMARK SMILES IDX 78 45 38 46 81 47 75 48 74 49 39 51 65 52 48 53 64 54 49 55
REMARK SMILES IDX 52 56 63 57 79 58 50 59 51 60 62 62 80 63 53 64 40 65 41 66
REMARK SMILES IDX 46 67 42 68 43 69 45 70 47 71 44 72 66 73 67 74 72 75 68 76
REMARK SMILES IDX 69 77 71 78 73 79 70 80 54 81 55 82 60 83 56 84 57 85 59 86
REMARK SMILES IDX 61 87 58 88
REMARK H PARENT 6 17 78 50 52 61
REMARK Flexibility Score: inf
ROOT
ATOM      1  C   UNL A   1      41.669  23.408  27.758  1.00  0.00     0.188 C 
ENDROOT
BRANCH   1   2
ATOM      2  O   UNL A   1      40.874  22.258  27.597  1.00  0.00    -0.376 OA
BRANCH   2   3
ATOM      3  C   UNL A   1      39.718  22.270  26.789  1.00  0.00     0.202 C 
BRANCH   3   4
ATOM      4  C   UNL A   1      38.751  23.465  26.259  1.00  0.00     0.261 C 
BRANCH   4   5
ATOM      5  O   UNL A   1      37.501  23.715  24.982  1.00  0.00    -0.463 OA
BRANCH   5   6
ATOM      6  C   UNL A   1      36.534  23.017  23.863  1.00  0.00     0.310 C 
ATOM      7  O   UNL A   1      36.369  23.149  22.643  1.00  0.00    -0.252 OA
BRANCH   6   8
ATOM      8  C   UNL A   1      35.925  21.815  24.330  1.00  0.00     0.160 C 
BRANCH   8   9
ATOM      9  C   UNL A   1      34.553  22.308  24.627  1.00  0.00    -0.013 A 
ATOM     10  C   UNL A   1      32.829  19.002  25.482  1.00  0.00     0.044 C 
ATOM     11  C   UNL A   1      33.315  20.410  25.601  1.00  0.00    -0.051 A 
ATOM     12  C   UNL A   1      33.419  21.078  26.797  1.00  0.00     0.005 A 
ATOM     13  C   UNL A   1      33.802  21.065  24.494  1.00  0.00     0.009 A 
ATOM     14  C   UNL A   1      33.986  22.385  26.839  1.00  0.00     0.026 A 
ATOM     15  C   UNL A   1      34.502  23.311  25.629  1.00  0.00     0.042 A 
BRANCH  15  16
ATOM     16  N   UNL A   1      34.522  25.319  25.647  1.00  0.00    -0.353 N 
ATOM     17  H   UNL A   1      35.313  25.688  26.104  1.00  0.00     0.167 HD
BRANCH  16  18
ATOM     18  C   UNL A   1      33.402  26.622  25.006  1.00  0.00     0.076 A 
ATOM     19  C   UNL A   1      32.621  27.686  25.821  1.00  0.00     0.066 A 
ATOM     20  C   UNL A   1      32.856  26.451  23.711  1.00  0.00     0.066 A 
ATOM     21  Cl  UNL A   1      32.778  28.409  27.449  1.00  0.00    -0.082 Cl
ATOM     22  C   UNL A   1      31.429  28.287  25.344  1.00  0.00     0.023 A 
ATOM     23  C   UNL A   1      31.623  27.072  23.324  1.00  0.00     0.023 A 
ATOM     24  Cl  UNL A   1      33.643  25.753  22.384  1.00  0.00    -0.082 Cl
ATOM     25  C   UNL A   1      30.899  27.938  24.132  1.00  0.00     0.003 A 
ENDBRANCH  16  18
ENDBRANCH  15  16
ENDBRANCH   8   9
ENDBRANCH   6   8
ENDBRANCH   5   6
ENDBRANCH   4   5
ENDBRANCH   3   4
ENDBRANCH   2   3
ENDBRANCH   1   2
BRANCH   1  26
ATOM     26  C   UNL A   1      43.195  23.351  27.727  1.00  0.00     0.188 C 
BRANCH  26  27
ATOM     27  O   UNL A   1      43.745  23.055  26.464  1.00  0.00    -0.376 OA
BRANCH  27  28
ATOM     28  C   UNL A   1      43.167  23.769  25.371  1.00  0.00     0.202 C 
BRANCH  28  29
ATOM     29  C   UNL A   1      43.567  25.287  25.135  1.00  0.00     0.261 C 
BRANCH  29  30
ATOM     30  O   UNL A   1      42.445  26.262  25.090  1.00  0.00    -0.460 OA
BRANCH  30  31
ATOM     31  C   UNL A   1      41.785  26.772  26.230  1.00  0.00     0.338 C 
ATOM     32  O   UNL A   1      40.586  26.947  26.164  1.00  0.00    -0.246 OA
BRANCH  31  33
ATOM     33  C   UNL A   1      42.847  27.082  27.511  1.00  0.00     0.060 A 
ATOM     34  C   UNL A   1      43.206  26.521  29.352  1.00  0.00     0.016 A 
ATOM     35  C   UNL A   1      42.359  28.821  27.379  1.00  0.00     0.016 A 
ATOM     36  C   UNL A   1      42.812  27.729  30.762  1.00  0.00     0.010 A 
ATOM     37  C   UNL A   1      41.951  29.784  28.771  1.00  0.00     0.010 A 
ATOM     38  C   UNL A   1      42.121  29.406  30.507  1.00  0.00    -0.014 A 
BRANCH  38  39
ATOM     39  C   UNL A   1      41.829  30.920  31.597  1.00  0.00     0.031 A 
ATOM     40  C   UNL A   1      42.773  31.481  33.161  1.00  0.00     0.074 A 
ATOM     41  C   UNL A   1      41.103  31.988  31.190  1.00  0.00     0.049 A 
ATOM     42  N   UNL A   1      42.292  31.690  34.373  1.00  0.00    -0.248 NA
ATOM     43  C   UNL A   1      44.385  31.358  33.484  1.00  0.00     0.031 C 
ATOM     44  C   UNL A   1      41.183  33.360  31.736  1.00  0.00     0.029 A 
ATOM     45  N   UNL A   1      40.208  32.133  30.133  1.00  0.00    -0.354 N 
ATOM     46  C   UNL A   1      43.405  31.773  35.283  1.00  0.00     0.074 A 
ATOM     47  C   UNL A   1      44.484  31.051  34.754  1.00  0.00     0.031 C 
ATOM     48  C   UNL A   1      40.178  34.099  31.232  1.00  0.00     0.029 A 
ATOM     49  C   UNL A   1      39.337  33.188  30.482  1.00  0.00     0.049 A 
ATOM     50  H   UNL A   1      40.188  31.603  29.303  1.00  0.00     0.167 HD
ATOM     51  C   UNL A   1      43.649  32.843  36.103  1.00  0.00     0.037 A 
ATOM     52  C   UNL A   1      38.046  32.874  30.770  1.00  0.00     0.037 A 
ATOM     53  C   UNL A   1      42.586  33.781  35.853  1.00  0.00     0.049 A 
ATOM     54  C   UNL A   1      37.801  33.036  32.255  1.00  0.00     0.074 A 
ATOM     55  C   UNL A   1      42.475  34.890  35.035  1.00  0.00     0.029 A 
ATOM     56  N   UNL A   1      41.310  33.297  36.042  1.00  0.00    -0.354 N 
ATOM     57  N   UNL A   1      38.757  33.102  33.148  1.00  0.00    -0.248 NA
ATOM     58  C   UNL A   1      36.488  33.276  32.842  1.00  0.00     0.031 C 
ATOM     59  C   UNL A   1      41.092  35.033  34.706  1.00  0.00     0.029 A 
ATOM     60  C   UNL A   1      40.384  34.015  35.326  1.00  0.00     0.049 A 
ATOM     61  H   UNL A   1      41.088  32.529  36.619  1.00  0.00     0.167 HD
ATOM     62  C   UNL A   1      38.241  33.425  34.366  1.00  0.00     0.074 A 
ATOM     63  C   UNL A   1      36.813  33.508  34.127  1.00  0.00     0.031 C 
ATOM     64  C   UNL A   1      38.993  33.632  35.486  1.00  0.00     0.037 A 
BRANCH  51  65
ATOM     65  C   UNL A   1      45.008  33.154  36.765  1.00  0.00     0.057 A 
ATOM     66  C   UNL A   1      45.347  32.576  38.000  1.00  0.00     0.134 A 
ATOM     67  C   UNL A   1      46.029  33.996  36.248  1.00  0.00     0.134 A 
ATOM     68  F   UNL A   1      44.532  31.701  38.603  1.00  0.00    -0.206 F 
ATOM     69  C   UNL A   1      46.549  32.847  38.683  1.00  0.00     0.040 A 
ATOM     70  C   UNL A   1      47.200  34.340  36.956  1.00  0.00     0.040 A 
ATOM     71  F   UNL A   1      45.974  34.500  35.005  1.00  0.00    -0.206 F 
ATOM     72  C   UNL A   1      47.470  33.753  38.178  1.00  0.00     0.006 A 
ENDBRANCH  51  65
BRANCH  52  73
ATOM     73  C   UNL A   1      37.555  31.852  29.792  1.00  0.00     0.057 A 
ATOM     74  C   UNL A   1      37.392  30.533  30.287  1.00  0.00     0.134 A 
ATOM     75  C   UNL A   1      36.796  32.188  28.664  1.00  0.00     0.134 A 
ATOM     76  F   UNL A   1      38.013  30.159  31.419  1.00  0.00    -0.206 F 
ATOM     77  C   UNL A   1      36.480  29.628  29.736  1.00  0.00     0.040 A 
ATOM     78  C   UNL A   1      35.878  31.284  28.102  1.00  0.00     0.040 A 
ATOM     79  F   UNL A   1      36.823  33.434  28.170  1.00  0.00    -0.206 F 
ATOM     80  C   UNL A   1      35.727  30.004  28.631  1.00  0.00     0.006 A 
ENDBRANCH  52  73
BRANCH  64  81
ATOM     81  C   UNL A   1      38.469  33.457  36.897  1.00  0.00     0.057 A 
ATOM     82  C   UNL A   1      37.902  32.264  37.361  1.00  0.00     0.134 A 
ATOM     83  C   UNL A   1      38.718  34.427  37.901  1.00  0.00     0.134 A 
ATOM     84  F   UNL A   1      37.752  31.195  36.570  1.00  0.00    -0.206 F 
ATOM     85  C   UNL A   1      37.512  32.091  38.691  1.00  0.00     0.040 A 
ATOM     86  C   UNL A   1      38.444  34.215  39.250  1.00  0.00     0.040 A 
ATOM     87  F   UNL A   1      39.274  35.619  37.631  1.00  0.00    -0.206 F 
ATOM     88  C   UNL A   1      37.798  33.059  39.643  1.00  0.00     0.006 A 
ENDBRANCH  64  81
ENDBRANCH  38  39
ENDBRANCH  31  33
ENDBRANCH  30  31
ENDBRANCH  29  30
ENDBRANCH  28  29
ENDBRANCH  27  28
ENDBRANCH  26  27
ENDBRANCH   1  26
TORSDOF 20
ENDMDL
MODEL 2
REMARK VINA RESULT:     -11.1      4.757      8.672
REMARK SMILES Cc1ccc(Nc2c(Cl)cccc2Cl)c(CC(=O)OCCOCCOCCOC(=O)c2ccc(-c3c4nc(c(-c5c(F)cccc5F)c5ccc([nH]5)c(-c5c(F)cccc5F)c5nc(c(-c6c(F)cccc6F)c6ccc3[nH]6)C=C5)C=C4)cc2)c1
REMARK SMILES IDX 23 1 22 2 21 3 20 4 19 5 17 6 18 7 16 8 15 9 1 10 2 11 3 12
REMARK SMILES IDX 85 13 4 14 5 15 6 16 7 18 8 19 13 20 9 21 10 22 12 23 14 24
REMARK SMILES IDX 11 25 24 26 25 27 26 28 27 29 28 30 29 31 30 32 31 33 32 34
REMARK SMILES IDX 84 35 33 36 83 37 34 38 35 39 36 40 77 41 37 42 82 43 76 44
REMARK SMILES IDX 78 45 38 46 81 47 75 48 74 49 39 51 65 52 48 53 64 54 49 55
REMARK SMILES IDX 52 56 63 57 79 58 50 59 51 60 62 62 80 63 53 64 40 65 41 66
REMARK SMILES IDX 46 67 42 68 43 69 45 70 47 71 44 72 66 73 67 74 72 75 68 76
REMARK SMILES IDX 69 77 71 78 73 79 70 80 54 81 55 82 60 83 56 84 57 85 59 86
REMARK SMILES IDX 61 87 58 88
REMARK H PARENT 6 17 78 50 52 61
REMARK Flexibility Score: inf
ROOT
ATOM      1  C   UNL A   1      34.056  32.534  27.808  1.00  0.00     0.188 C 
ENDROOT
BRANCH   1   2
ATOM      2  O   UNL A   1      33.692  31.196  28.049  1.00  0.00    -0.376 OA
BRANCH   2   3
ATOM      3  C   UNL A   1      32.905  30.471  27.129  1.00  0.00     0.202 C 
BRANCH   3   4
ATOM      4  C   UNL A   1      32.997  28.954  26.550  1.00  0.00     0.261 C 
BRANCH   4   5
ATOM      5  O   UNL A   1      32.624  28.077  25.018  1.00  0.00    -0.463 OA
BRANCH   5   6
ATOM      6  C   UNL A   1      32.734  28.071  23.387  1.00  0.00     0.310 C 
ATOM      7  O   UNL A   1      33.397  27.437  22.555  1.00  0.00    -0.252 OA
BRANCH   6   8
ATOM      8  C   UNL A   1      31.655  28.758  22.756  1.00  0.00     0.160 C 
BRANCH   8   9
ATOM      9  C   UNL A   1      30.575  28.537  23.755  1.00  0.00    -0.013 A 
ATOM     10  C   UNL A   1      28.773  31.905  23.541  1.00  0.00     0.044 C 
ATOM     11  C   UNL A   1      29.009  30.430  23.531  1.00  0.00    -0.051 A 
ATOM     12  C   UNL A   1      28.152  29.528  22.949  1.00  0.00     0.005 A 
ATOM     13  C   UNL A   1      30.188  29.918  24.020  1.00  0.00     0.009 A 
ATOM     14  C   UNL A   1      28.495  28.146  22.893  1.00  0.00     0.026 A 
ATOM     15  C   UNL A   1      29.779  27.391  23.503  1.00  0.00     0.042 A 
BRANCH  15  16
ATOM     16  N   UNL A   1      29.812  25.468  24.082  1.00  0.00    -0.353 N 
ATOM     17  H   UNL A   1      28.925  25.135  24.348  1.00  0.00     0.167 HD
BRANCH  16  18
ATOM     18  C   UNL A   1      31.122  24.193  24.228  1.00  0.00     0.076 A 
ATOM     19  C   UNL A   1      32.145  23.757  23.146  1.00  0.00     0.066 A 
ATOM     20  C   UNL A   1      30.992  23.219  25.247  1.00  0.00     0.066 A 
ATOM     21  Cl  UNL A   1      32.809  24.487  21.655  1.00  0.00    -0.082 Cl
ATOM     22  C   UNL A   1      32.747  22.473  23.140  1.00  0.00     0.023 A 
ATOM     23  C   UNL A   1      31.610  21.930  25.142  1.00  0.00     0.023 A 
ATOM     24  Cl  UNL A   1      30.354  23.478  26.795  1.00  0.00    -0.082 Cl
ATOM     25  C   UNL A   1      32.435  21.543  24.094  1.00  0.00     0.003 A 
ENDBRANCH  16  18
ENDBRANCH  15  16
ENDBRANCH   8   9
ENDBRANCH   6   8
ENDBRANCH   5   6
ENDBRANCH   4   5
ENDBRANCH   3   4
ENDBRANCH   2   3
ENDBRANCH   1   2
BRANCH   1  26
ATOM     26  C   UNL A   1      33.050  33.679  27.903  1.00  0.00     0.188 C 
BRANCH  26  27
ATOM     27  O   UNL A   1      33.530  34.828  28.562  1.00  0.00    -0.376 OA
BRANCH  27  28
ATOM     28  C   UNL A   1      33.179  34.923  29.943  1.00  0.00     0.202 C 
BRANCH  28  29
ATOM     29  C   UNL A   1      34.324  34.879  31.041  1.00  0.00     0.261 C 
BRANCH  29  30
ATOM     30  O   UNL A   1      35.160  33.650  31.069  1.00  0.00    -0.460 OA
BRANCH  30  31
ATOM     31  C   UNL A   1      36.403  33.516  30.412  1.00  0.00     0.338 C 
ATOM     32  O   UNL A   1      36.601  34.191  29.422  1.00  0.00    -0.246 OA
BRANCH  31  33
ATOM     33  C   UNL A   1      37.407  32.369  31.147  1.00  0.00     0.060 A 
ATOM     34  C   UNL A   1      37.308  30.755  32.252  1.00  0.00     0.016 A 
ATOM     35  C   UNL A   1      38.231  33.750  31.977  1.00  0.00     0.016 A 
ATOM     36  C   UNL A   1      37.858  30.862  34.065  1.00  0.00     0.010 A 
ATOM     37  C   UNL A   1      38.604  33.729  33.679  1.00  0.00     0.010 A 
ATOM     38  C   UNL A   1      38.490  32.390  34.852  1.00  0.00    -0.014 A 
BRANCH  38  39
ATOM     39  C   UNL A   1      39.319  32.812  36.496  1.00  0.00     0.031 A 
ATOM     40  C   UNL A   1      38.579  32.804  38.258  1.00  0.00     0.074 A 
ATOM     41  C   UNL A   1      40.663  32.851  36.651  1.00  0.00     0.049 A 
ATOM     42  N   UNL A   1      38.510  33.804  39.119  1.00  0.00    -0.248 NA
ATOM     43  C   UNL A   1      37.469  31.767  38.899  1.00  0.00     0.031 C 
ATOM     44  C   UNL A   1      41.402  32.716  37.924  1.00  0.00     0.029 A 
ATOM     45  N   UNL A   1      41.689  32.910  35.710  1.00  0.00    -0.354 N 
ATOM     46  C   UNL A   1      37.590  33.429  40.161  1.00  0.00     0.074 A 
ATOM     47  C   UNL A   1      36.680  32.492  39.653  1.00  0.00     0.031 C 
ATOM     48  C   UNL A   1      42.699  33.008  37.720  1.00  0.00     0.029 A 
ATOM     49  C   UNL A   1      42.799  33.492  36.358  1.00  0.00     0.049 A 
ATOM     50  H   UNL A   1      41.646  32.605  34.775  1.00  0.00     0.167 HD
ATOM     51  C   UNL A   1      37.908  33.405  41.493  1.00  0.00     0.037 A 
ATOM     52  C   UNL A   1      43.168  34.746  35.982  1.00  0.00     0.037 A 
ATOM     53  C   UNL A   1      39.280  33.830  41.579  1.00  0.00     0.049 A 
ATOM     54  C   UNL A   1      42.824  35.729  37.081  1.00  0.00     0.074 A 
ATOM     55  C   UNL A   1      40.480  33.148  41.648  1.00  0.00     0.029 A 
ATOM     56  N   UNL A   1      39.555  35.064  41.029  1.00  0.00    -0.354 N 
ATOM     57  N   UNL A   1      41.985  35.471  38.053  1.00  0.00    -0.248 NA
ATOM     58  C   UNL A   1      43.488  37.015  37.259  1.00  0.00     0.031 C 
ATOM     59  C   UNL A   1      41.480  33.998  41.084  1.00  0.00     0.029 A 
ATOM     60  C   UNL A   1      40.879  35.181  40.683  1.00  0.00     0.049 A 
ATOM     61  H   UNL A   1      38.885  35.775  40.900  1.00  0.00     0.167 HD
ATOM     62  C   UNL A   1      42.017  36.470  38.978  1.00  0.00     0.074 A 
ATOM     63  C   UNL A   1      42.962  37.422  38.428  1.00  0.00     0.031 C 
ATOM     64  C   UNL A   1      41.302  36.459  40.141  1.00  0.00     0.037 A 
BRANCH  51  65
ATOM     65  C   UNL A   1      37.118  32.636  42.574  1.00  0.00     0.057 A 
ATOM     66  C   UNL A   1      37.391  31.280  42.824  1.00  0.00     0.134 A 
ATOM     67  C   UNL A   1      36.093  33.159  43.408  1.00  0.00     0.134 A 
ATOM     68  F   UNL A   1      38.373  30.640  42.178  1.00  0.00    -0.206 F 
ATOM     69  C   UNL A   1      36.683  30.504  43.762  1.00  0.00     0.040 A 
ATOM     70  C   UNL A   1      35.322  32.376  44.293  1.00  0.00     0.040 A 
ATOM     71  F   UNL A   1      35.809  34.470  43.448  1.00  0.00    -0.206 F 
ATOM     72  C   UNL A   1      35.626  31.040  44.483  1.00  0.00     0.006 A 
ENDBRANCH  51  65
BRANCH  52  73
ATOM     73  C   UNL A   1      43.085  34.859  34.492  1.00  0.00     0.057 A 
ATOM     74  C   UNL A   1      44.005  34.078  33.747  1.00  0.00     0.134 A 
ATOM     75  C   UNL A   1      41.910  35.233  33.826  1.00  0.00     0.134 A 
ATOM     76  F   UNL A   1      45.113  33.600  34.339  1.00  0.00    -0.206 F 
ATOM     77  C   UNL A   1      43.742  33.639  32.446  1.00  0.00     0.040 A 
ATOM     78  C   UNL A   1      41.638  34.799  32.518  1.00  0.00     0.040 A 
ATOM     79  F   UNL A   1      40.946  35.905  34.471  1.00  0.00    -0.206 F 
ATOM     80  C   UNL A   1      42.556  34.011  31.825  1.00  0.00     0.006 A 
ENDBRANCH  52  73
BRANCH  64  81
ATOM     81  C   UNL A   1      40.897  37.711  40.892  1.00  0.00     0.057 A 
ATOM     82  C   UNL A   1      41.644  38.245  41.948  1.00  0.00     0.134 A 
ATOM     83  C   UNL A   1      39.844  38.540  40.429  1.00  0.00     0.134 A 
ATOM     84  F   UNL A   1      42.763  37.661  42.394  1.00  0.00    -0.206 F 
ATOM     85  C   UNL A   1      41.306  39.451  42.567  1.00  0.00     0.040 A 
ATOM     86  C   UNL A   1      39.577  39.800  40.960  1.00  0.00     0.040 A 
ATOM     87  F   UNL A   1      39.042  38.188  39.411  1.00  0.00    -0.206 F 
ATOM     88  C   UNL A   1      40.282  40.241  42.063  1.00  0.00     0.006 A 
ENDBRANCH  64  81
ENDBRANCH  38  39
ENDBRANCH  31  33
ENDBRANCH  30  31
ENDBRANCH  29  30
ENDBRANCH  28  29
ENDBRANCH  27  28
ENDBRANCH  26  27
ENDBRANCH   1  26
TORSDOF 20
ENDMDL
MODEL 3
REMARK VINA RESULT:     -11.1     10.281     15.615
REMARK SMILES Cc1ccc(Nc2c(Cl)cccc2Cl)c(CC(=O)OCCOCCOCCOC(=O)c2ccc(-c3c4nc(c(-c5c(F)cccc5F)c5ccc([nH]5)c(-c5c(F)cccc5F)c5nc(c(-c6c(F)cccc6F)c6ccc3[nH]6)C=C5)C=C4)cc2)c1
REMARK SMILES IDX 23 1 22 2 21 3 20 4 19 5 17 6 18 7 16 8 15 9 1 10 2 11 3 12
REMARK SMILES IDX 85 13 4 14 5 15 6 16 7 18 8 19 13 20 9 21 10 22 12 23 14 24
REMARK SMILES IDX 11 25 24 26 25 27 26 28 27 29 28 30 29 31 30 32 31 33 32 34
REMARK SMILES IDX 84 35 33 36 83 37 34 38 35 39 36 40 77 41 37 42 82 43 76 44
REMARK SMILES IDX 78 45 38 46 81 47 75 48 74 49 39 51 65 52 48 53 64 54 49 55
REMARK SMILES IDX 52 56 63 57 79 58 50 59 51 60 62 62 80 63 53 64 40 65 41 66
REMARK SMILES IDX 46 67 42 68 43 69 45 70 47 71 44 72 66 73 67 74 72 75 68 76
REMARK SMILES IDX 69 77 71 78 73 79 70 80 54 81 55 82 60 83 56 84 57 85 59 86
REMARK SMILES IDX 61 87 58 88
REMARK H PARENT 6 17 78 50 52 61
REMARK Flexibility Score: inf
ROOT
ATOM      1  C   UNL A   1      47.734  21.380  36.421  1.00  0.00     0.188 C 
ENDROOT
BRANCH   1   2
ATOM      2  O   UNL A   1      46.998  20.878  37.511  1.00  0.00    -0.376 OA
BRANCH   2   3
ATOM      3  C   UNL A   1      46.128  19.777  37.366  1.00  0.00     0.202 C 
BRANCH   3   4
ATOM      4  C   UNL A   1      45.930  18.404  38.214  1.00  0.00     0.261 C 
BRANCH   4   5
ATOM      5  O   UNL A   1      44.591  17.274  38.647  1.00  0.00    -0.463 OA
BRANCH   5   6
ATOM      6  C   UNL A   1      43.659  16.657  39.840  1.00  0.00     0.310 C 
ATOM      7  O   UNL A   1      42.975  15.633  39.977  1.00  0.00    -0.252 OA
BRANCH   6   8
ATOM      8  C   UNL A   1      43.870  17.296  41.097  1.00  0.00     0.160 C 
BRANCH   8   9
ATOM      9  C   UNL A   1      44.678  16.258  41.793  1.00  0.00    -0.013 A 
ATOM     10  C   UNL A   1      48.200  17.578  41.099  1.00  0.00     0.044 C 
ATOM     11  C   UNL A   1      47.001  17.084  41.841  1.00  0.00    -0.051 A 
ATOM     12  C   UNL A   1      46.796  17.301  43.182  1.00  0.00     0.005 A 
ATOM     13  C   UNL A   1      45.973  16.476  41.160  1.00  0.00     0.009 A 
ATOM     14  C   UNL A   1      45.580  16.885  43.797  1.00  0.00     0.026 A 
ATOM     15  C   UNL A   1      44.340  16.081  43.160  1.00  0.00     0.042 A 
BRANCH  15  16
ATOM     16  N   UNL A   1      43.103  14.876  44.185  1.00  0.00    -0.353 N 
ATOM     17  H   UNL A   1      42.554  15.363  44.841  1.00  0.00     0.167 HD
BRANCH  16  18
ATOM     18  C   UNL A   1      42.766  13.073  44.176  1.00  0.00     0.076 A 
ATOM     19  C   UNL A   1      43.311  12.002  45.157  1.00  0.00     0.066 A 
ATOM     20  C   UNL A   1      42.295  12.491  42.975  1.00  0.00     0.066 A 
ATOM     21  Cl  UNL A   1      43.996  12.020  46.809  1.00  0.00    -0.082 Cl
ATOM     22  C   UNL A   1      43.435  10.636  44.800  1.00  0.00     0.023 A 
ATOM     23  C   UNL A   1      42.494  11.102  42.681  1.00  0.00     0.023 A 
ATOM     24  Cl  UNL A   1      41.239  13.215  41.866  1.00  0.00    -0.082 Cl
ATOM     25  C   UNL A   1      43.089  10.198  43.551  1.00  0.00     0.003 A 
ENDBRANCH  16  18
ENDBRANCH  15  16
ENDBRANCH   8   9
ENDBRANCH   6   8
ENDBRANCH   5   6
ENDBRANCH   4   5
ENDBRANCH   3   4
ENDBRANCH   2   3
ENDBRANCH   1   2
BRANCH   1  26
ATOM     26  C   UNL A   1      47.189  22.481  35.514  1.00  0.00     0.188 C 
BRANCH  26  27
ATOM     27  O   UNL A   1      46.023  23.111  35.991  1.00  0.00    -0.376 OA
BRANCH  27  28
ATOM     28  C   UNL A   1      46.241  24.110  36.988  1.00  0.00     0.202 C 
BRANCH  28  29
ATOM     29  C   UNL A   1      45.173  24.298  38.147  1.00  0.00     0.261 C 
BRANCH  29  30
ATOM     30  O   UNL A   1      44.172  25.380  37.949  1.00  0.00    -0.460 OA
BRANCH  30  31
ATOM     31  C   UNL A   1      43.324  25.485  36.824  1.00  0.00     0.338 C 
ATOM     32  O   UNL A   1      42.536  24.586  36.618  1.00  0.00    -0.246 OA
BRANCH  31  33
ATOM     33  C   UNL A   1      43.608  26.892  35.927  1.00  0.00     0.060 A 
ATOM     34  C   UNL A   1      42.657  28.438  35.192  1.00  0.00     0.016 A 
ATOM     35  C   UNL A   1      44.332  25.830  34.653  1.00  0.00     0.016 A 
ATOM     36  C   UNL A   1      42.412  28.542  33.312  1.00  0.00     0.010 A 
ATOM     37  C   UNL A   1      43.946  26.002  32.964  1.00  0.00     0.010 A 
ATOM     38  C   UNL A   1      43.023  27.282  32.132  1.00  0.00    -0.014 A 
BRANCH  38  39
ATOM     39  C   UNL A   1      43.171  27.160  30.253  1.00  0.00     0.031 A 
ATOM     40  C   UNL A   1      43.376  25.608  29.157  1.00  0.00     0.074 A 
ATOM     41  C   UNL A   1      42.807  28.164  29.421  1.00  0.00     0.049 A 
ATOM     42  N   UNL A   1      44.348  25.334  28.304  1.00  0.00    -0.248 NA
ATOM     43  C   UNL A   1      42.714  24.113  29.363  1.00  0.00     0.031 C 
ATOM     44  C   UNL A   1      42.453  28.033  27.992  1.00  0.00     0.029 A 
ATOM     45  N   UNL A   1      42.563  29.513  29.672  1.00  0.00    -0.354 N 
ATOM     46  C   UNL A   1      44.259  23.937  27.966  1.00  0.00     0.074 A 
ATOM     47  C   UNL A   1      43.637  23.250  29.018  1.00  0.00     0.031 C 
ATOM     48  C   UNL A   1      42.347  29.257  27.445  1.00  0.00     0.029 A 
ATOM     49  C   UNL A   1      42.785  30.197  28.458  1.00  0.00     0.049 A 
ATOM     50  H   UNL A   1      42.289  29.910  30.530  1.00  0.00     0.167 HD
ATOM     51  C   UNL A   1      44.136  23.463  26.687  1.00  0.00     0.037 A 
ATOM     52  C   UNL A   1      43.874  31.007  28.377  1.00  0.00     0.037 A 
ATOM     53  C   UNL A   1      44.133  24.623  25.835  1.00  0.00     0.049 A 
ATOM     54  C   UNL A   1      44.910  30.379  27.469  1.00  0.00     0.074 A 
ATOM     55  C   UNL A   1      43.123  25.380  25.270  1.00  0.00     0.029 A 
ATOM     56  N   UNL A   1      45.231  25.448  25.951  1.00  0.00    -0.354 N 
ATOM     57  N   UNL A   1      44.909  29.114  27.128  1.00  0.00    -0.248 NA
ATOM     58  C   UNL A   1      45.939  31.134  26.763  1.00  0.00     0.031 C 
ATOM     59  C   UNL A   1      43.640  26.700  25.086  1.00  0.00     0.029 A 
ATOM     60  C   UNL A   1      44.951  26.727  25.539  1.00  0.00     0.049 A 
ATOM     61  H   UNL A   1      46.109  25.157  26.289  1.00  0.00     0.167 HD
ATOM     62  C   UNL A   1      45.849  28.885  26.170  1.00  0.00     0.074 A 
ATOM     63  C   UNL A   1      46.479  30.178  25.986  1.00  0.00     0.031 C 
ATOM     64  C   UNL A   1      46.047  27.678  25.564  1.00  0.00     0.037 A 
BRANCH  51  65
ATOM     65  C   UNL A   1      43.631  22.053  26.314  1.00  0.00     0.057 A 
ATOM     66  C   UNL A   1      44.521  21.088  25.811  1.00  0.00     0.134 A 
ATOM     67  C   UNL A   1      42.299  21.571  26.432  1.00  0.00     0.134 A 
ATOM     68  F   UNL A   1      45.830  21.346  25.697  1.00  0.00    -0.206 F 
ATOM     69  C   UNL A   1      44.124  19.798  25.411  1.00  0.00     0.040 A 
ATOM     70  C   UNL A   1      41.873  20.312  25.961  1.00  0.00     0.040 A 
ATOM     71  F   UNL A   1      41.341  22.276  27.054  1.00  0.00    -0.206 F 
ATOM     72  C   UNL A   1      42.793  19.411  25.457  1.00  0.00     0.006 A 
ENDBRANCH  51  65
BRANCH  52  73
ATOM     73  C   UNL A   1      44.013  31.777  29.653  1.00  0.00     0.057 A 
ATOM     74  C   UNL A   1      45.106  31.426  30.485  1.00  0.00     0.134 A 
ATOM     75  C   UNL A   1      43.504  33.073  29.813  1.00  0.00     0.134 A 
ATOM     76  F   UNL A   1      45.712  30.236  30.331  1.00  0.00    -0.206 F 
ATOM     77  C   UNL A   1      45.699  32.328  31.374  1.00  0.00     0.040 A 
ATOM     78  C   UNL A   1      44.092  33.986  30.706  1.00  0.00     0.040 A 
ATOM     79  F   UNL A   1      42.524  33.524  29.019  1.00  0.00    -0.206 F 
ATOM     80  C   UNL A   1      45.181  33.612  31.491  1.00  0.00     0.006 A 
ENDBRANCH  52  73
BRANCH  64  81
ATOM     81  C   UNL A   1      47.359  27.255  24.936  1.00  0.00     0.057 A 
ATOM     82  C   UNL A   1      47.721  27.584  23.625  1.00  0.00     0.134 A 
ATOM     83  C   UNL A   1      48.397  26.681  25.713  1.00  0.00     0.134 A 
ATOM     84  F   UNL A   1      46.908  28.274  22.815  1.00  0.00    -0.206 F 
ATOM     85  C   UNL A   1      48.973  27.267  23.094  1.00  0.00     0.040 A 
ATOM     86  C   UNL A   1      49.686  26.474  25.228  1.00  0.00     0.040 A 
ATOM     87  F   UNL A   1      48.225  26.324  26.996  1.00  0.00    -0.206 F 
ATOM     88  C   UNL A   1      49.966  26.727  23.900  1.00  0.00     0.006 A 
ENDBRANCH  64  81
ENDBRANCH  38  39
ENDBRANCH  31  33
ENDBRANCH  30  31
ENDBRANCH  29  30
ENDBRANCH  28  29
ENDBRANCH  27  28
ENDBRANCH  26  27
ENDBRANCH   1  26
TORSDOF 20
ENDMDL
