MODEL 1
REMARK VINA RESULT:     -12.0      0.000      0.000
REMARK SMILES Cc1cccc(-n2ncc(C(=O)Nc3cccc(C(=O)OCCOCCOCCOC(=O)c4ccc(-c5c6nc(c(-c7c(F)cccc7F)c7ccc([nH]7)c(-c7c(F)cccc7F)c7nc(c(-c8c(F)cccc8F)c8ccc5[nH]8)C=C7)C=C6)cc4)c3C)c2C)c1
REMARK SMILES IDX 25 1 24 2 23 3 22 4 21 5 19 6 20 7 18 8 14 9 15 10 87 11
REMARK SMILES IDX 16 12 88 13 17 14 13 15 11 16 12 17 10 19 7 20 8 21 89 22
REMARK SMILES IDX 9 23 90 24 6 25 1 26 2 27 3 28 91 29 4 30 5 31 26 32 27 33
REMARK SMILES IDX 28 34 29 35 30 36 31 37 32 38 33 39 34 40 86 41 35 42 85 43
REMARK SMILES IDX 36 44 37 45 38 46 79 47 39 48 84 49 78 50 80 51 40 52 83 53
REMARK SMILES IDX 77 54 76 55 41 57 67 58 50 59 66 60 51 61 54 62 65 63 81 64
REMARK SMILES IDX 52 65 53 66 64 68 82 69 55 70 42 71 43 72 48 73 44 74 45 75
REMARK SMILES IDX 47 76 49 77 46 78 68 79 69 80 74 81 70 82 71 83 73 84 75 85
REMARK SMILES IDX 72 86 56 87 57 88 62 89 58 90 59 91 61 92 63 93 60 94
REMARK H PARENT 13 18 80 56 54 67
REMARK Flexibility Score: inf
ROOT
ATOM      1  C   UNL A   1      40.274  21.263  26.233  1.00  0.00     0.188 C 
ENDROOT
BRANCH   1   2
ATOM      2  O   UNL A   1      39.006  21.794  26.624  1.00  0.00    -0.376 OA
BRANCH   2   3
ATOM      3  C   UNL A   1      38.149  22.415  25.651  1.00  0.00     0.202 C 
BRANCH   3   4
ATOM      4  C   UNL A   1      37.137  21.611  24.695  1.00  0.00     0.261 C 
BRANCH   4   5
ATOM      5  O   UNL A   1      35.759  22.122  24.510  1.00  0.00    -0.460 OA
BRANCH   5   6
ATOM      6  C   UNL A   1      34.483  21.584  24.656  1.00  0.00     0.338 C 
ATOM      7  O   UNL A   1      34.356  20.364  24.684  1.00  0.00    -0.246 OA
BRANCH   6   8
ATOM      8  C   UNL A   1      33.026  22.624  24.693  1.00  0.00     0.065 A 
ATOM      9  C   UNL A   1      31.392  24.641  24.684  1.00  0.00     0.045 A 
ATOM     10  C   UNL A   1      30.866  24.184  25.875  1.00  0.00     0.026 A 
ATOM     11  C   UNL A   1      32.490  23.952  24.059  1.00  0.00    -0.013 A 
ATOM     12  C   UNL A   1      31.315  22.982  26.424  1.00  0.00     0.003 A 
ATOM     13  C   UNL A   1      33.042  25.005  23.019  1.00  0.00     0.047 C 
ATOM     14  C   UNL A   1      32.327  22.207  25.835  1.00  0.00     0.016 A 
BRANCH   9  15
ATOM     15  N   UNL A   1      30.773  25.752  24.055  1.00  0.00    -0.322 N 
ATOM     16  C   UNL A   1      30.642  27.080  24.411  1.00  0.00     0.259 C 
ATOM     17  O   UNL A   1      29.919  27.784  23.701  1.00  0.00    -0.269 OA
ATOM     18  H   UNL A   1      30.355  25.532  23.192  1.00  0.00     0.170 HD
BRANCH  16  19
ATOM     19  C   UNL A   1      31.415  27.663  25.502  1.00  0.00     0.081 A 
ATOM     20  N   UNL A   1      33.002  28.695  26.680  1.00  0.00    -0.237 N 
ATOM     21  N   UNL A   1      32.212  28.096  27.602  1.00  0.00    -0.175 NA
ATOM     22  C   UNL A   1      32.654  28.301  25.395  1.00  0.00     0.054 A 
ATOM     23  C   UNL A   1      31.233  27.551  26.891  1.00  0.00     0.149 A 
ATOM     24  C   UNL A   1      33.548  28.438  24.208  1.00  0.00     0.068 C 
BRANCH  20  25
ATOM     25  C   UNL A   1      33.995  29.602  27.132  1.00  0.00     0.065 A 
ATOM     26  C   UNL A   1      34.116  33.236  28.255  1.00  0.00     0.044 C 
ATOM     27  C   UNL A   1      34.550  31.855  27.864  1.00  0.00    -0.049 A 
ATOM     28  C   UNL A   1      35.897  31.485  27.921  1.00  0.00     0.003 A 
ATOM     29  C   UNL A   1      33.606  30.914  27.442  1.00  0.00     0.031 A 
ATOM     30  C   UNL A   1      36.292  30.187  27.582  1.00  0.00     0.002 A 
ATOM     31  C   UNL A   1      35.343  29.238  27.198  1.00  0.00     0.028 A 
ENDBRANCH  20  25
ENDBRANCH  16  19
ENDBRANCH   9  15
ENDBRANCH   6   8
ENDBRANCH   5   6
ENDBRANCH   4   5
ENDBRANCH   3   4
ENDBRANCH   2   3
ENDBRANCH   1   2
BRANCH   1  32
ATOM     32  C   UNL A   1      40.523  19.777  26.131  1.00  0.00     0.188 C 
BRANCH  32  33
ATOM     33  O   UNL A   1      41.619  19.452  26.974  1.00  0.00    -0.376 OA
BRANCH  33  34
ATOM     34  C   UNL A   1      42.821  19.161  26.278  1.00  0.00     0.202 C 
BRANCH  34  35
ATOM     35  C   UNL A   1      43.198  20.226  25.229  1.00  0.00     0.261 C 
BRANCH  35  36
ATOM     36  O   UNL A   1      44.633  20.285  25.055  1.00  0.00    -0.460 OA
BRANCH  36  37
ATOM     37  C   UNL A   1      45.248  21.498  25.282  1.00  0.00     0.338 C 
ATOM     38  O   UNL A   1      46.430  21.667  25.420  1.00  0.00    -0.246 OA
BRANCH  37  39
ATOM     39  C   UNL A   1      44.194  22.526  25.599  1.00  0.00     0.060 A 
ATOM     40  C   UNL A   1      44.036  23.734  24.904  1.00  0.00     0.016 A 
ATOM     41  C   UNL A   1      43.632  22.453  26.832  1.00  0.00     0.016 A 
ATOM     42  C   UNL A   1      43.523  24.923  25.551  1.00  0.00     0.010 A 
ATOM     43  C   UNL A   1      43.372  23.657  27.475  1.00  0.00     0.010 A 
ATOM     44  C   UNL A   1      43.256  24.985  26.927  1.00  0.00    -0.014 A 
BRANCH  44  45
ATOM     45  C   UNL A   1      43.047  26.452  27.780  1.00  0.00     0.031 A 
ATOM     46  C   UNL A   1      41.821  27.686  27.798  1.00  0.00     0.074 A 
ATOM     47  C   UNL A   1      44.040  26.772  28.643  1.00  0.00     0.049 A 
ATOM     48  N   UNL A   1      41.920  28.733  28.586  1.00  0.00    -0.248 NA
ATOM     49  C   UNL A   1      40.535  27.931  27.037  1.00  0.00     0.031 C 
ATOM     50  C   UNL A   1      44.041  27.730  29.746  1.00  0.00     0.029 A 
ATOM     51  N   UNL A   1      45.366  26.335  28.626  1.00  0.00    -0.354 N 
ATOM     52  C   UNL A   1      40.697  29.374  28.685  1.00  0.00     0.074 A 
ATOM     53  C   UNL A   1      39.912  28.946  27.610  1.00  0.00     0.031 C 
ATOM     54  C   UNL A   1      45.304  28.074  30.020  1.00  0.00     0.029 A 
ATOM     55  C   UNL A   1      46.136  27.442  29.023  1.00  0.00     0.049 A 
ATOM     56  H   UNL A   1      45.693  25.438  28.385  1.00  0.00     0.167 HD
ATOM     57  C   UNL A   1      40.376  30.172  29.728  1.00  0.00     0.037 A 
ATOM     58  C   UNL A   1      47.004  28.020  28.152  1.00  0.00     0.037 A 
ATOM     59  C   UNL A   1      41.578  30.813  30.200  1.00  0.00     0.049 A 
ATOM     60  C   UNL A   1      46.619  29.459  27.877  1.00  0.00     0.074 A 
ATOM     61  C   UNL A   1      42.431  30.724  31.275  1.00  0.00     0.029 A 
ATOM     62  N   UNL A   1      42.259  31.531  29.238  1.00  0.00    -0.354 N 
ATOM     63  N   UNL A   1      45.776  30.139  28.614  1.00  0.00    -0.248 NA
ATOM     64  C   UNL A   1      47.065  30.228  26.718  1.00  0.00     0.031 C 
ATOM     65  C   UNL A   1      43.710  31.231  30.833  1.00  0.00     0.029 A 
ATOM     66  C   UNL A   1      43.595  31.680  29.523  1.00  0.00     0.049 A 
ATOM     67  H   UNL A   1      41.832  31.899  28.431  1.00  0.00     0.167 HD
ATOM     68  C   UNL A   1      45.450  31.309  27.994  1.00  0.00     0.074 A 
ATOM     69  C   UNL A   1      46.322  31.345  26.829  1.00  0.00     0.031 C 
ATOM     70  C   UNL A   1      44.449  32.140  28.426  1.00  0.00     0.037 A 
BRANCH  57  71
ATOM     71  C   UNL A   1      38.963  30.307  30.248  1.00  0.00     0.057 A 
ATOM     72  C   UNL A   1      38.428  31.573  30.518  1.00  0.00     0.134 A 
ATOM     73  C   UNL A   1      38.137  29.228  30.663  1.00  0.00     0.134 A 
ATOM     74  F   UNL A   1      39.103  32.687  30.199  1.00  0.00    -0.206 F 
ATOM     75  C   UNL A   1      37.190  31.754  31.161  1.00  0.00     0.040 A 
ATOM     76  C   UNL A   1      36.879  29.395  31.257  1.00  0.00     0.040 A 
ATOM     77  F   UNL A   1      38.523  27.948  30.573  1.00  0.00    -0.206 F 
ATOM     78  C   UNL A   1      36.408  30.665  31.528  1.00  0.00     0.006 A 
ENDBRANCH  57  71
BRANCH  58  79
ATOM     79  C   UNL A   1      47.667  26.987  27.294  1.00  0.00     0.057 A 
ATOM     80  C   UNL A   1      47.127  26.804  25.994  1.00  0.00     0.134 A 
ATOM     81  C   UNL A   1      48.955  26.485  27.493  1.00  0.00     0.134 A 
ATOM     82  F   UNL A   1      45.893  27.255  25.712  1.00  0.00    -0.206 F 
ATOM     83  C   UNL A   1      47.874  26.304  24.925  1.00  0.00     0.040 A 
ATOM     84  C   UNL A   1      49.696  25.924  26.433  1.00  0.00     0.040 A 
ATOM     85  F   UNL A   1      49.589  26.663  28.661  1.00  0.00    -0.206 F 
ATOM     86  C   UNL A   1      49.177  25.883  25.137  1.00  0.00     0.006 A 
ENDBRANCH  58  79
BRANCH  70  87
ATOM     87  C   UNL A   1      44.170  33.446  27.720  1.00  0.00     0.057 A 
ATOM     88  C   UNL A   1      44.204  34.657  28.423  1.00  0.00     0.134 A 
ATOM     89  C   UNL A   1      43.766  33.546  26.371  1.00  0.00     0.134 A 
ATOM     90  F   UNL A   1      44.521  34.685  29.726  1.00  0.00    -0.206 F 
ATOM     91  C   UNL A   1      43.910  35.884  27.818  1.00  0.00     0.040 A 
ATOM     92  C   UNL A   1      43.405  34.755  25.773  1.00  0.00     0.040 A 
ATOM     93  F   UNL A   1      43.733  32.484  25.553  1.00  0.00    -0.206 F 
ATOM     94  C   UNL A   1      43.496  35.936  26.492  1.00  0.00     0.006 A 
ENDBRANCH  70  87
ENDBRANCH  44  45
ENDBRANCH  37  39
ENDBRANCH  36  37
ENDBRANCH  35  36
ENDBRANCH  34  35
ENDBRANCH  33  34
ENDBRANCH  32  33
ENDBRANCH   1  32
TORSDOF 20
ENDMDL
MODEL 2
REMARK VINA RESULT:     -11.9      1.532      2.644
REMARK SMILES Cc1cccc(-n2ncc(C(=O)Nc3cccc(C(=O)OCCOCCOCCOC(=O)c4ccc(-c5c6nc(c(-c7c(F)cccc7F)c7ccc([nH]7)c(-c7c(F)cccc7F)c7nc(c(-c8c(F)cccc8F)c8ccc5[nH]8)C=C7)C=C6)cc4)c3C)c2C)c1
REMARK SMILES IDX 25 1 24 2 23 3 22 4 21 5 19 6 20 7 18 8 14 9 15 10 87 11
REMARK SMILES IDX 16 12 88 13 17 14 13 15 11 16 12 17 10 19 7 20 8 21 89 22
REMARK SMILES IDX 9 23 90 24 6 25 1 26 2 27 3 28 91 29 4 30 5 31 26 32 27 33
REMARK SMILES IDX 28 34 29 35 30 36 31 37 32 38 33 39 34 40 86 41 35 42 85 43
REMARK SMILES IDX 36 44 37 45 38 46 79 47 39 48 84 49 78 50 80 51 40 52 83 53
REMARK SMILES IDX 77 54 76 55 41 57 67 58 50 59 66 60 51 61 54 62 65 63 81 64
REMARK SMILES IDX 52 65 53 66 64 68 82 69 55 70 42 71 43 72 48 73 44 74 45 75
REMARK SMILES IDX 47 76 49 77 46 78 68 79 69 80 74 81 70 82 71 83 73 84 75 85
REMARK SMILES IDX 72 86 56 87 57 88 62 89 58 90 59 91 61 92 63 93 60 94
REMARK H PARENT 13 18 80 56 54 67
REMARK Flexibility Score: inf
ROOT
ATOM      1  C   UNL A   1      35.929  20.461  25.013  1.00  0.00     0.188 C 
ENDROOT
BRANCH   1   2
ATOM      2  O   UNL A   1      34.696  20.648  24.315  1.00  0.00    -0.376 OA
BRANCH   2   3
ATOM      3  C   UNL A   1      33.552  19.839  24.634  1.00  0.00     0.202 C 
BRANCH   3   4
ATOM      4  C   UNL A   1      32.933  19.692  26.111  1.00  0.00     0.261 C 
BRANCH   4   5
ATOM      5  O   UNL A   1      33.282  20.696  27.143  1.00  0.00    -0.460 OA
BRANCH   5   6
ATOM      6  C   UNL A   1      33.097  22.069  27.281  1.00  0.00     0.338 C 
ATOM      7  O   UNL A   1      32.739  22.511  28.368  1.00  0.00    -0.246 OA
BRANCH   6   8
ATOM      8  C   UNL A   1      33.264  23.181  25.887  1.00  0.00     0.065 A 
ATOM      9  C   UNL A   1      33.250  24.243  23.519  1.00  0.00     0.045 A 
ATOM     10  C   UNL A   1      34.589  24.537  23.673  1.00  0.00     0.026 A 
ATOM     11  C   UNL A   1      32.535  23.535  24.548  1.00  0.00    -0.013 A 
ATOM     12  C   UNL A   1      35.233  24.257  24.879  1.00  0.00     0.003 A 
ATOM     13  C   UNL A   1      31.227  23.038  23.814  1.00  0.00     0.047 C 
ATOM     14  C   UNL A   1      34.587  23.641  25.962  1.00  0.00     0.016 A 
BRANCH   9  15
ATOM     15  N   UNL A   1      32.581  24.724  22.364  1.00  0.00    -0.322 N 
ATOM     16  C   UNL A   1      32.172  25.985  21.972  1.00  0.00     0.259 C 
ATOM     17  O   UNL A   1      31.484  26.060  20.952  1.00  0.00    -0.269 OA
ATOM     18  H   UNL A   1      32.367  24.020  21.711  1.00  0.00     0.170 HD
BRANCH  16  19
ATOM     19  C   UNL A   1      32.630  27.188  22.657  1.00  0.00     0.081 A 
ATOM     20  N   UNL A   1      32.957  28.785  24.177  1.00  0.00    -0.237 N 
ATOM     21  N   UNL A   1      33.456  29.290  23.024  1.00  0.00    -0.175 NA
ATOM     22  C   UNL A   1      32.285  27.592  23.950  1.00  0.00     0.054 A 
ATOM     23  C   UNL A   1      33.322  28.301  22.149  1.00  0.00     0.149 A 
ATOM     24  C   UNL A   1      31.294  26.997  24.893  1.00  0.00     0.068 C 
BRANCH  20  25
ATOM     25  C   UNL A   1      33.198  29.495  25.382  1.00  0.00     0.065 A 
ATOM     26  C   UNL A   1      35.932  29.603  28.027  1.00  0.00     0.044 C 
ATOM     27  C   UNL A   1      34.645  29.863  27.304  1.00  0.00    -0.049 A 
ATOM     28  C   UNL A   1      33.702  30.759  27.818  1.00  0.00     0.003 A 
ATOM     29  C   UNL A   1      34.372  29.213  26.096  1.00  0.00     0.031 A 
ATOM     30  C   UNL A   1      32.517  31.019  27.124  1.00  0.00     0.002 A 
ATOM     31  C   UNL A   1      32.265  30.397  25.899  1.00  0.00     0.028 A 
ENDBRANCH  20  25
ENDBRANCH  16  19
ENDBRANCH   9  15
ENDBRANCH   6   8
ENDBRANCH   5   6
ENDBRANCH   4   5
ENDBRANCH   3   4
ENDBRANCH   2   3
ENDBRANCH   1   2
BRANCH   1  32
ATOM     32  C   UNL A   1      37.195  21.180  24.611  1.00  0.00     0.188 C 
BRANCH  32  33
ATOM     33  O   UNL A   1      38.301  20.441  25.107  1.00  0.00    -0.376 OA
BRANCH  33  34
ATOM     34  C   UNL A   1      39.122  21.161  26.013  1.00  0.00     0.202 C 
BRANCH  34  35
ATOM     35  C   UNL A   1      40.535  20.564  26.170  1.00  0.00     0.261 C 
BRANCH  35  36
ATOM     36  O   UNL A   1      41.532  21.463  25.632  1.00  0.00    -0.460 OA
BRANCH  36  37
ATOM     37  C   UNL A   1      42.853  21.186  25.916  1.00  0.00     0.338 C 
ATOM     38  O   UNL A   1      43.473  20.242  25.504  1.00  0.00    -0.246 OA
BRANCH  37  39
ATOM     39  C   UNL A   1      43.311  22.090  27.029  1.00  0.00     0.060 A 
ATOM     40  C   UNL A   1      42.612  22.280  28.230  1.00  0.00     0.016 A 
ATOM     41  C   UNL A   1      44.225  23.038  26.699  1.00  0.00     0.016 A 
ATOM     42  C   UNL A   1      42.672  23.529  28.957  1.00  0.00     0.010 A 
ATOM     43  C   UNL A   1      44.073  24.288  27.287  1.00  0.00     0.010 A 
ATOM     44  C   UNL A   1      43.334  24.665  28.465  1.00  0.00    -0.014 A 
BRANCH  44  45
ATOM     45  C   UNL A   1      43.085  26.240  29.082  1.00  0.00     0.031 A 
ATOM     46  C   UNL A   1      41.922  27.498  28.777  1.00  0.00     0.074 A 
ATOM     47  C   UNL A   1      43.974  26.648  30.018  1.00  0.00     0.049 A 
ATOM     48  N   UNL A   1      41.968  28.639  29.427  1.00  0.00    -0.248 NA
ATOM     49  C   UNL A   1      40.754  27.671  27.829  1.00  0.00     0.031 C 
ATOM     50  C   UNL A   1      43.879  27.747  30.975  1.00  0.00     0.029 A 
ATOM     51  N   UNL A   1      45.272  26.177  30.232  1.00  0.00    -0.354 N 
ATOM     52  C   UNL A   1      40.772  29.320  29.280  1.00  0.00     0.074 A 
ATOM     53  C   UNL A   1      40.110  28.772  28.177  1.00  0.00     0.031 C 
ATOM     54  C   UNL A   1      45.112  28.091  31.364  1.00  0.00     0.029 A 
ATOM     55  C   UNL A   1      46.034  27.306  30.577  1.00  0.00     0.049 A 
ATOM     56  H   UNL A   1      45.586  25.247  30.156  1.00  0.00     0.167 HD
ATOM     57  C   UNL A   1      40.358  30.261  30.157  1.00  0.00     0.037 A 
ATOM     58  C   UNL A   1      47.029  27.737  29.758  1.00  0.00     0.037 A 
ATOM     59  C   UNL A   1      41.518  30.929  30.694  1.00  0.00     0.049 A 
ATOM     60  C   UNL A   1      46.746  29.135  29.248  1.00  0.00     0.074 A 
ATOM     61  C   UNL A   1      42.224  30.964  31.873  1.00  0.00     0.029 A 
ATOM     62  N   UNL A   1      42.346  31.490  29.743  1.00  0.00    -0.354 N 
ATOM     63  N   UNL A   1      45.848  29.931  29.772  1.00  0.00    -0.248 NA
ATOM     64  C   UNL A   1      47.367  29.726  28.065  1.00  0.00     0.031 C 
ATOM     65  C   UNL A   1      43.570  31.371  31.538  1.00  0.00     0.029 A 
ATOM     66  C   UNL A   1      43.640  31.640  30.177  1.00  0.00     0.049 A 
ATOM     67  H   UNL A   1      42.040  31.756  28.845  1.00  0.00     0.167 HD
ATOM     68  C   UNL A   1      45.655  31.014  28.966  1.00  0.00     0.074 A 
ATOM     69  C   UNL A   1      46.667  30.867  27.930  1.00  0.00     0.031 C 
ATOM     70  C   UNL A   1      44.646  31.923  29.150  1.00  0.00     0.037 A 
BRANCH  57  71
ATOM     71  C   UNL A   1      38.897  30.505  30.466  1.00  0.00     0.057 A 
ATOM     72  C   UNL A   1      38.326  31.761  30.230  1.00  0.00     0.134 A 
ATOM     73  C   UNL A   1      38.045  29.599  31.152  1.00  0.00     0.134 A 
ATOM     74  F   UNL A   1      39.018  32.726  29.607  1.00  0.00    -0.206 F 
ATOM     75  C   UNL A   1      37.027  32.097  30.653  1.00  0.00     0.040 A 
ATOM     76  C   UNL A   1      36.731  29.904  31.533  1.00  0.00     0.040 A 
ATOM     77  F   UNL A   1      38.450  28.385  31.548  1.00  0.00    -0.206 F 
ATOM     78  C   UNL A   1      36.222  31.168  31.302  1.00  0.00     0.006 A 
ENDBRANCH  57  71
BRANCH  58  79
ATOM     79  C   UNL A   1      47.749  26.579  29.138  1.00  0.00     0.057 A 
ATOM     80  C   UNL A   1      47.407  26.269  27.795  1.00  0.00     0.134 A 
ATOM     81  C   UNL A   1      48.953  26.043  29.597  1.00  0.00     0.134 A 
ATOM     82  F   UNL A   1      46.265  26.742  27.268  1.00  0.00    -0.206 F 
ATOM     83  C   UNL A   1      48.277  25.611  26.922  1.00  0.00     0.040 A 
ATOM     84  C   UNL A   1      49.812  25.326  28.740  1.00  0.00     0.040 A 
ATOM     85  F   UNL A   1      49.407  26.327  30.826  1.00  0.00    -0.206 F 
ATOM     86  C   UNL A   1      49.501  25.156  27.389  1.00  0.00     0.006 A 
ENDBRANCH  58  79
BRANCH  70  87
ATOM     87  C   UNL A   1      44.515  33.127  28.248  1.00  0.00     0.057 A 
ATOM     88  C   UNL A   1      44.125  32.978  26.911  1.00  0.00     0.134 A 
ATOM     89  C   UNL A   1      44.858  34.442  28.630  1.00  0.00     0.134 A 
ATOM     90  F   UNL A   1      43.826  31.768  26.415  1.00  0.00    -0.206 F 
ATOM     91  C   UNL A   1      44.033  34.062  26.031  1.00  0.00     0.040 A 
ATOM     92  C   UNL A   1      44.835  35.522  27.744  1.00  0.00     0.040 A 
ATOM     93  F   UNL A   1      45.200  34.756  29.888  1.00  0.00    -0.206 F 
ATOM     94  C   UNL A   1      44.401  35.338  26.442  1.00  0.00     0.006 A 
ENDBRANCH  70  87
ENDBRANCH  44  45
ENDBRANCH  37  39
ENDBRANCH  36  37
ENDBRANCH  35  36
ENDBRANCH  34  35
ENDBRANCH  33  34
ENDBRANCH  32  33
ENDBRANCH   1  32
TORSDOF 20
ENDMDL
MODEL 3
REMARK VINA RESULT:     -11.8      2.156      3.297
REMARK SMILES Cc1cccc(-n2ncc(C(=O)Nc3cccc(C(=O)OCCOCCOCCOC(=O)c4ccc(-c5c6nc(c(-c7c(F)cccc7F)c7ccc([nH]7)c(-c7c(F)cccc7F)c7nc(c(-c8c(F)cccc8F)c8ccc5[nH]8)C=C7)C=C6)cc4)c3C)c2C)c1
REMARK SMILES IDX 25 1 24 2 23 3 22 4 21 5 19 6 20 7 18 8 14 9 15 10 87 11
REMARK SMILES IDX 16 12 88 13 17 14 13 15 11 16 12 17 10 19 7 20 8 21 89 22
REMARK SMILES IDX 9 23 90 24 6 25 1 26 2 27 3 28 91 29 4 30 5 31 26 32 27 33
REMARK SMILES IDX 28 34 29 35 30 36 31 37 32 38 33 39 34 40 86 41 35 42 85 43
REMARK SMILES IDX 36 44 37 45 38 46 79 47 39 48 84 49 78 50 80 51 40 52 83 53
REMARK SMILES IDX 77 54 76 55 41 57 67 58 50 59 66 60 51 61 54 62 65 63 81 64
REMARK SMILES IDX 52 65 53 66 64 68 82 69 55 70 42 71 43 72 48 73 44 74 45 75
REMARK SMILES IDX 47 76 49 77 46 78 68 79 69 80 74 81 70 82 71 83 73 84 75 85
REMARK SMILES IDX 72 86 56 87 57 88 62 89 58 90 59 91 61 92 63 93 60 94
REMARK H PARENT 13 18 80 56 54 67
REMARK Flexibility Score: inf
ROOT
ATOM      1  C   UNL A   1      36.827  21.009  24.746  1.00  0.00     0.188 C 
ENDROOT
BRANCH   1   2
ATOM      2  O   UNL A   1      35.625  20.663  25.440  1.00  0.00    -0.376 OA
BRANCH   2   3
ATOM      3  C   UNL A   1      35.126  21.506  26.491  1.00  0.00     0.202 C 
BRANCH   3   4
ATOM      4  C   UNL A   1      33.639  21.412  27.095  1.00  0.00     0.261 C 
BRANCH   4   5
ATOM      5  O   UNL A   1      32.483  21.415  26.170  1.00  0.00    -0.460 OA
BRANCH   5   6
ATOM      6  C   UNL A   1      32.322  21.587  24.798  1.00  0.00     0.338 C 
ATOM      7  O   UNL A   1      32.155  20.597  24.094  1.00  0.00    -0.246 OA
BRANCH   6   8
ATOM      8  C   UNL A   1      32.463  23.200  24.034  1.00  0.00     0.065 A 
ATOM      9  C   UNL A   1      32.146  25.292  22.529  1.00  0.00     0.045 A 
ATOM     10  C   UNL A   1      33.488  25.234  22.215  1.00  0.00     0.026 A 
ATOM     11  C   UNL A   1      31.554  24.298  23.386  1.00  0.00    -0.013 A 
ATOM     12  C   UNL A   1      34.309  24.281  22.819  1.00  0.00     0.003 A 
ATOM     13  C   UNL A   1      30.004  24.469  23.133  1.00  0.00     0.047 C 
ATOM     14  C   UNL A   1      33.826  23.326  23.728  1.00  0.00     0.016 A 
BRANCH   9  15
ATOM     15  N   UNL A   1      31.388  26.394  22.056  1.00  0.00    -0.322 N 
ATOM     16  C   UNL A   1      30.867  27.512  22.680  1.00  0.00     0.259 C 
ATOM     17  O   UNL A   1      30.126  28.235  22.009  1.00  0.00    -0.269 OA
ATOM     18  H   UNL A   1      31.196  26.355  21.092  1.00  0.00     0.170 HD
BRANCH  16  19
ATOM     19  C   UNL A   1      31.266  27.895  24.029  1.00  0.00     0.081 A 
ATOM     20  N   UNL A   1      32.399  28.697  25.774  1.00  0.00    -0.237 N 
ATOM     21  N   UNL A   1      31.397  27.963  26.312  1.00  0.00    -0.175 NA
ATOM     22  C   UNL A   1      32.458  28.526  24.397  1.00  0.00     0.054 A 
ATOM     23  C   UNL A   1      30.690  27.556  25.265  1.00  0.00     0.149 A 
ATOM     24  C   UNL A   1      33.654  28.847  23.564  1.00  0.00     0.068 C 
BRANCH  20  25
ATOM     25  C   UNL A   1      33.183  29.503  26.639  1.00  0.00     0.065 A 
ATOM     26  C   UNL A   1      33.115  33.099  27.883  1.00  0.00     0.044 C 
ATOM     27  C   UNL A   1      33.561  31.688  27.641  1.00  0.00    -0.049 A 
ATOM     28  C   UNL A   1      34.727  31.194  28.234  1.00  0.00     0.003 A 
ATOM     29  C   UNL A   1      32.807  30.842  26.822  1.00  0.00     0.031 A 
ATOM     30  C   UNL A   1      35.122  29.868  28.028  1.00  0.00     0.002 A 
ATOM     31  C   UNL A   1      34.346  29.015  27.240  1.00  0.00     0.028 A 
ENDBRANCH  20  25
ENDBRANCH  16  19
ENDBRANCH   9  15
ENDBRANCH   6   8
ENDBRANCH   5   6
ENDBRANCH   4   5
ENDBRANCH   3   4
ENDBRANCH   2   3
ENDBRANCH   1   2
BRANCH   1  32
ATOM     32  C   UNL A   1      37.410  22.401  24.799  1.00  0.00     0.188 C 
BRANCH  32  33
ATOM     33  O   UNL A   1      38.449  22.410  25.766  1.00  0.00    -0.376 OA
BRANCH  33  34
ATOM     34  C   UNL A   1      39.156  21.184  25.871  1.00  0.00     0.202 C 
BRANCH  34  35
ATOM     35  C   UNL A   1      40.599  21.348  26.387  1.00  0.00     0.261 C 
BRANCH  35  36
ATOM     36  O   UNL A   1      41.240  22.483  25.761  1.00  0.00    -0.460 OA
BRANCH  36  37
ATOM     37  C   UNL A   1      41.958  23.333  26.575  1.00  0.00     0.338 C 
ATOM     38  O   UNL A   1      42.949  23.041  27.189  1.00  0.00    -0.246 OA
BRANCH  37  39
ATOM     39  C   UNL A   1      41.160  24.592  26.788  1.00  0.00     0.060 A 
ATOM     40  C   UNL A   1      41.442  25.818  26.170  1.00  0.00     0.016 A 
ATOM     41  C   UNL A   1      40.383  24.633  27.900  1.00  0.00     0.016 A 
ATOM     42  C   UNL A   1      41.139  27.081  26.809  1.00  0.00     0.010 A 
ATOM     43  C   UNL A   1      40.326  25.844  28.579  1.00  0.00     0.010 A 
ATOM     44  C   UNL A   1      40.651  27.171  28.122  1.00  0.00    -0.014 A 
BRANCH  44  45
ATOM     45  C   UNL A   1      40.671  28.616  29.036  1.00  0.00     0.031 A 
ATOM     46  C   UNL A   1      39.667  30.036  29.090  1.00  0.00     0.074 A 
ATOM     47  C   UNL A   1      41.682  28.729  29.929  1.00  0.00     0.049 A 
ATOM     48  N   UNL A   1      39.921  31.018  29.926  1.00  0.00    -0.248 NA
ATOM     49  C   UNL A   1      38.458  30.524  28.320  1.00  0.00     0.031 C 
ATOM     50  C   UNL A   1      41.817  29.627  31.073  1.00  0.00     0.029 A 
ATOM     51  N   UNL A   1      42.917  28.077  29.913  1.00  0.00    -0.354 N 
ATOM     52  C   UNL A   1      38.820  31.850  30.034  1.00  0.00     0.074 A 
ATOM     53  C   UNL A   1      38.000  31.605  28.928  1.00  0.00     0.031 C 
ATOM     54  C   UNL A   1      43.114  29.743  31.382  1.00  0.00     0.029 A 
ATOM     55  C   UNL A   1      43.852  29.021  30.371  1.00  0.00     0.049 A 
ATOM     56  H   UNL A   1      43.096  27.148  29.637  1.00  0.00     0.167 HD
ATOM     57  C   UNL A   1      38.613  32.646  31.106  1.00  0.00     0.037 A 
ATOM     58  C   UNL A   1      44.824  29.482  29.541  1.00  0.00     0.037 A 
ATOM     59  C   UNL A   1      39.894  33.057  31.626  1.00  0.00     0.049 A 
ATOM     60  C   UNL A   1      44.691  30.975  29.324  1.00  0.00     0.074 A 
ATOM     61  C   UNL A   1      40.695  32.782  32.709  1.00  0.00     0.029 A 
ATOM     62  N   UNL A   1      40.707  33.690  30.708  1.00  0.00    -0.354 N 
ATOM     63  N   UNL A   1      43.955  31.755  30.078  1.00  0.00    -0.248 NA
ATOM     64  C   UNL A   1      45.285  31.706  28.208  1.00  0.00     0.031 C 
ATOM     65  C   UNL A   1      42.050  33.085  32.310  1.00  0.00     0.029 A 
ATOM     66  C   UNL A   1      42.042  33.601  31.020  1.00  0.00     0.049 A 
ATOM     67  H   UNL A   1      40.366  34.158  29.911  1.00  0.00     0.167 HD
ATOM     68  C   UNL A   1      43.844  32.989  29.505  1.00  0.00     0.074 A 
ATOM     69  C   UNL A   1      44.736  32.926  28.357  1.00  0.00     0.031 C 
ATOM     70  C   UNL A   1      42.986  33.956  29.958  1.00  0.00     0.037 A 
BRANCH  57  71
ATOM     71  C   UNL A   1      37.230  32.995  31.610  1.00  0.00     0.057 A 
ATOM     72  C   UNL A   1      36.753  32.441  32.804  1.00  0.00     0.134 A 
ATOM     73  C   UNL A   1      36.258  33.734  30.883  1.00  0.00     0.134 A 
ATOM     74  F   UNL A   1      37.552  31.703  33.587  1.00  0.00    -0.206 F 
ATOM     75  C   UNL A   1      35.422  32.591  33.232  1.00  0.00     0.040 A 
ATOM     76  C   UNL A   1      34.943  33.934  31.325  1.00  0.00     0.040 A 
ATOM     77  F   UNL A   1      36.503  34.257  29.675  1.00  0.00    -0.206 F 
ATOM     78  C   UNL A   1      34.513  33.343  32.497  1.00  0.00     0.006 A 
ENDBRANCH  57  71
BRANCH  58  79
ATOM     79  C   UNL A   1      45.325  28.388  28.648  1.00  0.00     0.057 A 
ATOM     80  C   UNL A   1      46.106  27.377  29.267  1.00  0.00     0.134 A 
ATOM     81  C   UNL A   1      44.795  28.067  27.398  1.00  0.00     0.134 A 
ATOM     82  F   UNL A   1      46.658  27.598  30.471  1.00  0.00    -0.206 F 
ATOM     83  C   UNL A   1      46.217  26.082  28.752  1.00  0.00     0.040 A 
ATOM     84  C   UNL A   1      44.950  26.781  26.842  1.00  0.00     0.040 A 
ATOM     85  F   UNL A   1      43.985  28.921  26.755  1.00  0.00    -0.206 F 
ATOM     86  C   UNL A   1      45.614  25.772  27.543  1.00  0.00     0.006 A 
ENDBRANCH  58  79
BRANCH  70  87
ATOM     87  C   UNL A   1      42.945  35.319  29.308  1.00  0.00     0.057 A 
ATOM     88  C   UNL A   1      43.428  36.447  29.984  1.00  0.00     0.134 A 
ATOM     89  C   UNL A   1      42.348  35.580  28.055  1.00  0.00     0.134 A 
ATOM     90  F   UNL A   1      43.969  36.333  31.206  1.00  0.00    -0.206 F 
ATOM     91  C   UNL A   1      43.369  37.732  29.435  1.00  0.00     0.040 A 
ATOM     92  C   UNL A   1      42.222  36.866  27.526  1.00  0.00     0.040 A 
ATOM     93  F   UNL A   1      41.885  34.601  27.265  1.00  0.00    -0.206 F 
ATOM     94  C   UNL A   1      42.753  37.949  28.208  1.00  0.00     0.006 A 
ENDBRANCH  70  87
ENDBRANCH  44  45
ENDBRANCH  37  39
ENDBRANCH  36  37
ENDBRANCH  35  36
ENDBRANCH  34  35
ENDBRANCH  33  34
ENDBRANCH  32  33
ENDBRANCH   1  32
TORSDOF 20
ENDMDL
