MODEL 1
REMARK VINA RESULT:     -11.0      0.000      0.000
REMARK SMILES CC(C)c1ccc([C@]2(C(=O)OCCOCCOCCOC(=O)c3ccc(-c4c5nc(c(-c6c(F)cccc6F)c6ccc([nH]6)c(-c6c(F)cccc6F)c6nc(c(-c7c(F)cccc7F)c7ccc4[nH]7)C=C6)C=C5)cc3)CCC[C@@H]2C)cc1
REMARK SMILES IDX 15 1 14 2 13 3 12 4 11 5 9 6 10 7 8 8 77 9 80 10 78 11 79 12
REMARK SMILES IDX 81 13 7 14 4 15 5 16 83 17 6 18 82 19 2 20 1 21 3 22 16 23
REMARK SMILES IDX 17 24 18 25 19 26 20 27 21 28 22 29 23 30 24 31 76 32 25 33
REMARK SMILES IDX 75 34 26 35 27 36 28 37 69 38 29 39 74 40 68 41 70 42 30 43
REMARK SMILES IDX 73 44 67 45 66 46 31 48 57 49 40 50 56 51 41 52 44 53 55 54
REMARK SMILES IDX 71 55 42 56 43 57 54 59 72 60 45 61 32 62 33 63 38 64 34 65
REMARK SMILES IDX 35 66 37 67 39 68 36 69 58 70 59 71 64 72 60 73 61 74 63 75
REMARK SMILES IDX 65 76 62 77 46 78 47 79 52 80 48 81 49 82 51 83 53 84 50 85
REMARK H PARENT 70 47 44 58
REMARK Flexibility Score: inf
ROOT
ATOM      1  C   UNL A   1      32.640  21.388  25.478  1.00  0.00     0.188 C 
ENDROOT
BRANCH   1   2
ATOM      2  O   UNL A   1      32.778  21.841  26.819  1.00  0.00    -0.376 OA
BRANCH   2   3
ATOM      3  C   UNL A   1      32.255  23.118  27.170  1.00  0.00     0.202 C 
BRANCH   3   4
ATOM      4  C   UNL A   1      30.864  23.509  26.643  1.00  0.00     0.261 C 
BRANCH   4   5
ATOM      5  O   UNL A   1      30.733  24.863  26.146  1.00  0.00    -0.463 OA
BRANCH   5   6
ATOM      6  C   UNL A   1      31.003  25.048  24.824  1.00  0.00     0.316 C 
ATOM      7  O   UNL A   1      30.718  24.220  23.960  1.00  0.00    -0.251 OA
BRANCH   6   8
ATOM      8  C   UNL A   1      31.769  26.374  24.479  1.00  0.00     0.095 C 
ATOM      9  C   UNL A   1      32.719  26.989  25.535  1.00  0.00     0.024 C 
ATOM     10  C   UNL A   1      32.855  25.955  23.423  1.00  0.00     0.008 C 
ATOM     11  C   UNL A   1      33.946  26.084  25.601  1.00  0.00     0.002 C 
ATOM     12  C   UNL A   1      33.930  25.282  24.302  1.00  0.00     0.005 C 
ATOM     13  C   UNL A   1      33.524  27.098  22.636  1.00  0.00     0.009 C 
BRANCH   8  14
ATOM     14  C   UNL A   1      30.701  27.391  24.035  1.00  0.00    -0.030 A 
ATOM     15  C   UNL A   1      28.768  29.291  23.154  1.00  0.00    -0.045 A 
ATOM     16  C   UNL A   1      28.510  27.919  23.088  1.00  0.00     0.004 A 
ATOM     17  C   UNL A   1      29.960  29.704  23.755  1.00  0.00     0.004 A 
ATOM     18  C   UNL A   1      29.447  26.988  23.551  1.00  0.00     0.005 A 
ATOM     19  C   UNL A   1      30.918  28.772  24.171  1.00  0.00     0.005 A 
BRANCH  15  20
ATOM     20  C   UNL A   1      27.755  30.281  22.606  1.00  0.00     0.013 C 
ATOM     21  C   UNL A   1      27.628  31.485  23.527  1.00  0.00     0.012 C 
ATOM     22  C   UNL A   1      28.097  30.745  21.184  1.00  0.00     0.012 C 
ENDBRANCH  15  20
ENDBRANCH   8  14
ENDBRANCH   6   8
ENDBRANCH   5   6
ENDBRANCH   4   5
ENDBRANCH   3   4
ENDBRANCH   2   3
ENDBRANCH   1   2
BRANCH   1  23
ATOM     23  C   UNL A   1      32.958  19.922  25.166  1.00  0.00     0.188 C 
BRANCH  23  24
ATOM     24  O   UNL A   1      34.275  19.689  24.717  1.00  0.00    -0.376 OA
BRANCH  24  25
ATOM     25  C   UNL A   1      35.172  20.783  24.711  1.00  0.00     0.202 C 
BRANCH  25  26
ATOM     26  C   UNL A   1      36.612  20.426  25.093  1.00  0.00     0.261 C 
BRANCH  26  27
ATOM     27  O   UNL A   1      37.384  21.505  25.650  1.00  0.00    -0.460 OA
BRANCH  27  28
ATOM     28  C   UNL A   1      38.681  21.254  25.943  1.00  0.00     0.338 C 
ATOM     29  O   UNL A   1      39.321  20.262  25.637  1.00  0.00    -0.246 OA
BRANCH  28  30
ATOM     30  C   UNL A   1      39.269  22.499  26.497  1.00  0.00     0.060 A 
ATOM     31  C   UNL A   1      38.669  23.727  26.187  1.00  0.00     0.016 A 
ATOM     32  C   UNL A   1      40.379  22.456  27.346  1.00  0.00     0.016 A 
ATOM     33  C   UNL A   1      39.195  24.912  26.713  1.00  0.00     0.010 A 
ATOM     34  C   UNL A   1      40.914  23.645  27.857  1.00  0.00     0.010 A 
ATOM     35  C   UNL A   1      40.335  24.881  27.533  1.00  0.00    -0.014 A 
BRANCH  35  36
ATOM     36  C   UNL A   1      41.028  26.148  27.887  1.00  0.00     0.031 A 
ATOM     37  C   UNL A   1      42.411  26.376  27.342  1.00  0.00     0.074 A 
ATOM     38  C   UNL A   1      40.465  27.074  28.686  1.00  0.00     0.049 A 
ATOM     39  N   UNL A   1      43.203  27.408  27.484  1.00  0.00    -0.248 NA
ATOM     40  C   UNL A   1      42.985  25.277  26.551  1.00  0.00     0.031 C 
ATOM     41  C   UNL A   1      39.148  26.966  29.304  1.00  0.00     0.029 A 
ATOM     42  N   UNL A   1      40.924  28.308  29.083  1.00  0.00    -0.354 N 
ATOM     43  C   UNL A   1      44.382  27.066  26.836  1.00  0.00     0.074 A 
ATOM     44  C   UNL A   1      44.194  25.744  26.281  1.00  0.00     0.031 C 
ATOM     45  C   UNL A   1      38.876  28.115  29.949  1.00  0.00     0.029 A 
ATOM     46  C   UNL A   1      40.002  29.037  29.799  1.00  0.00     0.049 A 
ATOM     47  H   UNL A   1      41.828  28.639  28.876  1.00  0.00     0.167 HD
ATOM     48  C   UNL A   1      45.532  27.773  26.741  1.00  0.00     0.037 A 
ATOM     49  C   UNL A   1      40.054  30.311  30.242  1.00  0.00     0.037 A 
ATOM     50  C   UNL A   1      45.740  29.073  27.321  1.00  0.00     0.049 A 
ATOM     51  C   UNL A   1      41.328  31.106  30.066  1.00  0.00     0.074 A 
ATOM     52  C   UNL A   1      46.886  29.848  27.310  1.00  0.00     0.029 A 
ATOM     53  N   UNL A   1      44.782  29.786  28.024  1.00  0.00    -0.354 N 
ATOM     54  N   UNL A   1      42.429  30.783  29.433  1.00  0.00    -0.248 NA
ATOM     55  C   UNL A   1      41.374  32.434  30.700  1.00  0.00     0.031 C 
ATOM     56  C   UNL A   1      46.637  31.008  28.050  1.00  0.00     0.029 A 
ATOM     57  C   UNL A   1      45.316  30.984  28.468  1.00  0.00     0.049 A 
ATOM     58  H   UNL A   1      43.858  29.485  28.185  1.00  0.00     0.167 HD
ATOM     59  C   UNL A   1      43.298  31.856  29.606  1.00  0.00     0.074 A 
ATOM     60  C   UNL A   1      42.578  32.865  30.349  1.00  0.00     0.031 C 
ATOM     61  C   UNL A   1      44.590  31.982  29.211  1.00  0.00     0.037 A 
BRANCH  48  62
ATOM     62  C   UNL A   1      46.683  27.109  26.045  1.00  0.00     0.057 A 
ATOM     63  C   UNL A   1      47.561  26.247  26.714  1.00  0.00     0.134 A 
ATOM     64  C   UNL A   1      46.915  27.341  24.683  1.00  0.00     0.134 A 
ATOM     65  F   UNL A   1      47.408  26.004  28.024  1.00  0.00    -0.206 F 
ATOM     66  C   UNL A   1      48.644  25.660  26.058  1.00  0.00     0.040 A 
ATOM     67  C   UNL A   1      47.977  26.738  24.010  1.00  0.00     0.040 A 
ATOM     68  F   UNL A   1      46.112  28.158  23.984  1.00  0.00    -0.206 F 
ATOM     69  C   UNL A   1      48.850  25.900  24.700  1.00  0.00     0.006 A 
ENDBRANCH  48  62
BRANCH  49  70
ATOM     70  C   UNL A   1      38.866  30.955  30.874  1.00  0.00     0.057 A 
ATOM     71  C   UNL A   1      37.934  31.656  30.093  1.00  0.00     0.134 A 
ATOM     72  C   UNL A   1      38.651  30.937  32.255  1.00  0.00     0.134 A 
ATOM     73  F   UNL A   1      38.093  31.738  28.763  1.00  0.00    -0.206 F 
ATOM     74  C   UNL A   1      36.854  32.334  30.662  1.00  0.00     0.040 A 
ATOM     75  C   UNL A   1      37.554  31.580  32.836  1.00  0.00     0.040 A 
ATOM     76  F   UNL A   1      39.504  30.294  33.066  1.00  0.00    -0.206 F 
ATOM     77  C   UNL A   1      36.659  32.291  32.040  1.00  0.00     0.006 A 
ENDBRANCH  49  70
BRANCH  61  78
ATOM     78  C   UNL A   1      45.316  33.246  29.582  1.00  0.00     0.057 A 
ATOM     79  C   UNL A   1      45.296  34.376  28.754  1.00  0.00     0.134 A 
ATOM     80  C   UNL A   1      45.983  33.357  30.809  1.00  0.00     0.134 A 
ATOM     81  F   UNL A   1      44.678  34.338  27.563  1.00  0.00    -0.206 F 
ATOM     82  C   UNL A   1      45.933  35.563  29.121  1.00  0.00     0.040 A 
ATOM     83  C   UNL A   1      46.600  34.547  31.199  1.00  0.00     0.040 A 
ATOM     84  F   UNL A   1      46.029  32.319  31.656  1.00  0.00    -0.206 F 
ATOM     85  C   UNL A   1      46.582  35.653  30.352  1.00  0.00     0.006 A 
ENDBRANCH  61  78
ENDBRANCH  35  36
ENDBRANCH  28  30
ENDBRANCH  27  28
ENDBRANCH  26  27
ENDBRANCH  25  26
ENDBRANCH  24  25
ENDBRANCH  23  24
ENDBRANCH   1  23
TORSDOF 19
ENDMDL
MODEL 2
REMARK VINA RESULT:     -10.9      4.073      7.302
REMARK SMILES CC(C)c1ccc([C@]2(C(=O)OCCOCCOCCOC(=O)c3ccc(-c4c5nc(c(-c6c(F)cccc6F)c6ccc([nH]6)c(-c6c(F)cccc6F)c6nc(c(-c7c(F)cccc7F)c7ccc4[nH]7)C=C6)C=C5)cc3)CCC[C@@H]2C)cc1
REMARK SMILES IDX 15 1 14 2 13 3 12 4 11 5 9 6 10 7 8 8 77 9 80 10 78 11 79 12
REMARK SMILES IDX 81 13 7 14 4 15 5 16 83 17 6 18 82 19 2 20 1 21 3 22 16 23
REMARK SMILES IDX 17 24 18 25 19 26 20 27 21 28 22 29 23 30 24 31 76 32 25 33
REMARK SMILES IDX 75 34 26 35 27 36 28 37 69 38 29 39 74 40 68 41 70 42 30 43
REMARK SMILES IDX 73 44 67 45 66 46 31 48 57 49 40 50 56 51 41 52 44 53 55 54
REMARK SMILES IDX 71 55 42 56 43 57 54 59 72 60 45 61 32 62 33 63 38 64 34 65
REMARK SMILES IDX 35 66 37 67 39 68 36 69 58 70 59 71 64 72 60 73 61 74 63 75
REMARK SMILES IDX 65 76 62 77 46 78 47 79 52 80 48 81 49 82 51 83 53 84 50 85
REMARK H PARENT 70 47 44 58
REMARK Flexibility Score: inf
ROOT
ATOM      1  C   UNL A   1      39.045  20.499  25.601  1.00  0.00     0.188 C 
ENDROOT
BRANCH   1   2
ATOM      2  O   UNL A   1      38.206  21.595  25.260  1.00  0.00    -0.376 OA
BRANCH   2   3
ATOM      3  C   UNL A   1      38.387  22.835  25.936  1.00  0.00     0.202 C 
BRANCH   3   4
ATOM      4  C   UNL A   1      37.174  23.767  26.093  1.00  0.00     0.261 C 
BRANCH   4   5
ATOM      5  O   UNL A   1      36.090  23.559  25.158  1.00  0.00    -0.463 OA
BRANCH   5   6
ATOM      6  C   UNL A   1      34.872  23.279  25.701  1.00  0.00     0.316 C 
ATOM      7  O   UNL A   1      34.678  23.219  26.914  1.00  0.00    -0.251 OA
BRANCH   6   8
ATOM      8  C   UNL A   1      33.734  22.973  24.664  1.00  0.00     0.095 C 
ATOM      9  C   UNL A   1      32.348  23.636  24.854  1.00  0.00     0.024 C 
ATOM     10  C   UNL A   1      34.162  23.727  23.353  1.00  0.00     0.008 C 
ATOM     11  C   UNL A   1      32.516  25.112  24.506  1.00  0.00     0.002 C 
ATOM     12  C   UNL A   1      33.798  25.191  23.680  1.00  0.00     0.005 C 
ATOM     13  C   UNL A   1      33.428  23.326  22.060  1.00  0.00     0.009 C 
BRANCH   8  14
ATOM     14  C   UNL A   1      33.610  21.440  24.593  1.00  0.00    -0.030 A 
ATOM     15  C   UNL A   1      33.374  18.607  24.386  1.00  0.00    -0.045 A 
ATOM     16  C   UNL A   1      34.589  19.203  24.732  1.00  0.00     0.004 A 
ATOM     17  C   UNL A   1      32.257  19.434  24.243  1.00  0.00     0.004 A 
ATOM     18  C   UNL A   1      34.696  20.593  24.865  1.00  0.00     0.005 A 
ATOM     19  C   UNL A   1      32.375  20.826  24.326  1.00  0.00     0.005 A 
BRANCH  15  20
ATOM     20  C   UNL A   1      33.292  17.101  24.206  1.00  0.00     0.013 C 
ATOM     21  C   UNL A   1      34.271  16.634  23.139  1.00  0.00     0.012 C 
ATOM     22  C   UNL A   1      33.544  16.339  25.514  1.00  0.00     0.012 C 
ENDBRANCH  15  20
ENDBRANCH   8  14
ENDBRANCH   6   8
ENDBRANCH   5   6
ENDBRANCH   4   5
ENDBRANCH   3   4
ENDBRANCH   2   3
ENDBRANCH   1   2
BRANCH   1  23
ATOM     23  C   UNL A   1      40.316  20.775  26.412  1.00  0.00     0.188 C 
BRANCH  23  24
ATOM     24  O   UNL A   1      41.520  20.493  25.731  1.00  0.00    -0.376 OA
BRANCH  24  25
ATOM     25  C   UNL A   1      42.725  20.956  26.308  1.00  0.00     0.202 C 
BRANCH  25  26
ATOM     26  C   UNL A   1      43.612  21.771  25.360  1.00  0.00     0.261 C 
BRANCH  26  27
ATOM     27  O   UNL A   1      43.075  23.045  24.961  1.00  0.00    -0.460 OA
BRANCH  27  28
ATOM     28  C   UNL A   1      43.860  24.132  25.135  1.00  0.00     0.338 C 
ATOM     29  O   UNL A   1      44.829  24.448  24.465  1.00  0.00    -0.246 OA
BRANCH  28  30
ATOM     30  C   UNL A   1      43.203  25.010  26.134  1.00  0.00     0.060 A 
ATOM     31  C   UNL A   1      43.624  26.343  26.245  1.00  0.00     0.016 A 
ATOM     32  C   UNL A   1      42.154  24.539  26.930  1.00  0.00     0.016 A 
ATOM     33  C   UNL A   1      43.006  27.195  27.166  1.00  0.00     0.010 A 
ATOM     34  C   UNL A   1      41.549  25.389  27.863  1.00  0.00     0.010 A 
ATOM     35  C   UNL A   1      41.979  26.717  27.999  1.00  0.00    -0.014 A 
BRANCH  35  36
ATOM     36  C   UNL A   1      41.498  27.549  29.134  1.00  0.00     0.031 A 
ATOM     37  C   UNL A   1      42.308  27.556  30.401  1.00  0.00     0.074 A 
ATOM     38  C   UNL A   1      40.364  28.270  29.062  1.00  0.00     0.049 A 
ATOM     39  N   UNL A   1      42.110  28.219  31.511  1.00  0.00    -0.248 NA
ATOM     40  C   UNL A   1      43.484  26.673  30.424  1.00  0.00     0.031 C 
ATOM     41  C   UNL A   1      39.472  28.329  27.909  1.00  0.00     0.029 A 
ATOM     42  N   UNL A   1      39.789  29.122  29.977  1.00  0.00    -0.354 N 
ATOM     43  C   UNL A   1      43.113  27.803  32.378  1.00  0.00     0.074 A 
ATOM     44  C   UNL A   1      43.928  26.850  31.658  1.00  0.00     0.031 C 
ATOM     45  C   UNL A   1      38.497  29.222  28.159  1.00  0.00     0.029 A 
ATOM     46  C   UNL A   1      38.689  29.792  29.493  1.00  0.00     0.049 A 
ATOM     47  H   UNL A   1      40.132  29.240  30.892  1.00  0.00     0.167 HD
ATOM     48  C   UNL A   1      43.317  28.155  33.669  1.00  0.00     0.037 A 
ATOM     49  C   UNL A   1      37.954  30.777  30.052  1.00  0.00     0.037 A 
ATOM     50  C   UNL A   1      42.489  29.074  34.403  1.00  0.00     0.049 A 
ATOM     51  C   UNL A   1      38.243  31.201  31.474  1.00  0.00     0.074 A 
ATOM     52  C   UNL A   1      42.596  29.459  35.728  1.00  0.00     0.029 A 
ATOM     53  N   UNL A   1      41.395  29.744  33.878  1.00  0.00    -0.354 N 
ATOM     54  N   UNL A   1      39.205  30.818  32.277  1.00  0.00    -0.248 NA
ATOM     55  C   UNL A   1      37.314  32.171  32.079  1.00  0.00     0.031 C 
ATOM     56  C   UNL A   1      41.536  30.325  36.018  1.00  0.00     0.029 A 
ATOM     57  C   UNL A   1      40.807  30.527  34.857  1.00  0.00     0.049 A 
ATOM     58  H   UNL A   1      41.083  29.674  32.947  1.00  0.00     0.167 HD
ATOM     59  C   UNL A   1      38.989  31.487  33.479  1.00  0.00     0.074 A 
ATOM     60  C   UNL A   1      37.842  32.345  33.282  1.00  0.00     0.031 C 
ATOM     61  C   UNL A   1      39.663  31.376  34.652  1.00  0.00     0.037 A 
BRANCH  48  62
ATOM     62  C   UNL A   1      44.442  27.472  34.390  1.00  0.00     0.057 A 
ATOM     63  C   UNL A   1      44.274  26.241  35.036  1.00  0.00     0.134 A 
ATOM     64  C   UNL A   1      45.711  28.062  34.439  1.00  0.00     0.134 A 
ATOM     65  F   UNL A   1      43.076  25.637  35.048  1.00  0.00    -0.206 F 
ATOM     66  C   UNL A   1      45.323  25.634  35.728  1.00  0.00     0.040 A 
ATOM     67  C   UNL A   1      46.775  27.451  35.102  1.00  0.00     0.040 A 
ATOM     68  F   UNL A   1      45.938  29.243  33.841  1.00  0.00    -0.206 F 
ATOM     69  C   UNL A   1      46.580  26.237  35.756  1.00  0.00     0.006 A 
ENDBRANCH  48  62
BRANCH  49  70
ATOM     70  C   UNL A   1      36.885  31.472  29.280  1.00  0.00     0.057 A 
ATOM     71  C   UNL A   1      35.684  30.815  28.973  1.00  0.00     0.134 A 
ATOM     72  C   UNL A   1      37.041  32.771  28.786  1.00  0.00     0.134 A 
ATOM     73  F   UNL A   1      35.477  29.556  29.390  1.00  0.00    -0.206 F 
ATOM     74  C   UNL A   1      34.695  31.410  28.187  1.00  0.00     0.040 A 
ATOM     75  C   UNL A   1      36.045  33.394  28.029  1.00  0.00     0.040 A 
ATOM     76  F   UNL A   1      38.165  33.459  29.032  1.00  0.00    -0.206 F 
ATOM     77  C   UNL A   1      34.872  32.708  27.718  1.00  0.00     0.006 A 
ENDBRANCH  49  70
BRANCH  61  78
ATOM     78  C   UNL A   1      39.174  32.190  35.818  1.00  0.00     0.057 A 
ATOM     79  C   UNL A   1      38.339  31.642  36.800  1.00  0.00     0.134 A 
ATOM     80  C   UNL A   1      39.597  33.514  35.997  1.00  0.00     0.134 A 
ATOM     81  F   UNL A   1      37.893  30.381  36.689  1.00  0.00    -0.206 F 
ATOM     82  C   UNL A   1      37.922  32.387  37.906  1.00  0.00     0.040 A 
ATOM     83  C   UNL A   1      39.210  34.260  37.113  1.00  0.00     0.040 A 
ATOM     84  F   UNL A   1      40.409  34.098  35.104  1.00  0.00    -0.206 F 
ATOM     85  C   UNL A   1      38.365  33.698  38.068  1.00  0.00     0.006 A 
ENDBRANCH  61  78
ENDBRANCH  35  36
ENDBRANCH  28  30
ENDBRANCH  27  28
ENDBRANCH  26  27
ENDBRANCH  25  26
ENDBRANCH  24  25
ENDBRANCH  23  24
ENDBRANCH   1  23
TORSDOF 19
ENDMDL
MODEL 3
REMARK VINA RESULT:     -10.9      0.580      6.091
REMARK SMILES CC(C)c1ccc([C@]2(C(=O)OCCOCCOCCOC(=O)c3ccc(-c4c5nc(c(-c6c(F)cccc6F)c6ccc([nH]6)c(-c6c(F)cccc6F)c6nc(c(-c7c(F)cccc7F)c7ccc4[nH]7)C=C6)C=C5)cc3)CCC[C@@H]2C)cc1
REMARK SMILES IDX 15 1 14 2 13 3 12 4 11 5 9 6 10 7 8 8 77 9 80 10 78 11 79 12
REMARK SMILES IDX 81 13 7 14 4 15 5 16 83 17 6 18 82 19 2 20 1 21 3 22 16 23
REMARK SMILES IDX 17 24 18 25 19 26 20 27 21 28 22 29 23 30 24 31 76 32 25 33
REMARK SMILES IDX 75 34 26 35 27 36 28 37 69 38 29 39 74 40 68 41 70 42 30 43
REMARK SMILES IDX 73 44 67 45 66 46 31 48 57 49 40 50 56 51 41 52 44 53 55 54
REMARK SMILES IDX 71 55 42 56 43 57 54 59 72 60 45 61 32 62 33 63 38 64 34 65
REMARK SMILES IDX 35 66 37 67 39 68 36 69 58 70 59 71 64 72 60 73 61 74 63 75
REMARK SMILES IDX 65 76 62 77 46 78 47 79 52 80 48 81 49 82 51 83 53 84 50 85
REMARK H PARENT 70 47 44 58
REMARK Flexibility Score: inf
ROOT
ATOM      1  C   UNL A   1      32.639  21.307  25.523  1.00  0.00     0.188 C 
ENDROOT
BRANCH   1   2
ATOM      2  O   UNL A   1      32.846  21.727  26.866  1.00  0.00    -0.376 OA
BRANCH   2   3
ATOM      3  C   UNL A   1      32.517  23.065  27.225  1.00  0.00     0.202 C 
BRANCH   3   4
ATOM      4  C   UNL A   1      31.116  23.594  26.874  1.00  0.00     0.261 C 
BRANCH   4   5
ATOM      5  O   UNL A   1      31.067  24.919  26.293  1.00  0.00    -0.463 OA
BRANCH   5   6
ATOM      6  C   UNL A   1      31.214  24.988  24.940  1.00  0.00     0.316 C 
ATOM      7  O   UNL A   1      30.752  24.145  24.173  1.00  0.00    -0.251 OA
BRANCH   6   8
ATOM      8  C   UNL A   1      32.075  26.194  24.424  1.00  0.00     0.095 C 
ATOM      9  C   UNL A   1      33.231  26.724  25.307  1.00  0.00     0.024 C 
ATOM     10  C   UNL A   1      32.943  25.605  23.254  1.00  0.00     0.008 C 
ATOM     11  C   UNL A   1      34.339  25.677  25.255  1.00  0.00     0.002 C 
ATOM     12  C   UNL A   1      34.045  24.835  24.015  1.00  0.00     0.005 C 
ATOM     13  C   UNL A   1      33.626  26.625  22.324  1.00  0.00     0.009 C 
BRANCH   8  14
ATOM     14  C   UNL A   1      31.083  27.319  24.074  1.00  0.00    -0.030 A 
ATOM     15  C   UNL A   1      29.298  29.429  23.377  1.00  0.00    -0.045 A 
ATOM     16  C   UNL A   1      29.022  28.106  23.020  1.00  0.00     0.004 A 
ATOM     17  C   UNL A   1      30.422  29.671  24.169  1.00  0.00     0.004 A 
ATOM     18  C   UNL A   1      29.883  27.067  23.391  1.00  0.00     0.005 A 
ATOM     19  C   UNL A   1      31.310  28.639  24.496  1.00  0.00     0.005 A 
BRANCH  15  20
ATOM     20  C   UNL A   1      28.371  30.545  22.926  1.00  0.00     0.013 C 
ATOM     21  C   UNL A   1      28.781  31.869  23.551  1.00  0.00     0.012 C 
ATOM     22  C   UNL A   1      28.318  30.683  21.399  1.00  0.00     0.012 C 
ENDBRANCH  15  20
ENDBRANCH   8  14
ENDBRANCH   6   8
ENDBRANCH   5   6
ENDBRANCH   4   5
ENDBRANCH   3   4
ENDBRANCH   2   3
ENDBRANCH   1   2
BRANCH   1  23
ATOM     23  C   UNL A   1      32.874  19.834  25.173  1.00  0.00     0.188 C 
BRANCH  23  24
ATOM     24  O   UNL A   1      34.181  19.536  24.731  1.00  0.00    -0.376 OA
BRANCH  24  25
ATOM     25  C   UNL A   1      35.114  20.597  24.675  1.00  0.00     0.202 C 
BRANCH  25  26
ATOM     26  C   UNL A   1      36.556  20.192  25.000  1.00  0.00     0.261 C 
BRANCH  26  27
ATOM     27  O   UNL A   1      37.414  21.266  25.426  1.00  0.00    -0.460 OA
BRANCH  27  28
ATOM     28  C   UNL A   1      38.647  20.936  25.872  1.00  0.00     0.338 C 
ATOM     29  O   UNL A   1      39.203  19.857  25.753  1.00  0.00    -0.246 OA
BRANCH  28  30
ATOM     30  C   UNL A   1      39.314  22.183  26.323  1.00  0.00     0.060 A 
ATOM     31  C   UNL A   1      38.709  23.415  26.041  1.00  0.00     0.016 A 
ATOM     32  C   UNL A   1      40.506  22.140  27.053  1.00  0.00     0.016 A 
ATOM     33  C   UNL A   1      39.309  24.603  26.473  1.00  0.00     0.010 A 
ATOM     34  C   UNL A   1      41.114  23.330  27.469  1.00  0.00     0.010 A 
ATOM     35  C   UNL A   1      40.528  24.570  27.170  1.00  0.00    -0.014 A 
BRANCH  35  36
ATOM     36  C   UNL A   1      41.279  25.831  27.411  1.00  0.00     0.031 A 
ATOM     37  C   UNL A   1      40.656  26.867  28.306  1.00  0.00     0.074 A 
ATOM     38  C   UNL A   1      42.474  26.073  26.842  1.00  0.00     0.049 A 
ATOM     39  N   UNL A   1      41.125  28.026  28.689  1.00  0.00    -0.248 NA
ATOM     40  C   UNL A   1      39.311  26.559  28.816  1.00  0.00     0.031 C 
ATOM     41  C   UNL A   1      43.174  25.171  25.933  1.00  0.00     0.029 A 
ATOM     42  N   UNL A   1      43.327  27.144  26.978  1.00  0.00    -0.354 N 
ATOM     43  C   UNL A   1      40.117  28.604  29.450  1.00  0.00     0.074 A 
ATOM     44  C   UNL A   1      39.023  27.659  29.494  1.00  0.00     0.031 C 
ATOM     45  C   UNL A   1      44.379  25.695  25.643  1.00  0.00     0.029 A 
ATOM     46  C   UNL A   1      44.533  26.974  26.338  1.00  0.00     0.049 A 
ATOM     47  H   UNL A   1      43.095  27.955  27.484  1.00  0.00     0.167 HD
ATOM     48  C   UNL A   1      40.088  29.826  30.031  1.00  0.00     0.037 A 
ATOM     49  C   UNL A   1      45.641  27.746  26.350  1.00  0.00     0.037 A 
ATOM     50  C   UNL A   1      41.157  30.786  29.962  1.00  0.00     0.049 A 
ATOM     51  C   UNL A   1      45.608  29.079  27.062  1.00  0.00     0.074 A 
ATOM     52  C   UNL A   1      41.200  32.066  30.486  1.00  0.00     0.029 A 
ATOM     53  N   UNL A   1      42.367  30.575  29.320  1.00  0.00    -0.354 N 
ATOM     54  N   UNL A   1      44.659  29.606  27.796  1.00  0.00    -0.248 NA
ATOM     55  C   UNL A   1      46.793  29.940  26.914  1.00  0.00     0.031 C 
ATOM     56  C   UNL A   1      42.417  32.648  30.118  1.00  0.00     0.029 A 
ATOM     57  C   UNL A   1      43.157  31.708  29.419  1.00  0.00     0.049 A 
ATOM     58  H   UNL A   1      42.627  29.744  28.862  1.00  0.00     0.167 HD
ATOM     59  C   UNL A   1      45.126  30.859  28.183  1.00  0.00     0.074 A 
ATOM     60  C   UNL A   1      46.465  30.990  27.654  1.00  0.00     0.031 C 
ATOM     61  C   UNL A   1      44.490  31.829  28.886  1.00  0.00     0.037 A 
BRANCH  48  62
ATOM     62  C   UNL A   1      38.818  30.218  30.726  1.00  0.00     0.057 A 
ATOM     63  C   UNL A   1      38.610  29.979  32.090  1.00  0.00     0.134 A 
ATOM     64  C   UNL A   1      37.786  30.843  30.013  1.00  0.00     0.134 A 
ATOM     65  F   UNL A   1      39.550  29.362  32.823  1.00  0.00    -0.206 F 
ATOM     66  C   UNL A   1      37.411  30.324  32.715  1.00  0.00     0.040 A 
ATOM     67  C   UNL A   1      36.594  31.218  30.632  1.00  0.00     0.040 A 
ATOM     68  F   UNL A   1      37.920  31.098  28.702  1.00  0.00    -0.206 F 
ATOM     69  C   UNL A   1      36.401  30.951  31.986  1.00  0.00     0.006 A 
ENDBRANCH  48  62
BRANCH  49  70
ATOM     70  C   UNL A   1      46.903  27.291  25.699  1.00  0.00     0.057 A 
ATOM     71  C   UNL A   1      47.141  27.555  24.341  1.00  0.00     0.134 A 
ATOM     72  C   UNL A   1      47.872  26.547  26.379  1.00  0.00     0.134 A 
ATOM     73  F   UNL A   1      46.241  28.240  23.619  1.00  0.00    -0.206 F 
ATOM     74  C   UNL A   1      48.276  27.078  23.683  1.00  0.00     0.040 A 
ATOM     75  C   UNL A   1      49.030  26.093  25.743  1.00  0.00     0.040 A 
ATOM     76  F   UNL A   1      47.709  26.248  27.676  1.00  0.00    -0.206 F 
ATOM     77  C   UNL A   1      49.229  26.348  24.388  1.00  0.00     0.006 A 
ENDBRANCH  49  70
BRANCH  61  78
ATOM     78  C   UNL A   1      45.223  33.122  29.118  1.00  0.00     0.057 A 
ATOM     79  C   UNL A   1      46.056  33.306  30.229  1.00  0.00     0.134 A 
ATOM     80  C   UNL A   1      45.150  34.166  28.186  1.00  0.00     0.134 A 
ATOM     81  F   UNL A   1      46.170  32.349  31.162  1.00  0.00    -0.206 F 
ATOM     82  C   UNL A   1      46.771  34.491  30.419  1.00  0.00     0.040 A 
ATOM     83  C   UNL A   1      45.882  35.344  28.351  1.00  0.00     0.040 A 
ATOM     84  F   UNL A   1      44.383  34.051  27.092  1.00  0.00    -0.206 F 
ATOM     85  C   UNL A   1      46.690  35.512  29.473  1.00  0.00     0.006 A 
ENDBRANCH  61  78
ENDBRANCH  35  36
ENDBRANCH  28  30
ENDBRANCH  27  28
ENDBRANCH  26  27
ENDBRANCH  25  26
ENDBRANCH  24  25
ENDBRANCH  23  24
ENDBRANCH   1  23
TORSDOF 19
ENDMDL
