MODEL 1
REMARK VINA RESULT:      -9.6      0.000      0.000
REMARK SMILES CCCCCC(=O)N1CCC[C@H](C(=O)OCCOCCOCCOC(=O)c2ccc(-c3c4nc(c(-c5c(F)cccc5F)c5ccc([nH]5)c(-c5c(F)cccc5F)c5nc(c(-c6c(F)cccc6F)c6ccc3[nH]6)C=C5)C=C4)cc2)C1
REMARK SMILES IDX 18 1 17 2 16 3 15 4 13 5 14 6 12 7 8 8 9 9 81 10 10 11 11 12
REMARK SMILES IDX 6 13 7 14 5 15 4 16 3 17 2 18 1 19 19 20 20 21 21 22 22 23
REMARK SMILES IDX 23 24 24 25 25 26 26 27 27 28 28 29 80 30 29 31 79 32 30 33
REMARK SMILES IDX 31 34 32 35 73 36 33 37 78 38 72 39 74 40 34 41 77 42 71 43
REMARK SMILES IDX 70 44 35 46 61 47 44 48 60 49 45 50 48 51 59 52 75 53 46 54
REMARK SMILES IDX 47 55 58 57 76 58 49 59 36 60 37 61 42 62 38 63 39 64 41 65
REMARK SMILES IDX 43 66 40 67 62 68 63 69 68 70 64 71 65 72 67 73 69 74 66 75
REMARK SMILES IDX 50 76 51 77 56 78 52 79 53 80 55 81 57 82 54 83
REMARK H PARENT 74 45 48 56
REMARK Flexibility Score: inf
ROOT
ATOM      1  O   UNL A   1      39.052  21.643  26.426  1.00  0.00    -0.376 OA
ENDROOT
BRANCH   1   2
ATOM      2  C   UNL A   1      38.110  21.291  25.415  1.00  0.00     0.202 C 
BRANCH   2   3
ATOM      3  C   UNL A   1      37.317  22.390  24.686  1.00  0.00     0.261 C 
BRANCH   3   4
ATOM      4  O   UNL A   1      36.027  21.960  24.191  1.00  0.00    -0.463 OA
BRANCH   4   5
ATOM      5  C   UNL A   1      35.171  22.924  23.785  1.00  0.00     0.310 C 
ATOM      6  O   UNL A   1      34.991  23.227  22.608  1.00  0.00    -0.252 OA
BRANCH   5   7
ATOM      7  C   UNL A   1      34.420  23.649  24.897  1.00  0.00     0.119 C 
ATOM      8  N   UNL A   1      32.349  22.392  24.593  1.00  0.00    -0.342 N 
ATOM      9  C   UNL A   1      31.543  23.576  24.315  1.00  0.00     0.119 C 
ATOM     10  C   UNL A   1      33.444  22.648  25.513  1.00  0.00     0.134 C 
ATOM     11  C   UNL A   1      32.386  24.733  23.782  1.00  0.00     0.022 C 
ATOM     12  C   UNL A   1      33.663  24.946  24.597  1.00  0.00     0.019 C 
BRANCH   8  13
ATOM     13  C   UNL A   1      32.443  21.399  23.622  1.00  0.00     0.222 C 
ATOM     14  O   UNL A   1      32.108  21.610  22.454  1.00  0.00    -0.275 OA
BRANCH  13  15
ATOM     15  C   UNL A   1      32.780  19.979  24.078  1.00  0.00     0.100 C 
BRANCH  15  16
ATOM     16  C   UNL A   1      32.516  18.766  23.183  1.00  0.00     0.010 C 
BRANCH  16  17
ATOM     17  C   UNL A   1      33.174  17.410  23.499  1.00  0.00     0.000 C 
BRANCH  17  18
ATOM     18  C   UNL A   1      33.741  17.214  24.910  1.00  0.00    -0.003 C 
ATOM     19  C   UNL A   1      34.881  16.218  24.952  1.00  0.00     0.004 C 
ENDBRANCH  17  18
ENDBRANCH  16  17
ENDBRANCH  15  16
ENDBRANCH  13  15
ENDBRANCH   8  13
ENDBRANCH   5   7
ENDBRANCH   4   5
ENDBRANCH   3   4
ENDBRANCH   2   3
ENDBRANCH   1   2
BRANCH   1  20
ATOM     20  C   UNL A   1      40.417  21.610  26.075  1.00  0.00     0.188 C 
BRANCH  20  21
ATOM     21  C   UNL A   1      41.140  20.270  26.174  1.00  0.00     0.188 C 
BRANCH  21  22
ATOM     22  O   UNL A   1      42.411  20.203  26.769  1.00  0.00    -0.376 OA
BRANCH  22  23
ATOM     23  C   UNL A   1      43.471  21.099  26.472  1.00  0.00     0.202 C 
BRANCH  23  24
ATOM     24  C   UNL A   1      43.751  21.772  25.110  1.00  0.00     0.261 C 
BRANCH  24  25
ATOM     25  O   UNL A   1      43.230  23.077  24.861  1.00  0.00    -0.460 OA
BRANCH  25  26
ATOM     26  C   UNL A   1      44.061  24.124  25.077  1.00  0.00     0.338 C 
ATOM     27  O   UNL A   1      45.059  24.412  24.440  1.00  0.00    -0.246 OA
BRANCH  26  28
ATOM     28  C   UNL A   1      43.374  25.030  26.042  1.00  0.00     0.060 A 
ATOM     29  C   UNL A   1      43.726  26.389  26.035  1.00  0.00     0.016 A 
ATOM     30  C   UNL A   1      42.306  24.591  26.831  1.00  0.00     0.016 A 
ATOM     31  C   UNL A   1      43.050  27.298  26.851  1.00  0.00     0.010 A 
ATOM     32  C   UNL A   1      41.642  25.499  27.664  1.00  0.00     0.010 A 
ATOM     33  C   UNL A   1      42.036  26.849  27.707  1.00  0.00    -0.014 A 
BRANCH  33  34
ATOM     34  C   UNL A   1      41.565  27.714  28.820  1.00  0.00     0.031 A 
ATOM     35  C   UNL A   1      42.307  27.629  30.128  1.00  0.00     0.074 A 
ATOM     36  C   UNL A   1      40.529  28.562  28.695  1.00  0.00     0.049 A 
ATOM     37  N   UNL A   1      42.058  28.213  31.271  1.00  0.00    -0.248 NA
ATOM     38  C   UNL A   1      43.494  26.756  30.143  1.00  0.00     0.031 C 
ATOM     39  C   UNL A   1      39.755  28.786  27.477  1.00  0.00     0.029 A 
ATOM     40  N   UNL A   1      39.943  29.388  29.624  1.00  0.00    -0.354 N 
ATOM     41  C   UNL A   1      43.046  27.770  32.141  1.00  0.00     0.074 A 
ATOM     42  C   UNL A   1      43.878  26.844  31.406  1.00  0.00     0.031 C 
ATOM     43  C   UNL A   1      38.785  29.682  27.738  1.00  0.00     0.029 A 
ATOM     44  C   UNL A   1      38.848  30.066  29.149  1.00  0.00     0.049 A 
ATOM     45  H   UNL A   1      40.278  29.485  30.545  1.00  0.00     0.167 HD
ATOM     46  C   UNL A   1      43.252  28.109  33.436  1.00  0.00     0.037 A 
ATOM     47  C   UNL A   1      37.982  30.880  29.787  1.00  0.00     0.037 A 
ATOM     48  C   UNL A   1      42.425  29.024  34.174  1.00  0.00     0.049 A 
ATOM     49  C   UNL A   1      38.174  31.170  31.256  1.00  0.00     0.074 A 
ATOM     50  C   UNL A   1      42.558  29.437  35.488  1.00  0.00     0.029 A 
ATOM     51  N   UNL A   1      41.302  29.658  33.666  1.00  0.00    -0.354 N 
ATOM     52  N   UNL A   1      39.122  30.764  32.068  1.00  0.00    -0.248 NA
ATOM     53  C   UNL A   1      37.171  32.034  31.901  1.00  0.00     0.031 C 
ATOM     54  C   UNL A   1      41.482  30.276  35.793  1.00  0.00     0.029 A 
ATOM     55  C   UNL A   1      40.716  30.438  34.650  1.00  0.00     0.049 A 
ATOM     56  H   UNL A   1      40.969  29.569  32.744  1.00  0.00     0.167 HD
ATOM     57  C   UNL A   1      38.851  31.350  33.299  1.00  0.00     0.074 A 
ATOM     58  C   UNL A   1      37.656  32.149  33.129  1.00  0.00     0.031 C 
ATOM     59  C   UNL A   1      39.534  31.241  34.467  1.00  0.00     0.037 A 
BRANCH  46  60
ATOM     60  C   UNL A   1      44.403  27.453  34.142  1.00  0.00     0.057 A 
ATOM     61  C   UNL A   1      45.683  28.023  34.165  1.00  0.00     0.134 A 
ATOM     62  C   UNL A   1      44.224  26.239  34.818  1.00  0.00     0.134 A 
ATOM     63  F   UNL A   1      45.928  29.174  33.521  1.00  0.00    -0.206 F 
ATOM     64  C   UNL A   1      46.749  27.395  34.811  1.00  0.00     0.040 A 
ATOM     65  C   UNL A   1      45.274  25.619  35.494  1.00  0.00     0.040 A 
ATOM     66  F   UNL A   1      43.024  25.641  34.837  1.00  0.00    -0.206 F 
ATOM     67  C   UNL A   1      46.543  26.192  35.485  1.00  0.00     0.006 A 
ENDBRANCH  46  60
BRANCH  47  68
ATOM     68  C   UNL A   1      36.832  31.478  29.056  1.00  0.00     0.057 A 
ATOM     69  C   UNL A   1      36.834  32.825  28.676  1.00  0.00     0.134 A 
ATOM     70  C   UNL A   1      35.686  30.729  28.761  1.00  0.00     0.134 A 
ATOM     71  F   UNL A   1      37.889  33.604  28.958  1.00  0.00    -0.206 F 
ATOM     72  C   UNL A   1      35.733  33.411  28.049  1.00  0.00     0.040 A 
ATOM     73  C   UNL A   1      34.589  31.294  28.109  1.00  0.00     0.040 A 
ATOM     74  F   UNL A   1      35.615  29.435  29.105  1.00  0.00    -0.206 F 
ATOM     75  C   UNL A   1      34.607  32.644  27.759  1.00  0.00     0.006 A 
ENDBRANCH  47  68
BRANCH  59  76
ATOM     76  C   UNL A   1      39.041  32.041  35.640  1.00  0.00     0.057 A 
ATOM     77  C   UNL A   1      38.228  31.484  36.637  1.00  0.00     0.134 A 
ATOM     78  C   UNL A   1      39.428  33.379  35.800  1.00  0.00     0.134 A 
ATOM     79  F   UNL A   1      37.814  30.212  36.544  1.00  0.00    -0.206 F 
ATOM     80  C   UNL A   1      37.797  32.236  37.732  1.00  0.00     0.040 A 
ATOM     81  C   UNL A   1      39.030  34.131  36.906  1.00  0.00     0.040 A 
ATOM     82  F   UNL A   1      40.217  33.973  34.891  1.00  0.00    -0.206 F 
ATOM     83  C   UNL A   1      38.204  33.561  37.873  1.00  0.00     0.006 A 
ENDBRANCH  59  76
ENDBRANCH  33  34
ENDBRANCH  26  28
ENDBRANCH  25  26
ENDBRANCH  24  25
ENDBRANCH  23  24
ENDBRANCH  22  23
ENDBRANCH  21  22
ENDBRANCH  20  21
ENDBRANCH   1  20
TORSDOF 22
ENDMDL
MODEL 2
REMARK VINA RESULT:      -9.6      1.405      2.984
REMARK SMILES CCCCCC(=O)N1CCC[C@H](C(=O)OCCOCCOCCOC(=O)c2ccc(-c3c4nc(c(-c5c(F)cccc5F)c5ccc([nH]5)c(-c5c(F)cccc5F)c5nc(c(-c6c(F)cccc6F)c6ccc3[nH]6)C=C5)C=C4)cc2)C1
REMARK SMILES IDX 18 1 17 2 16 3 15 4 13 5 14 6 12 7 8 8 9 9 81 10 10 11 11 12
REMARK SMILES IDX 6 13 7 14 5 15 4 16 3 17 2 18 1 19 19 20 20 21 21 22 22 23
REMARK SMILES IDX 23 24 24 25 25 26 26 27 27 28 28 29 80 30 29 31 79 32 30 33
REMARK SMILES IDX 31 34 32 35 73 36 33 37 78 38 72 39 74 40 34 41 77 42 71 43
REMARK SMILES IDX 70 44 35 46 61 47 44 48 60 49 45 50 48 51 59 52 75 53 46 54
REMARK SMILES IDX 47 55 58 57 76 58 49 59 36 60 37 61 42 62 38 63 39 64 41 65
REMARK SMILES IDX 43 66 40 67 62 68 63 69 68 70 64 71 65 72 67 73 69 74 66 75
REMARK SMILES IDX 50 76 51 77 56 78 52 79 53 80 55 81 57 82 54 83
REMARK H PARENT 74 45 48 56
REMARK Flexibility Score: inf
ROOT
ATOM      1  O   UNL A   1      37.549  22.151  25.790  1.00  0.00    -0.376 OA
ENDROOT
BRANCH   1   2
ATOM      2  C   UNL A   1      37.315  22.995  24.665  1.00  0.00     0.202 C 
BRANCH   2   3
ATOM      3  C   UNL A   1      35.957  23.700  24.502  1.00  0.00     0.261 C 
BRANCH   3   4
ATOM      4  O   UNL A   1      34.818  22.806  24.539  1.00  0.00    -0.463 OA
BRANCH   4   5
ATOM      5  C   UNL A   1      33.901  22.937  23.555  1.00  0.00     0.310 C 
ATOM      6  O   UNL A   1      34.148  23.407  22.447  1.00  0.00    -0.252 OA
BRANCH   5   7
ATOM      7  C   UNL A   1      32.492  22.466  23.901  1.00  0.00     0.119 C 
ATOM      8  N   UNL A   1      31.720  24.664  24.631  1.00  0.00    -0.342 N 
ATOM      9  C   UNL A   1      31.381  24.218  25.978  1.00  0.00     0.119 C 
ATOM     10  C   UNL A   1      31.543  23.631  23.624  1.00  0.00     0.134 C 
ATOM     11  C   UNL A   1      32.171  22.977  26.389  1.00  0.00     0.022 C 
ATOM     12  C   UNL A   1      32.186  21.909  25.295  1.00  0.00     0.019 C 
BRANCH   8  13
ATOM     13  C   UNL A   1      32.674  25.665  24.475  1.00  0.00     0.222 C 
ATOM     14  O   UNL A   1      32.931  26.140  23.366  1.00  0.00    -0.275 OA
BRANCH  13  15
ATOM     15  C   UNL A   1      33.541  26.024  25.682  1.00  0.00     0.100 C 
BRANCH  15  16
ATOM     16  C   UNL A   1      33.858  27.480  26.036  1.00  0.00     0.010 C 
BRANCH  16  17
ATOM     17  C   UNL A   1      33.123  28.173  27.198  1.00  0.00     0.000 C 
BRANCH  17  18
ATOM     18  C   UNL A   1      31.751  28.787  26.897  1.00  0.00    -0.003 C 
ATOM     19  C   UNL A   1      31.759  29.671  25.668  1.00  0.00     0.004 C 
ENDBRANCH  17  18
ENDBRANCH  16  17
ENDBRANCH  15  16
ENDBRANCH  13  15
ENDBRANCH   8  13
ENDBRANCH   5   7
ENDBRANCH   4   5
ENDBRANCH   3   4
ENDBRANCH   2   3
ENDBRANCH   1   2
BRANCH   1  20
ATOM     20  C   UNL A   1      38.648  21.271  25.719  1.00  0.00     0.188 C 
BRANCH  20  21
ATOM     21  C   UNL A   1      39.963  21.729  26.343  1.00  0.00     0.188 C 
BRANCH  21  22
ATOM     22  O   UNL A   1      40.877  20.777  26.827  1.00  0.00    -0.376 OA
BRANCH  22  23
ATOM     23  C   UNL A   1      41.983  20.293  26.080  1.00  0.00     0.202 C 
BRANCH  23  24
ATOM     24  C   UNL A   1      43.256  21.085  25.706  1.00  0.00     0.261 C 
BRANCH  24  25
ATOM     25  O   UNL A   1      43.592  22.252  26.457  1.00  0.00    -0.460 OA
BRANCH  25  26
ATOM     26  C   UNL A   1      43.673  23.420  25.777  1.00  0.00     0.338 C 
ATOM     27  O   UNL A   1      43.954  23.565  24.600  1.00  0.00    -0.246 OA
BRANCH  26  28
ATOM     28  C   UNL A   1      43.068  24.469  26.645  1.00  0.00     0.060 A 
ATOM     29  C   UNL A   1      43.639  25.752  26.623  1.00  0.00     0.016 A 
ATOM     30  C   UNL A   1      41.882  24.246  27.351  1.00  0.00     0.016 A 
ATOM     31  C   UNL A   1      43.057  26.797  27.345  1.00  0.00     0.010 A 
ATOM     32  C   UNL A   1      41.310  25.288  28.090  1.00  0.00     0.010 A 
ATOM     33  C   UNL A   1      41.916  26.558  28.122  1.00  0.00    -0.014 A 
BRANCH  33  34
ATOM     34  C   UNL A   1      41.505  27.540  29.159  1.00  0.00     0.031 A 
ATOM     35  C   UNL A   1      42.270  27.543  30.456  1.00  0.00     0.074 A 
ATOM     36  C   UNL A   1      40.501  28.416  28.974  1.00  0.00     0.049 A 
ATOM     37  N   UNL A   1      42.069  28.239  31.545  1.00  0.00    -0.248 NA
ATOM     38  C   UNL A   1      43.420  26.625  30.531  1.00  0.00     0.031 C 
ATOM     39  C   UNL A   1      39.711  28.561  27.755  1.00  0.00     0.029 A 
ATOM     40  N   UNL A   1      39.969  29.348  29.834  1.00  0.00    -0.354 N 
ATOM     41  C   UNL A   1      43.057  27.835  32.435  1.00  0.00     0.074 A 
ATOM     42  C   UNL A   1      43.834  26.811  31.774  1.00  0.00     0.031 C 
ATOM     43  C   UNL A   1      38.784  29.518  27.950  1.00  0.00     0.029 A 
ATOM     44  C   UNL A   1      38.893  30.026  29.317  1.00  0.00     0.049 A 
ATOM     45  H   UNL A   1      40.328  29.513  30.736  1.00  0.00     0.167 HD
ATOM     46  C   UNL A   1      43.304  28.282  33.689  1.00  0.00     0.037 A 
ATOM     47  C   UNL A   1      38.075  30.931  29.893  1.00  0.00     0.037 A 
ATOM     48  C   UNL A   1      42.530  29.294  34.355  1.00  0.00     0.049 A 
ATOM     49  C   UNL A   1      38.309  31.344  31.326  1.00  0.00     0.074 A 
ATOM     50  C   UNL A   1      42.708  29.819  35.622  1.00  0.00     0.029 A 
ATOM     51  N   UNL A   1      41.423  29.927  33.810  1.00  0.00    -0.354 N 
ATOM     52  N   UNL A   1      39.257  30.974  32.155  1.00  0.00    -0.248 NA
ATOM     53  C   UNL A   1      37.356  32.305  31.906  1.00  0.00     0.031 C 
ATOM     54  C   UNL A   1      41.674  30.727  35.868  1.00  0.00     0.029 A 
ATOM     55  C   UNL A   1      40.891  30.817  34.728  1.00  0.00     0.049 A 
ATOM     56  H   UNL A   1      41.068  29.768  32.906  1.00  0.00     0.167 HD
ATOM     57  C   UNL A   1      39.036  31.681  33.332  1.00  0.00     0.074 A 
ATOM     58  C   UNL A   1      37.871  32.511  33.110  1.00  0.00     0.031 C 
ATOM     59  C   UNL A   1      39.739  31.649  34.493  1.00  0.00     0.037 A 
BRANCH  46  60
ATOM     60  C   UNL A   1      44.441  27.644  34.432  1.00  0.00     0.057 A 
ATOM     61  C   UNL A   1      45.736  28.181  34.412  1.00  0.00     0.134 A 
ATOM     62  C   UNL A   1      44.235  26.483  35.188  1.00  0.00     0.134 A 
ATOM     63  F   UNL A   1      46.007  29.280  33.692  1.00  0.00    -0.206 F 
ATOM     64  C   UNL A   1      46.789  27.570  35.094  1.00  0.00     0.040 A 
ATOM     65  C   UNL A   1      45.273  25.882  35.900  1.00  0.00     0.040 A 
ATOM     66  F   UNL A   1      43.020  25.918  35.252  1.00  0.00    -0.206 F 
ATOM     67  C   UNL A   1      46.557  26.420  35.847  1.00  0.00     0.006 A 
ENDBRANCH  46  60
BRANCH  47  68
ATOM     68  C   UNL A   1      36.935  31.507  29.131  1.00  0.00     0.057 A 
ATOM     69  C   UNL A   1      36.964  32.828  28.670  1.00  0.00     0.134 A 
ATOM     70  C   UNL A   1      35.772  30.767  28.884  1.00  0.00     0.134 A 
ATOM     71  F   UNL A   1      38.037  33.601  28.901  1.00  0.00    -0.206 F 
ATOM     72  C   UNL A   1      35.873  33.400  28.011  1.00  0.00     0.040 A 
ATOM     73  C   UNL A   1      34.684  31.315  28.202  1.00  0.00     0.040 A 
ATOM     74  F   UNL A   1      35.675  29.498  29.306  1.00  0.00    -0.206 F 
ATOM     75  C   UNL A   1      34.730  32.640  27.771  1.00  0.00     0.006 A 
ENDBRANCH  47  68
BRANCH  59  76
ATOM     76  C   UNL A   1      39.304  32.573  35.596  1.00  0.00     0.057 A 
ATOM     77  C   UNL A   1      38.420  32.169  36.605  1.00  0.00     0.134 A 
ATOM     78  C   UNL A   1      39.818  33.875  35.676  1.00  0.00     0.134 A 
ATOM     79  F   UNL A   1      37.883  30.940  36.587  1.00  0.00    -0.206 F 
ATOM     80  C   UNL A   1      38.043  33.033  37.635  1.00  0.00     0.040 A 
ATOM     81  C   UNL A   1      39.474  34.736  36.718  1.00  0.00     0.040 A 
ATOM     82  F   UNL A   1      40.680  34.324  34.751  1.00  0.00    -0.206 F 
ATOM     83  C   UNL A   1      38.577  34.318  37.699  1.00  0.00     0.006 A 
ENDBRANCH  59  76
ENDBRANCH  33  34
ENDBRANCH  26  28
ENDBRANCH  25  26
ENDBRANCH  24  25
ENDBRANCH  23  24
ENDBRANCH  22  23
ENDBRANCH  21  22
ENDBRANCH  20  21
ENDBRANCH   1  20
TORSDOF 22
ENDMDL
MODEL 3
REMARK VINA RESULT:      -9.4      2.963      8.035
REMARK SMILES CCCCCC(=O)N1CCC[C@H](C(=O)OCCOCCOCCOC(=O)c2ccc(-c3c4nc(c(-c5c(F)cccc5F)c5ccc([nH]5)c(-c5c(F)cccc5F)c5nc(c(-c6c(F)cccc6F)c6ccc3[nH]6)C=C5)C=C4)cc2)C1
REMARK SMILES IDX 18 1 17 2 16 3 15 4 13 5 14 6 12 7 8 8 9 9 81 10 10 11 11 12
REMARK SMILES IDX 6 13 7 14 5 15 4 16 3 17 2 18 1 19 19 20 20 21 21 22 22 23
REMARK SMILES IDX 23 24 24 25 25 26 26 27 27 28 28 29 80 30 29 31 79 32 30 33
REMARK SMILES IDX 31 34 32 35 73 36 33 37 78 38 72 39 74 40 34 41 77 42 71 43
REMARK SMILES IDX 70 44 35 46 61 47 44 48 60 49 45 50 48 51 59 52 75 53 46 54
REMARK SMILES IDX 47 55 58 57 76 58 49 59 36 60 37 61 42 62 38 63 39 64 41 65
REMARK SMILES IDX 43 66 40 67 62 68 63 69 68 70 64 71 65 72 67 73 69 74 66 75
REMARK SMILES IDX 50 76 51 77 56 78 52 79 53 80 55 81 57 82 54 83
REMARK H PARENT 74 45 48 56
REMARK Flexibility Score: inf
ROOT
ATOM      1  O   UNL A   1      31.022  27.133  27.248  1.00  0.00    -0.376 OA
ENDROOT
BRANCH   1   2
ATOM      2  C   UNL A   1      30.776  26.533  25.978  1.00  0.00     0.202 C 
BRANCH   2   3
ATOM      3  C   UNL A   1      30.552  25.014  25.876  1.00  0.00     0.261 C 
BRANCH   3   4
ATOM      4  O   UNL A   1      31.723  24.270  25.461  1.00  0.00    -0.463 OA
BRANCH   4   5
ATOM      5  C   UNL A   1      31.794  23.912  24.159  1.00  0.00     0.310 C 
ATOM      6  O   UNL A   1      30.880  23.359  23.551  1.00  0.00    -0.252 OA
BRANCH   5   7
ATOM      7  C   UNL A   1      33.112  24.228  23.460  1.00  0.00     0.119 C 
ATOM      8  N   UNL A   1      34.131  22.069  23.969  1.00  0.00    -0.342 N 
ATOM      9  C   UNL A   1      35.255  22.648  24.698  1.00  0.00     0.119 C 
ATOM     10  C   UNL A   1      33.650  22.916  22.891  1.00  0.00     0.134 C 
ATOM     11  C   UNL A   1      34.926  24.032  25.256  1.00  0.00     0.022 C 
ATOM     12  C   UNL A   1      34.241  24.927  24.223  1.00  0.00     0.019 C 
BRANCH   8  13
ATOM     13  C   UNL A   1      33.276  21.196  24.636  1.00  0.00     0.222 C 
ATOM     14  O   UNL A   1      33.238  21.151  25.867  1.00  0.00    -0.275 OA
BRANCH  13  15
ATOM     15  C   UNL A   1      32.527  20.153  23.806  1.00  0.00     0.100 C 
BRANCH  15  16
ATOM     16  C   UNL A   1      32.543  18.669  24.183  1.00  0.00     0.010 C 
BRANCH  16  17
ATOM     17  C   UNL A   1      33.526  17.704  23.495  1.00  0.00     0.000 C 
BRANCH  17  18
ATOM     18  C   UNL A   1      34.773  17.288  24.283  1.00  0.00    -0.003 C 
ATOM     19  C   UNL A   1      34.569  16.016  25.078  1.00  0.00     0.004 C 
ENDBRANCH  17  18
ENDBRANCH  16  17
ENDBRANCH  15  16
ENDBRANCH  13  15
ENDBRANCH   8  13
ENDBRANCH   5   7
ENDBRANCH   4   5
ENDBRANCH   3   4
ENDBRANCH   2   3
ENDBRANCH   1   2
BRANCH   1  20
ATOM     20  C   UNL A   1      31.769  28.329  27.262  1.00  0.00     0.188 C 
BRANCH  20  21
ATOM     21  C   UNL A   1      31.939  29.073  25.940  1.00  0.00     0.188 C 
BRANCH  21  22
ATOM     22  O   UNL A   1      31.886  30.477  25.914  1.00  0.00    -0.376 OA
BRANCH  22  23
ATOM     23  C   UNL A   1      32.441  31.307  26.923  1.00  0.00     0.202 C 
BRANCH  23  24
ATOM     24  C   UNL A   1      32.009  32.750  27.265  1.00  0.00     0.261 C 
BRANCH  24  25
ATOM     25  O   UNL A   1      32.971  33.801  27.174  1.00  0.00    -0.460 OA
BRANCH  25  26
ATOM     26  C   UNL A   1      33.217  34.511  28.301  1.00  0.00     0.338 C 
ATOM     27  O   UNL A   1      32.523  35.391  28.779  1.00  0.00    -0.246 OA
BRANCH  26  28
ATOM     28  C   UNL A   1      34.330  33.820  29.012  1.00  0.00     0.060 A 
ATOM     29  C   UNL A   1      35.646  34.191  28.694  1.00  0.00     0.016 A 
ATOM     30  C   UNL A   1      34.092  32.938  30.071  1.00  0.00     0.016 A 
ATOM     31  C   UNL A   1      36.723  33.645  29.395  1.00  0.00     0.010 A 
ATOM     32  C   UNL A   1      35.172  32.375  30.760  1.00  0.00     0.010 A 
ATOM     33  C   UNL A   1      36.494  32.696  30.400  1.00  0.00    -0.014 A 
BRANCH  33  34
ATOM     34  C   UNL A   1      37.613  31.852  30.894  1.00  0.00     0.031 A 
ATOM     35  C   UNL A   1      38.112  32.107  32.292  1.00  0.00     0.074 A 
ATOM     36  C   UNL A   1      38.174  30.880  30.153  1.00  0.00     0.049 A 
ATOM     37  N   UNL A   1      39.117  31.571  32.933  1.00  0.00    -0.248 NA
ATOM     38  C   UNL A   1      37.371  33.116  33.069  1.00  0.00     0.031 C 
ATOM     39  C   UNL A   1      37.760  30.488  28.809  1.00  0.00     0.029 A 
ATOM     40  N   UNL A   1      39.232  30.049  30.435  1.00  0.00    -0.354 N 
ATOM     41  C   UNL A   1      39.136  32.183  34.180  1.00  0.00     0.074 A 
ATOM     42  C   UNL A   1      38.066  33.155  34.194  1.00  0.00     0.031 C 
ATOM     43  C   UNL A   1      38.566  29.500  28.377  1.00  0.00     0.029 A 
ATOM     44  C   UNL A   1      39.573  29.215  29.399  1.00  0.00     0.049 A 
ATOM     45  H   UNL A   1      39.701  30.051  31.301  1.00  0.00     0.167 HD
ATOM     46  C   UNL A   1      39.964  31.953  35.227  1.00  0.00     0.037 A 
ATOM     47  C   UNL A   1      40.597  28.345  29.281  1.00  0.00     0.037 A 
ATOM     48  C   UNL A   1      41.034  30.994  35.216  1.00  0.00     0.049 A 
ATOM     49  C   UNL A   1      41.567  28.173  30.425  1.00  0.00     0.074 A 
ATOM     50  C   UNL A   1      41.921  30.683  36.231  1.00  0.00     0.029 A 
ATOM     51  N   UNL A   1      41.371  30.198  34.132  1.00  0.00    -0.354 N 
ATOM     52  N   UNL A   1      41.566  28.741  31.609  1.00  0.00    -0.248 NA
ATOM     53  C   UNL A   1      42.683  27.238  30.216  1.00  0.00     0.031 C 
ATOM     54  C   UNL A   1      42.832  29.742  35.742  1.00  0.00     0.029 A 
ATOM     55  C   UNL A   1      42.471  29.417  34.444  1.00  0.00     0.049 A 
ATOM     56  H   UNL A   1      40.898  30.189  33.268  1.00  0.00     0.167 HD
ATOM     57  C   UNL A   1      42.653  28.204  32.292  1.00  0.00     0.074 A 
ATOM     58  C   UNL A   1      43.285  27.259  31.397  1.00  0.00     0.031 C 
ATOM     59  C   UNL A   1      43.085  28.468  33.551  1.00  0.00     0.037 A 
BRANCH  46  60
ATOM     60  C   UNL A   1      39.759  32.786  36.458  1.00  0.00     0.057 A 
ATOM     61  C   UNL A   1      38.810  32.449  37.434  1.00  0.00     0.134 A 
ATOM     62  C   UNL A   1      40.530  33.935  36.677  1.00  0.00     0.134 A 
ATOM     63  F   UNL A   1      38.025  31.373  37.277  1.00  0.00    -0.206 F 
ATOM     64  C   UNL A   1      38.618  33.241  38.568  1.00  0.00     0.040 A 
ATOM     65  C   UNL A   1      40.369  34.715  37.821  1.00  0.00     0.040 A 
ATOM     66  F   UNL A   1      41.457  34.313  35.784  1.00  0.00    -0.206 F 
ATOM     67  C   UNL A   1      39.405  34.374  38.767  1.00  0.00     0.006 A 
ENDBRANCH  46  60
BRANCH  47  68
ATOM     68  C   UNL A   1      40.784  27.569  28.026  1.00  0.00     0.057 A 
ATOM     69  C   UNL A   1      40.225  26.295  27.869  1.00  0.00     0.134 A 
ATOM     70  C   UNL A   1      41.564  28.062  26.972  1.00  0.00     0.134 A 
ATOM     71  F   UNL A   1      39.494  25.753  28.855  1.00  0.00    -0.206 F 
ATOM     72  C   UNL A   1      40.450  25.532  26.722  1.00  0.00     0.040 A 
ATOM     73  C   UNL A   1      41.774  27.322  25.807  1.00  0.00     0.040 A 
ATOM     74  F   UNL A   1      42.135  29.272  27.060  1.00  0.00    -0.206 F 
ATOM     75  C   UNL A   1      41.223  26.047  25.684  1.00  0.00     0.006 A 
ENDBRANCH  47  68
BRANCH  59  76
ATOM     76  C   UNL A   1      44.267  27.690  34.060  1.00  0.00     0.057 A 
ATOM     77  C   UNL A   1      44.135  26.416  34.627  1.00  0.00     0.134 A 
ATOM     78  C   UNL A   1      45.564  28.206  33.934  1.00  0.00     0.134 A 
ATOM     79  F   UNL A   1      42.922  25.864  34.785  1.00  0.00    -0.206 F 
ATOM     80  C   UNL A   1      45.245  25.697  35.075  1.00  0.00     0.040 A 
ATOM     81  C   UNL A   1      46.684  27.485  34.349  1.00  0.00     0.040 A 
ATOM     82  F   UNL A   1      45.766  29.415  33.388  1.00  0.00    -0.206 F 
ATOM     83  C   UNL A   1      46.525  26.227  34.929  1.00  0.00     0.006 A 
ENDBRANCH  59  76
ENDBRANCH  33  34
ENDBRANCH  26  28
ENDBRANCH  25  26
ENDBRANCH  24  25
ENDBRANCH  23  24
ENDBRANCH  22  23
ENDBRANCH  21  22
ENDBRANCH  20  21
ENDBRANCH   1  20
TORSDOF 22
ENDMDL
