MODEL 1
REMARK VINA RESULT:     -11.9      0.000      0.000
REMARK SMILES O=C(N[C@@H](Cc1c[nH]c2ccccc12)C(=O)N[C@@H](CO)C(=O)OCCOCCOCCOC(=O)c1ccc(-c2c3nc(c(-c4c(F)cccc4F)c4ccc([nH]4)c(-c4c(F)cccc4F)c4nc(c(-c5c(F)cccc5F)c5ccc2[nH]5)C=C4)C=C3)cc1)c1ccc(F)cc1
REMARK SMILES IDX 27 1 26 2 25 3 24 4 23 5 21 6 22 7 18 8 17 9 15 10 16 11
REMARK SMILES IDX 4 13 3 14 1 15 2 16 89 18 90 19 95 20 91 21 94 22 92 23
REMARK SMILES IDX 93 24 5 25 6 26 7 27 14 28 8 29 9 30 13 31 10 33 12 34 11 35
REMARK SMILES IDX 19 36 20 37 28 39 29 40 30 41 31 42 32 43 33 44 34 45 35 46
REMARK SMILES IDX 36 47 88 48 37 49 87 50 38 51 39 52 40 53 81 54 41 55 86 56
REMARK SMILES IDX 80 57 82 58 42 59 85 60 79 61 78 62 43 64 69 65 52 66 68 67
REMARK SMILES IDX 53 68 56 69 67 70 83 71 54 72 55 73 66 75 84 76 57 77 44 78
REMARK SMILES IDX 45 79 50 80 46 81 47 82 49 83 51 84 48 85 70 86 71 87 76 88
REMARK SMILES IDX 72 89 73 90 75 91 77 92 74 93 58 94 59 95 64 96 60 97 61 98
REMARK SMILES IDX 63 99 65 100 62 101
REMARK H PARENT 17 12 3 17 8 32 20 38 82 63 56 74
REMARK Flexibility Score: inf
ROOT
ATOM      1  C   UNL A   1      40.758  20.504  26.315  1.00  0.00     0.188 C 
ENDROOT
BRANCH   1   2
ATOM      2  O   UNL A   1      40.707  21.633  27.168  1.00  0.00    -0.376 OA
BRANCH   2   3
ATOM      3  C   UNL A   1      39.656  22.546  26.848  1.00  0.00     0.202 C 
BRANCH   3   4
ATOM      4  C   UNL A   1      38.655  22.079  25.784  1.00  0.00     0.261 C 
BRANCH   4   5
ATOM      5  O   UNL A   1      37.262  22.074  26.192  1.00  0.00    -0.462 OA
BRANCH   5   6
ATOM      6  C   UNL A   1      36.187  21.590  25.309  1.00  0.00     0.331 C 
ATOM      7  O   UNL A   1      36.649  21.798  24.152  1.00  0.00    -0.250 OA
BRANCH   6   8
ATOM      8  C   UNL A   1      34.257  20.789  26.040  1.00  0.00     0.218 C 
BRANCH   8   9
ATOM      9  N   UNL A   1      32.932  21.612  26.840  1.00  0.00    -0.339 N 
ATOM     10  C   UNL A   1      32.013  22.576  26.537  1.00  0.00     0.243 C 
ATOM     11  O   UNL A   1      31.054  22.644  27.324  1.00  0.00    -0.273 OA
ATOM     12  H   UNL A   1      32.819  21.290  27.764  1.00  0.00     0.164 HD
BRANCH  10  13
ATOM     13  C   UNL A   1      32.088  23.613  25.387  1.00  0.00     0.176 C 
BRANCH  13  14
ATOM     14  N   UNL A   1      32.861  23.003  24.305  1.00  0.00    -0.340 N 
ATOM     15  O   UNL A   1      34.281  22.886  22.568  1.00  0.00    -0.269 OA
ATOM     16  C   UNL A   1      33.609  23.594  23.314  1.00  0.00     0.251 C 
ATOM     17  H   UNL A   1      32.842  22.019  24.283  1.00  0.00     0.164 HD
BRANCH  16  18
ATOM     18  C   UNL A   1      33.541  25.056  23.057  1.00  0.00     0.040 A 
ATOM     19  C   UNL A   1      34.110  26.016  23.904  1.00  0.00     0.017 A 
ATOM     20  C   UNL A   1      32.883  25.470  21.888  1.00  0.00     0.017 A 
ATOM     21  C   UNL A   1      33.919  27.377  23.647  1.00  0.00     0.040 A 
ATOM     22  C   UNL A   1      32.720  26.830  21.617  1.00  0.00     0.040 A 
ATOM     23  C   UNL A   1      33.219  27.770  22.511  1.00  0.00     0.123 A 
ATOM     24  F   UNL A   1      33.031  29.075  22.272  1.00  0.00    -0.207 F 
ENDBRANCH  16  18
ENDBRANCH  13  14
BRANCH  13  25
ATOM     25  C   UNL A   1      30.864  24.443  24.951  1.00  0.00     0.072 C 
BRANCH  25  26
ATOM     26  C   UNL A   1      30.773  25.762  25.607  1.00  0.00    -0.020 A 
ATOM     27  C   UNL A   1      31.481  26.209  26.718  1.00  0.00     0.087 A 
ATOM     28  C   UNL A   1      30.101  26.859  25.027  1.00  0.00     0.003 A 
ATOM     29  N   UNL A   1      31.604  27.591  26.775  1.00  0.00    -0.361 N 
ATOM     30  C   UNL A   1      31.094  28.155  25.638  1.00  0.00     0.046 A 
ATOM     31  C   UNL A   1      29.076  27.114  23.549  1.00  0.00     0.010 A 
ATOM     32  H   UNL A   1      32.001  28.091  27.525  1.00  0.00     0.166 HD
ATOM     33  C   UNL A   1      31.164  29.722  24.772  1.00  0.00     0.026 A 
ATOM     34  C   UNL A   1      29.081  28.719  22.718  1.00  0.00     0.001 A 
ATOM     35  C   UNL A   1      30.081  30.017  23.366  1.00  0.00     0.002 A 
ENDBRANCH  25  26
ENDBRANCH  13  25
ENDBRANCH  10  13
ENDBRANCH   8   9
BRANCH   8  36
ATOM     36  C   UNL A   1      33.131  19.668  25.323  1.00  0.00     0.193 C 
BRANCH  36  37
ATOM     37  O   UNL A   1      32.570  18.714  26.231  1.00  0.00    -0.394 OA
ATOM     38  H   UNL A   1      31.999  19.170  26.868  1.00  0.00     0.210 HD
ENDBRANCH  36  37
ENDBRANCH   8  36
ENDBRANCH   6   8
ENDBRANCH   5   6
ENDBRANCH   4   5
ENDBRANCH   3   4
ENDBRANCH   2   3
ENDBRANCH   1   2
BRANCH   1  39
ATOM     39  C   UNL A   1      42.152  19.885  26.187  1.00  0.00     0.188 C 
BRANCH  39  40
ATOM     40  O   UNL A   1      43.107  20.404  25.280  1.00  0.00    -0.376 OA
BRANCH  40  41
ATOM     41  C   UNL A   1      43.284  21.816  25.302  1.00  0.00     0.202 C 
BRANCH  41  42
ATOM     42  C   UNL A   1      44.374  22.464  24.411  1.00  0.00     0.261 C 
BRANCH  42  43
ATOM     43  O   UNL A   1      44.692  23.852  24.680  1.00  0.00    -0.460 OA
BRANCH  43  44
ATOM     44  C   UNL A   1      45.034  24.136  25.969  1.00  0.00     0.338 C 
ATOM     45  O   UNL A   1      46.109  23.915  26.504  1.00  0.00    -0.246 OA
BRANCH  44  46
ATOM     46  C   UNL A   1      44.013  24.991  26.630  1.00  0.00     0.060 A 
ATOM     47  C   UNL A   1      44.174  26.385  26.554  1.00  0.00     0.016 A 
ATOM     48  C   UNL A   1      43.016  24.457  27.445  1.00  0.00     0.016 A 
ATOM     49  C   UNL A   1      43.354  27.247  27.281  1.00  0.00     0.010 A 
ATOM     50  C   UNL A   1      42.222  25.325  28.218  1.00  0.00     0.010 A 
ATOM     51  C   UNL A   1      42.411  26.722  28.167  1.00  0.00    -0.014 A 
BRANCH  51  52
ATOM     52  C   UNL A   1      41.880  27.616  29.234  1.00  0.00     0.031 A 
ATOM     53  C   UNL A   1      42.631  27.668  30.541  1.00  0.00     0.074 A 
ATOM     54  C   UNL A   1      40.846  28.455  29.039  1.00  0.00     0.049 A 
ATOM     55  N   UNL A   1      42.332  28.284  31.656  1.00  0.00    -0.248 NA
ATOM     56  C   UNL A   1      43.901  26.925  30.584  1.00  0.00     0.031 C 
ATOM     57  C   UNL A   1      40.108  28.624  27.791  1.00  0.00     0.029 A 
ATOM     58  N   UNL A   1      40.243  29.335  29.908  1.00  0.00    -0.354 N 
ATOM     59  C   UNL A   1      43.358  27.975  32.541  1.00  0.00     0.074 A 
ATOM     60  C   UNL A   1      44.281  27.112  31.837  1.00  0.00     0.031 C 
ATOM     61  C   UNL A   1      39.140  29.540  27.978  1.00  0.00     0.029 A 
ATOM     62  C   UNL A   1      39.158  29.985  29.372  1.00  0.00     0.049 A 
ATOM     63  H   UNL A   1      40.559  29.485  30.828  1.00  0.00     0.167 HD
ATOM     64  C   UNL A   1      43.522  28.369  33.827  1.00  0.00     0.037 A 
ATOM     65  C   UNL A   1      38.263  30.813  29.950  1.00  0.00     0.037 A 
ATOM     66  C   UNL A   1      42.619  29.243  34.527  1.00  0.00     0.049 A 
ATOM     67  C   UNL A   1      38.401  31.156  31.415  1.00  0.00     0.074 A 
ATOM     68  C   UNL A   1      42.681  29.675  35.841  1.00  0.00     0.029 A 
ATOM     69  N   UNL A   1      41.493  29.826  33.968  1.00  0.00    -0.354 N 
ATOM     70  N   UNL A   1      39.333  30.805  32.267  1.00  0.00    -0.248 NA
ATOM     71  C   UNL A   1      37.354  32.012  31.997  1.00  0.00     0.031 C 
ATOM     72  C   UNL A   1      41.563  30.479  36.090  1.00  0.00     0.029 A 
ATOM     73  C   UNL A   1      40.841  30.600  34.914  1.00  0.00     0.049 A 
ATOM     74  H   UNL A   1      41.199  29.707  33.036  1.00  0.00     0.167 HD
ATOM     75  C   UNL A   1      39.005  31.422  33.471  1.00  0.00     0.074 A 
ATOM     76  C   UNL A   1      37.797  32.183  33.234  1.00  0.00     0.031 C 
ATOM     77  C   UNL A   1      39.646  31.366  34.666  1.00  0.00     0.037 A 
BRANCH  64  78
ATOM     78  C   UNL A   1      44.693  27.798  34.572  1.00  0.00     0.057 A 
ATOM     79  C   UNL A   1      44.621  26.587  35.272  1.00  0.00     0.134 A 
ATOM     80  C   UNL A   1      45.913  28.487  34.598  1.00  0.00     0.134 A 
ATOM     81  F   UNL A   1      43.474  25.891  35.308  1.00  0.00    -0.206 F 
ATOM     82  C   UNL A   1      45.709  26.097  35.997  1.00  0.00     0.040 A 
ATOM     83  C   UNL A   1      47.017  27.992  35.292  1.00  0.00     0.040 A 
ATOM     84  F   UNL A   1      46.051  29.653  33.949  1.00  0.00    -0.206 F 
ATOM     85  C   UNL A   1      46.914  26.798  36.003  1.00  0.00     0.006 A 
ENDBRANCH  64  78
BRANCH  65  86
ATOM     86  C   UNL A   1      37.112  31.345  29.171  1.00  0.00     0.057 A 
ATOM     87  C   UNL A   1      37.101  32.657  28.683  1.00  0.00     0.134 A 
ATOM     88  C   UNL A   1      35.963  30.573  28.955  1.00  0.00     0.134 A 
ATOM     89  F   UNL A   1      38.156  33.460  28.887  1.00  0.00    -0.206 F 
ATOM     90  C   UNL A   1      35.987  33.190  28.031  1.00  0.00     0.040 A 
ATOM     91  C   UNL A   1      34.853  31.081  28.278  1.00  0.00     0.040 A 
ATOM     92  F   UNL A   1      35.901  29.310  29.402  1.00  0.00    -0.206 F 
ATOM     93  C   UNL A   1      34.859  32.398  27.823  1.00  0.00     0.006 A 
ENDBRANCH  65  86
BRANCH  77  94
ATOM     94  C   UNL A   1      39.090  32.195  35.791  1.00  0.00     0.057 A 
ATOM     95  C   UNL A   1      38.216  31.666  36.750  1.00  0.00     0.134 A 
ATOM     96  C   UNL A   1      39.451  33.542  35.924  1.00  0.00     0.134 A 
ATOM     97  F   UNL A   1      37.820  30.386  36.680  1.00  0.00    -0.206 F 
ATOM     98  C   UNL A   1      37.691  32.457  37.776  1.00  0.00     0.040 A 
ATOM     99  C   UNL A   1      38.959  34.334  36.964  1.00  0.00     0.040 A 
ATOM    100  F   UNL A   1      40.295  34.111  35.051  1.00  0.00    -0.206 F 
ATOM    101  C   UNL A   1      38.067  33.795  37.887  1.00  0.00     0.006 A 
ENDBRANCH  77  94
ENDBRANCH  51  52
ENDBRANCH  44  46
ENDBRANCH  43  44
ENDBRANCH  42  43
ENDBRANCH  41  42
ENDBRANCH  40  41
ENDBRANCH  39  40
ENDBRANCH   1  39
TORSDOF 25
ENDMDL
MODEL 2
REMARK VINA RESULT:     -11.1      4.364      7.192
REMARK SMILES O=C(N[C@@H](Cc1c[nH]c2ccccc12)C(=O)N[C@@H](CO)C(=O)OCCOCCOCCOC(=O)c1ccc(-c2c3nc(c(-c4c(F)cccc4F)c4ccc([nH]4)c(-c4c(F)cccc4F)c4nc(c(-c5c(F)cccc5F)c5ccc2[nH]5)C=C4)C=C3)cc1)c1ccc(F)cc1
REMARK SMILES IDX 27 1 26 2 25 3 24 4 23 5 21 6 22 7 18 8 17 9 15 10 16 11
REMARK SMILES IDX 4 13 3 14 1 15 2 16 89 18 90 19 95 20 91 21 94 22 92 23
REMARK SMILES IDX 93 24 5 25 6 26 7 27 14 28 8 29 9 30 13 31 10 33 12 34 11 35
REMARK SMILES IDX 19 36 20 37 28 39 29 40 30 41 31 42 32 43 33 44 34 45 35 46
REMARK SMILES IDX 36 47 88 48 37 49 87 50 38 51 39 52 40 53 81 54 41 55 86 56
REMARK SMILES IDX 80 57 82 58 42 59 85 60 79 61 78 62 43 64 69 65 52 66 68 67
REMARK SMILES IDX 53 68 56 69 67 70 83 71 54 72 55 73 66 75 84 76 57 77 44 78
REMARK SMILES IDX 45 79 50 80 46 81 47 82 49 83 51 84 48 85 70 86 71 87 76 88
REMARK SMILES IDX 72 89 73 90 75 91 77 92 74 93 58 94 59 95 64 96 60 97 61 98
REMARK SMILES IDX 63 99 65 100 62 101
REMARK H PARENT 17 12 3 17 8 32 20 38 82 63 56 74
REMARK Flexibility Score: inf
ROOT
ATOM      1  C   UNL A   1      38.808  21.819  25.778  1.00  0.00     0.188 C 
ENDROOT
BRANCH   1   2
ATOM      2  O   UNL A   1      39.079  23.049  26.425  1.00  0.00    -0.376 OA
BRANCH   2   3
ATOM      3  C   UNL A   1      38.079  24.045  26.204  1.00  0.00     0.202 C 
BRANCH   3   4
ATOM      4  C   UNL A   1      36.780  23.565  25.544  1.00  0.00     0.261 C 
BRANCH   4   5
ATOM      5  O   UNL A   1      35.569  24.233  25.981  1.00  0.00    -0.462 OA
BRANCH   5   6
ATOM      6  C   UNL A   1      34.369  23.491  26.400  1.00  0.00     0.331 C 
ATOM      7  O   UNL A   1      34.805  22.728  27.308  1.00  0.00    -0.250 OA
BRANCH   6   8
ATOM      8  C   UNL A   1      32.373  23.745  25.476  1.00  0.00     0.218 C 
BRANCH   8   9
ATOM      9  N   UNL A   1      31.933  24.452  23.933  1.00  0.00    -0.339 N 
ATOM     10  C   UNL A   1      31.512  25.663  23.462  1.00  0.00     0.243 C 
ATOM     11  O   UNL A   1      31.604  25.800  22.230  1.00  0.00    -0.273 OA
ATOM     12  H   UNL A   1      32.011  23.793  23.205  1.00  0.00     0.164 HD
BRANCH  10  13
ATOM     13  C   UNL A   1      30.878  26.817  24.280  1.00  0.00     0.176 C 
BRANCH  13  14
ATOM     14  N   UNL A   1      29.443  26.547  24.369  1.00  0.00    -0.340 N 
ATOM     15  O   UNL A   1      27.255  26.732  23.894  1.00  0.00    -0.269 OA
ATOM     16  C   UNL A   1      28.385  27.200  23.781  1.00  0.00     0.251 C 
ATOM     17  H   UNL A   1      29.198  25.780  24.936  1.00  0.00     0.164 HD
BRANCH  16  18
ATOM     18  C   UNL A   1      28.561  28.512  23.105  1.00  0.00     0.040 A 
ATOM     19  C   UNL A   1      29.602  28.783  22.207  1.00  0.00     0.017 A 
ATOM     20  C   UNL A   1      27.611  29.507  23.382  1.00  0.00     0.017 A 
ATOM     21  C   UNL A   1      29.758  30.071  21.687  1.00  0.00     0.040 A 
ATOM     22  C   UNL A   1      27.752  30.785  22.836  1.00  0.00     0.040 A 
ATOM     23  C   UNL A   1      28.837  31.061  22.013  1.00  0.00     0.123 A 
ATOM     24  F   UNL A   1      28.994  32.296  21.519  1.00  0.00    -0.207 F 
ENDBRANCH  16  18
ENDBRANCH  13  14
BRANCH  13  25
ATOM     25  C   UNL A   1      31.537  27.371  25.559  1.00  0.00     0.072 C 
BRANCH  25  26
ATOM     26  C   UNL A   1      31.882  28.804  25.480  1.00  0.00    -0.020 A 
ATOM     27  C   UNL A   1      31.047  29.860  25.128  1.00  0.00     0.087 A 
ATOM     28  C   UNL A   1      33.084  29.331  25.997  1.00  0.00     0.003 A 
ATOM     29  N   UNL A   1      31.453  31.082  25.648  1.00  0.00    -0.361 N 
ATOM     30  C   UNL A   1      32.517  30.904  26.489  1.00  0.00     0.046 A 
ATOM     31  C   UNL A   1      34.592  28.633  26.733  1.00  0.00     0.010 A 
ATOM     32  H   UNL A   1      31.035  31.950  25.442  1.00  0.00     0.166 HD
ATOM     33  C   UNL A   1      33.376  31.811  27.774  1.00  0.00     0.026 A 
ATOM     34  C   UNL A   1      35.507  29.578  27.972  1.00  0.00     0.001 A 
ATOM     35  C   UNL A   1      34.921  31.173  28.439  1.00  0.00     0.002 A 
ENDBRANCH  25  26
ENDBRANCH  13  25
ENDBRANCH  10  13
ENDBRANCH   8   9
BRANCH   8  36
ATOM     36  C   UNL A   1      31.006  22.669  25.375  1.00  0.00     0.193 C 
BRANCH  36  37
ATOM     37  O   UNL A   1      31.281  21.311  25.739  1.00  0.00    -0.394 OA
ATOM     38  H   UNL A   1      31.799  20.887  25.038  1.00  0.00     0.210 HD
ENDBRANCH  36  37
ENDBRANCH   8  36
ENDBRANCH   6   8
ENDBRANCH   5   6
ENDBRANCH   4   5
ENDBRANCH   3   4
ENDBRANCH   2   3
ENDBRANCH   1   2
BRANCH   1  39
ATOM     39  C   UNL A   1      39.824  20.717  26.089  1.00  0.00     0.188 C 
BRANCH  39  40
ATOM     40  O   UNL A   1      41.164  21.025  26.424  1.00  0.00    -0.376 OA
BRANCH  40  41
ATOM     41  C   UNL A   1      41.897  19.991  27.072  1.00  0.00     0.202 C 
BRANCH  41  42
ATOM     42  C   UNL A   1      42.688  18.966  26.221  1.00  0.00     0.261 C 
BRANCH  42  43
ATOM     43  O   UNL A   1      42.995  19.353  24.858  1.00  0.00    -0.460 OA
BRANCH  43  44
ATOM     44  C   UNL A   1      44.322  19.427  24.554  1.00  0.00     0.338 C 
ATOM     45  O   UNL A   1      45.013  18.540  24.080  1.00  0.00    -0.246 OA
BRANCH  44  46
ATOM     46  C   UNL A   1      44.826  20.823  24.640  1.00  0.00     0.060 A 
ATOM     47  C   UNL A   1      45.677  21.150  25.709  1.00  0.00     0.016 A 
ATOM     48  C   UNL A   1      44.354  21.833  23.804  1.00  0.00     0.016 A 
ATOM     49  C   UNL A   1      46.061  22.469  25.950  1.00  0.00     0.010 A 
ATOM     50  C   UNL A   1      44.698  23.170  24.078  1.00  0.00     0.010 A 
ATOM     51  C   UNL A   1      45.524  23.498  25.174  1.00  0.00    -0.014 A 
BRANCH  51  52
ATOM     52  C   UNL A   1      45.581  24.885  25.714  1.00  0.00     0.031 A 
ATOM     53  C   UNL A   1      46.893  25.622  25.613  1.00  0.00     0.074 A 
ATOM     54  C   UNL A   1      44.497  25.538  26.171  1.00  0.00     0.049 A 
ATOM     55  N   UNL A   1      47.236  26.793  26.087  1.00  0.00    -0.248 NA
ATOM     56  C   UNL A   1      47.960  24.940  24.861  1.00  0.00     0.031 C 
ATOM     57  C   UNL A   1      43.135  25.013  26.202  1.00  0.00     0.029 A 
ATOM     58  N   UNL A   1      44.381  26.805  26.695  1.00  0.00    -0.354 N 
ATOM     59  C   UNL A   1      48.565  26.970  25.721  1.00  0.00     0.074 A 
ATOM     60  C   UNL A   1      48.968  25.786  24.993  1.00  0.00     0.031 C 
ATOM     61  C   UNL A   1      42.321  25.944  26.732  1.00  0.00     0.029 A 
ATOM     62  C   UNL A   1      43.112  27.111  27.124  1.00  0.00     0.049 A 
ATOM     63  H   UNL A   1      45.135  27.434  26.756  1.00  0.00     0.167 HD
ATOM     64  C   UNL A   1      49.384  28.022  25.966  1.00  0.00     0.037 A 
ATOM     65  C   UNL A   1      42.653  28.191  27.790  1.00  0.00     0.037 A 
ATOM     66  C   UNL A   1      48.985  29.211  26.671  1.00  0.00     0.049 A 
ATOM     67  C   UNL A   1      43.605  29.307  28.150  1.00  0.00     0.074 A 
ATOM     68  C   UNL A   1      49.750  30.317  26.998  1.00  0.00     0.029 A 
ATOM     69  N   UNL A   1      47.707  29.453  27.150  1.00  0.00    -0.354 N 
ATOM     70  N   UNL A   1      44.878  29.439  27.864  1.00  0.00    -0.248 NA
ATOM     71  C   UNL A   1      43.052  30.424  28.932  1.00  0.00     0.031 C 
ATOM     72  C   UNL A   1      48.946  31.206  27.721  1.00  0.00     0.029 A 
ATOM     73  C   UNL A   1      47.666  30.682  27.787  1.00  0.00     0.049 A 
ATOM     74  H   UNL A   1      46.943  28.840  27.054  1.00  0.00     0.167 HD
ATOM     75  C   UNL A   1      45.266  30.665  28.398  1.00  0.00     0.074 A 
ATOM     76  C   UNL A   1      44.091  31.243  29.011  1.00  0.00     0.031 C 
ATOM     77  C   UNL A   1      46.487  31.258  28.383  1.00  0.00     0.037 A 
BRANCH  64  78
ATOM     78  C   UNL A   1      50.811  27.894  25.522  1.00  0.00     0.057 A 
ATOM     79  C   UNL A   1      51.850  27.586  26.409  1.00  0.00     0.134 A 
ATOM     80  C   UNL A   1      51.150  28.098  24.178  1.00  0.00     0.134 A 
ATOM     81  F   UNL A   1      51.598  27.404  27.714  1.00  0.00    -0.206 F 
ATOM     82  C   UNL A   1      53.178  27.517  25.982  1.00  0.00     0.040 A 
ATOM     83  C   UNL A   1      52.469  28.000  23.732  1.00  0.00     0.040 A 
ATOM     84  F   UNL A   1      50.204  28.396  23.274  1.00  0.00    -0.206 F 
ATOM     85  C   UNL A   1      53.489  27.719  24.639  1.00  0.00     0.006 A 
ENDBRANCH  64  78
BRANCH  65  86
ATOM     86  C   UNL A   1      41.230  28.266  28.219  1.00  0.00     0.057 A 
ATOM     87  C   UNL A   1      40.242  28.810  27.388  1.00  0.00     0.134 A 
ATOM     88  C   UNL A   1      40.835  27.858  29.499  1.00  0.00     0.134 A 
ATOM     89  F   UNL A   1      40.560  29.252  26.163  1.00  0.00    -0.206 F 
ATOM     90  C   UNL A   1      38.923  28.966  27.820  1.00  0.00     0.040 A 
ATOM     91  C   UNL A   1      39.514  27.979  29.934  1.00  0.00     0.040 A 
ATOM     92  F   UNL A   1      41.730  27.336  30.350  1.00  0.00    -0.206 F 
ATOM     93  C   UNL A   1      38.555  28.545  29.097  1.00  0.00     0.006 A 
ENDBRANCH  65  86
BRANCH  77  94
ATOM     94  C   UNL A   1      46.599  32.628  28.993  1.00  0.00     0.057 A 
ATOM     95  C   UNL A   1      46.946  32.824  30.336  1.00  0.00     0.134 A 
ATOM     96  C   UNL A   1      46.373  33.771  28.214  1.00  0.00     0.134 A 
ATOM     97  F   UNL A   1      47.168  31.775  31.142  1.00  0.00    -0.206 F 
ATOM     98  C   UNL A   1      47.023  34.104  30.892  1.00  0.00     0.040 A 
ATOM     99  C   UNL A   1      46.479  35.057  28.750  1.00  0.00     0.040 A 
ATOM    100  F   UNL A   1      46.051  33.660  26.917  1.00  0.00    -0.206 F 
ATOM    101  C   UNL A   1      46.794  35.225  30.096  1.00  0.00     0.006 A 
ENDBRANCH  77  94
ENDBRANCH  51  52
ENDBRANCH  44  46
ENDBRANCH  43  44
ENDBRANCH  42  43
ENDBRANCH  41  42
ENDBRANCH  40  41
ENDBRANCH  39  40
ENDBRANCH   1  39
TORSDOF 25
ENDMDL
MODEL 3
REMARK VINA RESULT:     -10.5      4.793     10.189
REMARK SMILES O=C(N[C@@H](Cc1c[nH]c2ccccc12)C(=O)N[C@@H](CO)C(=O)OCCOCCOCCOC(=O)c1ccc(-c2c3nc(c(-c4c(F)cccc4F)c4ccc([nH]4)c(-c4c(F)cccc4F)c4nc(c(-c5c(F)cccc5F)c5ccc2[nH]5)C=C4)C=C3)cc1)c1ccc(F)cc1
REMARK SMILES IDX 27 1 26 2 25 3 24 4 23 5 21 6 22 7 18 8 17 9 15 10 16 11
REMARK SMILES IDX 4 13 3 14 1 15 2 16 89 18 90 19 95 20 91 21 94 22 92 23
REMARK SMILES IDX 93 24 5 25 6 26 7 27 14 28 8 29 9 30 13 31 10 33 12 34 11 35
REMARK SMILES IDX 19 36 20 37 28 39 29 40 30 41 31 42 32 43 33 44 34 45 35 46
REMARK SMILES IDX 36 47 88 48 37 49 87 50 38 51 39 52 40 53 81 54 41 55 86 56
REMARK SMILES IDX 80 57 82 58 42 59 85 60 79 61 78 62 43 64 69 65 52 66 68 67
REMARK SMILES IDX 53 68 56 69 67 70 83 71 54 72 55 73 66 75 84 76 57 77 44 78
REMARK SMILES IDX 45 79 50 80 46 81 47 82 49 83 51 84 48 85 70 86 71 87 76 88
REMARK SMILES IDX 72 89 73 90 75 91 77 92 74 93 58 94 59 95 64 96 60 97 61 98
REMARK SMILES IDX 63 99 65 100 62 101
REMARK H PARENT 17 12 3 17 8 32 20 38 82 63 56 74
REMARK Flexibility Score: inf
ROOT
ATOM      1  C   UNL A   1      37.454  32.365  28.805  1.00  0.00     0.188 C 
ENDROOT
BRANCH   1   2
ATOM      2  O   UNL A   1      36.377  31.456  28.953  1.00  0.00    -0.376 OA
BRANCH   2   3
ATOM      3  C   UNL A   1      35.959  30.859  27.725  1.00  0.00     0.202 C 
BRANCH   3   4
ATOM      4  C   UNL A   1      34.493  30.413  27.654  1.00  0.00     0.261 C 
BRANCH   4   5
ATOM      5  O   UNL A   1      34.156  29.536  26.547  1.00  0.00    -0.462 OA
BRANCH   5   6
ATOM      6  C   UNL A   1      32.778  29.085  26.295  1.00  0.00     0.331 C 
ATOM      7  O   UNL A   1      32.180  29.371  27.369  1.00  0.00    -0.250 OA
BRANCH   6   8
ATOM      8  C   UNL A   1      32.127  28.090  24.427  1.00  0.00     0.218 C 
BRANCH   8   9
ATOM      9  N   UNL A   1      30.563  27.425  23.996  1.00  0.00    -0.339 N 
ATOM     10  C   UNL A   1      29.931  26.215  24.052  1.00  0.00     0.243 C 
ATOM     11  O   UNL A   1      28.699  26.267  23.905  1.00  0.00    -0.273 OA
ATOM     12  H   UNL A   1      29.979  28.114  23.605  1.00  0.00     0.164 HD
BRANCH  10  13
ATOM     13  C   UNL A   1      30.592  24.820  24.198  1.00  0.00     0.176 C 
BRANCH  13  14
ATOM     14  N   UNL A   1      30.055  24.214  25.416  1.00  0.00    -0.340 N 
ATOM     15  O   UNL A   1      30.030  23.468  27.536  1.00  0.00    -0.269 OA
ATOM     16  C   UNL A   1      30.696  23.859  26.580  1.00  0.00     0.251 C 
ATOM     17  H   UNL A   1      29.088  24.031  25.400  1.00  0.00     0.164 HD
BRANCH  16  18
ATOM     18  C   UNL A   1      32.179  23.836  26.675  1.00  0.00     0.040 A 
ATOM     19  C   UNL A   1      33.000  24.853  26.170  1.00  0.00     0.017 A 
ATOM     20  C   UNL A   1      32.762  22.737  27.324  1.00  0.00     0.017 A 
ATOM     21  C   UNL A   1      34.390  24.712  26.208  1.00  0.00     0.040 A 
ATOM     22  C   UNL A   1      34.151  22.614  27.389  1.00  0.00     0.040 A 
ATOM     23  C   UNL A   1      34.952  23.591  26.809  1.00  0.00     0.123 A 
ATOM     24  F   UNL A   1      36.285  23.457  26.838  1.00  0.00    -0.207 F 
ENDBRANCH  16  18
ENDBRANCH  13  14
BRANCH  13  25
ATOM     25  C   UNL A   1      30.770  23.869  22.997  1.00  0.00     0.072 C 
BRANCH  25  26
ATOM     26  C   UNL A   1      32.179  23.576  22.672  1.00  0.00    -0.020 A 
ATOM     27  C   UNL A   1      33.175  24.481  22.318  1.00  0.00     0.087 A 
ATOM     28  C   UNL A   1      32.774  22.320  22.914  1.00  0.00     0.003 A 
ATOM     29  N   UNL A   1      34.458  24.028  22.598  1.00  0.00    -0.361 N 
ATOM     30  C   UNL A   1      34.399  22.840  23.274  1.00  0.00     0.046 A 
ATOM     31  C   UNL A   1      32.187  20.699  23.488  1.00  0.00     0.010 A 
ATOM     32  H   UNL A   1      35.288  24.493  22.346  1.00  0.00     0.166 HD
ATOM     33  C   UNL A   1      35.475  21.811  24.271  1.00  0.00     0.026 A 
ATOM     34  C   UNL A   1      33.296  19.622  24.425  1.00  0.00     0.001 A 
ATOM     35  C   UNL A   1      34.938  20.165  24.761  1.00  0.00     0.002 A 
ENDBRANCH  25  26
ENDBRANCH  13  25
ENDBRANCH  10  13
ENDBRANCH   8   9
BRANCH   8  36
ATOM     36  C   UNL A   1      32.427  28.474  22.753  1.00  0.00     0.193 C 
BRANCH  36  37
ATOM     37  O   UNL A   1      31.513  29.415  22.179  1.00  0.00    -0.394 OA
ATOM     38  H   UNL A   1      31.976  30.249  22.003  1.00  0.00     0.210 HD
ENDBRANCH  36  37
ENDBRANCH   8  36
ENDBRANCH   6   8
ENDBRANCH   5   6
ENDBRANCH   4   5
ENDBRANCH   3   4
ENDBRANCH   2   3
ENDBRANCH   1   2
BRANCH   1  39
ATOM     39  C   UNL A   1      37.303  33.646  29.630  1.00  0.00     0.188 C 
BRANCH  39  40
ATOM     40  O   UNL A   1      38.236  33.985  30.638  1.00  0.00    -0.376 OA
BRANCH  40  41
ATOM     41  C   UNL A   1      37.685  34.362  31.896  1.00  0.00     0.202 C 
BRANCH  41  42
ATOM     42  C   UNL A   1      37.580  33.311  33.030  1.00  0.00     0.261 C 
BRANCH  42  43
ATOM     43  O   UNL A   1      37.558  31.920  32.627  1.00  0.00    -0.460 OA
BRANCH  43  44
ATOM     44  C   UNL A   1      38.384  31.093  33.329  1.00  0.00     0.338 C 
ATOM     45  O   UNL A   1      38.310  30.824  34.517  1.00  0.00    -0.246 OA
BRANCH  44  46
ATOM     46  C   UNL A   1      39.287  30.328  32.428  1.00  0.00     0.060 A 
ATOM     47  C   UNL A   1      40.240  29.480  33.018  1.00  0.00     0.016 A 
ATOM     48  C   UNL A   1      39.323  30.550  31.053  1.00  0.00     0.016 A 
ATOM     49  C   UNL A   1      41.224  28.856  32.253  1.00  0.00     0.010 A 
ATOM     50  C   UNL A   1      40.347  29.963  30.288  1.00  0.00     0.010 A 
ATOM     51  C   UNL A   1      41.324  29.141  30.889  1.00  0.00    -0.014 A 
BRANCH  51  52
ATOM     52  C   UNL A   1      42.612  28.837  30.204  1.00  0.00     0.031 A 
ATOM     53  C   UNL A   1      42.705  27.546  29.431  1.00  0.00     0.074 A 
ATOM     54  C   UNL A   1      43.634  29.710  30.147  1.00  0.00     0.049 A 
ATOM     55  N   UNL A   1      43.731  27.001  28.829  1.00  0.00    -0.248 NA
ATOM     56  C   UNL A   1      41.458  26.770  29.318  1.00  0.00     0.031 C 
ATOM     57  C   UNL A   1      43.644  31.052  30.721  1.00  0.00     0.029 A 
ATOM     58  N   UNL A   1      44.873  29.587  29.560  1.00  0.00    -0.354 N 
ATOM     59  C   UNL A   1      43.262  25.805  28.297  1.00  0.00     0.074 A 
ATOM     60  C   UNL A   1      41.864  25.701  28.654  1.00  0.00     0.031 C 
ATOM     61  C   UNL A   1      44.837  31.624  30.473  1.00  0.00     0.029 A 
ATOM     62  C   UNL A   1      45.692  30.670  29.766  1.00  0.00     0.049 A 
ATOM     63  H   UNL A   1      45.147  28.796  29.042  1.00  0.00     0.167 HD
ATOM     64  C   UNL A   1      43.931  24.873  27.577  1.00  0.00     0.037 A 
ATOM     65  C   UNL A   1      46.991  30.853  29.452  1.00  0.00     0.037 A 
ATOM     66  C   UNL A   1      45.314  24.979  27.201  1.00  0.00     0.049 A 
ATOM     67  C   UNL A   1      47.750  29.757  28.744  1.00  0.00     0.074 A 
ATOM     68  C   UNL A   1      46.091  24.072  26.500  1.00  0.00     0.029 A 
ATOM     69  N   UNL A   1      46.129  26.063  27.489  1.00  0.00    -0.354 N 
ATOM     70  N   UNL A   1      47.322  28.598  28.305  1.00  0.00    -0.248 NA
ATOM     71  C   UNL A   1      49.180  29.997  28.490  1.00  0.00     0.031 C 
ATOM     72  C   UNL A   1      47.389  24.587  26.408  1.00  0.00     0.029 A 
ATOM     73  C   UNL A   1      47.405  25.841  26.995  1.00  0.00     0.049 A 
ATOM     74  H   UNL A   1      45.843  26.871  27.973  1.00  0.00     0.167 HD
ATOM     75  C   UNL A   1      48.416  27.989  27.697  1.00  0.00     0.074 A 
ATOM     76  C   UNL A   1      49.523  28.914  27.808  1.00  0.00     0.031 C 
ATOM     77  C   UNL A   1      48.498  26.774  27.098  1.00  0.00     0.037 A 
BRANCH  64  78
ATOM     78  C   UNL A   1      43.179  23.626  27.210  1.00  0.00     0.057 A 
ATOM     79  C   UNL A   1      42.598  23.443  25.949  1.00  0.00     0.134 A 
ATOM     80  C   UNL A   1      43.026  22.596  28.147  1.00  0.00     0.134 A 
ATOM     81  F   UNL A   1      42.686  24.402  25.014  1.00  0.00    -0.206 F 
ATOM     82  C   UNL A   1      41.864  22.295  25.644  1.00  0.00     0.040 A 
ATOM     83  C   UNL A   1      42.322  21.430  27.844  1.00  0.00     0.040 A 
ATOM     84  F   UNL A   1      43.558  22.706  29.374  1.00  0.00    -0.206 F 
ATOM     85  C   UNL A   1      41.730  21.282  26.591  1.00  0.00     0.006 A 
ENDBRANCH  64  78
BRANCH  65  86
ATOM     86  C   UNL A   1      47.695  32.104  29.849  1.00  0.00     0.057 A 
ATOM     87  C   UNL A   1      47.783  33.200  28.983  1.00  0.00     0.134 A 
ATOM     88  C   UNL A   1      48.358  32.205  31.079  1.00  0.00     0.134 A 
ATOM     89  F   UNL A   1      47.201  33.154  27.775  1.00  0.00    -0.206 F 
ATOM     90  C   UNL A   1      48.519  34.341  29.313  1.00  0.00     0.040 A 
ATOM     91  C   UNL A   1      49.071  33.350  31.436  1.00  0.00     0.040 A 
ATOM     92  F   UNL A   1      48.322  31.189  31.953  1.00  0.00    -0.206 F 
ATOM     93  C   UNL A   1      49.163  34.419  30.547  1.00  0.00     0.006 A 
ENDBRANCH  65  86
BRANCH  77  94
ATOM     94  C   UNL A   1      49.809  26.400  26.464  1.00  0.00     0.057 A 
ATOM     95  C   UNL A   1      50.763  25.614  27.124  1.00  0.00     0.134 A 
ATOM     96  C   UNL A   1      50.113  26.821  25.162  1.00  0.00     0.134 A 
ATOM     97  F   UNL A   1      50.544  25.183  28.375  1.00  0.00    -0.206 F 
ATOM     98  C   UNL A   1      51.987  25.295  26.528  1.00  0.00     0.040 A 
ATOM     99  C   UNL A   1      51.318  26.481  24.543  1.00  0.00     0.040 A 
ATOM    100  F   UNL A   1      49.241  27.564  24.465  1.00  0.00    -0.206 F 
ATOM    101  C   UNL A   1      52.264  25.726  25.231  1.00  0.00     0.006 A 
ENDBRANCH  77  94
ENDBRANCH  51  52
ENDBRANCH  44  46
ENDBRANCH  43  44
ENDBRANCH  42  43
ENDBRANCH  41  42
ENDBRANCH  40  41
ENDBRANCH  39  40
ENDBRANCH   1  39
TORSDOF 25
ENDMDL
