MODEL 1
REMARK VINA RESULT:     -10.6      0.000      0.000
REMARK SMILES COCC1CCN(C(=O)NC[C@H]2CC[C@H](C(=O)OCCOCCOCCOC(=O)c3ccc(-c4c5nc(c(-c6c(F)cccc6F)c6ccc([nH]6)c(-c6c(F)cccc6F)c6nc(c(-c7c(F)cccc7F)c7ccc4[nH]7)C=C6)C=C5)cc3)O2)CC1
REMARK SMILES IDX 22 1 21 2 20 3 19 4 18 5 16 6 17 7 15 8 12 9 13 10 84 11
REMARK SMILES IDX 14 12 11 13 10 14 4 15 5 16 86 17 6 18 85 19 7 20 8 21 9 22
REMARK SMILES IDX 3 24 2 25 1 26 23 27 24 28 25 29 26 30 27 31 28 32 29 33
REMARK SMILES IDX 30 34 31 35 83 36 32 37 82 38 33 39 34 40 35 41 76 42 36 43
REMARK SMILES IDX 81 44 75 45 77 46 37 47 80 48 74 49 73 50 38 52 64 53 47 54
REMARK SMILES IDX 63 55 48 56 51 57 62 58 78 59 49 60 50 61 61 63 79 64 52 65
REMARK SMILES IDX 39 66 40 67 45 68 41 69 42 70 44 71 46 72 43 73 65 74 66 75
REMARK SMILES IDX 71 76 67 77 68 78 70 79 72 80 69 81 53 82 54 83 59 84 55 85
REMARK SMILES IDX 56 86 58 87 60 88 57 89
REMARK H PARENT 10 23 77 51 51 62
REMARK Flexibility Score: inf
ROOT
ATOM      1  C   UNL A   1      39.646  21.553  26.114  1.00  0.00     0.188 C 
ENDROOT
BRANCH   1   2
ATOM      2  O   UNL A   1      38.497  21.356  25.301  1.00  0.00    -0.376 OA
BRANCH   2   3
ATOM      3  C   UNL A   1      37.324  22.117  25.591  1.00  0.00     0.202 C 
BRANCH   3   4
ATOM      4  C   UNL A   1      35.994  21.366  25.780  1.00  0.00     0.261 C 
BRANCH   4   5
ATOM      5  O   UNL A   1      35.164  21.357  24.600  1.00  0.00    -0.461 OA
BRANCH   5   6
ATOM      6  C   UNL A   1      34.075  20.545  24.635  1.00  0.00     0.335 C 
ATOM      7  O   UNL A   1      34.065  19.431  25.146  1.00  0.00    -0.249 OA
BRANCH   6   8
ATOM      8  C   UNL A   1      32.808  21.223  24.084  1.00  0.00     0.228 C 
ATOM      9  C   UNL A   1      32.848  23.566  23.945  1.00  0.00     0.138 C 
ATOM     10  C   UNL A   1      32.207  23.177  25.272  1.00  0.00     0.037 C 
ATOM     11  O   UNL A   1      33.200  22.339  23.276  1.00  0.00    -0.361 OA
ATOM     12  C   UNL A   1      31.772  21.757  25.052  1.00  0.00     0.047 C 
BRANCH   9  13
ATOM     13  C   UNL A   1      32.012  24.382  22.945  1.00  0.00     0.149 C 
BRANCH  13  14
ATOM     14  N   UNL A   1      32.774  25.364  22.202  1.00  0.00    -0.335 N 
ATOM     15  C   UNL A   1      32.879  28.209  26.127  1.00  0.00     0.018 C 
ATOM     16  C   UNL A   1      33.835  28.646  24.995  1.00  0.00     0.027 C 
ATOM     17  C   UNL A   1      32.114  26.934  25.717  1.00  0.00     0.027 C 
ATOM     18  C   UNL A   1      33.134  28.725  23.639  1.00  0.00     0.121 C 
ATOM     19  C   UNL A   1      31.479  27.098  24.336  1.00  0.00     0.121 C 
ATOM     20  N   UNL A   1      32.512  27.428  23.362  1.00  0.00    -0.325 N 
ATOM     21  C   UNL A   1      33.058  26.668  22.365  1.00  0.00     0.317 C 
ATOM     22  O   UNL A   1      33.871  27.127  21.557  1.00  0.00    -0.249 OA
ATOM     23  H   UNL A   1      33.177  24.990  21.387  1.00  0.00     0.165 HD
BRANCH  15  24
ATOM     24  C   UNL A   1      31.882  29.302  26.565  1.00  0.00     0.163 C 
BRANCH  24  25
ATOM     25  O   UNL A   1      32.209  30.597  26.075  1.00  0.00    -0.384 OA
ATOM     26  C   UNL A   1      31.347  31.617  26.552  1.00  0.00     0.194 C 
ENDBRANCH  24  25
ENDBRANCH  15  24
ENDBRANCH  13  14
ENDBRANCH   9  13
ENDBRANCH   6   8
ENDBRANCH   5   6
ENDBRANCH   4   5
ENDBRANCH   3   4
ENDBRANCH   2   3
ENDBRANCH   1   2
BRANCH   1  27
ATOM     27  C   UNL A   1      40.480  20.325  26.501  1.00  0.00     0.188 C 
BRANCH  27  28
ATOM     28  O   UNL A   1      41.527  20.025  25.606  1.00  0.00    -0.376 OA
BRANCH  28  29
ATOM     29  C   UNL A   1      42.871  20.118  26.060  1.00  0.00     0.202 C 
BRANCH  29  30
ATOM     30  C   UNL A   1      43.703  21.360  25.672  1.00  0.00     0.261 C 
BRANCH  30  31
ATOM     31  O   UNL A   1      42.973  22.559  25.344  1.00  0.00    -0.460 OA
BRANCH  31  32
ATOM     32  C   UNL A   1      43.681  23.709  25.220  1.00  0.00     0.338 C 
ATOM     33  O   UNL A   1      44.444  23.999  24.313  1.00  0.00    -0.246 OA
BRANCH  32  34
ATOM     34  C   UNL A   1      43.136  24.677  26.210  1.00  0.00     0.060 A 
ATOM     35  C   UNL A   1      43.651  25.984  26.226  1.00  0.00     0.016 A 
ATOM     36  C   UNL A   1      42.071  24.339  27.047  1.00  0.00     0.016 A 
ATOM     37  C   UNL A   1      43.114  26.947  27.089  1.00  0.00     0.010 A 
ATOM     38  C   UNL A   1      41.554  25.295  27.930  1.00  0.00     0.010 A 
ATOM     39  C   UNL A   1      42.085  26.599  27.972  1.00  0.00    -0.014 A 
BRANCH  39  40
ATOM     40  C   UNL A   1      41.682  27.526  29.063  1.00  0.00     0.031 A 
ATOM     41  C   UNL A   1      42.435  27.464  30.365  1.00  0.00     0.074 A 
ATOM     42  C   UNL A   1      40.671  28.402  28.918  1.00  0.00     0.049 A 
ATOM     43  N   UNL A   1      42.209  28.093  31.489  1.00  0.00    -0.248 NA
ATOM     44  C   UNL A   1      43.600  26.565  30.400  1.00  0.00     0.031 C 
ATOM     45  C   UNL A   1      39.887  28.603  27.702  1.00  0.00     0.029 A 
ATOM     46  N   UNL A   1      40.119  29.281  29.822  1.00  0.00    -0.354 N 
ATOM     47  C   UNL A   1      43.193  27.657  32.368  1.00  0.00     0.074 A 
ATOM     48  C   UNL A   1      44.002  26.693  31.654  1.00  0.00     0.031 C 
ATOM     49  C   UNL A   1      38.940  29.529  27.942  1.00  0.00     0.029 A 
ATOM     50  C   UNL A   1      39.026  29.959  29.337  1.00  0.00     0.049 A 
ATOM     51  H   UNL A   1      40.474  29.411  30.732  1.00  0.00     0.167 HD
ATOM     52  C   UNL A   1      43.407  28.028  33.652  1.00  0.00     0.037 A 
ATOM     53  C   UNL A   1      38.175  30.800  29.958  1.00  0.00     0.037 A 
ATOM     54  C   UNL A   1      42.605  28.987  34.365  1.00  0.00     0.049 A 
ATOM     55  C   UNL A   1      38.383  31.133  31.416  1.00  0.00     0.074 A 
ATOM     56  C   UNL A   1      42.762  29.443  35.663  1.00  0.00     0.029 A 
ATOM     57  N   UNL A   1      41.492  29.628  33.847  1.00  0.00    -0.354 N 
ATOM     58  N   UNL A   1      39.331  30.737  32.230  1.00  0.00    -0.248 NA
ATOM     59  C   UNL A   1      37.399  32.031  32.041  1.00  0.00     0.031 C 
ATOM     60  C   UNL A   1      41.707  30.314  35.950  1.00  0.00     0.029 A 
ATOM     61  C   UNL A   1      40.932  30.451  34.811  1.00  0.00     0.049 A 
ATOM     62  H   UNL A   1      41.150  29.517  32.932  1.00  0.00     0.167 HD
ATOM     63  C   UNL A   1      39.077  31.360  33.448  1.00  0.00     0.074 A 
ATOM     64  C   UNL A   1      37.894  32.173  33.262  1.00  0.00     0.031 C 
ATOM     65  C   UNL A   1      39.760  31.266  34.615  1.00  0.00     0.037 A 
BRANCH  52  66
ATOM     66  C   UNL A   1      44.539  27.371  34.386  1.00  0.00     0.057 A 
ATOM     67  C   UNL A   1      45.819  27.938  34.439  1.00  0.00     0.134 A 
ATOM     68  C   UNL A   1      44.330  26.180  35.093  1.00  0.00     0.134 A 
ATOM     69  F   UNL A   1      46.089  29.071  33.772  1.00  0.00    -0.206 F 
ATOM     70  C   UNL A   1      46.854  27.335  35.155  1.00  0.00     0.040 A 
ATOM     71  C   UNL A   1      45.349  25.583  35.836  1.00  0.00     0.040 A 
ATOM     72  F   UNL A   1      43.127  25.586  35.087  1.00  0.00    -0.206 F 
ATOM     73  C   UNL A   1      46.617  26.159  35.864  1.00  0.00     0.006 A 
ENDBRANCH  52  66
BRANCH  53  74
ATOM     74  C   UNL A   1      37.012  31.370  29.225  1.00  0.00     0.057 A 
ATOM     75  C   UNL A   1      35.874  30.601  28.949  1.00  0.00     0.134 A 
ATOM     76  C   UNL A   1      37.034  32.681  28.732  1.00  0.00     0.134 A 
ATOM     77  F   UNL A   1      35.804  29.327  29.366  1.00  0.00    -0.206 F 
ATOM     78  C   UNL A   1      34.814  31.103  28.191  1.00  0.00     0.040 A 
ATOM     79  C   UNL A   1      35.968  33.206  27.998  1.00  0.00     0.040 A 
ATOM     80  F   UNL A   1      38.095  33.470  28.952  1.00  0.00    -0.206 F 
ATOM     81  C   UNL A   1      34.858  32.413  27.716  1.00  0.00     0.006 A 
ENDBRANCH  53  74
BRANCH  65  82
ATOM     82  C   UNL A   1      39.277  32.093  35.774  1.00  0.00     0.057 A 
ATOM     83  C   UNL A   1      39.699  33.414  35.973  1.00  0.00     0.134 A 
ATOM     84  C   UNL A   1      38.340  31.574  36.678  1.00  0.00     0.134 A 
ATOM     85  F   UNL A   1      40.601  33.970  35.150  1.00  0.00    -0.206 F 
ATOM     86  C   UNL A   1      39.228  34.179  37.042  1.00  0.00     0.040 A 
ATOM     87  C   UNL A   1      37.839  32.338  37.733  1.00  0.00     0.040 A 
ATOM     88  F   UNL A   1      37.883  30.320  36.542  1.00  0.00    -0.206 F 
ATOM     89  C   UNL A   1      38.288  33.643  37.921  1.00  0.00     0.006 A 
ENDBRANCH  65  82
ENDBRANCH  39  40
ENDBRANCH  32  34
ENDBRANCH  31  32
ENDBRANCH  30  31
ENDBRANCH  29  30
ENDBRANCH  28  29
ENDBRANCH  27  28
ENDBRANCH   1  27
TORSDOF 21
ENDMDL
MODEL 2
REMARK VINA RESULT:     -10.5      1.349      2.537
REMARK SMILES COCC1CCN(C(=O)NC[C@H]2CC[C@H](C(=O)OCCOCCOCCOC(=O)c3ccc(-c4c5nc(c(-c6c(F)cccc6F)c6ccc([nH]6)c(-c6c(F)cccc6F)c6nc(c(-c7c(F)cccc7F)c7ccc4[nH]7)C=C6)C=C5)cc3)O2)CC1
REMARK SMILES IDX 22 1 21 2 20 3 19 4 18 5 16 6 17 7 15 8 12 9 13 10 84 11
REMARK SMILES IDX 14 12 11 13 10 14 4 15 5 16 86 17 6 18 85 19 7 20 8 21 9 22
REMARK SMILES IDX 3 24 2 25 1 26 23 27 24 28 25 29 26 30 27 31 28 32 29 33
REMARK SMILES IDX 30 34 31 35 83 36 32 37 82 38 33 39 34 40 35 41 76 42 36 43
REMARK SMILES IDX 81 44 75 45 77 46 37 47 80 48 74 49 73 50 38 52 64 53 47 54
REMARK SMILES IDX 63 55 48 56 51 57 62 58 78 59 49 60 50 61 61 63 79 64 52 65
REMARK SMILES IDX 39 66 40 67 45 68 41 69 42 70 44 71 46 72 43 73 65 74 66 75
REMARK SMILES IDX 71 76 67 77 68 78 70 79 72 80 69 81 53 82 54 83 59 84 55 85
REMARK SMILES IDX 56 86 58 87 60 88 57 89
REMARK H PARENT 10 23 77 51 51 62
REMARK Flexibility Score: inf
ROOT
ATOM      1  C   UNL A   1      41.617  19.809  26.378  1.00  0.00     0.188 C 
ENDROOT
BRANCH   1   2
ATOM      2  O   UNL A   1      41.293  21.149  26.034  1.00  0.00    -0.376 OA
BRANCH   2   3
ATOM      3  C   UNL A   1      39.989  21.635  26.358  1.00  0.00     0.202 C 
BRANCH   3   4
ATOM      4  C   UNL A   1      38.782  21.048  25.605  1.00  0.00     0.261 C 
BRANCH   4   5
ATOM      5  O   UNL A   1      37.514  21.569  26.054  1.00  0.00    -0.461 OA
BRANCH   5   6
ATOM      6  C   UNL A   1      36.405  21.057  25.456  1.00  0.00     0.335 C 
ATOM      7  O   UNL A   1      36.335  19.921  25.001  1.00  0.00    -0.249 OA
BRANCH   6   8
ATOM      8  C   UNL A   1      35.195  22.005  25.531  1.00  0.00     0.228 C 
ATOM      9  C   UNL A   1      33.455  21.606  24.007  1.00  0.00     0.138 C 
ATOM     10  C   UNL A   1      34.387  22.652  23.406  1.00  0.00     0.037 C 
ATOM     11  O   UNL A   1      34.004  21.246  25.290  1.00  0.00    -0.361 OA
ATOM     12  C   UNL A   1      35.126  23.194  24.596  1.00  0.00     0.047 C 
BRANCH   9  13
ATOM     13  C   UNL A   1      31.989  21.996  24.256  1.00  0.00     0.149 C 
BRANCH  13  14
ATOM     14  N   UNL A   1      31.741  22.550  25.570  1.00  0.00    -0.335 N 
ATOM     15  C   UNL A   1      29.962  26.564  23.512  1.00  0.00     0.018 C 
ATOM     16  C   UNL A   1      29.693  26.451  25.029  1.00  0.00     0.027 C 
ATOM     17  C   UNL A   1      30.745  25.331  23.015  1.00  0.00     0.027 C 
ATOM     18  C   UNL A   1      30.960  26.130  25.822  1.00  0.00     0.121 C 
ATOM     19  C   UNL A   1      31.971  25.073  23.891  1.00  0.00     0.121 C 
ATOM     20  N   UNL A   1      31.552  24.907  25.277  1.00  0.00    -0.325 N 
ATOM     21  C   UNL A   1      31.499  23.782  26.053  1.00  0.00     0.317 C 
ATOM     22  O   UNL A   1      31.202  23.821  27.251  1.00  0.00    -0.249 OA
ATOM     23  H   UNL A   1      31.752  21.865  26.276  1.00  0.00     0.165 HD
BRANCH  15  24
ATOM     24  C   UNL A   1      30.699  27.855  23.098  1.00  0.00     0.163 C 
BRANCH  24  25
ATOM     25  O   UNL A   1      30.322  28.993  23.865  1.00  0.00    -0.384 OA
ATOM     26  C   UNL A   1      29.460  29.882  23.173  1.00  0.00     0.194 C 
ENDBRANCH  24  25
ENDBRANCH  15  24
ENDBRANCH  13  14
ENDBRANCH   9  13
ENDBRANCH   6   8
ENDBRANCH   5   6
ENDBRANCH   4   5
ENDBRANCH   3   4
ENDBRANCH   2   3
ENDBRANCH   1   2
BRANCH   1  27
ATOM     27  C   UNL A   1      42.957  19.240  25.894  1.00  0.00     0.188 C 
BRANCH  27  28
ATOM     28  O   UNL A   1      43.644  20.062  24.978  1.00  0.00    -0.376 OA
BRANCH  28  29
ATOM     29  C   UNL A   1      45.013  20.364  25.213  1.00  0.00     0.202 C 
BRANCH  29  30
ATOM     30  C   UNL A   1      45.399  21.805  25.611  1.00  0.00     0.261 C 
BRANCH  30  31
ATOM     31  O   UNL A   1      44.388  22.596  26.267  1.00  0.00    -0.460 OA
BRANCH  31  32
ATOM     32  C   UNL A   1      43.759  23.545  25.531  1.00  0.00     0.338 C 
ATOM     33  O   UNL A   1      43.478  23.478  24.345  1.00  0.00    -0.246 OA
BRANCH  32  34
ATOM     34  C   UNL A   1      43.198  24.545  26.478  1.00  0.00     0.060 A 
ATOM     35  C   UNL A   1      43.750  25.838  26.498  1.00  0.00     0.016 A 
ATOM     36  C   UNL A   1      42.086  24.252  27.270  1.00  0.00     0.016 A 
ATOM     37  C   UNL A   1      43.202  26.830  27.319  1.00  0.00     0.010 A 
ATOM     38  C   UNL A   1      41.556  25.239  28.112  1.00  0.00     0.010 A 
ATOM     39  C   UNL A   1      42.123  26.527  28.158  1.00  0.00    -0.014 A 
BRANCH  39  40
ATOM     40  C   UNL A   1      41.697  27.484  29.214  1.00  0.00     0.031 A 
ATOM     41  C   UNL A   1      42.417  27.453  30.535  1.00  0.00     0.074 A 
ATOM     42  C   UNL A   1      40.694  28.360  29.021  1.00  0.00     0.049 A 
ATOM     43  N   UNL A   1      42.167  28.112  31.637  1.00  0.00    -0.248 NA
ATOM     44  C   UNL A   1      43.577  26.550  30.623  1.00  0.00     0.031 C 
ATOM     45  C   UNL A   1      39.942  28.531  27.781  1.00  0.00     0.029 A 
ATOM     46  N   UNL A   1      40.125  29.264  29.888  1.00  0.00    -0.354 N 
ATOM     47  C   UNL A   1      43.126  27.696  32.551  1.00  0.00     0.074 A 
ATOM     48  C   UNL A   1      43.949  26.710  31.884  1.00  0.00     0.031 C 
ATOM     49  C   UNL A   1      38.994  29.468  27.973  1.00  0.00     0.029 A 
ATOM     50  C   UNL A   1      39.047  29.933  29.358  1.00  0.00     0.049 A 
ATOM     51  H   UNL A   1      40.458  29.417  30.802  1.00  0.00     0.167 HD
ATOM     52  C   UNL A   1      43.310  28.099  33.830  1.00  0.00     0.037 A 
ATOM     53  C   UNL A   1      38.184  30.794  29.936  1.00  0.00     0.037 A 
ATOM     54  C   UNL A   1      42.496  29.080  34.498  1.00  0.00     0.049 A 
ATOM     55  C   UNL A   1      38.358  31.165  31.389  1.00  0.00     0.074 A 
ATOM     56  C   UNL A   1      42.622  29.569  35.786  1.00  0.00     0.029 A 
ATOM     57  N   UNL A   1      41.399  29.712  33.935  1.00  0.00    -0.354 N 
ATOM     58  N   UNL A   1      39.283  30.786  32.237  1.00  0.00    -0.248 NA
ATOM     59  C   UNL A   1      37.363  32.082  31.965  1.00  0.00     0.031 C 
ATOM     60  C   UNL A   1      41.564  30.451  36.025  1.00  0.00     0.029 A 
ATOM     61  C   UNL A   1      40.818  30.562  34.863  1.00  0.00     0.049 A 
ATOM     62  H   UNL A   1      41.078  29.578  33.015  1.00  0.00     0.167 HD
ATOM     63  C   UNL A   1      39.002  31.442  33.430  1.00  0.00     0.074 A 
ATOM     64  C   UNL A   1      37.828  32.255  33.194  1.00  0.00     0.031 C 
ATOM     65  C   UNL A   1      39.655  31.376  34.616  1.00  0.00     0.037 A 
BRANCH  52  66
ATOM     66  C   UNL A   1      44.420  27.457  34.609  1.00  0.00     0.057 A 
ATOM     67  C   UNL A   1      44.233  26.270  35.329  1.00  0.00     0.134 A 
ATOM     68  C   UNL A   1      45.708  28.009  34.595  1.00  0.00     0.134 A 
ATOM     69  F   UNL A   1      43.020  25.698  35.395  1.00  0.00    -0.206 F 
ATOM     70  C   UNL A   1      45.283  25.663  36.021  1.00  0.00     0.040 A 
ATOM     71  C   UNL A   1      46.772  27.396  35.259  1.00  0.00     0.040 A 
ATOM     72  F   UNL A   1      45.956  29.142  33.922  1.00  0.00    -0.206 F 
ATOM     73  C   UNL A   1      46.559  26.222  35.978  1.00  0.00     0.006 A 
ENDBRANCH  52  66
BRANCH  53  74
ATOM     74  C   UNL A   1      37.042  31.349  29.159  1.00  0.00     0.057 A 
ATOM     75  C   UNL A   1      37.051  32.670  28.691  1.00  0.00     0.134 A 
ATOM     76  C   UNL A   1      35.889  30.592  28.917  1.00  0.00     0.134 A 
ATOM     77  F   UNL A   1      38.112  33.458  28.918  1.00  0.00    -0.206 F 
ATOM     78  C   UNL A   1      35.950  33.223  28.034  1.00  0.00     0.040 A 
ATOM     79  C   UNL A   1      34.793  31.122  28.235  1.00  0.00     0.040 A 
ATOM     80  F   UNL A   1      35.810  29.323  29.345  1.00  0.00    -0.206 F 
ATOM     81  C   UNL A   1      34.817  32.446  27.801  1.00  0.00     0.006 A 
ENDBRANCH  53  74
BRANCH  65  82
ATOM     82  C   UNL A   1      39.148  32.235  35.741  1.00  0.00     0.057 A 
ATOM     83  C   UNL A   1      38.255  31.748  36.705  1.00  0.00     0.134 A 
ATOM     84  C   UNL A   1      39.596  33.555  35.888  1.00  0.00     0.134 A 
ATOM     85  F   UNL A   1      37.778  30.497  36.620  1.00  0.00    -0.206 F 
ATOM     86  C   UNL A   1      37.807  32.549  37.758  1.00  0.00     0.040 A 
ATOM     87  C   UNL A   1      39.179  34.356  36.953  1.00  0.00     0.040 A 
ATOM     88  F   UNL A   1      40.461  34.083  35.009  1.00  0.00    -0.206 F 
ATOM     89  C   UNL A   1      38.277  33.856  37.887  1.00  0.00     0.006 A 
ENDBRANCH  65  82
ENDBRANCH  39  40
ENDBRANCH  32  34
ENDBRANCH  31  32
ENDBRANCH  30  31
ENDBRANCH  29  30
ENDBRANCH  28  29
ENDBRANCH  27  28
ENDBRANCH   1  27
TORSDOF 21
ENDMDL
MODEL 3
REMARK VINA RESULT:     -10.0      2.476      8.545
REMARK SMILES COCC1CCN(C(=O)NC[C@H]2CC[C@H](C(=O)OCCOCCOCCOC(=O)c3ccc(-c4c5nc(c(-c6c(F)cccc6F)c6ccc([nH]6)c(-c6c(F)cccc6F)c6nc(c(-c7c(F)cccc7F)c7ccc4[nH]7)C=C6)C=C5)cc3)O2)CC1
REMARK SMILES IDX 22 1 21 2 20 3 19 4 18 5 16 6 17 7 15 8 12 9 13 10 84 11
REMARK SMILES IDX 14 12 11 13 10 14 4 15 5 16 86 17 6 18 85 19 7 20 8 21 9 22
REMARK SMILES IDX 3 24 2 25 1 26 23 27 24 28 25 29 26 30 27 31 28 32 29 33
REMARK SMILES IDX 30 34 31 35 83 36 32 37 82 38 33 39 34 40 35 41 76 42 36 43
REMARK SMILES IDX 81 44 75 45 77 46 37 47 80 48 74 49 73 50 38 52 64 53 47 54
REMARK SMILES IDX 63 55 48 56 51 57 62 58 78 59 49 60 50 61 61 63 79 64 52 65
REMARK SMILES IDX 39 66 40 67 45 68 41 69 42 70 44 71 46 72 43 73 65 74 66 75
REMARK SMILES IDX 71 76 67 77 68 78 70 79 72 80 69 81 53 82 54 83 59 84 55 85
REMARK SMILES IDX 56 86 58 87 60 88 57 89
REMARK H PARENT 10 23 77 51 51 62
REMARK Flexibility Score: inf
ROOT
ATOM      1  C   UNL A   1      33.132  29.132  27.251  1.00  0.00     0.188 C 
ENDROOT
BRANCH   1   2
ATOM      2  O   UNL A   1      33.191  28.076  26.301  1.00  0.00    -0.376 OA
BRANCH   2   3
ATOM      3  C   UNL A   1      33.879  28.309  25.071  1.00  0.00     0.202 C 
BRANCH   3   4
ATOM      4  C   UNL A   1      33.104  28.959  23.911  1.00  0.00     0.261 C 
BRANCH   4   5
ATOM      5  O   UNL A   1      31.683  28.716  23.960  1.00  0.00    -0.461 OA
BRANCH   5   6
ATOM      6  C   UNL A   1      31.044  28.633  22.763  1.00  0.00     0.335 C 
ATOM      7  O   UNL A   1      30.889  29.581  22.001  1.00  0.00    -0.249 OA
BRANCH   6   8
ATOM      8  C   UNL A   1      30.652  27.191  22.395  1.00  0.00     0.228 C 
ATOM      9  C   UNL A   1      31.396  25.500  23.843  1.00  0.00     0.138 C 
ATOM     10  C   UNL A   1      32.408  25.640  22.711  1.00  0.00     0.037 C 
ATOM     11  O   UNL A   1      30.362  26.474  23.600  1.00  0.00    -0.361 OA
ATOM     12  C   UNL A   1      31.632  26.329  21.626  1.00  0.00     0.047 C 
BRANCH   9  13
ATOM     13  C   UNL A   1      30.686  24.148  24.020  1.00  0.00     0.149 C 
BRANCH  13  14
ATOM     14  N   UNL A   1      30.443  23.786  25.401  1.00  0.00    -0.335 N 
ATOM     15  C   UNL A   1      35.157  22.787  25.942  1.00  0.00     0.018 C 
ATOM     16  C   UNL A   1      34.360  22.847  27.265  1.00  0.00     0.027 C 
ATOM     17  C   UNL A   1      34.227  23.078  24.745  1.00  0.00     0.027 C 
ATOM     18  C   UNL A   1      33.089  21.999  27.216  1.00  0.00     0.121 C 
ATOM     19  C   UNL A   1      32.971  22.208  24.806  1.00  0.00     0.121 C 
ATOM     20  N   UNL A   1      32.284  22.432  26.072  1.00  0.00    -0.325 N 
ATOM     21  C   UNL A   1      31.118  23.095  26.337  1.00  0.00     0.317 C 
ATOM     22  O   UNL A   1      30.616  23.121  27.465  1.00  0.00    -0.249 OA
ATOM     23  H   UNL A   1      29.581  24.124  25.733  1.00  0.00     0.165 HD
BRANCH  15  24
ATOM     24  C   UNL A   1      35.902  21.455  25.716  1.00  0.00     0.163 C 
BRANCH  24  25
ATOM     25  O   UNL A   1      37.279  21.623  25.401  1.00  0.00    -0.384 OA
ATOM     26  C   UNL A   1      37.789  22.900  25.751  1.00  0.00     0.194 C 
ENDBRANCH  24  25
ENDBRANCH  15  24
ENDBRANCH  13  14
ENDBRANCH   9  13
ENDBRANCH   6   8
ENDBRANCH   5   6
ENDBRANCH   4   5
ENDBRANCH   3   4
ENDBRANCH   2   3
ENDBRANCH   1   2
BRANCH   1  27
ATOM     27  C   UNL A   1      34.328  30.086  27.350  1.00  0.00     0.188 C 
BRANCH  27  28
ATOM     28  O   UNL A   1      33.994  31.407  27.712  1.00  0.00    -0.376 OA
BRANCH  28  29
ATOM     29  C   UNL A   1      32.712  31.914  27.364  1.00  0.00     0.202 C 
BRANCH  29  30
ATOM     30  C   UNL A   1      32.549  33.433  27.140  1.00  0.00     0.261 C 
BRANCH  30  31
ATOM     31  O   UNL A   1      32.153  34.223  28.280  1.00  0.00    -0.460 OA
BRANCH  31  32
ATOM     32  C   UNL A   1      33.018  35.173  28.715  1.00  0.00     0.338 C 
ATOM     33  O   UNL A   1      32.818  36.376  28.751  1.00  0.00    -0.246 OA
BRANCH  32  34
ATOM     34  C   UNL A   1      34.125  34.477  29.424  1.00  0.00     0.060 A 
ATOM     35  C   UNL A   1      35.421  34.551  28.885  1.00  0.00     0.016 A 
ATOM     36  C   UNL A   1      33.917  33.841  30.649  1.00  0.00     0.016 A 
ATOM     37  C   UNL A   1      36.503  33.976  29.561  1.00  0.00     0.010 A 
ATOM     38  C   UNL A   1      34.996  33.242  31.310  1.00  0.00     0.010 A 
ATOM     39  C   UNL A   1      36.292  33.286  30.761  1.00  0.00    -0.014 A 
BRANCH  39  40
ATOM     40  C   UNL A   1      37.375  32.457  31.354  1.00  0.00     0.031 A 
ATOM     41  C   UNL A   1      37.925  32.857  32.697  1.00  0.00     0.074 A 
ATOM     42  C   UNL A   1      37.872  31.376  30.726  1.00  0.00     0.049 A 
ATOM     43  N   UNL A   1      38.929  32.358  33.369  1.00  0.00    -0.248 NA
ATOM     44  C   UNL A   1      37.246  33.978  33.369  1.00  0.00     0.031 C 
ATOM     45  C   UNL A   1      37.405  30.846  29.447  1.00  0.00     0.029 A 
ATOM     46  N   UNL A   1      38.902  30.535  31.082  1.00  0.00    -0.354 N 
ATOM     47  C   UNL A   1      39.013  33.110  34.534  1.00  0.00     0.074 A 
ATOM     48  C   UNL A   1      37.973  34.114  34.468  1.00  0.00     0.031 C 
ATOM     49  C   UNL A   1      38.161  29.783  29.114  1.00  0.00     0.029 A 
ATOM     50  C   UNL A   1      39.188  29.581  30.135  1.00  0.00     0.049 A 
ATOM     51  H   UNL A   1      39.388  30.611  31.935  1.00  0.00     0.167 HD
ATOM     52  C   UNL A   1      39.875  32.976  35.570  1.00  0.00     0.037 A 
ATOM     53  C   UNL A   1      40.185  28.674  30.083  1.00  0.00     0.037 A 
ATOM     54  C   UNL A   1      40.909  31.978  35.642  1.00  0.00     0.049 A 
ATOM     55  C   UNL A   1      41.187  28.600  31.210  1.00  0.00     0.074 A 
ATOM     56  C   UNL A   1      41.816  31.752  36.663  1.00  0.00     0.029 A 
ATOM     57  N   UNL A   1      41.184  31.051  34.650  1.00  0.00    -0.354 N 
ATOM     58  N   UNL A   1      41.242  29.297  32.319  1.00  0.00    -0.248 NA
ATOM     59  C   UNL A   1      42.268  27.611  31.076  1.00  0.00     0.031 C 
ATOM     60  C   UNL A   1      42.677  30.727  36.264  1.00  0.00     0.029 A 
ATOM     61  C   UNL A   1      42.267  30.271  35.022  1.00  0.00     0.049 A 
ATOM     62  H   UNL A   1      40.684  30.959  33.808  1.00  0.00     0.167 HD
ATOM     63  C   UNL A   1      42.337  28.810  33.025  1.00  0.00     0.074 A 
ATOM     64  C   UNL A   1      42.910  27.748  32.227  1.00  0.00     0.031 C 
ATOM     65  C   UNL A   1      42.826  29.208  34.225  1.00  0.00     0.037 A 
BRANCH  52  66
ATOM     66  C   UNL A   1      39.758  33.953  36.703  1.00  0.00     0.057 A 
ATOM     67  C   UNL A   1      38.993  33.680  37.844  1.00  0.00     0.134 A 
ATOM     68  C   UNL A   1      40.464  35.162  36.672  1.00  0.00     0.134 A 
ATOM     69  F   UNL A   1      38.281  32.545  37.930  1.00  0.00    -0.206 F 
ATOM     70  C   UNL A   1      38.921  34.581  38.907  1.00  0.00     0.040 A 
ATOM     71  C   UNL A   1      40.423  36.059  37.741  1.00  0.00     0.040 A 
ATOM     72  F   UNL A   1      41.219  35.484  35.611  1.00  0.00    -0.206 F 
ATOM     73  C   UNL A   1      39.646  35.771  38.861  1.00  0.00     0.006 A 
ENDBRANCH  52  66
BRANCH  53  74
ATOM     74  C   UNL A   1      40.324  27.775  28.906  1.00  0.00     0.057 A 
ATOM     75  C   UNL A   1      41.082  28.147  27.788  1.00  0.00     0.134 A 
ATOM     76  C   UNL A   1      39.654  26.547  28.845  1.00  0.00     0.134 A 
ATOM     77  F   UNL A   1      41.722  29.326  27.770  1.00  0.00    -0.206 F 
ATOM     78  C   UNL A   1      41.150  27.345  26.647  1.00  0.00     0.040 A 
ATOM     79  C   UNL A   1      39.737  25.720  27.723  1.00  0.00     0.040 A 
ATOM     80  F   UNL A   1      38.903  26.132  29.876  1.00  0.00    -0.206 F 
ATOM     81  C   UNL A   1      40.478  26.124  26.614  1.00  0.00     0.006 A 
ENDBRANCH  53  74
BRANCH  65  82
ATOM     82  C   UNL A   1      44.013  28.468  34.775  1.00  0.00     0.057 A 
ATOM     83  C   UNL A   1      43.874  27.321  35.568  1.00  0.00     0.134 A 
ATOM     84  C   UNL A   1      45.316  28.884  34.468  1.00  0.00     0.134 A 
ATOM     85  F   UNL A   1      42.656  26.873  35.907  1.00  0.00    -0.206 F 
ATOM     86  C   UNL A   1      44.986  26.630  36.055  1.00  0.00     0.040 A 
ATOM     87  C   UNL A   1      46.435  28.185  34.925  1.00  0.00     0.040 A 
ATOM     88  F   UNL A   1      45.525  29.967  33.704  1.00  0.00    -0.206 F 
ATOM     89  C   UNL A   1      46.271  27.058  35.727  1.00  0.00     0.006 A 
ENDBRANCH  65  82
ENDBRANCH  39  40
ENDBRANCH  32  34
ENDBRANCH  31  32
ENDBRANCH  30  31
ENDBRANCH  29  30
ENDBRANCH  28  29
ENDBRANCH  27  28
ENDBRANCH   1  27
TORSDOF 21
ENDMDL
