MODEL 1
REMARK VINA RESULT:     -11.2      0.000      0.000
REMARK SMILES CC(C)(C)NS(=O)(=O)c1csc(C(=O)Nc2ccccc2C(=O)OCCOCCOCCOC(=O)c2ccc(-c3c4nc(c(-c5c(F)cccc5F)c5ccc([nH]5)c(-c5c(F)cccc5F)c5nc(c(-c6c(F)cccc6F)c6ccc3[nH]6)C=C5)C=C4)cc2)c1
REMARK SMILES IDX 27 1 26 2 25 3 24 4 22 5 23 6 21 7 16 8 17 9 18 10 20 11
REMARK SMILES IDX 19 12 15 13 13 14 14 15 12 17 9 18 10 19 90 20 11 21 6 22
REMARK SMILES IDX 7 23 8 24 5 25 2 27 1 28 3 29 4 30 28 31 29 32 30 33 31 34
REMARK SMILES IDX 32 35 33 36 34 37 35 38 36 39 37 40 89 41 38 42 88 43 39 44
REMARK SMILES IDX 40 45 41 46 82 47 42 48 87 49 81 50 83 51 43 52 86 53 80 54
REMARK SMILES IDX 79 55 44 57 70 58 53 59 69 60 54 61 57 62 68 63 84 64 55 65
REMARK SMILES IDX 56 66 67 68 85 69 58 70 45 71 46 72 51 73 47 74 48 75 50 76
REMARK SMILES IDX 52 77 49 78 71 79 72 80 77 81 73 82 74 83 76 84 78 85 75 86
REMARK SMILES IDX 59 87 60 88 65 89 61 90 62 91 64 92 66 93 63 94
REMARK H PARENT 15 16 5 26 83 56 57 67
REMARK Flexibility Score: inf
ROOT
ATOM      1  O   UNL A   1      28.911  28.867  23.322  1.00  0.00    -0.376 OA
ENDROOT
BRANCH   1   2
ATOM      2  C   UNL A   1      29.403  27.545  23.224  1.00  0.00     0.202 C 
BRANCH   2   3
ATOM      3  C   UNL A   1      28.831  26.333  23.962  1.00  0.00     0.261 C 
BRANCH   3   4
ATOM      4  O   UNL A   1      29.349  26.043  25.262  1.00  0.00    -0.460 OA
BRANCH   4   5
ATOM      5  C   UNL A   1      30.473  25.284  25.256  1.00  0.00     0.340 C 
ATOM      6  O   UNL A   1      30.510  24.073  25.101  1.00  0.00    -0.246 OA
BRANCH   5   7
ATOM      7  C   UNL A   1      31.708  26.101  25.337  1.00  0.00     0.083 A 
ATOM      8  C   UNL A   1      32.700  26.204  24.343  1.00  0.00     0.056 A 
ATOM      9  C   UNL A   1      33.873  26.919  24.660  1.00  0.00     0.027 A 
ATOM     10  C   UNL A   1      34.020  27.589  25.880  1.00  0.00     0.002 A 
ATOM     11  C   UNL A   1      31.868  26.783  26.564  1.00  0.00     0.018 A 
ATOM     12  C   UNL A   1      33.011  27.532  26.831  1.00  0.00     0.001 A 
BRANCH   8  13
ATOM     13  N   UNL A   1      32.665  25.684  23.028  1.00  0.00    -0.320 N 
ATOM     14  C   UNL A   1      33.274  24.611  22.394  1.00  0.00     0.265 C 
ATOM     15  O   UNL A   1      33.221  24.608  21.160  1.00  0.00    -0.268 OA
ATOM     16  H   UNL A   1      32.077  26.199  22.428  1.00  0.00     0.170 HD
BRANCH  14  17
ATOM     17  C   UNL A   1      33.822  23.500  23.165  1.00  0.00     0.094 A 
ATOM     18  C   UNL A   1      33.979  21.555  24.468  1.00  0.00     0.093 A 
ATOM     19  C   UNL A   1      35.252  22.066  24.597  1.00  0.00     0.087 A 
ATOM     20  C   UNL A   1      33.202  22.350  23.599  1.00  0.00     0.047 A 
ATOM     21  S   UNL A   1      35.473  23.474  23.635  1.00  0.00    -0.137 S 
BRANCH  18  22
ATOM     22  S   UNL A   1      33.347  20.170  25.291  1.00  0.00     0.241 S 
ATOM     23  O   UNL A   1      32.021  19.973  24.764  1.00  0.00    -0.207 OA
ATOM     24  O   UNL A   1      33.559  20.473  26.690  1.00  0.00    -0.207 OA
BRANCH  22  25
ATOM     25  N   UNL A   1      34.277  18.801  24.988  1.00  0.00    -0.206 NA
ATOM     26  H   UNL A   1      34.873  19.061  24.202  1.00  0.00     0.141 HD
BRANCH  25  27
ATOM     27  C   UNL A   1      33.801  17.419  24.665  1.00  0.00     0.025 C 
ATOM     28  C   UNL A   1      33.471  17.258  23.176  1.00  0.00     0.028 C 
ATOM     29  C   UNL A   1      32.637  16.947  25.537  1.00  0.00     0.028 C 
ATOM     30  C   UNL A   1      35.009  16.500  24.944  1.00  0.00     0.028 C 
ENDBRANCH  25  27
ENDBRANCH  22  25
ENDBRANCH  18  22
ENDBRANCH  14  17
ENDBRANCH   8  13
ENDBRANCH   5   7
ENDBRANCH   4   5
ENDBRANCH   3   4
ENDBRANCH   2   3
ENDBRANCH   1   2
BRANCH   1  31
ATOM     31  C   UNL A   1      29.767  29.956  23.568  1.00  0.00     0.188 C 
BRANCH  31  32
ATOM     32  C   UNL A   1      31.078  29.677  24.339  1.00  0.00     0.188 C 
BRANCH  32  33
ATOM     33  O   UNL A   1      31.294  30.216  25.630  1.00  0.00    -0.376 OA
BRANCH  33  34
ATOM     34  C   UNL A   1      31.031  31.595  25.838  1.00  0.00     0.202 C 
BRANCH  34  35
ATOM     35  C   UNL A   1      31.570  32.264  27.114  1.00  0.00     0.261 C 
BRANCH  35  36
ATOM     36  O   UNL A   1      32.615  33.224  26.877  1.00  0.00    -0.460 OA
BRANCH  36  37
ATOM     37  C   UNL A   1      33.114  33.835  27.983  1.00  0.00     0.338 C 
ATOM     38  O   UNL A   1      32.551  34.651  28.692  1.00  0.00    -0.246 OA
BRANCH  37  39
ATOM     39  C   UNL A   1      34.390  33.190  28.375  1.00  0.00     0.060 A 
ATOM     40  C   UNL A   1      34.342  31.857  28.816  1.00  0.00     0.016 A 
ATOM     41  C   UNL A   1      35.610  33.867  28.317  1.00  0.00     0.016 A 
ATOM     42  C   UNL A   1      35.502  31.209  29.237  1.00  0.00     0.010 A 
ATOM     43  C   UNL A   1      36.769  33.227  28.774  1.00  0.00     0.010 A 
ATOM     44  C   UNL A   1      36.712  31.912  29.273  1.00  0.00    -0.014 A 
BRANCH  44  45
ATOM     45  C   UNL A   1      37.833  31.381  30.088  1.00  0.00     0.031 A 
ATOM     46  C   UNL A   1      38.744  30.372  29.443  1.00  0.00     0.074 A 
ATOM     47  C   UNL A   1      38.056  31.775  31.353  1.00  0.00     0.049 A 
ATOM     48  N   UNL A   1      39.752  29.710  29.952  1.00  0.00    -0.248 NA
ATOM     49  C   UNL A   1      38.478  30.068  28.027  1.00  0.00     0.031 C 
ATOM     50  C   UNL A   1      37.282  32.774  32.084  1.00  0.00     0.029 A 
ATOM     51  N   UNL A   1      39.006  31.355  32.253  1.00  0.00    -0.354 N 
ATOM     52  C   UNL A   1      40.227  28.906  28.925  1.00  0.00     0.074 A 
ATOM     53  C   UNL A   1      39.392  29.147  27.769  1.00  0.00     0.031 C 
ATOM     54  C   UNL A   1      37.769  32.870  33.335  1.00  0.00     0.029 A 
ATOM     55  C   UNL A   1      38.871  31.920  33.498  1.00  0.00     0.049 A 
ATOM     56  H   UNL A   1      39.717  30.712  32.027  1.00  0.00     0.167 HD
ATOM     57  C   UNL A   1      41.268  28.040  28.938  1.00  0.00     0.037 A 
ATOM     58  C   UNL A   1      39.540  31.673  34.642  1.00  0.00     0.037 A 
ATOM     59  C   UNL A   1      42.098  27.787  30.082  1.00  0.00     0.049 A 
ATOM     60  C   UNL A   1      40.651  30.653  34.655  1.00  0.00     0.074 A 
ATOM     61  C   UNL A   1      43.191  26.947  30.185  1.00  0.00     0.029 A 
ATOM     62  N   UNL A   1      41.913  28.362  31.329  1.00  0.00    -0.354 N 
ATOM     63  N   UNL A   1      41.118  29.922  33.670  1.00  0.00    -0.248 NA
ATOM     64  C   UNL A   1      41.328  30.422  35.941  1.00  0.00     0.031 C 
ATOM     65  C   UNL A   1      43.641  26.976  31.509  1.00  0.00     0.029 A 
ATOM     66  C   UNL A   1      42.855  27.872  32.218  1.00  0.00     0.049 A 
ATOM     67  H   UNL A   1      41.215  29.021  31.551  1.00  0.00     0.167 HD
ATOM     68  C   UNL A   1      42.153  29.166  34.211  1.00  0.00     0.074 A 
ATOM     69  C   UNL A   1      42.255  29.535  35.607  1.00  0.00     0.031 C 
ATOM     70  C   UNL A   1      42.949  28.251  33.604  1.00  0.00     0.037 A 
BRANCH  57  71
ATOM     71  C   UNL A   1      41.532  27.276  27.676  1.00  0.00     0.057 A 
ATOM     72  C   UNL A   1      40.886  26.067  27.392  1.00  0.00     0.134 A 
ATOM     73  C   UNL A   1      42.449  27.759  26.734  1.00  0.00     0.134 A 
ATOM     74  F   UNL A   1      40.013  25.542  28.265  1.00  0.00    -0.206 F 
ATOM     75  C   UNL A   1      41.162  25.350  26.228  1.00  0.00     0.040 A 
ATOM     76  C   UNL A   1      42.716  27.063  25.555  1.00  0.00     0.040 A 
ATOM     77  F   UNL A   1      43.103  28.910  26.948  1.00  0.00    -0.206 F 
ATOM     78  C   UNL A   1      42.077  25.851  25.303  1.00  0.00     0.006 A 
ENDBRANCH  57  71
BRANCH  58  79
ATOM     79  C   UNL A   1      39.159  32.378  35.892  1.00  0.00     0.057 A 
ATOM     80  C   UNL A   1      38.272  31.804  36.810  1.00  0.00     0.134 A 
ATOM     81  C   UNL A   1      39.649  33.657  36.181  1.00  0.00     0.134 A 
ATOM     82  F   UNL A   1      37.743  30.595  36.574  1.00  0.00    -0.206 F 
ATOM     83  C   UNL A   1      37.875  32.483  37.964  1.00  0.00     0.040 A 
ATOM     84  C   UNL A   1      39.280  34.337  37.343  1.00  0.00     0.040 A 
ATOM     85  F   UNL A   1      40.494  34.265  35.336  1.00  0.00    -0.206 F 
ATOM     86  C   UNL A   1      38.385  33.751  38.235  1.00  0.00     0.006 A 
ENDBRANCH  58  79
BRANCH  70  87
ATOM     87  C   UNL A   1      44.019  27.602  34.433  1.00  0.00     0.057 A 
ATOM     88  C   UNL A   1      45.281  28.185  34.600  1.00  0.00     0.134 A 
ATOM     89  C   UNL A   1      43.764  26.406  35.116  1.00  0.00     0.134 A 
ATOM     90  F   UNL A   1      45.592  29.326  33.966  1.00  0.00    -0.206 F 
ATOM     91  C   UNL A   1      46.257  27.594  35.405  1.00  0.00     0.040 A 
ATOM     92  C   UNL A   1      44.722  25.818  35.943  1.00  0.00     0.040 A 
ATOM     93  F   UNL A   1      42.571  25.800  35.007  1.00  0.00    -0.206 F 
ATOM     94  C   UNL A   1      45.975  26.410  36.085  1.00  0.00     0.006 A 
ENDBRANCH  70  87
ENDBRANCH  44  45
ENDBRANCH  37  39
ENDBRANCH  36  37
ENDBRANCH  35  36
ENDBRANCH  34  35
ENDBRANCH  33  34
ENDBRANCH  32  33
ENDBRANCH  31  32
ENDBRANCH   1  31
TORSDOF 22
ENDMDL
MODEL 2
REMARK VINA RESULT:     -10.9      0.949      5.851
REMARK SMILES CC(C)(C)NS(=O)(=O)c1csc(C(=O)Nc2ccccc2C(=O)OCCOCCOCCOC(=O)c2ccc(-c3c4nc(c(-c5c(F)cccc5F)c5ccc([nH]5)c(-c5c(F)cccc5F)c5nc(c(-c6c(F)cccc6F)c6ccc3[nH]6)C=C5)C=C4)cc2)c1
REMARK SMILES IDX 27 1 26 2 25 3 24 4 22 5 23 6 21 7 16 8 17 9 18 10 20 11
REMARK SMILES IDX 19 12 15 13 13 14 14 15 12 17 9 18 10 19 90 20 11 21 6 22
REMARK SMILES IDX 7 23 8 24 5 25 2 27 1 28 3 29 4 30 28 31 29 32 30 33 31 34
REMARK SMILES IDX 32 35 33 36 34 37 35 38 36 39 37 40 89 41 38 42 88 43 39 44
REMARK SMILES IDX 40 45 41 46 82 47 42 48 87 49 81 50 83 51 43 52 86 53 80 54
REMARK SMILES IDX 79 55 44 57 70 58 53 59 69 60 54 61 57 62 68 63 84 64 55 65
REMARK SMILES IDX 56 66 67 68 85 69 58 70 45 71 46 72 51 73 47 74 48 75 50 76
REMARK SMILES IDX 52 77 49 78 71 79 72 80 77 81 73 82 74 83 76 84 78 85 75 86
REMARK SMILES IDX 59 87 60 88 65 89 61 90 62 91 64 92 66 93 63 94
REMARK H PARENT 15 16 5 26 83 56 57 67
REMARK Flexibility Score: inf
ROOT
ATOM      1  O   UNL A   1      29.814  29.300  22.424  1.00  0.00    -0.376 OA
ENDROOT
BRANCH   1   2
ATOM      2  C   UNL A   1      30.159  27.938  22.588  1.00  0.00     0.202 C 
BRANCH   2   3
ATOM      3  C   UNL A   1      29.309  26.894  23.315  1.00  0.00     0.261 C 
BRANCH   3   4
ATOM      4  O   UNL A   1      29.434  26.809  24.736  1.00  0.00    -0.460 OA
BRANCH   4   5
ATOM      5  C   UNL A   1      30.515  26.105  25.158  1.00  0.00     0.340 C 
ATOM      6  O   UNL A   1      30.646  24.894  25.081  1.00  0.00    -0.246 OA
BRANCH   5   7
ATOM      7  C   UNL A   1      31.613  26.984  25.629  1.00  0.00     0.083 A 
ATOM      8  C   UNL A   1      32.780  27.308  24.911  1.00  0.00     0.056 A 
ATOM      9  C   UNL A   1      33.778  28.045  25.581  1.00  0.00     0.027 A 
ATOM     10  C   UNL A   1      33.589  28.526  26.882  1.00  0.00     0.002 A 
ATOM     11  C   UNL A   1      31.435  27.477  26.941  1.00  0.00     0.018 A 
ATOM     12  C   UNL A   1      32.410  28.252  27.561  1.00  0.00     0.001 A 
BRANCH   8  13
ATOM     13  N   UNL A   1      33.082  26.998  23.564  1.00  0.00    -0.320 N 
ATOM     14  C   UNL A   1      33.687  25.922  22.930  1.00  0.00     0.265 C 
ATOM     15  O   UNL A   1      34.026  26.105  21.757  1.00  0.00    -0.268 OA
ATOM     16  H   UNL A   1      32.799  27.702  22.936  1.00  0.00     0.170 HD
BRANCH  14  17
ATOM     17  C   UNL A   1      33.788  24.625  23.590  1.00  0.00     0.094 A 
ATOM     18  C   UNL A   1      33.380  22.394  24.196  1.00  0.00     0.093 A 
ATOM     19  C   UNL A   1      34.194  22.806  25.227  1.00  0.00     0.087 A 
ATOM     20  C   UNL A   1      33.214  23.423  23.243  1.00  0.00     0.047 A 
ATOM     21  S   UNL A   1      34.757  24.415  24.993  1.00  0.00    -0.137 S 
BRANCH  18  22
ATOM     22  S   UNL A   1      32.589  20.861  24.069  1.00  0.00     0.241 S 
ATOM     23  O   UNL A   1      32.034  20.815  22.741  1.00  0.00    -0.207 OA
ATOM     24  O   UNL A   1      31.736  20.815  25.238  1.00  0.00    -0.207 OA
BRANCH  22  25
ATOM     25  N   UNL A   1      33.676  19.592  24.265  1.00  0.00    -0.206 NA
ATOM     26  H   UNL A   1      34.392  19.753  23.555  1.00  0.00     0.141 HD
BRANCH  25  27
ATOM     27  C   UNL A   1      33.397  18.124  24.197  1.00  0.00     0.025 C 
ATOM     28  C   UNL A   1      32.792  17.714  22.848  1.00  0.00     0.028 C 
ATOM     29  C   UNL A   1      32.548  17.603  25.358  1.00  0.00     0.028 C 
ATOM     30  C   UNL A   1      34.780  17.444  24.277  1.00  0.00     0.028 C 
ENDBRANCH  25  27
ENDBRANCH  22  25
ENDBRANCH  18  22
ENDBRANCH  14  17
ENDBRANCH   8  13
ENDBRANCH   5   7
ENDBRANCH   4   5
ENDBRANCH   3   4
ENDBRANCH   2   3
ENDBRANCH   1   2
BRANCH   1  31
ATOM     31  C   UNL A   1      29.476  30.113  23.521  1.00  0.00     0.188 C 
BRANCH  31  32
ATOM     32  C   UNL A   1      30.589  30.432  24.546  1.00  0.00     0.188 C 
BRANCH  32  33
ATOM     33  O   UNL A   1      30.554  31.621  25.314  1.00  0.00    -0.376 OA
BRANCH  33  34
ATOM     34  C   UNL A   1      31.404  31.718  26.446  1.00  0.00     0.202 C 
BRANCH  34  35
ATOM     35  C   UNL A   1      31.902  33.107  26.876  1.00  0.00     0.261 C 
BRANCH  35  36
ATOM     36  O   UNL A   1      32.706  33.099  28.070  1.00  0.00    -0.460 OA
BRANCH  36  37
ATOM     37  C   UNL A   1      33.806  33.895  28.043  1.00  0.00     0.338 C 
ATOM     38  O   UNL A   1      33.835  35.113  27.992  1.00  0.00    -0.246 OA
BRANCH  37  39
ATOM     39  C   UNL A   1      35.015  33.086  28.331  1.00  0.00     0.060 A 
ATOM     40  C   UNL A   1      34.847  31.705  28.526  1.00  0.00     0.016 A 
ATOM     41  C   UNL A   1      36.286  33.656  28.409  1.00  0.00     0.016 A 
ATOM     42  C   UNL A   1      35.939  30.897  28.840  1.00  0.00     0.010 A 
ATOM     43  C   UNL A   1      37.378  32.851  28.758  1.00  0.00     0.010 A 
ATOM     44  C   UNL A   1      37.201  31.478  29.015  1.00  0.00    -0.014 A 
BRANCH  44  45
ATOM     45  C   UNL A   1      38.252  30.719  29.737  1.00  0.00     0.031 A 
ATOM     46  C   UNL A   1      38.463  31.036  31.193  1.00  0.00     0.074 A 
ATOM     47  C   UNL A   1      38.995  29.770  29.142  1.00  0.00     0.049 A 
ATOM     48  N   UNL A   1      39.351  30.566  32.030  1.00  0.00    -0.248 NA
ATOM     49  C   UNL A   1      37.543  32.023  31.782  1.00  0.00     0.031 C 
ATOM     50  C   UNL A   1      38.868  29.332  27.755  1.00  0.00     0.029 A 
ATOM     51  N   UNL A   1      40.028  29.015  29.644  1.00  0.00    -0.354 N 
ATOM     52  C   UNL A   1      39.105  31.209  33.236  1.00  0.00     0.074 A 
ATOM     53  C   UNL A   1      37.997  32.113  33.021  1.00  0.00     0.031 C 
ATOM     54  C   UNL A   1      39.809  28.403  27.506  1.00  0.00     0.029 A 
ATOM     55  C   UNL A   1      40.621  28.203  28.707  1.00  0.00     0.049 A 
ATOM     56  H   UNL A   1      40.316  29.052  30.585  1.00  0.00     0.167 HD
ATOM     57  C   UNL A   1      39.743  31.063  34.421  1.00  0.00     0.037 A 
ATOM     58  C   UNL A   1      41.710  27.416  28.805  1.00  0.00     0.037 A 
ATOM     59  C   UNL A   1      40.849  30.175  34.642  1.00  0.00     0.049 A 
ATOM     60  C   UNL A   1      42.451  27.320  30.115  1.00  0.00     0.074 A 
ATOM     61  C   UNL A   1      41.544  29.940  35.814  1.00  0.00     0.029 A 
ATOM     62  N   UNL A   1      41.433  29.388  33.662  1.00  0.00    -0.354 N 
ATOM     63  N   UNL A   1      42.190  27.904  31.260  1.00  0.00    -0.248 NA
ATOM     64  C   UNL A   1      43.641  26.455  30.145  1.00  0.00     0.031 C 
ATOM     65  C   UNL A   1      42.582  29.044  35.533  1.00  0.00     0.029 A 
ATOM     66  C   UNL A   1      42.501  28.687  34.196  1.00  0.00     0.049 A 
ATOM     67  H   UNL A   1      41.134  29.336  32.726  1.00  0.00     0.167 HD
ATOM     68  C   UNL A   1      43.165  27.461  32.148  1.00  0.00     0.074 A 
ATOM     69  C   UNL A   1      44.016  26.550  31.414  1.00  0.00     0.031 C 
ATOM     70  C   UNL A   1      43.337  27.779  33.455  1.00  0.00     0.037 A 
BRANCH  57  71
ATOM     71  C   UNL A   1      39.273  31.923  35.555  1.00  0.00     0.057 A 
ATOM     72  C   UNL A   1      38.319  31.477  36.479  1.00  0.00     0.134 A 
ATOM     73  C   UNL A   1      39.780  33.217  35.720  1.00  0.00     0.134 A 
ATOM     74  F   UNL A   1      37.779  30.254  36.360  1.00  0.00    -0.206 F 
ATOM     75  C   UNL A   1      37.867  32.297  37.512  1.00  0.00     0.040 A 
ATOM     76  C   UNL A   1      39.354  34.038  36.764  1.00  0.00     0.040 A 
ATOM     77  F   UNL A   1      40.693  33.705  34.868  1.00  0.00    -0.206 F 
ATOM     78  C   UNL A   1      38.389  33.582  37.660  1.00  0.00     0.006 A 
ENDBRANCH  57  71
BRANCH  58  79
ATOM     79  C   UNL A   1      42.199  26.675  27.615  1.00  0.00     0.057 A 
ATOM     80  C   UNL A   1      41.908  25.318  27.431  1.00  0.00     0.134 A 
ATOM     81  C   UNL A   1      42.998  27.299  26.650  1.00  0.00     0.134 A 
ATOM     82  F   UNL A   1      41.175  24.656  28.338  1.00  0.00    -0.206 F 
ATOM     83  C   UNL A   1      42.404  24.606  26.337  1.00  0.00     0.040 A 
ATOM     84  C   UNL A   1      43.480  26.606  25.538  1.00  0.00     0.040 A 
ATOM     85  F   UNL A   1      43.321  28.595  26.774  1.00  0.00    -0.206 F 
ATOM     86  C   UNL A   1      43.188  25.253  25.384  1.00  0.00     0.006 A 
ENDBRANCH  58  79
BRANCH  70  87
ATOM     87  C   UNL A   1      44.470  27.119  34.188  1.00  0.00     0.057 A 
ATOM     88  C   UNL A   1      45.744  27.695  34.252  1.00  0.00     0.134 A 
ATOM     89  C   UNL A   1      44.266  25.921  34.884  1.00  0.00     0.134 A 
ATOM     90  F   UNL A   1      46.008  28.838  33.600  1.00  0.00    -0.206 F 
ATOM     91  C   UNL A   1      46.781  27.095  34.970  1.00  0.00     0.040 A 
ATOM     92  C   UNL A   1      45.286  25.323  35.624  1.00  0.00     0.040 A 
ATOM     93  F   UNL A   1      43.065  25.322  34.872  1.00  0.00    -0.206 F 
ATOM     94  C   UNL A   1      46.550  25.908  35.664  1.00  0.00     0.006 A 
ENDBRANCH  70  87
ENDBRANCH  44  45
ENDBRANCH  37  39
ENDBRANCH  36  37
ENDBRANCH  35  36
ENDBRANCH  34  35
ENDBRANCH  33  34
ENDBRANCH  32  33
ENDBRANCH  31  32
ENDBRANCH   1  31
TORSDOF 22
ENDMDL
MODEL 3
REMARK VINA RESULT:     -10.8      2.626      7.600
REMARK SMILES CC(C)(C)NS(=O)(=O)c1csc(C(=O)Nc2ccccc2C(=O)OCCOCCOCCOC(=O)c2ccc(-c3c4nc(c(-c5c(F)cccc5F)c5ccc([nH]5)c(-c5c(F)cccc5F)c5nc(c(-c6c(F)cccc6F)c6ccc3[nH]6)C=C5)C=C4)cc2)c1
REMARK SMILES IDX 27 1 26 2 25 3 24 4 22 5 23 6 21 7 16 8 17 9 18 10 20 11
REMARK SMILES IDX 19 12 15 13 13 14 14 15 12 17 9 18 10 19 90 20 11 21 6 22
REMARK SMILES IDX 7 23 8 24 5 25 2 27 1 28 3 29 4 30 28 31 29 32 30 33 31 34
REMARK SMILES IDX 32 35 33 36 34 37 35 38 36 39 37 40 89 41 38 42 88 43 39 44
REMARK SMILES IDX 40 45 41 46 82 47 42 48 87 49 81 50 83 51 43 52 86 53 80 54
REMARK SMILES IDX 79 55 44 57 70 58 53 59 69 60 54 61 57 62 68 63 84 64 55 65
REMARK SMILES IDX 56 66 67 68 85 69 58 70 45 71 46 72 51 73 47 74 48 75 50 76
REMARK SMILES IDX 52 77 49 78 71 79 72 80 77 81 73 82 74 83 76 84 78 85 75 86
REMARK SMILES IDX 59 87 60 88 65 89 61 90 62 91 64 92 66 93 63 94
REMARK H PARENT 15 16 5 26 83 56 57 67
REMARK Flexibility Score: inf
ROOT
ATOM      1  O   UNL A   1      37.948  23.121  25.977  1.00  0.00    -0.376 OA
ENDROOT
BRANCH   1   2
ATOM      2  C   UNL A   1      37.123  23.891  25.124  1.00  0.00     0.202 C 
BRANCH   2   3
ATOM      3  C   UNL A   1      35.596  23.819  25.072  1.00  0.00     0.261 C 
BRANCH   3   4
ATOM      4  O   UNL A   1      34.901  24.905  24.454  1.00  0.00    -0.460 OA
BRANCH   4   5
ATOM      5  C   UNL A   1      34.018  25.535  25.268  1.00  0.00     0.340 C 
ATOM      6  O   UNL A   1      33.981  25.438  26.484  1.00  0.00    -0.246 OA
BRANCH   5   7
ATOM      7  C   UNL A   1      33.146  26.482  24.531  1.00  0.00     0.083 A 
ATOM      8  C   UNL A   1      31.760  26.648  24.718  1.00  0.00     0.056 A 
ATOM      9  C   UNL A   1      31.075  27.496  23.824  1.00  0.00     0.027 A 
ATOM     10  C   UNL A   1      31.751  28.229  22.842  1.00  0.00     0.002 A 
ATOM     11  C   UNL A   1      33.816  27.229  23.536  1.00  0.00     0.018 A 
ATOM     12  C   UNL A   1      33.126  28.105  22.704  1.00  0.00     0.001 A 
BRANCH   8  13
ATOM     13  N   UNL A   1      30.946  26.072  25.723  1.00  0.00    -0.320 N 
ATOM     14  C   UNL A   1      30.496  24.787  25.986  1.00  0.00     0.265 C 
ATOM     15  O   UNL A   1      29.579  24.690  26.806  1.00  0.00    -0.268 OA
ATOM     16  H   UNL A   1      30.629  26.731  26.383  1.00  0.00     0.170 HD
BRANCH  14  17
ATOM     17  C   UNL A   1      31.169  23.627  25.412  1.00  0.00     0.094 A 
ATOM     18  C   UNL A   1      32.562  21.753  25.165  1.00  0.00     0.093 A 
ATOM     19  C   UNL A   1      32.218  22.004  23.856  1.00  0.00     0.087 A 
ATOM     20  C   UNL A   1      31.904  22.646  26.039  1.00  0.00     0.047 A 
ATOM     21  S   UNL A   1      31.086  23.293  23.729  1.00  0.00    -0.137 S 
BRANCH  18  22
ATOM     22  S   UNL A   1      33.691  20.564  25.715  1.00  0.00     0.241 S 
ATOM     23  O   UNL A   1      34.078  20.973  27.040  1.00  0.00    -0.207 OA
ATOM     24  O   UNL A   1      34.660  20.486  24.642  1.00  0.00    -0.207 OA
BRANCH  22  25
ATOM     25  N   UNL A   1      32.987  19.037  25.786  1.00  0.00    -0.206 NA
ATOM     26  H   UNL A   1      33.351  18.623  26.645  1.00  0.00     0.141 HD
BRANCH  25  27
ATOM     27  C   UNL A   1      33.068  17.940  24.771  1.00  0.00     0.025 C 
ATOM     28  C   UNL A   1      34.495  17.397  24.622  1.00  0.00     0.028 C 
ATOM     29  C   UNL A   1      32.480  18.312  23.410  1.00  0.00     0.028 C 
ATOM     30  C   UNL A   1      32.225  16.786  25.355  1.00  0.00     0.028 C 
ENDBRANCH  25  27
ENDBRANCH  22  25
ENDBRANCH  18  22
ENDBRANCH  14  17
ENDBRANCH   8  13
ENDBRANCH   5   7
ENDBRANCH   4   5
ENDBRANCH   3   4
ENDBRANCH   2   3
ENDBRANCH   1   2
BRANCH   1  31
ATOM     31  C   UNL A   1      38.689  22.027  25.495  1.00  0.00     0.188 C 
BRANCH  31  32
ATOM     32  C   UNL A   1      39.534  21.229  26.516  1.00  0.00     0.188 C 
BRANCH  32  33
ATOM     33  O   UNL A   1      40.871  21.597  26.801  1.00  0.00    -0.376 OA
BRANCH  33  34
ATOM     34  C   UNL A   1      41.918  20.806  26.260  1.00  0.00     0.202 C 
BRANCH  34  35
ATOM     35  C   UNL A   1      43.084  21.513  25.549  1.00  0.00     0.261 C 
BRANCH  35  36
ATOM     36  O   UNL A   1      42.705  22.717  24.856  1.00  0.00    -0.460 OA
BRANCH  36  37
ATOM     37  C   UNL A   1      43.527  23.783  25.038  1.00  0.00     0.338 C 
ATOM     38  O   UNL A   1      44.591  23.998  24.484  1.00  0.00    -0.246 OA
BRANCH  37  39
ATOM     39  C   UNL A   1      42.836  24.811  25.853  1.00  0.00     0.060 A 
ATOM     40  C   UNL A   1      43.450  26.069  25.976  1.00  0.00     0.016 A 
ATOM     41  C   UNL A   1      41.617  24.560  26.485  1.00  0.00     0.016 A 
ATOM     42  C   UNL A   1      42.871  27.065  26.761  1.00  0.00     0.010 A 
ATOM     43  C   UNL A   1      41.054  25.548  27.302  1.00  0.00     0.010 A 
ATOM     44  C   UNL A   1      41.699  26.788  27.475  1.00  0.00    -0.014 A 
BRANCH  44  45
ATOM     45  C   UNL A   1      41.316  27.670  28.606  1.00  0.00     0.031 A 
ATOM     46  C   UNL A   1      42.110  27.551  29.879  1.00  0.00     0.074 A 
ATOM     47  C   UNL A   1      40.311  28.558  28.521  1.00  0.00     0.049 A 
ATOM     48  N   UNL A   1      41.942  28.156  31.027  1.00  0.00    -0.248 NA
ATOM     49  C   UNL A   1      43.248  26.619  29.850  1.00  0.00     0.031 C 
ATOM     50  C   UNL A   1      39.491  28.807  27.339  1.00  0.00     0.029 A 
ATOM     51  N   UNL A   1      39.801  29.406  29.475  1.00  0.00    -0.354 N 
ATOM     52  C   UNL A   1      42.942  27.667  31.856  1.00  0.00     0.074 A 
ATOM     53  C   UNL A   1      43.704  26.706  31.089  1.00  0.00     0.031 C 
ATOM     54  C   UNL A   1      38.558  29.727  27.645  1.00  0.00     0.029 A 
ATOM     55  C   UNL A   1      38.699  30.109  29.051  1.00  0.00     0.049 A 
ATOM     56  H   UNL A   1      40.188  29.502  30.375  1.00  0.00     0.167 HD
ATOM     57  C   UNL A   1      43.209  27.988  33.144  1.00  0.00     0.037 A 
ATOM     58  C   UNL A   1      37.884  30.939  29.732  1.00  0.00     0.037 A 
ATOM     59  C   UNL A   1      42.455  28.934  33.917  1.00  0.00     0.049 A 
ATOM     60  C   UNL A   1      38.154  31.229  31.187  1.00  0.00     0.074 A 
ATOM     61  C   UNL A   1      42.664  29.343  35.221  1.00  0.00     0.029 A 
ATOM     62  N   UNL A   1      41.333  29.606  33.458  1.00  0.00    -0.354 N 
ATOM     63  N   UNL A   1      39.124  30.790  31.954  1.00  0.00    -0.248 NA
ATOM     64  C   UNL A   1      37.215  32.131  31.872  1.00  0.00     0.031 C 
ATOM     65  C   UNL A   1      41.639  30.229  35.570  1.00  0.00     0.029 A 
ATOM     66  C   UNL A   1      40.820  30.407  34.465  1.00  0.00     0.049 A 
ATOM     67  H   UNL A   1      40.957  29.526  32.552  1.00  0.00     0.167 HD
ATOM     68  C   UNL A   1      38.925  31.378  33.199  1.00  0.00     0.074 A 
ATOM     69  C   UNL A   1      37.750  32.214  33.083  1.00  0.00     0.031 C 
ATOM     70  C   UNL A   1      39.652  31.239  34.335  1.00  0.00     0.037 A 
BRANCH  57  71
ATOM     71  C   UNL A   1      44.348  27.267  33.801  1.00  0.00     0.057 A 
ATOM     72  C   UNL A   1      45.650  27.782  33.802  1.00  0.00     0.134 A 
ATOM     73  C   UNL A   1      44.135  26.038  34.438  1.00  0.00     0.134 A 
ATOM     74  F   UNL A   1      45.921  28.945  33.190  1.00  0.00    -0.206 F 
ATOM     75  C   UNL A   1      46.707  27.087  34.391  1.00  0.00     0.040 A 
ATOM     76  C   UNL A   1      45.179  25.346  35.051  1.00  0.00     0.040 A 
ATOM     77  F   UNL A   1      42.911  25.490  34.469  1.00  0.00    -0.206 F 
ATOM     78  C   UNL A   1      46.471  25.867  35.022  1.00  0.00     0.006 A 
ENDBRANCH  57  71
BRANCH  58  79
ATOM     79  C   UNL A   1      36.702  31.535  29.059  1.00  0.00     0.057 A 
ATOM     80  C   UNL A   1      35.564  30.772  28.772  1.00  0.00     0.134 A 
ATOM     81  C   UNL A   1      36.697  32.876  28.657  1.00  0.00     0.134 A 
ATOM     82  F   UNL A   1      35.522  29.473  29.103  1.00  0.00    -0.206 F 
ATOM     83  C   UNL A   1      34.469  31.317  28.099  1.00  0.00     0.040 A 
ATOM     84  C   UNL A   1      35.599  33.441  28.006  1.00  0.00     0.040 A 
ATOM     85  F   UNL A   1      37.761  33.658  28.894  1.00  0.00    -0.206 F 
ATOM     86  C   UNL A   1      34.483  32.658  27.719  1.00  0.00     0.006 A 
ENDBRANCH  58  79
BRANCH  70  87
ATOM     87  C   UNL A   1      39.220  32.026  35.538  1.00  0.00     0.057 A 
ATOM     88  C   UNL A   1      39.626  33.351  35.740  1.00  0.00     0.134 A 
ATOM     89  C   UNL A   1      38.343  31.469  36.477  1.00  0.00     0.134 A 
ATOM     90  F   UNL A   1      40.473  33.941  34.883  1.00  0.00    -0.206 F 
ATOM     91  C   UNL A   1      39.187  34.088  36.841  1.00  0.00     0.040 A 
ATOM     92  C   UNL A   1      37.878  32.202  37.569  1.00  0.00     0.040 A 
ATOM     93  F   UNL A   1      37.907  30.207  36.337  1.00  0.00    -0.206 F 
ATOM     94  C   UNL A   1      38.304  33.516  37.756  1.00  0.00     0.006 A 
ENDBRANCH  70  87
ENDBRANCH  44  45
ENDBRANCH  37  39
ENDBRANCH  36  37
ENDBRANCH  35  36
ENDBRANCH  34  35
ENDBRANCH  33  34
ENDBRANCH  32  33
ENDBRANCH  31  32
ENDBRANCH   1  31
TORSDOF 22
ENDMDL
