MODEL 1
REMARK VINA RESULT:     -11.0      0.000      0.000
REMARK SMILES CNC(=O)c1cccc(-c2cnc(O)c(C(=O)OCCOCCOCCOC(=O)c3ccc(-c4c5nc(c(-c6c(F)cccc6F)c6ccc([nH]6)c(-c6c(F)cccc6F)c6nc(c(-c7c(F)cccc7F)c7ccc4[nH]7)C=C6)C=C5)cc3)c2)c1
REMARK SMILES IDX 22 1 21 2 20 3 19 4 18 5 16 6 17 7 15 8 10 9 11 10 84 11
REMARK SMILES IDX 12 12 13 13 9 14 5 15 6 16 85 17 7 18 8 19 3 20 1 21 2 22
REMARK SMILES IDX 4 24 14 25 23 27 24 28 25 29 26 30 27 31 28 32 29 33 30 34
REMARK SMILES IDX 31 35 83 36 32 37 82 38 33 39 34 40 35 41 76 42 36 43 81 44
REMARK SMILES IDX 75 45 77 46 37 47 80 48 74 49 73 50 38 52 64 53 47 54 63 55
REMARK SMILES IDX 48 56 51 57 62 58 78 59 49 60 50 61 61 63 79 64 52 65 39 66
REMARK SMILES IDX 40 67 45 68 41 69 42 70 44 71 46 72 43 73 65 74 66 75 71 76
REMARK SMILES IDX 67 77 68 78 70 79 72 80 69 81 53 82 54 83 59 84 55 85 56 86
REMARK SMILES IDX 58 87 60 88 57 89
REMARK H PARENT 2 23 14 26 77 51 51 62
REMARK Flexibility Score: inf
ROOT
ATOM      1  C   UNL A   1      33.758  32.409  27.985  1.00  0.00     0.188 C 
ENDROOT
BRANCH   1   2
ATOM      2  O   UNL A   1      34.564  31.265  28.220  1.00  0.00    -0.376 OA
BRANCH   2   3
ATOM      3  C   UNL A   1      34.614  30.202  27.282  1.00  0.00     0.202 C 
BRANCH   3   4
ATOM      4  C   UNL A   1      33.376  29.790  26.470  1.00  0.00     0.261 C 
BRANCH   4   5
ATOM      5  O   UNL A   1      33.634  29.321  25.139  1.00  0.00    -0.459 OA
BRANCH   5   6
ATOM      6  C   UNL A   1      32.629  28.621  24.562  1.00  0.00     0.343 C 
ATOM      7  O   UNL A   1      31.515  29.023  24.266  1.00  0.00    -0.246 OA
BRANCH   6   8
ATOM      8  C   UNL A   1      33.122  27.321  24.087  1.00  0.00     0.122 A 
ATOM      9  C   UNL A   1      33.890  25.056  24.465  1.00  0.00     0.001 A 
ATOM     10  C   UNL A   1      34.098  24.984  23.085  1.00  0.00     0.124 A 
ATOM     11  C   UNL A   1      33.438  26.285  24.966  1.00  0.00     0.031 A 
ATOM     12  N   UNL A   1      33.846  25.992  22.217  1.00  0.00    -0.221 NA
ATOM     13  C   UNL A   1      33.325  27.123  22.727  1.00  0.00     0.225 A 
BRANCH   9  14
ATOM     14  C   UNL A   1      33.965  23.868  25.326  1.00  0.00    -0.016 A 
ATOM     15  C   UNL A   1      34.949  21.661  25.683  1.00  0.00     0.040 A 
ATOM     16  C   UNL A   1      34.396  21.604  26.962  1.00  0.00     0.014 A 
ATOM     17  C   UNL A   1      34.688  22.757  24.862  1.00  0.00     0.022 A 
ATOM     18  C   UNL A   1      33.640  22.680  27.430  1.00  0.00     0.001 A 
ATOM     19  C   UNL A   1      33.441  23.812  26.626  1.00  0.00     0.009 A 
BRANCH  15  20
ATOM     20  C   UNL A   1      35.799  20.560  25.185  1.00  0.00     0.251 C 
ATOM     21  C   UNL A   1      33.830  19.015  24.685  1.00  0.00     0.143 C 
ATOM     22  N   UNL A   1      35.229  19.356  24.843  1.00  0.00    -0.355 N 
ATOM     23  H   UNL A   1      35.863  18.620  24.683  1.00  0.00     0.163 HD
ATOM     24  O   UNL A   1      37.011  20.726  25.084  1.00  0.00    -0.269 OA
ENDBRANCH  15  20
ENDBRANCH   9  14
BRANCH  13  25
ATOM     25  O   UNL A   1      33.055  28.079  21.788  1.00  0.00    -0.493 OA
ATOM     26  H   UNL A   1      33.426  28.935  21.872  1.00  0.00     0.295 HD
ENDBRANCH  13  25
ENDBRANCH   6   8
ENDBRANCH   5   6
ENDBRANCH   4   5
ENDBRANCH   3   4
ENDBRANCH   2   3
ENDBRANCH   1   2
BRANCH   1  27
ATOM     27  C   UNL A   1      34.370  33.825  27.984  1.00  0.00     0.188 C 
BRANCH  27  28
ATOM     28  O   UNL A   1      34.961  34.237  29.188  1.00  0.00    -0.376 OA
BRANCH  28  29
ATOM     29  C   UNL A   1      34.159  34.477  30.331  1.00  0.00     0.202 C 
BRANCH  29  30
ATOM     30  C   UNL A   1      34.377  33.881  31.739  1.00  0.00     0.261 C 
BRANCH  30  31
ATOM     31  O   UNL A   1      34.792  32.518  31.860  1.00  0.00    -0.460 OA
BRANCH  31  32
ATOM     32  C   UNL A   1      35.810  32.274  32.722  1.00  0.00     0.338 C 
ATOM     33  O   UNL A   1      35.835  32.501  33.917  1.00  0.00    -0.246 OA
BRANCH  32  34
ATOM     34  C   UNL A   1      36.857  31.514  32.008  1.00  0.00     0.060 A 
ATOM     35  C   UNL A   1      37.771  30.755  32.750  1.00  0.00     0.016 A 
ATOM     36  C   UNL A   1      36.948  31.572  30.617  1.00  0.00     0.016 A 
ATOM     37  C   UNL A   1      38.800  30.069  32.100  1.00  0.00     0.010 A 
ATOM     38  C   UNL A   1      37.991  30.901  29.971  1.00  0.00     0.010 A 
ATOM     39  C   UNL A   1      38.940  30.171  30.710  1.00  0.00    -0.014 A 
BRANCH  39  40
ATOM     40  C   UNL A   1      40.163  29.660  30.042  1.00  0.00     0.031 A 
ATOM     41  C   UNL A   1      41.315  30.603  29.827  1.00  0.00     0.074 A 
ATOM     42  C   UNL A   1      40.256  28.382  29.628  1.00  0.00     0.049 A 
ATOM     43  N   UNL A   1      42.444  30.412  29.193  1.00  0.00    -0.248 NA
ATOM     44  C   UNL A   1      41.171  31.950  30.404  1.00  0.00     0.031 C 
ATOM     45  C   UNL A   1      39.233  27.356  29.815  1.00  0.00     0.029 A 
ATOM     46  N   UNL A   1      41.260  27.740  28.946  1.00  0.00    -0.354 N 
ATOM     47  C   UNL A   1      43.138  31.612  29.285  1.00  0.00     0.074 A 
ATOM     48  C   UNL A   1      42.292  32.536  30.009  1.00  0.00     0.031 C 
ATOM     49  C   UNL A   1      39.655  26.214  29.241  1.00  0.00     0.029 A 
ATOM     50  C   UNL A   1      40.958  26.440  28.619  1.00  0.00     0.049 A 
ATOM     51  H   UNL A   1      42.115  28.170  28.715  1.00  0.00     0.167 HD
ATOM     52  C   UNL A   1      44.370  31.915  28.813  1.00  0.00     0.037 A 
ATOM     53  C   UNL A   1      41.646  25.547  27.879  1.00  0.00     0.037 A 
ATOM     54  C   UNL A   1      45.212  30.995  28.094  1.00  0.00     0.049 A 
ATOM     55  C   UNL A   1      42.983  25.934  27.299  1.00  0.00     0.074 A 
ATOM     56  C   UNL A   1      46.486  31.205  27.594  1.00  0.00     0.029 A 
ATOM     57  N   UNL A   1      44.861  29.695  27.764  1.00  0.00    -0.354 N 
ATOM     58  N   UNL A   1      43.642  27.062  27.413  1.00  0.00    -0.248 NA
ATOM     59  C   UNL A   1      43.673  24.920  26.488  1.00  0.00     0.031 C 
ATOM     60  C   UNL A   1      46.883  30.051  26.913  1.00  0.00     0.029 A 
ATOM     61  C   UNL A   1      45.883  29.101  27.043  1.00  0.00     0.049 A 
ATOM     62  H   UNL A   1      44.012  29.259  28.007  1.00  0.00     0.167 HD
ATOM     63  C   UNL A   1      44.836  26.879  26.726  1.00  0.00     0.074 A 
ATOM     64  C   UNL A   1      44.816  25.529  26.203  1.00  0.00     0.031 C 
ATOM     65  C   UNL A   1      45.859  27.750  26.544  1.00  0.00     0.037 A 
BRANCH  52  66
ATOM     66  C   UNL A   1      44.877  33.310  29.037  1.00  0.00     0.057 A 
ATOM     67  C   UNL A   1      44.631  34.345  28.126  1.00  0.00     0.134 A 
ATOM     68  C   UNL A   1      45.579  33.632  30.206  1.00  0.00     0.134 A 
ATOM     69  F   UNL A   1      43.975  34.102  26.980  1.00  0.00    -0.206 F 
ATOM     70  C   UNL A   1      45.079  35.646  28.361  1.00  0.00     0.040 A 
ATOM     71  C   UNL A   1      46.009  34.934  30.466  1.00  0.00     0.040 A 
ATOM     72  F   UNL A   1      45.845  32.689  31.123  1.00  0.00    -0.206 F 
ATOM     73  C   UNL A   1      45.763  35.945  29.538  1.00  0.00     0.006 A 
ENDBRANCH  52  66
BRANCH  53  74
ATOM     74  C   UNL A   1      41.080  24.197  27.617  1.00  0.00     0.057 A 
ATOM     75  C   UNL A   1      41.564  23.063  28.279  1.00  0.00     0.134 A 
ATOM     76  C   UNL A   1      40.075  24.003  26.661  1.00  0.00     0.134 A 
ATOM     77  F   UNL A   1      42.546  23.178  29.185  1.00  0.00    -0.206 F 
ATOM     78  C   UNL A   1      41.091  21.783  27.983  1.00  0.00     0.040 A 
ATOM     79  C   UNL A   1      39.571  22.733  26.375  1.00  0.00     0.040 A 
ATOM     80  F   UNL A   1      39.568  25.046  25.986  1.00  0.00    -0.206 F 
ATOM     81  C   UNL A   1      40.087  21.616  27.030  1.00  0.00     0.006 A 
ENDBRANCH  53  74
BRANCH  65  82
ATOM     82  C   UNL A   1      47.069  27.258  25.797  1.00  0.00     0.057 A 
ATOM     83  C   UNL A   1      48.102  26.558  26.432  1.00  0.00     0.134 A 
ATOM     84  C   UNL A   1      47.173  27.449  24.413  1.00  0.00     0.134 A 
ATOM     85  F   UNL A   1      48.071  26.349  27.757  1.00  0.00    -0.206 F 
ATOM     86  C   UNL A   1      49.208  26.087  25.721  1.00  0.00     0.040 A 
ATOM     87  C   UNL A   1      48.259  26.957  23.687  1.00  0.00     0.040 A 
ATOM     88  F   UNL A   1      46.214  28.100  23.740  1.00  0.00    -0.206 F 
ATOM     89  C   UNL A   1      49.284  26.280  24.343  1.00  0.00     0.006 A 
ENDBRANCH  65  82
ENDBRANCH  39  40
ENDBRANCH  32  34
ENDBRANCH  31  32
ENDBRANCH  30  31
ENDBRANCH  29  30
ENDBRANCH  28  29
ENDBRANCH  27  28
ENDBRANCH   1  27
TORSDOF 20
ENDMDL
MODEL 2
REMARK VINA RESULT:     -10.5      1.376      2.110
REMARK SMILES CNC(=O)c1cccc(-c2cnc(O)c(C(=O)OCCOCCOCCOC(=O)c3ccc(-c4c5nc(c(-c6c(F)cccc6F)c6ccc([nH]6)c(-c6c(F)cccc6F)c6nc(c(-c7c(F)cccc7F)c7ccc4[nH]7)C=C6)C=C5)cc3)c2)c1
REMARK SMILES IDX 22 1 21 2 20 3 19 4 18 5 16 6 17 7 15 8 10 9 11 10 84 11
REMARK SMILES IDX 12 12 13 13 9 14 5 15 6 16 85 17 7 18 8 19 3 20 1 21 2 22
REMARK SMILES IDX 4 24 14 25 23 27 24 28 25 29 26 30 27 31 28 32 29 33 30 34
REMARK SMILES IDX 31 35 83 36 32 37 82 38 33 39 34 40 35 41 76 42 36 43 81 44
REMARK SMILES IDX 75 45 77 46 37 47 80 48 74 49 73 50 38 52 64 53 47 54 63 55
REMARK SMILES IDX 48 56 51 57 62 58 78 59 49 60 50 61 61 63 79 64 52 65 39 66
REMARK SMILES IDX 40 67 45 68 41 69 42 70 44 71 46 72 43 73 65 74 66 75 71 76
REMARK SMILES IDX 67 77 68 78 70 79 72 80 69 81 53 82 54 83 59 84 55 85 56 86
REMARK SMILES IDX 58 87 60 88 57 89
REMARK H PARENT 2 23 14 26 77 51 51 62
REMARK Flexibility Score: inf
ROOT
ATOM      1  C   UNL A   1      34.733  33.064  28.115  1.00  0.00     0.188 C 
ENDROOT
BRANCH   1   2
ATOM      2  O   UNL A   1      35.001  31.747  28.569  1.00  0.00    -0.376 OA
BRANCH   2   3
ATOM      3  C   UNL A   1      35.771  30.848  27.787  1.00  0.00     0.202 C 
BRANCH   3   4
ATOM      4  C   UNL A   1      35.398  29.361  27.674  1.00  0.00     0.261 C 
BRANCH   4   5
ATOM      5  O   UNL A   1      34.883  28.945  26.402  1.00  0.00    -0.459 OA
BRANCH   5   6
ATOM      6  C   UNL A   1      33.533  28.897  26.306  1.00  0.00     0.343 C 
ATOM      7  O   UNL A   1      32.773  29.811  26.029  1.00  0.00    -0.246 OA
BRANCH   6   8
ATOM      8  C   UNL A   1      33.071  27.503  26.340  1.00  0.00     0.122 A 
ATOM      9  C   UNL A   1      33.306  25.156  25.793  1.00  0.00     0.001 A 
ATOM     10  C   UNL A   1      32.069  24.971  26.415  1.00  0.00     0.124 A 
ATOM     11  C   UNL A   1      33.778  26.474  25.718  1.00  0.00     0.031 A 
ATOM     12  N   UNL A   1      31.340  25.961  26.984  1.00  0.00    -0.221 NA
ATOM     13  C   UNL A   1      31.872  27.196  26.974  1.00  0.00     0.225 A 
BRANCH   9  14
ATOM     14  C   UNL A   1      34.153  24.023  25.395  1.00  0.00    -0.016 A 
ATOM     15  C   UNL A   1      34.244  21.690  24.679  1.00  0.00     0.040 A 
ATOM     16  C   UNL A   1      35.605  21.810  24.407  1.00  0.00     0.014 A 
ATOM     17  C   UNL A   1      33.546  22.770  25.216  1.00  0.00     0.022 A 
ATOM     18  C   UNL A   1      36.241  23.036  24.615  1.00  0.00     0.001 A 
ATOM     19  C   UNL A   1      35.517  24.140  25.088  1.00  0.00     0.009 A 
BRANCH  15  20
ATOM     20  C   UNL A   1      33.536  20.420  24.415  1.00  0.00     0.251 C 
ATOM     21  C   UNL A   1      32.077  21.402  22.565  1.00  0.00     0.143 C 
ATOM     22  N   UNL A   1      32.499  20.390  23.512  1.00  0.00    -0.355 N 
ATOM     23  H   UNL A   1      31.966  19.562  23.509  1.00  0.00     0.163 HD
ATOM     24  O   UNL A   1      33.875  19.401  25.008  1.00  0.00    -0.269 OA
ENDBRANCH  15  20
ENDBRANCH   9  14
BRANCH  13  25
ATOM     25  O   UNL A   1      31.103  28.134  27.603  1.00  0.00    -0.493 OA
ATOM     26  H   UNL A   1      31.015  28.118  28.535  1.00  0.00     0.295 HD
ENDBRANCH  13  25
ENDBRANCH   6   8
ENDBRANCH   5   6
ENDBRANCH   4   5
ENDBRANCH   3   4
ENDBRANCH   2   3
ENDBRANCH   1   2
BRANCH   1  27
ATOM     27  C   UNL A   1      34.569  34.230  29.111  1.00  0.00     0.188 C 
BRANCH  27  28
ATOM     28  O   UNL A   1      33.793  33.959  30.249  1.00  0.00    -0.376 OA
BRANCH  28  29
ATOM     29  C   UNL A   1      34.329  34.164  31.544  1.00  0.00     0.202 C 
BRANCH  29  30
ATOM     30  C   UNL A   1      34.305  33.154  32.712  1.00  0.00     0.261 C 
BRANCH  30  31
ATOM     31  O   UNL A   1      35.431  32.297  32.911  1.00  0.00    -0.460 OA
BRANCH  31  32
ATOM     32  C   UNL A   1      36.641  32.904  32.994  1.00  0.00     0.338 C 
ATOM     33  O   UNL A   1      36.942  33.859  33.684  1.00  0.00    -0.246 OA
BRANCH  32  34
ATOM     34  C   UNL A   1      37.619  32.108  32.223  1.00  0.00     0.060 A 
ATOM     35  C   UNL A   1      38.527  31.293  32.912  1.00  0.00     0.016 A 
ATOM     36  C   UNL A   1      37.652  32.185  30.830  1.00  0.00     0.016 A 
ATOM     37  C   UNL A   1      39.492  30.571  32.208  1.00  0.00     0.010 A 
ATOM     38  C   UNL A   1      38.633  31.476  30.129  1.00  0.00     0.010 A 
ATOM     39  C   UNL A   1      39.577  30.690  30.815  1.00  0.00    -0.014 A 
BRANCH  39  40
ATOM     40  C   UNL A   1      40.744  30.132  30.085  1.00  0.00     0.031 A 
ATOM     41  C   UNL A   1      41.918  31.032  29.810  1.00  0.00     0.074 A 
ATOM     42  C   UNL A   1      40.767  28.852  29.670  1.00  0.00     0.049 A 
ATOM     43  N   UNL A   1      43.005  30.797  29.119  1.00  0.00    -0.248 NA
ATOM     44  C   UNL A   1      41.855  32.383  30.391  1.00  0.00     0.031 C 
ATOM     45  C   UNL A   1      39.717  27.865  29.911  1.00  0.00     0.029 A 
ATOM     46  N   UNL A   1      41.710  28.173  28.939  1.00  0.00    -0.354 N 
ATOM     47  C   UNL A   1      43.747  31.970  29.173  1.00  0.00     0.074 A 
ATOM     48  C   UNL A   1      42.976  32.925  29.938  1.00  0.00     0.031 C 
ATOM     49  C   UNL A   1      40.065  26.709  29.318  1.00  0.00     0.029 A 
ATOM     50  C   UNL A   1      41.343  26.884  28.631  1.00  0.00     0.049 A 
ATOM     51  H   UNL A   1      42.568  28.570  28.663  1.00  0.00     0.167 HD
ATOM     52  C   UNL A   1      44.964  32.226  28.638  1.00  0.00     0.037 A 
ATOM     53  C   UNL A   1      41.957  25.966  27.858  1.00  0.00     0.037 A 
ATOM     54  C   UNL A   1      45.733  31.276  27.879  1.00  0.00     0.049 A 
ATOM     55  C   UNL A   1      43.276  26.302  27.210  1.00  0.00     0.074 A 
ATOM     56  C   UNL A   1      46.986  31.437  27.314  1.00  0.00     0.029 A 
ATOM     57  N   UNL A   1      45.317  29.990  27.570  1.00  0.00    -0.354 N 
ATOM     58  N   UNL A   1      43.982  27.404  27.288  1.00  0.00    -0.248 NA
ATOM     59  C   UNL A   1      43.886  25.263  26.366  1.00  0.00     0.031 C 
ATOM     60  C   UNL A   1      47.304  30.269  26.615  1.00  0.00     0.029 A 
ATOM     61  C   UNL A   1      46.277  29.357  26.798  1.00  0.00     0.049 A 
ATOM     62  H   UNL A   1      44.465  29.587  27.857  1.00  0.00     0.167 HD
ATOM     63  C   UNL A   1      45.133  27.176  26.540  1.00  0.00     0.074 A 
ATOM     64  C   UNL A   1      45.034  25.828  26.022  1.00  0.00     0.031 C 
ATOM     65  C   UNL A   1      46.177  28.008  26.304  1.00  0.00     0.037 A 
BRANCH  52  66
ATOM     66  C   UNL A   1      45.534  33.602  28.833  1.00  0.00     0.057 A 
ATOM     67  C   UNL A   1      45.263  34.651  27.946  1.00  0.00     0.134 A 
ATOM     68  C   UNL A   1      46.326  33.891  29.952  1.00  0.00     0.134 A 
ATOM     69  F   UNL A   1      44.523  34.438  26.846  1.00  0.00    -0.206 F 
ATOM     70  C   UNL A   1      45.773  35.934  28.155  1.00  0.00     0.040 A 
ATOM     71  C   UNL A   1      46.818  35.175  30.188  1.00  0.00     0.040 A 
ATOM     72  F   UNL A   1      46.620  32.933  30.845  1.00  0.00    -0.206 F 
ATOM     73  C   UNL A   1      46.546  36.200  29.284  1.00  0.00     0.006 A 
ENDBRANCH  52  66
BRANCH  53  74
ATOM     74  C   UNL A   1      41.328  24.639  27.628  1.00  0.00     0.057 A 
ATOM     75  C   UNL A   1      40.255  24.485  26.742  1.00  0.00     0.134 A 
ATOM     76  C   UNL A   1      41.751  23.501  28.326  1.00  0.00     0.134 A 
ATOM     77  F   UNL A   1      39.783  25.542  26.064  1.00  0.00    -0.206 F 
ATOM     78  C   UNL A   1      39.609  23.258  26.578  1.00  0.00     0.040 A 
ATOM     79  C   UNL A   1      41.135  22.261  28.150  1.00  0.00     0.040 A 
ATOM     80  F   UNL A   1      42.771  23.578  29.194  1.00  0.00    -0.206 F 
ATOM     81  C   UNL A   1      40.053  22.140  27.281  1.00  0.00     0.006 A 
ENDBRANCH  53  74
BRANCH  65  82
ATOM     82  C   UNL A   1      47.327  27.471  25.498  1.00  0.00     0.057 A 
ATOM     83  C   UNL A   1      47.399  27.627  24.108  1.00  0.00     0.134 A 
ATOM     84  C   UNL A   1      48.400  26.830  26.132  1.00  0.00     0.134 A 
ATOM     85  F   UNL A   1      46.402  28.221  23.436  1.00  0.00    -0.206 F 
ATOM     86  C   UNL A   1      48.486  27.143  23.375  1.00  0.00     0.040 A 
ATOM     87  C   UNL A   1      49.505  26.370  25.415  1.00  0.00     0.040 A 
ATOM     88  F   UNL A   1      48.401  26.658  27.462  1.00  0.00    -0.206 F 
ATOM     89  C   UNL A   1      49.546  26.519  24.030  1.00  0.00     0.006 A 
ENDBRANCH  65  82
ENDBRANCH  39  40
ENDBRANCH  32  34
ENDBRANCH  31  32
ENDBRANCH  30  31
ENDBRANCH  29  30
ENDBRANCH  28  29
ENDBRANCH  27  28
ENDBRANCH   1  27
TORSDOF 20
ENDMDL
MODEL 3
REMARK VINA RESULT:     -10.2      2.762      4.673
REMARK SMILES CNC(=O)c1cccc(-c2cnc(O)c(C(=O)OCCOCCOCCOC(=O)c3ccc(-c4c5nc(c(-c6c(F)cccc6F)c6ccc([nH]6)c(-c6c(F)cccc6F)c6nc(c(-c7c(F)cccc7F)c7ccc4[nH]7)C=C6)C=C5)cc3)c2)c1
REMARK SMILES IDX 22 1 21 2 20 3 19 4 18 5 16 6 17 7 15 8 10 9 11 10 84 11
REMARK SMILES IDX 12 12 13 13 9 14 5 15 6 16 85 17 7 18 8 19 3 20 1 21 2 22
REMARK SMILES IDX 4 24 14 25 23 27 24 28 25 29 26 30 27 31 28 32 29 33 30 34
REMARK SMILES IDX 31 35 83 36 32 37 82 38 33 39 34 40 35 41 76 42 36 43 81 44
REMARK SMILES IDX 75 45 77 46 37 47 80 48 74 49 73 50 38 52 64 53 47 54 63 55
REMARK SMILES IDX 48 56 51 57 62 58 78 59 49 60 50 61 61 63 79 64 52 65 39 66
REMARK SMILES IDX 40 67 45 68 41 69 42 70 44 71 46 72 43 73 65 74 66 75 71 76
REMARK SMILES IDX 67 77 68 78 70 79 72 80 69 81 53 82 54 83 59 84 55 85 56 86
REMARK SMILES IDX 58 87 60 88 57 89
REMARK H PARENT 2 23 14 26 77 51 51 62
REMARK Flexibility Score: inf
ROOT
ATOM      1  C   UNL A   1      32.638  36.380  30.051  1.00  0.00     0.188 C 
ENDROOT
BRANCH   1   2
ATOM      2  O   UNL A   1      33.696  36.204  29.122  1.00  0.00    -0.376 OA
BRANCH   2   3
ATOM      3  C   UNL A   1      34.114  34.907  28.728  1.00  0.00     0.202 C 
BRANCH   3   4
ATOM      4  C   UNL A   1      33.189  33.975  27.929  1.00  0.00     0.261 C 
BRANCH   4   5
ATOM      5  O   UNL A   1      33.268  32.583  28.266  1.00  0.00    -0.459 OA
BRANCH   5   6
ATOM      6  C   UNL A   1      34.247  31.886  27.642  1.00  0.00     0.343 C 
ATOM      7  O   UNL A   1      35.448  32.106  27.664  1.00  0.00    -0.246 OA
BRANCH   6   8
ATOM      8  C   UNL A   1      33.710  30.631  27.098  1.00  0.00     0.122 A 
ATOM      9  C   UNL A   1      32.253  29.393  25.612  1.00  0.00     0.001 A 
ATOM     10  C   UNL A   1      32.746  28.238  26.224  1.00  0.00     0.124 A 
ATOM     11  C   UNL A   1      32.723  30.616  26.113  1.00  0.00     0.031 A 
ATOM     12  N   UNL A   1      33.669  28.228  27.215  1.00  0.00    -0.221 NA
ATOM     13  C   UNL A   1      34.163  29.419  27.603  1.00  0.00     0.225 A 
BRANCH   9  14
ATOM     14  C   UNL A   1      31.428  29.338  24.397  1.00  0.00    -0.016 A 
ATOM     15  C   UNL A   1      29.387  30.076  23.277  1.00  0.00     0.040 A 
ATOM     16  C   UNL A   1      29.825  29.518  22.078  1.00  0.00     0.014 A 
ATOM     17  C   UNL A   1      30.159  29.937  24.430  1.00  0.00     0.022 A 
ATOM     18  C   UNL A   1      31.066  28.881  22.030  1.00  0.00     0.001 A 
ATOM     19  C   UNL A   1      31.871  28.807  23.176  1.00  0.00     0.009 A 
BRANCH  15  20
ATOM     20  C   UNL A   1      28.103  30.804  23.341  1.00  0.00     0.251 C 
ATOM     21  C   UNL A   1      29.150  33.075  22.831  1.00  0.00     0.143 C 
ATOM     22  N   UNL A   1      28.087  32.175  23.226  1.00  0.00    -0.355 N 
ATOM     23  H   UNL A   1      27.229  32.605  23.445  1.00  0.00     0.163 HD
ATOM     24  O   UNL A   1      27.058  30.180  23.500  1.00  0.00    -0.269 OA
ENDBRANCH  15  20
ENDBRANCH   9  14
BRANCH  13  25
ATOM     25  O   UNL A   1      35.120  29.329  28.574  1.00  0.00    -0.493 OA
ATOM     26  H   UNL A   1      35.028  28.705  29.266  1.00  0.00     0.295 HD
ENDBRANCH  13  25
ENDBRANCH   6   8
ENDBRANCH   5   6
ENDBRANCH   4   5
ENDBRANCH   3   4
ENDBRANCH   2   3
ENDBRANCH   1   2
BRANCH   1  27
ATOM     27  C   UNL A   1      32.780  35.913  31.514  1.00  0.00     0.188 C 
BRANCH  27  28
ATOM     28  O   UNL A   1      34.073  35.984  32.057  1.00  0.00    -0.376 OA
BRANCH  28  29
ATOM     29  C   UNL A   1      34.800  34.798  32.323  1.00  0.00     0.202 C 
BRANCH  29  30
ATOM     30  C   UNL A   1      34.348  33.358  31.994  1.00  0.00     0.261 C 
BRANCH  30  31
ATOM     31  O   UNL A   1      35.333  32.389  31.626  1.00  0.00    -0.460 OA
BRANCH  31  32
ATOM     32  C   UNL A   1      36.254  32.079  32.573  1.00  0.00     0.338 C 
ATOM     33  O   UNL A   1      36.066  31.942  33.767  1.00  0.00    -0.246 OA
BRANCH  32  34
ATOM     34  C   UNL A   1      37.529  31.758  31.899  1.00  0.00     0.060 A 
ATOM     35  C   UNL A   1      37.604  31.858  30.503  1.00  0.00     0.016 A 
ATOM     36  C   UNL A   1      38.634  31.337  32.639  1.00  0.00     0.016 A 
ATOM     37  C   UNL A   1      38.783  31.511  29.840  1.00  0.00     0.010 A 
ATOM     38  C   UNL A   1      39.806  30.972  31.971  1.00  0.00     0.010 A 
ATOM     39  C   UNL A   1      39.878  31.027  30.566  1.00  0.00    -0.014 A 
BRANCH  39  40
ATOM     40  C   UNL A   1      41.036  30.424  29.861  1.00  0.00     0.031 A 
ATOM     41  C   UNL A   1      42.225  31.294  29.553  1.00  0.00     0.074 A 
ATOM     42  C   UNL A   1      41.040  29.128  29.496  1.00  0.00     0.049 A 
ATOM     43  N   UNL A   1      43.309  31.016  28.873  1.00  0.00    -0.248 NA
ATOM     44  C   UNL A   1      42.182  32.668  30.080  1.00  0.00     0.031 C 
ATOM     45  C   UNL A   1      39.976  28.167  29.774  1.00  0.00     0.029 A 
ATOM     46  N   UNL A   1      41.974  28.406  28.794  1.00  0.00    -0.354 N 
ATOM     47  C   UNL A   1      44.069  32.179  28.882  1.00  0.00     0.074 A 
ATOM     48  C   UNL A   1      43.311  33.175  29.608  1.00  0.00     0.031 C 
ATOM     49  C   UNL A   1      40.306  26.983  29.227  1.00  0.00     0.029 A 
ATOM     50  C   UNL A   1      41.587  27.113  28.535  1.00  0.00     0.049 A 
ATOM     51  H   UNL A   1      42.838  28.779  28.504  1.00  0.00     0.167 HD
ATOM     52  C   UNL A   1      45.290  32.395  28.340  1.00  0.00     0.037 A 
ATOM     53  C   UNL A   1      42.188  26.156  27.800  1.00  0.00     0.037 A 
ATOM     54  C   UNL A   1      46.044  31.404  27.619  1.00  0.00     0.049 A 
ATOM     55  C   UNL A   1      43.513  26.446  27.141  1.00  0.00     0.074 A 
ATOM     56  C   UNL A   1      47.301  31.523  27.050  1.00  0.00     0.029 A 
ATOM     57  N   UNL A   1      45.609  30.113  27.360  1.00  0.00    -0.354 N 
ATOM     58  N   UNL A   1      44.235  27.539  27.177  1.00  0.00    -0.248 NA
ATOM     59  C   UNL A   1      44.107  25.365  26.339  1.00  0.00     0.031 C 
ATOM     60  C   UNL A   1      47.601  30.324  26.398  1.00  0.00     0.029 A 
ATOM     61  C   UNL A   1      46.561  29.436  26.615  1.00  0.00     0.049 A 
ATOM     62  H   UNL A   1      44.751  29.735  27.662  1.00  0.00     0.167 HD
ATOM     63  C   UNL A   1      45.383  27.265  26.440  1.00  0.00     0.074 A 
ATOM     64  C   UNL A   1      45.264  25.899  25.975  1.00  0.00     0.031 C 
ATOM     65  C   UNL A   1      46.440  28.070  26.174  1.00  0.00     0.037 A 
BRANCH  52  66
ATOM     66  C   UNL A   1      45.881  33.768  28.481  1.00  0.00     0.057 A 
ATOM     67  C   UNL A   1      45.636  34.782  27.548  1.00  0.00     0.134 A 
ATOM     68  C   UNL A   1      46.667  34.092  29.595  1.00  0.00     0.134 A 
ATOM     69  F   UNL A   1      44.902  34.535  26.451  1.00  0.00    -0.206 F 
ATOM     70  C   UNL A   1      46.164  36.065  27.707  1.00  0.00     0.040 A 
ATOM     71  C   UNL A   1      47.178  35.377  29.781  1.00  0.00     0.040 A 
ATOM     72  F   UNL A   1      46.936  33.168  30.531  1.00  0.00    -0.206 F 
ATOM     73  C   UNL A   1      46.931  36.367  28.832  1.00  0.00     0.006 A 
ENDBRANCH  52  66
BRANCH  53  74
ATOM     74  C   UNL A   1      41.538  24.830  27.621  1.00  0.00     0.057 A 
ATOM     75  C   UNL A   1      40.477  24.654  26.724  1.00  0.00     0.134 A 
ATOM     76  C   UNL A   1      41.930  23.719  28.378  1.00  0.00     0.134 A 
ATOM     77  F   UNL A   1      40.036  25.686  25.991  1.00  0.00    -0.206 F 
ATOM     78  C   UNL A   1      39.812  23.432  26.607  1.00  0.00     0.040 A 
ATOM     79  C   UNL A   1      41.294  22.483  28.250  1.00  0.00     0.040 A 
ATOM     80  F   UNL A   1      42.937  23.819  29.259  1.00  0.00    -0.206 F 
ATOM     81  C   UNL A   1      40.224  22.340  27.368  1.00  0.00     0.006 A 
ENDBRANCH  53  74
BRANCH  65  82
ATOM     82  C   UNL A   1      47.582  27.485  25.391  1.00  0.00     0.057 A 
ATOM     83  C   UNL A   1      47.667  27.601  23.998  1.00  0.00     0.134 A 
ATOM     84  C   UNL A   1      48.635  26.837  26.050  1.00  0.00     0.134 A 
ATOM     85  F   UNL A   1      46.689  28.200  23.302  1.00  0.00    -0.206 F 
ATOM     86  C   UNL A   1      48.747  27.072  23.286  1.00  0.00     0.040 A 
ATOM     87  C   UNL A   1      49.734  26.331  25.353  1.00  0.00     0.040 A 
ATOM     88  F   UNL A   1      48.624  26.701  27.384  1.00  0.00    -0.206 F 
ATOM     89  C   UNL A   1      49.788  26.442  23.966  1.00  0.00     0.006 A 
ENDBRANCH  65  82
ENDBRANCH  39  40
ENDBRANCH  32  34
ENDBRANCH  31  32
ENDBRANCH  30  31
ENDBRANCH  29  30
ENDBRANCH  28  29
ENDBRANCH  27  28
ENDBRANCH   1  27
TORSDOF 20
ENDMDL
