MODEL 1
REMARK VINA RESULT:     -10.8      0.000      0.000
REMARK SMILES CCC[N@@H+]1CC2(CC[NH+](c3nccnc3C)CC2)C[C@H]1C(=O)OCCOCCOCCOC(=O)c1ccc(-c2c3nc(c(-c4c(F)cccc4F)c4ccc([nH]4)c(-c4c(F)cccc4F)c4nc(c(-c5c(F)cccc5F)c5ccc2[nH]5)C=C4)C=C3)cc1
REMARK SMILES IDX 27 1 26 2 25 3 24 4 23 5 21 6 22 7 20 8 4 9 5 10 6 12 19 13
REMARK SMILES IDX 7 14 18 15 8 16 17 17 9 18 3 20 2 21 1 22 10 23 11 24 15 25
REMARK SMILES IDX 12 26 14 27 16 28 13 29 28 30 29 31 30 32 31 33 32 34 33 35
REMARK SMILES IDX 34 36 35 37 36 38 88 39 37 40 87 41 38 42 39 43 40 44 81 45
REMARK SMILES IDX 41 46 86 47 80 48 82 49 42 50 85 51 79 52 78 53 43 55 69 56
REMARK SMILES IDX 52 57 68 58 53 59 56 60 67 61 83 62 54 63 55 64 66 66 84 67
REMARK SMILES IDX 57 68 44 69 45 70 50 71 46 72 47 73 49 74 51 75 48 76 70 77
REMARK SMILES IDX 71 78 76 79 72 80 73 81 75 82 77 83 74 84 58 85 59 86 64 87
REMARK SMILES IDX 60 88 61 89 63 90 65 91 62 92
REMARK H PARENT 4 11 9 19 82 54 56 65
REMARK Flexibility Score: inf
ROOT
ATOM      1  C   UNL A   1      34.964  32.287  28.207  1.00  0.00     0.188 C 
ENDROOT
BRANCH   1   2
ATOM      2  O   UNL A   1      35.442  30.968  28.448  1.00  0.00    -0.376 OA
BRANCH   2   3
ATOM      3  C   UNL A   1      34.905  29.878  27.712  1.00  0.00     0.202 C 
BRANCH   3   4
ATOM      4  C   UNL A   1      33.625  30.081  26.889  1.00  0.00     0.261 C 
BRANCH   4   5
ATOM      5  O   UNL A   1      33.070  28.892  26.296  1.00  0.00    -0.459 OA
BRANCH   5   6
ATOM      6  C   UNL A   1      32.575  29.021  25.039  1.00  0.00     0.365 C 
ATOM      7  O   UNL A   1      33.142  29.650  24.147  1.00  0.00    -0.245 OA
BRANCH   6   8
ATOM      8  C   UNL A   1      31.191  28.390  24.792  1.00  0.00     0.295 C 
ATOM      9  N   UNL A   1      30.721  28.194  23.381  1.00  0.00    -0.323 N 
ATOM     10  C   UNL A   1      31.371  26.964  22.934  1.00  0.00     0.270 C 
ATOM     11  H   UNL A   1      30.978  28.960  22.758  1.00  0.00     0.348 HD
ATOM     12  C   UNL A   1      31.506  26.061  24.173  1.00  0.00     0.036 C 
ATOM     13  C   UNL A   1      31.233  26.993  25.374  1.00  0.00     0.091 C 
ATOM     14  C   UNL A   1      32.945  25.481  24.217  1.00  0.00     0.075 C 
ATOM     15  C   UNL A   1      30.438  24.944  24.218  1.00  0.00     0.075 C 
ATOM     16  C   UNL A   1      33.134  24.278  23.285  1.00  0.00     0.269 C 
ATOM     17  C   UNL A   1      30.700  23.832  23.213  1.00  0.00     0.269 C 
ATOM     18  N   UNL A   1      32.037  23.353  23.488  1.00  0.00    -0.284 N 
ATOM     19  H   UNL A   1      32.545  22.733  24.059  1.00  0.00     0.355 HD
BRANCH   9  20
ATOM     20  C   UNL A   1      29.244  28.179  23.309  1.00  0.00     0.262 C 
BRANCH  20  21
ATOM     21  C   UNL A   1      28.543  29.244  22.435  1.00  0.00     0.058 C 
ATOM     22  C   UNL A   1      27.732  30.293  23.191  1.00  0.00     0.010 C 
ENDBRANCH  20  21
ENDBRANCH   9  20
BRANCH  18  23
ATOM     23  C   UNL A   1      32.192  22.013  23.729  1.00  0.00     0.247 A 
ATOM     24  N   UNL A   1      32.182  21.200  22.644  1.00  0.00    -0.202 NA
ATOM     25  C   UNL A   1      32.228  21.455  25.023  1.00  0.00     0.119 A 
ATOM     26  C   UNL A   1      32.234  19.871  22.870  1.00  0.00     0.137 A 
ATOM     27  N   UNL A   1      32.300  20.111  25.241  1.00  0.00    -0.252 NA
ATOM     28  C   UNL A   1      32.097  22.286  26.264  1.00  0.00     0.075 C 
ATOM     29  C   UNL A   1      32.295  19.338  24.139  1.00  0.00     0.132 A 
ENDBRANCH  18  23
ENDBRANCH   6   8
ENDBRANCH   5   6
ENDBRANCH   4   5
ENDBRANCH   3   4
ENDBRANCH   2   3
ENDBRANCH   1   2
BRANCH   1  30
ATOM     30  C   UNL A   1      34.848  33.292  29.370  1.00  0.00     0.188 C 
BRANCH  30  31
ATOM     31  O   UNL A   1      34.803  34.641  28.986  1.00  0.00    -0.376 OA
BRANCH  31  32
ATOM     32  C   UNL A   1      33.556  35.263  28.775  1.00  0.00     0.202 C 
BRANCH  32  33
ATOM     33  C   UNL A   1      32.826  36.118  29.831  1.00  0.00     0.261 C 
BRANCH  33  34
ATOM     34  O   UNL A   1      32.306  35.471  31.000  1.00  0.00    -0.460 OA
BRANCH  34  35
ATOM     35  C   UNL A   1      32.716  35.934  32.207  1.00  0.00     0.338 C 
ATOM     36  O   UNL A   1      32.152  36.752  32.915  1.00  0.00    -0.246 OA
BRANCH  35  37
ATOM     37  C   UNL A   1      33.884  35.128  32.633  1.00  0.00     0.060 A 
ATOM     38  C   UNL A   1      35.176  35.658  32.502  1.00  0.00     0.016 A 
ATOM     39  C   UNL A   1      33.697  33.863  33.191  1.00  0.00     0.016 A 
ATOM     40  C   UNL A   1      36.285  34.926  32.940  1.00  0.00     0.010 A 
ATOM     41  C   UNL A   1      34.809  33.122  33.602  1.00  0.00     0.010 A 
ATOM     42  C   UNL A   1      36.110  33.643  33.472  1.00  0.00    -0.014 A 
BRANCH  42  43
ATOM     43  C   UNL A   1      37.274  32.778  33.796  1.00  0.00     0.031 A 
ATOM     44  C   UNL A   1      38.047  33.043  35.058  1.00  0.00     0.074 A 
ATOM     45  C   UNL A   1      37.675  31.804  32.959  1.00  0.00     0.049 A 
ATOM     46  N   UNL A   1      39.179  32.530  35.465  1.00  0.00    -0.248 NA
ATOM     47  C   UNL A   1      37.461  34.027  35.983  1.00  0.00     0.031 C 
ATOM     48  C   UNL A   1      36.994  31.412  31.728  1.00  0.00     0.029 A 
ATOM     49  N   UNL A   1      38.778  30.985  33.011  1.00  0.00    -0.354 N 
ATOM     50  C   UNL A   1      39.452  33.137  36.684  1.00  0.00     0.074 A 
ATOM     51  C   UNL A   1      38.375  34.070  36.942  1.00  0.00     0.031 C 
ATOM     52  C   UNL A   1      37.710  30.447  31.124  1.00  0.00     0.029 A 
ATOM     53  C   UNL A   1      38.921  30.187  31.901  1.00  0.00     0.049 A 
ATOM     54  H   UNL A   1      39.406  30.972  33.769  1.00  0.00     0.167 HD
ATOM     55  C   UNL A   1      40.503  32.935  37.513  1.00  0.00     0.037 A 
ATOM     56  C   UNL A   1      39.932  29.374  31.533  1.00  0.00     0.037 A 
ATOM     57  C   UNL A   1      41.579  32.014  37.251  1.00  0.00     0.049 A 
ATOM     58  C   UNL A   1      41.144  29.244  32.423  1.00  0.00     0.074 A 
ATOM     59  C   UNL A   1      42.673  31.721  38.045  1.00  0.00     0.029 A 
ATOM     60  N   UNL A   1      41.703  31.249  36.101  1.00  0.00    -0.354 N 
ATOM     61  N   UNL A   1      41.381  29.797  33.588  1.00  0.00    -0.248 NA
ATOM     62  C   UNL A   1      42.233  28.381  31.941  1.00  0.00     0.031 C 
ATOM     63  C   UNL A   1      43.493  30.827  37.349  1.00  0.00     0.029 A 
ATOM     64  C   UNL A   1      42.878  30.515  36.147  1.00  0.00     0.049 A 
ATOM     65  H   UNL A   1      41.053  31.230  35.362  1.00  0.00     0.167 HD
ATOM     66  C   UNL A   1      42.631  29.334  33.985  1.00  0.00     0.074 A 
ATOM     67  C   UNL A   1      43.094  28.439  32.947  1.00  0.00     0.031 C 
ATOM     68  C   UNL A   1      43.332  29.626  35.108  1.00  0.00     0.037 A 
BRANCH  55  69
ATOM     69  C   UNL A   1      40.561  33.752  38.770  1.00  0.00     0.057 A 
ATOM     70  C   UNL A   1      41.280  34.952  38.843  1.00  0.00     0.134 A 
ATOM     71  C   UNL A   1      39.854  33.353  39.912  1.00  0.00     0.134 A 
ATOM     72  F   UNL A   1      41.989  35.385  37.789  1.00  0.00    -0.206 F 
ATOM     73  C   UNL A   1      41.313  35.713  40.013  1.00  0.00     0.040 A 
ATOM     74  C   UNL A   1      39.855  34.119  41.078  1.00  0.00     0.040 A 
ATOM     75  F   UNL A   1      39.140  32.216  39.909  1.00  0.00    -0.206 F 
ATOM     76  C   UNL A   1      40.591  35.301  41.132  1.00  0.00     0.006 A 
ENDBRANCH  55  69
BRANCH  56  77
ATOM     77  C   UNL A   1      39.873  28.644  30.240  1.00  0.00     0.057 A 
ATOM     78  C   UNL A   1      40.411  29.195  29.072  1.00  0.00     0.134 A 
ATOM     79  C   UNL A   1      39.245  27.396  30.133  1.00  0.00     0.134 A 
ATOM     80  F   UNL A   1      40.997  30.401  29.101  1.00  0.00    -0.206 F 
ATOM     81  C   UNL A   1      40.313  28.541  27.841  1.00  0.00     0.040 A 
ATOM     82  C   UNL A   1      39.166  26.719  28.916  1.00  0.00     0.040 A 
ATOM     83  F   UNL A   1      38.701  26.816  31.213  1.00  0.00    -0.206 F 
ATOM     84  C   UNL A   1      39.694  27.295  27.763  1.00  0.00     0.006 A 
ENDBRANCH  56  77
BRANCH  68  85
ATOM     85  C   UNL A   1      44.665  28.957  35.290  1.00  0.00     0.057 A 
ATOM     86  C   UNL A   1      44.784  27.694  35.883  1.00  0.00     0.134 A 
ATOM     87  C   UNL A   1      45.840  29.560  34.818  1.00  0.00     0.134 A 
ATOM     88  F   UNL A   1      43.701  27.066  36.369  1.00  0.00    -0.206 F 
ATOM     89  C   UNL A   1      46.022  27.063  36.017  1.00  0.00     0.040 A 
ATOM     90  C   UNL A   1      47.079  28.926  34.919  1.00  0.00     0.040 A 
ATOM     91  F   UNL A   1      45.798  30.765  34.230  1.00  0.00    -0.206 F 
ATOM     92  C   UNL A   1      47.174  27.675  35.526  1.00  0.00     0.006 A 
ENDBRANCH  68  85
ENDBRANCH  42  43
ENDBRANCH  35  37
ENDBRANCH  34  35
ENDBRANCH  33  34
ENDBRANCH  32  33
ENDBRANCH  31  32
ENDBRANCH  30  31
ENDBRANCH   1  30
TORSDOF 20
ENDMDL
MODEL 2
REMARK VINA RESULT:     -10.7      3.897      9.118
REMARK SMILES CCC[N@@H+]1CC2(CC[NH+](c3nccnc3C)CC2)C[C@H]1C(=O)OCCOCCOCCOC(=O)c1ccc(-c2c3nc(c(-c4c(F)cccc4F)c4ccc([nH]4)c(-c4c(F)cccc4F)c4nc(c(-c5c(F)cccc5F)c5ccc2[nH]5)C=C4)C=C3)cc1
REMARK SMILES IDX 27 1 26 2 25 3 24 4 23 5 21 6 22 7 20 8 4 9 5 10 6 12 19 13
REMARK SMILES IDX 7 14 18 15 8 16 17 17 9 18 3 20 2 21 1 22 10 23 11 24 15 25
REMARK SMILES IDX 12 26 14 27 16 28 13 29 28 30 29 31 30 32 31 33 32 34 33 35
REMARK SMILES IDX 34 36 35 37 36 38 88 39 37 40 87 41 38 42 39 43 40 44 81 45
REMARK SMILES IDX 41 46 86 47 80 48 82 49 42 50 85 51 79 52 78 53 43 55 69 56
REMARK SMILES IDX 52 57 68 58 53 59 56 60 67 61 83 62 54 63 55 64 66 66 84 67
REMARK SMILES IDX 57 68 44 69 45 70 50 71 46 72 47 73 49 74 51 75 48 76 70 77
REMARK SMILES IDX 71 78 76 79 72 80 73 81 75 82 77 83 74 84 58 85 59 86 64 87
REMARK SMILES IDX 60 88 61 89 63 90 65 91 62 92
REMARK H PARENT 4 11 9 19 82 54 56 65
REMARK Flexibility Score: inf
ROOT
ATOM      1  C   UNL A   1      40.520  21.679  27.368  1.00  0.00     0.188 C 
ENDROOT
BRANCH   1   2
ATOM      2  O   UNL A   1      39.339  21.809  26.585  1.00  0.00    -0.376 OA
BRANCH   2   3
ATOM      3  C   UNL A   1      38.752  23.090  26.402  1.00  0.00     0.202 C 
BRANCH   3   4
ATOM      4  C   UNL A   1      37.389  23.203  25.704  1.00  0.00     0.261 C 
BRANCH   4   5
ATOM      5  O   UNL A   1      36.834  21.967  25.215  1.00  0.00    -0.459 OA
BRANCH   5   6
ATOM      6  C   UNL A   1      35.584  21.657  25.643  1.00  0.00     0.365 C 
ATOM      7  O   UNL A   1      35.268  21.597  26.830  1.00  0.00    -0.245 OA
BRANCH   6   8
ATOM      8  C   UNL A   1      34.566  21.296  24.544  1.00  0.00     0.295 C 
ATOM      9  N   UNL A   1      33.202  20.819  24.943  1.00  0.00    -0.323 N 
ATOM     10  C   UNL A   1      32.451  22.034  25.250  1.00  0.00     0.270 C 
ATOM     11  H   UNL A   1      33.209  20.207  25.759  1.00  0.00     0.348 HD
ATOM     12  C   UNL A   1      32.992  23.134  24.320  1.00  0.00     0.036 C 
ATOM     13  C   UNL A   1      34.307  22.561  23.751  1.00  0.00     0.091 C 
ATOM     14  C   UNL A   1      33.243  24.418  25.155  1.00  0.00     0.075 C 
ATOM     15  C   UNL A   1      32.061  23.408  23.116  1.00  0.00     0.075 C 
ATOM     16  C   UNL A   1      31.965  25.225  25.412  1.00  0.00     0.269 C 
ATOM     17  C   UNL A   1      30.800  24.166  23.501  1.00  0.00     0.269 C 
ATOM     18  N   UNL A   1      31.246  25.373  24.162  1.00  0.00    -0.284 N 
ATOM     19  H   UNL A   1      31.550  26.294  23.991  1.00  0.00     0.355 HD
BRANCH   9  20
ATOM     20  C   UNL A   1      32.606  19.970  23.888  1.00  0.00     0.262 C 
BRANCH  20  21
ATOM     21  C   UNL A   1      32.358  18.477  24.205  1.00  0.00     0.058 C 
ATOM     22  C   UNL A   1      32.946  17.972  25.521  1.00  0.00     0.010 C 
ENDBRANCH  20  21
ENDBRANCH   9  20
BRANCH  18  23
ATOM     23  C   UNL A   1      30.793  26.569  23.670  1.00  0.00     0.247 A 
ATOM     24  N   UNL A   1      29.468  26.817  23.811  1.00  0.00    -0.202 NA
ATOM     25  C   UNL A   1      31.598  27.460  22.931  1.00  0.00     0.119 A 
ATOM     26  C   UNL A   1      28.988  27.943  23.245  1.00  0.00     0.137 A 
ATOM     27  N   UNL A   1      31.108  28.607  22.379  1.00  0.00    -0.252 NA
ATOM     28  C   UNL A   1      33.036  27.176  22.615  1.00  0.00     0.075 C 
ATOM     29  C   UNL A   1      29.789  28.820  22.547  1.00  0.00     0.132 A 
ENDBRANCH  18  23
ENDBRANCH   6   8
ENDBRANCH   5   6
ENDBRANCH   4   5
ENDBRANCH   3   4
ENDBRANCH   2   3
ENDBRANCH   1   2
BRANCH   1  30
ATOM     30  C   UNL A   1      41.081  20.281  27.695  1.00  0.00     0.188 C 
BRANCH  30  31
ATOM     31  O   UNL A   1      42.228  19.918  26.974  1.00  0.00    -0.376 OA
BRANCH  31  32
ATOM     32  C   UNL A   1      42.535  20.586  25.771  1.00  0.00     0.202 C 
BRANCH  32  33
ATOM     33  C   UNL A   1      43.518  21.769  25.665  1.00  0.00     0.261 C 
BRANCH  33  34
ATOM     34  O   UNL A   1      43.027  23.032  25.196  1.00  0.00    -0.460 OA
BRANCH  34  35
ATOM     35  C   UNL A   1      43.886  24.082  25.205  1.00  0.00     0.338 C 
ATOM     36  O   UNL A   1      44.810  24.287  24.436  1.00  0.00    -0.246 OA
BRANCH  35  37
ATOM     37  C   UNL A   1      43.396  25.064  26.199  1.00  0.00     0.060 A 
ATOM     38  C   UNL A   1      43.891  26.376  26.180  1.00  0.00     0.016 A 
ATOM     39  C   UNL A   1      42.423  24.695  27.129  1.00  0.00     0.016 A 
ATOM     40  C   UNL A   1      43.405  27.326  27.085  1.00  0.00     0.010 A 
ATOM     41  C   UNL A   1      41.959  25.638  28.051  1.00  0.00     0.010 A 
ATOM     42  C   UNL A   1      42.452  26.957  28.042  1.00  0.00    -0.014 A 
BRANCH  42  43
ATOM     43  C   UNL A   1      42.035  27.894  29.116  1.00  0.00     0.031 A 
ATOM     44  C   UNL A   1      42.783  27.883  30.420  1.00  0.00     0.074 A 
ATOM     45  C   UNL A   1      40.976  28.709  28.960  1.00  0.00     0.049 A 
ATOM     46  N   UNL A   1      42.505  28.490  31.545  1.00  0.00    -0.248 NA
ATOM     47  C   UNL A   1      44.009  27.071  30.458  1.00  0.00     0.031 C 
ATOM     48  C   UNL A   1      40.191  28.854  27.737  1.00  0.00     0.029 A 
ATOM     49  N   UNL A   1      40.362  29.551  29.857  1.00  0.00    -0.354 N 
ATOM     50  C   UNL A   1      43.511  28.122  32.430  1.00  0.00     0.074 A 
ATOM     51  C   UNL A   1      44.395  27.226  31.717  1.00  0.00     0.031 C 
ATOM     52  C   UNL A   1      39.180  29.709  27.968  1.00  0.00     0.029 A 
ATOM     53  C   UNL A   1      39.220  30.136  29.366  1.00  0.00     0.049 A 
ATOM     54  H   UNL A   1      40.706  29.718  30.764  1.00  0.00     0.167 HD
ATOM     55  C   UNL A   1      43.681  28.499  33.720  1.00  0.00     0.037 A 
ATOM     56  C   UNL A   1      38.290  30.894  29.983  1.00  0.00     0.037 A 
ATOM     57  C   UNL A   1      42.795  29.383  34.433  1.00  0.00     0.049 A 
ATOM     58  C   UNL A   1      38.446  31.214  31.450  1.00  0.00     0.074 A 
ATOM     59  C   UNL A   1      42.901  29.842  35.733  1.00  0.00     0.029 A 
ATOM     60  N   UNL A   1      41.633  29.928  33.909  1.00  0.00    -0.354 N 
ATOM     61  N   UNL A   1      39.414  30.889  32.272  1.00  0.00    -0.248 NA
ATOM     62  C   UNL A   1      37.372  32.001  32.076  1.00  0.00     0.031 C 
ATOM     63  C   UNL A   1      41.771  30.614  36.018  1.00  0.00     0.029 A 
ATOM     64  C   UNL A   1      40.991  30.686  34.875  1.00  0.00     0.049 A 
ATOM     65  H   UNL A   1      41.311  29.796  32.988  1.00  0.00     0.167 HD
ATOM     66  C   UNL A   1      39.077  31.448  33.500  1.00  0.00     0.074 A 
ATOM     67  C   UNL A   1      37.826  32.150  33.312  1.00  0.00     0.031 C 
ATOM     68  C   UNL A   1      39.744  31.382  34.678  1.00  0.00     0.037 A 
BRANCH  55  69
ATOM     69  C   UNL A   1      44.855  27.926  34.459  1.00  0.00     0.057 A 
ATOM     70  C   UNL A   1      44.776  26.710  35.151  1.00  0.00     0.134 A 
ATOM     71  C   UNL A   1      46.094  28.581  34.444  1.00  0.00     0.134 A 
ATOM     72  F   UNL A   1      43.616  26.039  35.214  1.00  0.00    -0.206 F 
ATOM     73  C   UNL A   1      45.879  26.179  35.820  1.00  0.00     0.040 A 
ATOM     74  C   UNL A   1      47.212  28.045  35.085  1.00  0.00     0.040 A 
ATOM     75  F   UNL A   1      46.241  29.746  33.795  1.00  0.00    -0.206 F 
ATOM     76  C   UNL A   1      47.104  26.843  35.780  1.00  0.00     0.006 A 
ENDBRANCH  55  69
BRANCH  56  77
ATOM     77  C   UNL A   1      37.099  31.374  29.236  1.00  0.00     0.057 A 
ATOM     78  C   UNL A   1      35.994  30.542  29.021  1.00  0.00     0.134 A 
ATOM     79  C   UNL A   1      37.051  32.662  28.686  1.00  0.00     0.134 A 
ATOM     80  F   UNL A   1      35.992  29.287  29.493  1.00  0.00    -0.206 F 
ATOM     81  C   UNL A   1      34.893  30.966  28.274  1.00  0.00     0.040 A 
ATOM     82  C   UNL A   1      35.944  33.108  27.963  1.00  0.00     0.040 A 
ATOM     83  F   UNL A   1      38.080  33.507  28.848  1.00  0.00    -0.206 F 
ATOM     84  C   UNL A   1      34.864  32.256  27.748  1.00  0.00     0.006 A 
ENDBRANCH  56  77
BRANCH  68  85
ATOM     85  C   UNL A   1      39.152  32.106  35.855  1.00  0.00     0.057 A 
ATOM     86  C   UNL A   1      39.429  33.456  36.109  1.00  0.00     0.134 A 
ATOM     87  C   UNL A   1      38.251  31.461  36.714  1.00  0.00     0.134 A 
ATOM     88  F   UNL A   1      40.293  34.130  35.333  1.00  0.00    -0.206 F 
ATOM     89  C   UNL A   1      38.847  34.132  37.183  1.00  0.00     0.040 A 
ATOM     90  C   UNL A   1      37.641  32.134  37.773  1.00  0.00     0.040 A 
ATOM     91  F   UNL A   1      37.933  30.172  36.523  1.00  0.00    -0.206 F 
ATOM     92  C   UNL A   1      37.943  33.473  38.014  1.00  0.00     0.006 A 
ENDBRANCH  68  85
ENDBRANCH  42  43
ENDBRANCH  35  37
ENDBRANCH  34  35
ENDBRANCH  33  34
ENDBRANCH  32  33
ENDBRANCH  31  32
ENDBRANCH  30  31
ENDBRANCH   1  30
TORSDOF 20
ENDMDL
MODEL 3
REMARK VINA RESULT:     -10.5      3.634      9.047
REMARK SMILES CCC[N@@H+]1CC2(CC[NH+](c3nccnc3C)CC2)C[C@H]1C(=O)OCCOCCOCCOC(=O)c1ccc(-c2c3nc(c(-c4c(F)cccc4F)c4ccc([nH]4)c(-c4c(F)cccc4F)c4nc(c(-c5c(F)cccc5F)c5ccc2[nH]5)C=C4)C=C3)cc1
REMARK SMILES IDX 27 1 26 2 25 3 24 4 23 5 21 6 22 7 20 8 4 9 5 10 6 12 19 13
REMARK SMILES IDX 7 14 18 15 8 16 17 17 9 18 3 20 2 21 1 22 10 23 11 24 15 25
REMARK SMILES IDX 12 26 14 27 16 28 13 29 28 30 29 31 30 32 31 33 32 34 33 35
REMARK SMILES IDX 34 36 35 37 36 38 88 39 37 40 87 41 38 42 39 43 40 44 81 45
REMARK SMILES IDX 41 46 86 47 80 48 82 49 42 50 85 51 79 52 78 53 43 55 69 56
REMARK SMILES IDX 52 57 68 58 53 59 56 60 67 61 83 62 54 63 55 64 66 66 84 67
REMARK SMILES IDX 57 68 44 69 45 70 50 71 46 72 47 73 49 74 51 75 48 76 70 77
REMARK SMILES IDX 71 78 76 79 72 80 73 81 75 82 77 83 74 84 58 85 59 86 64 87
REMARK SMILES IDX 60 88 61 89 63 90 65 91 62 92
REMARK H PARENT 4 11 9 19 82 54 56 65
REMARK Flexibility Score: inf
ROOT
ATOM      1  C   UNL A   1      40.875  21.756  27.432  1.00  0.00     0.188 C 
ENDROOT
BRANCH   1   2
ATOM      2  O   UNL A   1      39.714  22.373  26.887  1.00  0.00    -0.376 OA
BRANCH   2   3
ATOM      3  C   UNL A   1      39.042  21.766  25.793  1.00  0.00     0.202 C 
BRANCH   3   4
ATOM      4  C   UNL A   1      37.558  22.082  25.549  1.00  0.00     0.261 C 
BRANCH   4   5
ATOM      5  O   UNL A   1      36.683  20.942  25.469  1.00  0.00    -0.459 OA
BRANCH   5   6
ATOM      6  C   UNL A   1      35.373  21.168  25.745  1.00  0.00     0.365 C 
ATOM      7  O   UNL A   1      34.968  21.567  26.836  1.00  0.00    -0.245 OA
BRANCH   6   8
ATOM      8  C   UNL A   1      34.378  20.817  24.623  1.00  0.00     0.295 C 
ATOM      9  N   UNL A   1      33.004  20.340  24.990  1.00  0.00    -0.323 N 
ATOM     10  C   UNL A   1      32.250  21.554  25.291  1.00  0.00     0.270 C 
ATOM     11  H   UNL A   1      32.994  19.722  25.801  1.00  0.00     0.348 HD
ATOM     12  C   UNL A   1      32.811  22.660  24.381  1.00  0.00     0.036 C 
ATOM     13  C   UNL A   1      34.138  22.088  23.834  1.00  0.00     0.091 C 
ATOM     14  C   UNL A   1      33.047  23.937  25.230  1.00  0.00     0.075 C 
ATOM     15  C   UNL A   1      31.906  22.945  23.159  1.00  0.00     0.075 C 
ATOM     16  C   UNL A   1      31.766  24.745  25.467  1.00  0.00     0.269 C 
ATOM     17  C   UNL A   1      30.639  23.703  23.524  1.00  0.00     0.269 C 
ATOM     18  N   UNL A   1      31.073  24.903  24.203  1.00  0.00    -0.284 N 
ATOM     19  H   UNL A   1      31.382  25.825  24.046  1.00  0.00     0.355 HD
BRANCH   9  20
ATOM     20  C   UNL A   1      32.429  19.500  23.917  1.00  0.00     0.262 C 
BRANCH  20  21
ATOM     21  C   UNL A   1      33.142  18.174  23.565  1.00  0.00     0.058 C 
ATOM     22  C   UNL A   1      32.814  16.985  24.465  1.00  0.00     0.010 C 
ENDBRANCH  20  21
ENDBRANCH   9  20
BRANCH  18  23
ATOM     23  C   UNL A   1      30.633  26.104  23.711  1.00  0.00     0.247 A 
ATOM     24  N   UNL A   1      29.375  26.473  24.056  1.00  0.00    -0.202 NA
ATOM     25  C   UNL A   1      31.362  26.879  22.786  1.00  0.00     0.119 A 
ATOM     26  C   UNL A   1      28.889  27.602  23.501  1.00  0.00     0.137 A 
ATOM     27  N   UNL A   1      30.870  28.030  22.245  1.00  0.00    -0.252 NA
ATOM     28  C   UNL A   1      32.697  26.454  22.252  1.00  0.00     0.075 C 
ATOM     29  C   UNL A   1      29.621  28.366  22.617  1.00  0.00     0.132 A 
ENDBRANCH  18  23
ENDBRANCH   6   8
ENDBRANCH   5   6
ENDBRANCH   4   5
ENDBRANCH   3   4
ENDBRANCH   2   3
ENDBRANCH   1   2
BRANCH   1  30
ATOM     30  C   UNL A   1      42.159  22.580  27.648  1.00  0.00     0.188 C 
BRANCH  30  31
ATOM     31  O   UNL A   1      43.150  22.403  26.671  1.00  0.00    -0.376 OA
BRANCH  31  32
ATOM     32  C   UNL A   1      43.024  23.051  25.426  1.00  0.00     0.202 C 
BRANCH  32  33
ATOM     33  C   UNL A   1      43.243  24.563  25.212  1.00  0.00     0.261 C 
BRANCH  33  34
ATOM     34  O   UNL A   1      42.124  25.448  25.357  1.00  0.00    -0.460 OA
BRANCH  34  35
ATOM     35  C   UNL A   1      42.366  26.781  25.297  1.00  0.00     0.338 C 
ATOM     36  O   UNL A   1      42.652  27.435  24.308  1.00  0.00    -0.246 OA
BRANCH  35  37
ATOM     37  C   UNL A   1      42.032  27.366  26.615  1.00  0.00     0.060 A 
ATOM     38  C   UNL A   1      41.124  26.706  27.456  1.00  0.00     0.016 A 
ATOM     39  C   UNL A   1      42.643  28.549  27.033  1.00  0.00     0.016 A 
ATOM     40  C   UNL A   1      40.832  27.224  28.723  1.00  0.00     0.010 A 
ATOM     41  C   UNL A   1      42.328  29.080  28.288  1.00  0.00     0.010 A 
ATOM     42  C   UNL A   1      41.416  28.427  29.138  1.00  0.00    -0.014 A 
BRANCH  42  43
ATOM     43  C   UNL A   1      41.006  29.085  30.405  1.00  0.00     0.031 A 
ATOM     44  C   UNL A   1      39.855  30.052  30.382  1.00  0.00     0.074 A 
ATOM     45  C   UNL A   1      41.675  28.870  31.552  1.00  0.00     0.049 A 
ATOM     46  N   UNL A   1      39.425  30.858  31.319  1.00  0.00    -0.248 NA
ATOM     47  C   UNL A   1      39.091  30.121  29.127  1.00  0.00     0.031 C 
ATOM     48  C   UNL A   1      42.778  27.928  31.725  1.00  0.00     0.029 A 
ATOM     49  N   UNL A   1      41.538  29.461  32.786  1.00  0.00    -0.354 N 
ATOM     50  C   UNL A   1      38.351  31.541  30.764  1.00  0.00     0.074 A 
ATOM     51  C   UNL A   1      38.206  31.069  29.404  1.00  0.00     0.031 C 
ATOM     52  C   UNL A   1      43.238  28.024  32.985  1.00  0.00     0.029 A 
ATOM     53  C   UNL A   1      42.493  29.066  33.692  1.00  0.00     0.049 A 
ATOM     54  H   UNL A   1      40.825  30.104  33.001  1.00  0.00     0.167 HD
ATOM     55  C   UNL A   1      37.557  32.476  31.337  1.00  0.00     0.037 A 
ATOM     56  C   UNL A   1      42.764  29.523  34.932  1.00  0.00     0.037 A 
ATOM     57  C   UNL A   1      37.707  32.954  32.688  1.00  0.00     0.049 A 
ATOM     58  C   UNL A   1      41.932  30.640  35.511  1.00  0.00     0.074 A 
ATOM     59  C   UNL A   1      36.935  33.880  33.364  1.00  0.00     0.029 A 
ATOM     60  N   UNL A   1      38.707  32.552  33.561  1.00  0.00    -0.354 N 
ATOM     61  N   UNL A   1      40.899  31.260  34.994  1.00  0.00    -0.248 NA
ATOM     62  C   UNL A   1      42.311  31.127  36.847  1.00  0.00     0.031 C 
ATOM     63  C   UNL A   1      37.503  34.088  34.625  1.00  0.00     0.029 A 
ATOM     64  C   UNL A   1      38.595  33.244  34.757  1.00  0.00     0.049 A 
ATOM     65  H   UNL A   1      39.395  31.877  33.362  1.00  0.00     0.167 HD
ATOM     66  C   UNL A   1      40.494  32.190  35.945  1.00  0.00     0.074 A 
ATOM     67  C   UNL A   1      41.379  32.040  37.080  1.00  0.00     0.031 C 
ATOM     68  C   UNL A   1      39.481  33.089  35.882  1.00  0.00     0.037 A 
BRANCH  55  69
ATOM     69  C   UNL A   1      36.471  33.076  30.492  1.00  0.00     0.057 A 
ATOM     70  C   UNL A   1      36.739  34.041  29.512  1.00  0.00     0.134 A 
ATOM     71  C   UNL A   1      35.143  32.651  30.633  1.00  0.00     0.134 A 
ATOM     72  F   UNL A   1      37.988  34.499  29.334  1.00  0.00    -0.206 F 
ATOM     73  C   UNL A   1      35.723  34.578  28.720  1.00  0.00     0.040 A 
ATOM     74  C   UNL A   1      34.123  33.159  29.828  1.00  0.00     0.040 A 
ATOM     75  F   UNL A   1      34.817  31.725  31.548  1.00  0.00    -0.206 F 
ATOM     76  C   UNL A   1      34.412  34.130  28.871  1.00  0.00     0.006 A 
ENDBRANCH  55  69
BRANCH  56  77
ATOM     77  C   UNL A   1      43.901  28.958  35.706  1.00  0.00     0.057 A 
ATOM     78  C   UNL A   1      43.711  27.905  36.608  1.00  0.00     0.134 A 
ATOM     79  C   UNL A   1      45.195  29.482  35.591  1.00  0.00     0.134 A 
ATOM     80  F   UNL A   1      42.489  27.382  36.787  1.00  0.00    -0.206 F 
ATOM     81  C   UNL A   1      44.761  27.404  37.380  1.00  0.00     0.040 A 
ATOM     82  C   UNL A   1      46.259  28.971  36.335  1.00  0.00     0.040 A 
ATOM     83  F   UNL A   1      45.444  30.497  34.751  1.00  0.00    -0.206 F 
ATOM     84  C   UNL A   1      46.042  27.934  37.239  1.00  0.00     0.006 A 
ENDBRANCH  56  77
BRANCH  68  85
ATOM     85  C   UNL A   1      39.254  33.967  37.080  1.00  0.00     0.057 A 
ATOM     86  C   UNL A   1      38.555  33.516  38.207  1.00  0.00     0.134 A 
ATOM     87  C   UNL A   1      39.788  35.263  37.130  1.00  0.00     0.134 A 
ATOM     88  F   UNL A   1      38.007  32.291  38.221  1.00  0.00    -0.206 F 
ATOM     89  C   UNL A   1      38.380  34.326  39.331  1.00  0.00     0.040 A 
ATOM     90  C   UNL A   1      39.644  36.070  38.259  1.00  0.00     0.040 A 
ATOM     91  F   UNL A   1      40.478  35.755  36.090  1.00  0.00    -0.206 F 
ATOM     92  C   UNL A   1      38.933  35.604  39.362  1.00  0.00     0.006 A 
ENDBRANCH  68  85
ENDBRANCH  42  43
ENDBRANCH  35  37
ENDBRANCH  34  35
ENDBRANCH  33  34
ENDBRANCH  32  33
ENDBRANCH  31  32
ENDBRANCH  30  31
ENDBRANCH   1  30
TORSDOF 20
ENDMDL
