MODEL 1
REMARK VINA RESULT:      -9.9      0.000      0.000
REMARK SMILES CCN(C(=O)Cc1c(C(=O)OCCOCCOCCOC(=O)c2ccc(-c3c4nc(c(-c5c(F)cccc5F)c5ccc([nH]5)c(-c5c(F)cccc5F)c5nc(c(-c6c(F)cccc6F)c6ccc3[nH]6)C=C5)C=C4)cc2)[nH]c2ccc(Cl)cc12)c1ccc(C)c(C)c1
REMARK SMILES IDX 15 1 14 2 13 3 12 4 11 5 9 6 10 7 8 8 7 9 84 10 77 11 78 12
REMARK SMILES IDX 83 13 79 15 81 16 80 17 82 18 6 19 4 20 5 21 3 22 2 23 1 24
REMARK SMILES IDX 85 25 86 26 92 27 87 28 90 29 88 30 91 31 89 32 16 33 17 34
REMARK SMILES IDX 18 35 19 36 20 37 21 38 22 39 23 40 24 41 76 42 25 43 75 44
REMARK SMILES IDX 26 45 27 46 28 47 69 48 29 49 74 50 68 51 70 52 30 53 73 54
REMARK SMILES IDX 67 55 66 56 31 58 57 59 40 60 56 61 41 62 44 63 55 64 71 65
REMARK SMILES IDX 42 66 43 67 54 69 72 70 45 71 32 72 33 73 38 74 34 75 35 76
REMARK SMILES IDX 37 77 39 78 36 79 58 80 59 81 64 82 60 83 61 84 63 85 65 86
REMARK SMILES IDX 62 87 46 88 47 89 52 90 48 91 49 92 51 93 53 94 50 95
REMARK H PARENT 77 14 70 57 44 68
REMARK Flexibility Score: inf
ROOT
ATOM      1  C   UNL A   1      38.404  24.067  26.418  1.00  0.00     0.188 C 
ENDROOT
BRANCH   1   2
ATOM      2  O   UNL A   1      37.046  23.674  26.365  1.00  0.00    -0.376 OA
BRANCH   2   3
ATOM      3  C   UNL A   1      36.445  23.204  25.174  1.00  0.00     0.202 C 
BRANCH   3   4
ATOM      4  C   UNL A   1      35.430  24.051  24.405  1.00  0.00     0.261 C 
BRANCH   4   5
ATOM      5  O   UNL A   1      34.066  23.667  24.572  1.00  0.00    -0.459 OA
BRANCH   5   6
ATOM      6  C   UNL A   1      33.507  23.989  25.766  1.00  0.00     0.355 C 
ATOM      7  O   UNL A   1      33.325  23.216  26.694  1.00  0.00    -0.244 OA
BRANCH   6   8
ATOM      8  C   UNL A   1      33.221  25.407  25.832  1.00  0.00     0.129 A 
ATOM      9  C   UNL A   1      32.067  26.153  25.597  1.00  0.00     0.002 A 
ATOM     10  C   UNL A   1      32.394  27.527  25.873  1.00  0.00     0.005 A 
ATOM     11  N   UNL A   1      34.194  26.284  26.252  1.00  0.00    -0.349 N 
ATOM     12  C   UNL A   1      33.724  27.569  26.283  1.00  0.00     0.046 A 
ATOM     13  C   UNL A   1      31.661  28.733  25.844  1.00  0.00     0.031 A 
ATOM     14  H   UNL A   1      35.110  26.022  26.500  1.00  0.00     0.167 HD
ATOM     15  C   UNL A   1      34.371  28.750  26.665  1.00  0.00     0.028 A 
ATOM     16  C   UNL A   1      32.291  29.919  26.237  1.00  0.00     0.041 A 
ATOM     17  C   UNL A   1      33.624  29.929  26.640  1.00  0.00     0.022 A 
ATOM     18  Cl  UNL A   1      31.399  31.393  26.235  1.00  0.00    -0.084 Cl
BRANCH   9  19
ATOM     19  C   UNL A   1      30.702  25.657  25.203  1.00  0.00     0.139 C 
BRANCH  19  20
ATOM     20  C   UNL A   1      30.638  25.224  23.738  1.00  0.00     0.231 C 
ATOM     21  O   UNL A   1      30.432  24.029  23.491  1.00  0.00    -0.274 OA
BRANCH  20  22
ATOM     22  N   UNL A   1      30.838  26.189  22.743  1.00  0.00    -0.312 N 
BRANCH  22  23
ATOM     23  C   UNL A   1      31.868  26.127  21.686  1.00  0.00     0.122 C 
ATOM     24  C   UNL A   1      33.314  26.091  22.172  1.00  0.00     0.028 C 
ENDBRANCH  22  23
BRANCH  22  25
ATOM     25  C   UNL A   1      30.179  27.448  22.831  1.00  0.00     0.044 A 
ATOM     26  C   UNL A   1      30.776  28.609  22.354  1.00  0.00     0.026 A 
ATOM     27  C   UNL A   1      28.853  27.490  23.264  1.00  0.00     0.030 A 
ATOM     28  C   UNL A   1      30.017  29.776  22.246  1.00  0.00     0.006 A 
ATOM     29  C   UNL A   1      28.062  28.633  23.118  1.00  0.00    -0.046 A 
ATOM     30  C   UNL A   1      28.653  29.795  22.601  1.00  0.00    -0.048 A 
ATOM     31  C   UNL A   1      26.616  28.542  23.511  1.00  0.00     0.044 C 
ATOM     32  C   UNL A   1      27.897  31.081  22.429  1.00  0.00     0.044 C 
ENDBRANCH  22  25
ENDBRANCH  20  22
ENDBRANCH  19  20
ENDBRANCH   9  19
ENDBRANCH   6   8
ENDBRANCH   5   6
ENDBRANCH   4   5
ENDBRANCH   3   4
ENDBRANCH   2   3
ENDBRANCH   1   2
BRANCH   1  33
ATOM     33  C   UNL A   1      39.531  23.089  26.820  1.00  0.00     0.188 C 
BRANCH  33  34
ATOM     34  O   UNL A   1      39.593  21.846  26.171  1.00  0.00    -0.376 OA
BRANCH  34  35
ATOM     35  C   UNL A   1      40.539  20.876  26.577  1.00  0.00     0.202 C 
BRANCH  35  36
ATOM     36  C   UNL A   1      42.016  20.811  26.130  1.00  0.00     0.261 C 
BRANCH  36  37
ATOM     37  O   UNL A   1      42.900  21.864  26.529  1.00  0.00    -0.460 OA
BRANCH  37  38
ATOM     38  C   UNL A   1      43.058  22.876  25.637  1.00  0.00     0.338 C 
ATOM     39  O   UNL A   1      43.151  22.779  24.426  1.00  0.00    -0.246 OA
BRANCH  38  40
ATOM     40  C   UNL A   1      42.882  24.176  26.325  1.00  0.00     0.060 A 
ATOM     41  C   UNL A   1      42.614  25.313  25.547  1.00  0.00     0.016 A 
ATOM     42  C   UNL A   1      43.001  24.289  27.712  1.00  0.00     0.016 A 
ATOM     43  C   UNL A   1      42.517  26.569  26.145  1.00  0.00     0.010 A 
ATOM     44  C   UNL A   1      42.926  25.554  28.309  1.00  0.00     0.010 A 
ATOM     45  C   UNL A   1      42.728  26.706  27.523  1.00  0.00    -0.014 A 
BRANCH  45  46
ATOM     46  C   UNL A   1      42.974  28.059  28.088  1.00  0.00     0.031 A 
ATOM     47  C   UNL A   1      41.808  28.807  28.681  1.00  0.00     0.074 A 
ATOM     48  C   UNL A   1      44.204  28.601  28.131  1.00  0.00     0.049 A 
ATOM     49  N   UNL A   1      41.772  29.991  29.241  1.00  0.00    -0.248 NA
ATOM     50  C   UNL A   1      40.505  28.125  28.635  1.00  0.00     0.031 C 
ATOM     51  C   UNL A   1      45.425  27.978  27.627  1.00  0.00     0.029 A 
ATOM     52  N   UNL A   1      44.625  29.813  28.628  1.00  0.00    -0.354 N 
ATOM     53  C   UNL A   1      40.445  30.194  29.608  1.00  0.00     0.074 A 
ATOM     54  C   UNL A   1      39.704  29.030  29.173  1.00  0.00     0.031 C 
ATOM     55  C   UNL A   1      46.458  28.815  27.834  1.00  0.00     0.029 A 
ATOM     56  C   UNL A   1      45.969  30.043  28.461  1.00  0.00     0.049 A 
ATOM     57  H   UNL A   1      44.018  30.456  29.062  1.00  0.00     0.167 HD
ATOM     58  C   UNL A   1      39.894  31.244  30.260  1.00  0.00     0.037 A 
ATOM     59  C   UNL A   1      46.713  31.124  28.768  1.00  0.00     0.037 A 
ATOM     60  C   UNL A   1      40.626  32.407  30.692  1.00  0.00     0.049 A 
ATOM     61  C   UNL A   1      46.063  32.313  29.432  1.00  0.00     0.074 A 
ATOM     62  C   UNL A   1      40.156  33.516  31.373  1.00  0.00     0.029 A 
ATOM     63  N   UNL A   1      41.979  32.615  30.474  1.00  0.00    -0.354 N 
ATOM     64  N   UNL A   1      44.817  32.479  29.805  1.00  0.00    -0.248 NA
ATOM     65  C   UNL A   1      46.933  33.462  29.729  1.00  0.00     0.031 C 
ATOM     66  C   UNL A   1      41.213  34.421  31.519  1.00  0.00     0.029 A 
ATOM     67  C   UNL A   1      42.356  33.847  30.986  1.00  0.00     0.049 A 
ATOM     68  H   UNL A   1      42.583  31.981  30.025  1.00  0.00     0.167 HD
ATOM     69  C   UNL A   1      44.761  33.733  30.406  1.00  0.00     0.074 A 
ATOM     70  C   UNL A   1      46.102  34.274  30.366  1.00  0.00     0.031 C 
ATOM     71  C   UNL A   1      43.695  34.378  30.944  1.00  0.00     0.037 A 
BRANCH  58  72
ATOM     72  C   UNL A   1      38.416  31.195  30.521  1.00  0.00     0.057 A 
ATOM     73  C   UNL A   1      37.879  30.532  31.633  1.00  0.00     0.134 A 
ATOM     74  C   UNL A   1      37.518  31.840  29.660  1.00  0.00     0.134 A 
ATOM     75  F   UNL A   1      38.681  29.880  32.488  1.00  0.00    -0.206 F 
ATOM     76  C   UNL A   1      36.503  30.490  31.863  1.00  0.00     0.040 A 
ATOM     77  C   UNL A   1      36.144  31.831  29.897  1.00  0.00     0.040 A 
ATOM     78  F   UNL A   1      37.965  32.496  28.579  1.00  0.00    -0.206 F 
ATOM     79  C   UNL A   1      35.631  31.148  30.998  1.00  0.00     0.006 A 
ENDBRANCH  58  72
BRANCH  59  80
ATOM     80  C   UNL A   1      48.164  31.151  28.446  1.00  0.00     0.057 A 
ATOM     81  C   UNL A   1      48.635  31.699  27.245  1.00  0.00     0.134 A 
ATOM     82  C   UNL A   1      49.111  30.586  29.307  1.00  0.00     0.134 A 
ATOM     83  F   UNL A   1      47.774  32.231  26.364  1.00  0.00    -0.206 F 
ATOM     84  C   UNL A   1      49.987  31.663  26.903  1.00  0.00     0.040 A 
ATOM     85  C   UNL A   1      50.472  30.570  28.993  1.00  0.00     0.040 A 
ATOM     86  F   UNL A   1      48.729  30.041  30.472  1.00  0.00    -0.206 F 
ATOM     87  C   UNL A   1      50.911  31.101  27.782  1.00  0.00     0.006 A 
ENDBRANCH  59  80
BRANCH  71  88
ATOM     88  C   UNL A   1      43.945  35.721  31.575  1.00  0.00     0.057 A 
ATOM     89  C   UNL A   1      44.234  35.863  32.938  1.00  0.00     0.134 A 
ATOM     90  C   UNL A   1      43.910  36.888  30.800  1.00  0.00     0.134 A 
ATOM     91  F   UNL A   1      44.275  34.788  33.741  1.00  0.00    -0.206 F 
ATOM     92  C   UNL A   1      44.439  37.118  33.515  1.00  0.00     0.040 A 
ATOM     93  C   UNL A   1      44.147  38.145  31.359  1.00  0.00     0.040 A 
ATOM     94  F   UNL A   1      43.653  36.827  29.485  1.00  0.00    -0.206 F 
ATOM     95  C   UNL A   1      44.399  38.264  32.724  1.00  0.00     0.006 A 
ENDBRANCH  71  88
ENDBRANCH  45  46
ENDBRANCH  38  40
ENDBRANCH  37  38
ENDBRANCH  36  37
ENDBRANCH  35  36
ENDBRANCH  34  35
ENDBRANCH  33  34
ENDBRANCH   1  33
TORSDOF 22
ENDMDL
MODEL 2
REMARK VINA RESULT:      -9.3      4.899     10.110
REMARK SMILES CCN(C(=O)Cc1c(C(=O)OCCOCCOCCOC(=O)c2ccc(-c3c4nc(c(-c5c(F)cccc5F)c5ccc([nH]5)c(-c5c(F)cccc5F)c5nc(c(-c6c(F)cccc6F)c6ccc3[nH]6)C=C5)C=C4)cc2)[nH]c2ccc(Cl)cc12)c1ccc(C)c(C)c1
REMARK SMILES IDX 15 1 14 2 13 3 12 4 11 5 9 6 10 7 8 8 7 9 84 10 77 11 78 12
REMARK SMILES IDX 83 13 79 15 81 16 80 17 82 18 6 19 4 20 5 21 3 22 2 23 1 24
REMARK SMILES IDX 85 25 86 26 92 27 87 28 90 29 88 30 91 31 89 32 16 33 17 34
REMARK SMILES IDX 18 35 19 36 20 37 21 38 22 39 23 40 24 41 76 42 25 43 75 44
REMARK SMILES IDX 26 45 27 46 28 47 69 48 29 49 74 50 68 51 70 52 30 53 73 54
REMARK SMILES IDX 67 55 66 56 31 58 57 59 40 60 56 61 41 62 44 63 55 64 71 65
REMARK SMILES IDX 42 66 43 67 54 69 72 70 45 71 32 72 33 73 38 74 34 75 35 76
REMARK SMILES IDX 37 77 39 78 36 79 58 80 59 81 64 82 60 83 61 84 63 85 65 86
REMARK SMILES IDX 62 87 46 88 47 89 52 90 48 91 49 92 51 93 53 94 50 95
REMARK H PARENT 77 14 70 57 44 68
REMARK Flexibility Score: inf
ROOT
ATOM      1  C   UNL A   1      40.202  29.201  28.408  1.00  0.00     0.188 C 
ENDROOT
BRANCH   1   2
ATOM      2  O   UNL A   1      38.995  29.935  28.492  1.00  0.00    -0.376 OA
BRANCH   2   3
ATOM      3  C   UNL A   1      37.729  29.322  28.346  1.00  0.00     0.202 C 
BRANCH   3   4
ATOM      4  C   UNL A   1      36.568  30.045  27.661  1.00  0.00     0.261 C 
BRANCH   4   5
ATOM      5  O   UNL A   1      36.168  31.271  28.274  1.00  0.00    -0.459 OA
BRANCH   5   6
ATOM      6  C   UNL A   1      34.831  31.508  28.295  1.00  0.00     0.355 C 
ATOM      7  O   UNL A   1      33.986  30.848  27.708  1.00  0.00    -0.244 OA
BRANCH   6   8
ATOM      8  C   UNL A   1      34.519  32.611  29.178  1.00  0.00     0.129 A 
ATOM      9  C   UNL A   1      34.754  32.835  30.535  1.00  0.00     0.002 A 
ATOM     10  C   UNL A   1      34.248  34.147  30.836  1.00  0.00     0.005 A 
ATOM     11  N   UNL A   1      33.920  33.743  28.677  1.00  0.00    -0.349 N 
ATOM     12  C   UNL A   1      33.742  34.685  29.655  1.00  0.00     0.046 A 
ATOM     13  C   UNL A   1      34.211  34.939  32.004  1.00  0.00     0.031 A 
ATOM     14  H   UNL A   1      33.655  33.862  27.737  1.00  0.00     0.167 HD
ATOM     15  C   UNL A   1      33.195  35.970  29.571  1.00  0.00     0.028 A 
ATOM     16  C   UNL A   1      33.680  36.231  31.932  1.00  0.00     0.041 A 
ATOM     17  C   UNL A   1      33.179  36.739  30.737  1.00  0.00     0.022 A 
ATOM     18  Cl  UNL A   1      33.657  37.218  33.343  1.00  0.00    -0.084 Cl
BRANCH   9  19
ATOM     19  C   UNL A   1      35.462  31.940  31.516  1.00  0.00     0.139 C 
BRANCH  19  20
ATOM     20  C   UNL A   1      36.974  32.167  31.530  1.00  0.00     0.231 C 
ATOM     21  O   UNL A   1      37.709  31.220  31.222  1.00  0.00    -0.274 OA
BRANCH  20  22
ATOM     22  N   UNL A   1      37.461  33.423  31.913  1.00  0.00    -0.312 N 
BRANCH  22  23
ATOM     23  C   UNL A   1      38.040  34.430  31.001  1.00  0.00     0.122 C 
ATOM     24  C   UNL A   1      37.958  34.100  29.513  1.00  0.00     0.028 C 
ENDBRANCH  22  23
BRANCH  22  25
ATOM     25  C   UNL A   1      37.638  33.725  33.292  1.00  0.00     0.044 A 
ATOM     26  C   UNL A   1      36.601  33.567  34.205  1.00  0.00     0.026 A 
ATOM     27  C   UNL A   1      38.915  34.040  33.760  1.00  0.00     0.030 A 
ATOM     28  C   UNL A   1      36.871  33.651  35.572  1.00  0.00     0.006 A 
ATOM     29  C   UNL A   1      39.216  34.079  35.124  1.00  0.00    -0.046 A 
ATOM     30  C   UNL A   1      38.177  33.882  36.045  1.00  0.00    -0.048 A 
ATOM     31  C   UNL A   1      40.645  34.315  35.521  1.00  0.00     0.044 C 
ATOM     32  C   UNL A   1      38.392  33.930  37.530  1.00  0.00     0.044 C 
ENDBRANCH  22  25
ENDBRANCH  20  22
ENDBRANCH  19  20
ENDBRANCH   9  19
ENDBRANCH   6   8
ENDBRANCH   5   6
ENDBRANCH   4   5
ENDBRANCH   3   4
ENDBRANCH   2   3
ENDBRANCH   1   2
BRANCH   1  33
ATOM     33  C   UNL A   1      40.609  28.427  27.134  1.00  0.00     0.188 C 
BRANCH  33  34
ATOM     34  O   UNL A   1      40.034  27.166  26.912  1.00  0.00    -0.376 OA
BRANCH  34  35
ATOM     35  C   UNL A   1      39.827  26.276  27.992  1.00  0.00     0.202 C 
BRANCH  35  36
ATOM     36  C   UNL A   1      39.904  24.736  27.921  1.00  0.00     0.261 C 
BRANCH  36  37
ATOM     37  O   UNL A   1      41.173  24.103  28.117  1.00  0.00    -0.460 OA
BRANCH  37  38
ATOM     38  C   UNL A   1      41.849  23.762  26.989  1.00  0.00     0.338 C 
ATOM     39  O   UNL A   1      41.476  23.003  26.112  1.00  0.00    -0.246 OA
BRANCH  38  40
ATOM     40  C   UNL A   1      43.045  24.624  26.848  1.00  0.00     0.060 A 
ATOM     41  C   UNL A   1      43.731  25.010  28.010  1.00  0.00     0.016 A 
ATOM     42  C   UNL A   1      43.479  25.068  25.597  1.00  0.00     0.016 A 
ATOM     43  C   UNL A   1      44.817  25.882  27.929  1.00  0.00     0.010 A 
ATOM     44  C   UNL A   1      44.556  25.962  25.520  1.00  0.00     0.010 A 
ATOM     45  C   UNL A   1      45.201  26.408  26.689  1.00  0.00    -0.014 A 
BRANCH  45  46
ATOM     46  C   UNL A   1      46.107  27.587  26.652  1.00  0.00     0.031 A 
ATOM     47  C   UNL A   1      47.587  27.344  26.503  1.00  0.00     0.074 A 
ATOM     48  C   UNL A   1      45.639  28.848  26.691  1.00  0.00     0.049 A 
ATOM     49  N   UNL A   1      48.572  28.205  26.434  1.00  0.00    -0.248 NA
ATOM     50  C   UNL A   1      48.012  25.937  26.420  1.00  0.00     0.031 C 
ATOM     51  C   UNL A   1      44.234  29.229  26.799  1.00  0.00     0.029 A 
ATOM     52  N   UNL A   1      46.311  30.047  26.645  1.00  0.00    -0.354 N 
ATOM     53  C   UNL A   1      49.729  27.444  26.305  1.00  0.00     0.074 A 
ATOM     54  C   UNL A   1      49.328  26.054  26.344  1.00  0.00     0.031 C 
ATOM     55  C   UNL A   1      44.147  30.572  26.819  1.00  0.00     0.029 A 
ATOM     56  C   UNL A   1      45.492  31.144  26.750  1.00  0.00     0.049 A 
ATOM     57  H   UNL A   1      47.289  30.112  26.547  1.00  0.00     0.167 HD
ATOM     58  C   UNL A   1      51.008  27.859  26.154  1.00  0.00     0.037 A 
ATOM     59  C   UNL A   1      45.795  32.456  26.798  1.00  0.00     0.037 A 
ATOM     60  C   UNL A   1      51.416  29.240  26.118  1.00  0.00     0.049 A 
ATOM     61  C   UNL A   1      47.236  32.894  26.696  1.00  0.00     0.074 A 
ATOM     62  C   UNL A   1      52.688  29.759  25.953  1.00  0.00     0.029 A 
ATOM     63  N   UNL A   1      50.558  30.320  26.260  1.00  0.00    -0.354 N 
ATOM     64  N   UNL A   1      48.316  32.168  26.541  1.00  0.00    -0.248 NA
ATOM     65  C   UNL A   1      47.494  34.341  26.766  1.00  0.00     0.031 C 
ATOM     66  C   UNL A   1      52.608  31.152  26.052  1.00  0.00     0.029 A 
ATOM     67  C   UNL A   1      51.278  31.504  26.213  1.00  0.00     0.049 A 
ATOM     68  H   UNL A   1      49.583  30.256  26.377  1.00  0.00     0.167 HD
ATOM     69  C   UNL A   1      49.375  33.068  26.463  1.00  0.00     0.074 A 
ATOM     70  C   UNL A   1      48.803  34.394  26.567  1.00  0.00     0.031 C 
ATOM     71  C   UNL A   1      50.701  32.820  26.315  1.00  0.00     0.037 A 
BRANCH  58  72
ATOM     72  C   UNL A   1      52.069  26.801  26.044  1.00  0.00     0.057 A 
ATOM     73  C   UNL A   1      52.810  26.374  27.154  1.00  0.00     0.134 A 
ATOM     74  C   UNL A   1      52.336  26.184  24.815  1.00  0.00     0.134 A 
ATOM     75  F   UNL A   1      52.617  26.935  28.357  1.00  0.00    -0.206 F 
ATOM     76  C   UNL A   1      53.797  25.393  27.039  1.00  0.00     0.040 A 
ATOM     77  C   UNL A   1      53.297  25.181  24.694  1.00  0.00     0.040 A 
ATOM     78  F   UNL A   1      51.661  26.543  23.713  1.00  0.00    -0.206 F 
ATOM     79  C   UNL A   1      54.037  24.787  25.807  1.00  0.00     0.006 A 
ENDBRANCH  58  72
BRANCH  59  80
ATOM     80  C   UNL A   1      44.718  33.469  26.959  1.00  0.00     0.057 A 
ATOM     81  C   UNL A   1      44.096  34.056  25.849  1.00  0.00     0.134 A 
ATOM     82  C   UNL A   1      44.319  33.911  28.226  1.00  0.00     0.134 A 
ATOM     83  F   UNL A   1      44.454  33.696  24.608  1.00  0.00    -0.206 F 
ATOM     84  C   UNL A   1      43.136  35.059  25.992  1.00  0.00     0.040 A 
ATOM     85  C   UNL A   1      43.338  34.892  28.385  1.00  0.00     0.040 A 
ATOM     86  F   UNL A   1      44.876  33.393  29.331  1.00  0.00    -0.206 F 
ATOM     87  C   UNL A   1      42.751  35.476  27.265  1.00  0.00     0.006 A 
ENDBRANCH  59  80
BRANCH  71  88
ATOM     88  C   UNL A   1      51.619  34.007  26.213  1.00  0.00     0.057 A 
ATOM     89  C   UNL A   1      52.136  34.650  27.345  1.00  0.00     0.134 A 
ATOM     90  C   UNL A   1      52.003  34.505  24.960  1.00  0.00     0.134 A 
ATOM     91  F   UNL A   1      51.804  34.233  28.577  1.00  0.00    -0.206 F 
ATOM     92  C   UNL A   1      52.967  35.767  27.236  1.00  0.00     0.040 A 
ATOM     93  C   UNL A   1      52.860  35.599  24.838  1.00  0.00     0.040 A 
ATOM     94  F   UNL A   1      51.557  33.930  23.833  1.00  0.00    -0.206 F 
ATOM     95  C   UNL A   1      53.335  36.243  25.979  1.00  0.00     0.006 A 
ENDBRANCH  71  88
ENDBRANCH  45  46
ENDBRANCH  38  40
ENDBRANCH  37  38
ENDBRANCH  36  37
ENDBRANCH  35  36
ENDBRANCH  34  35
ENDBRANCH  33  34
ENDBRANCH   1  33
TORSDOF 22
ENDMDL
MODEL 3
REMARK VINA RESULT:      -9.2      6.356     12.681
REMARK SMILES CCN(C(=O)Cc1c(C(=O)OCCOCCOCCOC(=O)c2ccc(-c3c4nc(c(-c5c(F)cccc5F)c5ccc([nH]5)c(-c5c(F)cccc5F)c5nc(c(-c6c(F)cccc6F)c6ccc3[nH]6)C=C5)C=C4)cc2)[nH]c2ccc(Cl)cc12)c1ccc(C)c(C)c1
REMARK SMILES IDX 15 1 14 2 13 3 12 4 11 5 9 6 10 7 8 8 7 9 84 10 77 11 78 12
REMARK SMILES IDX 83 13 79 15 81 16 80 17 82 18 6 19 4 20 5 21 3 22 2 23 1 24
REMARK SMILES IDX 85 25 86 26 92 27 87 28 90 29 88 30 91 31 89 32 16 33 17 34
REMARK SMILES IDX 18 35 19 36 20 37 21 38 22 39 23 40 24 41 76 42 25 43 75 44
REMARK SMILES IDX 26 45 27 46 28 47 69 48 29 49 74 50 68 51 70 52 30 53 73 54
REMARK SMILES IDX 67 55 66 56 31 58 57 59 40 60 56 61 41 62 44 63 55 64 71 65
REMARK SMILES IDX 42 66 43 67 54 69 72 70 45 71 32 72 33 73 38 74 34 75 35 76
REMARK SMILES IDX 37 77 39 78 36 79 58 80 59 81 64 82 60 83 61 84 63 85 65 86
REMARK SMILES IDX 62 87 46 88 47 89 52 90 48 91 49 92 51 93 53 94 50 95
REMARK H PARENT 77 14 70 57 44 68
REMARK Flexibility Score: inf
ROOT
ATOM      1  C   UNL A   1      40.064  33.325  37.229  1.00  0.00     0.188 C 
ENDROOT
BRANCH   1   2
ATOM      2  O   UNL A   1      41.409  32.962  36.983  1.00  0.00    -0.376 OA
BRANCH   2   3
ATOM      3  C   UNL A   1      42.071  31.965  37.737  1.00  0.00     0.202 C 
BRANCH   3   4
ATOM      4  C   UNL A   1      42.856  30.842  37.058  1.00  0.00     0.261 C 
BRANCH   4   5
ATOM      5  O   UNL A   1      42.338  30.411  35.800  1.00  0.00    -0.459 OA
BRANCH   5   6
ATOM      6  C   UNL A   1      41.358  29.473  35.859  1.00  0.00     0.355 C 
ATOM      7  O   UNL A   1      40.185  29.690  36.123  1.00  0.00    -0.244 OA
BRANCH   6   8
ATOM      8  C   UNL A   1      41.871  28.172  35.485  1.00  0.00     0.129 A 
ATOM      9  C   UNL A   1      43.011  27.766  34.790  1.00  0.00     0.002 A 
ATOM     10  C   UNL A   1      43.000  26.328  34.774  1.00  0.00     0.005 A 
ATOM     11  N   UNL A   1      41.215  27.034  35.890  1.00  0.00    -0.349 N 
ATOM     12  C   UNL A   1      41.872  25.907  35.473  1.00  0.00     0.046 A 
ATOM     13  C   UNL A   1      43.874  25.348  34.257  1.00  0.00     0.031 A 
ATOM     14  H   UNL A   1      40.382  27.029  36.414  1.00  0.00     0.167 HD
ATOM     15  C   UNL A   1      41.559  24.560  35.685  1.00  0.00     0.028 A 
ATOM     16  C   UNL A   1      43.582  23.996  34.473  1.00  0.00     0.041 A 
ATOM     17  C   UNL A   1      42.444  23.607  35.174  1.00  0.00     0.022 A 
ATOM     18  Cl  UNL A   1      44.657  22.791  33.873  1.00  0.00    -0.084 Cl
BRANCH   9  19
ATOM     19  C   UNL A   1      44.104  28.625  34.215  1.00  0.00     0.139 C 
BRANCH  19  20
ATOM     20  C   UNL A   1      43.819  29.048  32.774  1.00  0.00     0.231 C 
ATOM     21  O   UNL A   1      42.824  29.751  32.558  1.00  0.00    -0.274 OA
BRANCH  20  22
ATOM     22  N   UNL A   1      44.678  28.603  31.761  1.00  0.00    -0.312 N 
BRANCH  22  23
ATOM     23  C   UNL A   1      44.283  27.759  30.614  1.00  0.00     0.122 C 
ATOM     24  C   UNL A   1      43.820  26.346  30.960  1.00  0.00     0.028 C 
ENDBRANCH  22  23
BRANCH  22  25
ATOM     25  C   UNL A   1      46.085  28.759  31.903  1.00  0.00     0.044 A 
ATOM     26  C   UNL A   1      46.855  27.802  32.555  1.00  0.00     0.026 A 
ATOM     27  C   UNL A   1      46.721  29.813  31.246  1.00  0.00     0.030 A 
ATOM     28  C   UNL A   1      48.247  27.870  32.476  1.00  0.00     0.006 A 
ATOM     29  C   UNL A   1      48.111  29.873  31.113  1.00  0.00    -0.046 A 
ATOM     30  C   UNL A   1      48.887  28.886  31.738  1.00  0.00    -0.048 A 
ATOM     31  C   UNL A   1      48.691  30.988  30.290  1.00  0.00     0.044 C 
ATOM     32  C   UNL A   1      50.387  28.876  31.677  1.00  0.00     0.044 C 
ENDBRANCH  22  25
ENDBRANCH  20  22
ENDBRANCH  19  20
ENDBRANCH   9  19
ENDBRANCH   6   8
ENDBRANCH   5   6
ENDBRANCH   4   5
ENDBRANCH   3   4
ENDBRANCH   2   3
ENDBRANCH   1   2
BRANCH   1  33
ATOM     33  C   UNL A   1      39.404  34.550  36.558  1.00  0.00     0.188 C 
BRANCH  33  34
ATOM     34  O   UNL A   1      39.552  34.706  35.171  1.00  0.00    -0.376 OA
BRANCH  34  35
ATOM     35  C   UNL A   1      38.577  34.186  34.287  1.00  0.00     0.202 C 
BRANCH  35  36
ATOM     36  C   UNL A   1      37.117  33.841  34.653  1.00  0.00     0.261 C 
BRANCH  36  37
ATOM     37  O   UNL A   1      36.661  32.498  34.458  1.00  0.00    -0.460 OA
BRANCH  37  38
ATOM     38  C   UNL A   1      36.053  32.243  33.271  1.00  0.00     0.338 C 
ATOM     39  O   UNL A   1      35.005  32.716  32.867  1.00  0.00    -0.246 OA
BRANCH  38  40
ATOM     40  C   UNL A   1      36.962  31.454  32.407  1.00  0.00     0.060 A 
ATOM     41  C   UNL A   1      37.923  30.636  33.020  1.00  0.00     0.016 A 
ATOM     42  C   UNL A   1      36.891  31.529  31.015  1.00  0.00     0.016 A 
ATOM     43  C   UNL A   1      38.848  29.935  32.246  1.00  0.00     0.010 A 
ATOM     44  C   UNL A   1      37.835  30.843  30.240  1.00  0.00     0.010 A 
ATOM     45  C   UNL A   1      38.846  30.078  30.853  1.00  0.00    -0.014 A 
BRANCH  45  46
ATOM     46  C   UNL A   1      40.030  29.625  30.077  1.00  0.00     0.031 A 
ATOM     47  C   UNL A   1      41.152  30.605  29.848  1.00  0.00     0.074 A 
ATOM     48  C   UNL A   1      40.148  28.362  29.628  1.00  0.00     0.049 A 
ATOM     49  N   UNL A   1      42.287  30.444  29.215  1.00  0.00    -0.248 NA
ATOM     50  C   UNL A   1      40.964  31.952  30.411  1.00  0.00     0.031 C 
ATOM     51  C   UNL A   1      39.160  27.302  29.807  1.00  0.00     0.029 A 
ATOM     52  N   UNL A   1      41.163  27.760  28.923  1.00  0.00    -0.354 N 
ATOM     53  C   UNL A   1      42.943  31.667  29.301  1.00  0.00     0.074 A 
ATOM     54  C   UNL A   1      42.064  32.570  30.012  1.00  0.00     0.031 C 
ATOM     55  C   UNL A   1      39.614  26.179  29.219  1.00  0.00     0.029 A 
ATOM     56  C   UNL A   1      40.913  26.449  28.602  1.00  0.00     0.049 A 
ATOM     57  H   UNL A   1      41.993  28.227  28.671  1.00  0.00     0.167 HD
ATOM     58  C   UNL A   1      44.171  32.008  28.843  1.00  0.00     0.037 A 
ATOM     59  C   UNL A   1      41.642  25.572  27.883  1.00  0.00     0.037 A 
ATOM     60  C   UNL A   1      45.049  31.116  28.130  1.00  0.00     0.049 A 
ATOM     61  C   UNL A   1      42.978  25.996  27.323  1.00  0.00     0.074 A 
ATOM     62  C   UNL A   1      46.319  31.367  27.640  1.00  0.00     0.029 A 
ATOM     63  N   UNL A   1      44.743  29.805  27.798  1.00  0.00    -0.354 N 
ATOM     64  N   UNL A   1      43.603  27.143  27.439  1.00  0.00    -0.248 NA
ATOM     65  C   UNL A   1      43.715  24.992  26.539  1.00  0.00     0.031 C 
ATOM     66  C   UNL A   1      46.759  30.225  26.962  1.00  0.00     0.029 A 
ATOM     67  C   UNL A   1      45.791  29.242  27.086  1.00  0.00     0.049 A 
ATOM     68  H   UNL A   1      43.907  29.343  28.033  1.00  0.00     0.167 HD
ATOM     69  C   UNL A   1      44.815  26.988  26.774  1.00  0.00     0.074 A 
ATOM     70  C   UNL A   1      44.845  25.630  26.274  1.00  0.00     0.031 C 
ATOM     71  C   UNL A   1      45.814  27.888  26.594  1.00  0.00     0.037 A 
BRANCH  58  72
ATOM     72  C   UNL A   1      44.626  33.420  29.075  1.00  0.00     0.057 A 
ATOM     73  C   UNL A   1      44.346  34.450  28.167  1.00  0.00     0.134 A 
ATOM     74  C   UNL A   1      45.334  33.759  30.236  1.00  0.00     0.134 A 
ATOM     75  F   UNL A   1      43.687  34.191  27.027  1.00  0.00    -0.206 F 
ATOM     76  C   UNL A   1      44.778  35.759  28.391  1.00  0.00     0.040 A 
ATOM     77  C   UNL A   1      45.743  35.069  30.486  1.00  0.00     0.040 A 
ATOM     78  F   UNL A   1      45.632  32.823  31.149  1.00  0.00    -0.206 F 
ATOM     79  C   UNL A   1      45.472  36.072  29.558  1.00  0.00     0.006 A 
ENDBRANCH  58  72
BRANCH  59  80
ATOM     80  C   UNL A   1      41.130  24.199  27.633  1.00  0.00     0.057 A 
ATOM     81  C   UNL A   1      41.665  23.088  28.299  1.00  0.00     0.134 A 
ATOM     82  C   UNL A   1      40.129  23.957  26.684  1.00  0.00     0.134 A 
ATOM     83  F   UNL A   1      42.646  23.251  29.199  1.00  0.00    -0.206 F 
ATOM     84  C   UNL A   1      41.240  21.789  28.017  1.00  0.00     0.040 A 
ATOM     85  C   UNL A   1      39.673  22.665  26.413  1.00  0.00     0.040 A 
ATOM     86  F   UNL A   1      39.576  24.974  26.008  1.00  0.00    -0.206 F 
ATOM     87  C   UNL A   1      40.237  21.576  27.074  1.00  0.00     0.006 A 
ENDBRANCH  59  80
BRANCH  71  88
ATOM     88  C   UNL A   1      47.044  27.420  25.864  1.00  0.00     0.057 A 
ATOM     89  C   UNL A   1      48.126  26.830  26.529  1.00  0.00     0.134 A 
ATOM     90  C   UNL A   1      47.138  27.549  24.472  1.00  0.00     0.134 A 
ATOM     91  F   UNL A   1      48.108  26.682  27.863  1.00  0.00    -0.206 F 
ATOM     92  C   UNL A   1      49.272  26.423  25.842  1.00  0.00     0.040 A 
ATOM     93  C   UNL A   1      48.264  27.116  23.770  1.00  0.00     0.040 A 
ATOM     94  F   UNL A   1      46.133  28.093  23.768  1.00  0.00    -0.206 F 
ATOM     95  C   UNL A   1      49.342  26.562  24.457  1.00  0.00     0.006 A 
ENDBRANCH  71  88
ENDBRANCH  45  46
ENDBRANCH  38  40
ENDBRANCH  37  38
ENDBRANCH  36  37
ENDBRANCH  35  36
ENDBRANCH  34  35
ENDBRANCH  33  34
ENDBRANCH   1  33
TORSDOF 22
ENDMDL
