MODEL 1
REMARK VINA RESULT:     -11.0      0.000      0.000
REMARK SMILES COc1ccc(-c2ccc(S(=O)(=O)NC(C)(C)C)cc2)c(C(=O)OCCOCCOCCOC(=O)c2ccc(-c3c4nc(c(-c5c(F)cccc5F)c5ccc([nH]5)c(-c5c(F)cccc5F)c5nc(c(-c6c(F)cccc6F)c6ccc3[nH]6)C=C5)C=C4)cc2)c1
REMARK SMILES IDX 28 1 27 2 26 3 25 4 24 5 22 6 23 7 21 8 3 9 4 10 90 11 5 12
REMARK SMILES IDX 6 13 2 14 1 15 7 16 8 17 20 18 9 19 19 20 10 21 11 22 12 23
REMARK SMILES IDX 13 24 14 25 15 27 16 28 17 29 18 30 29 31 30 32 31 33 32 34
REMARK SMILES IDX 33 35 34 36 35 37 36 38 37 39 89 40 38 41 88 42 39 43 40 44
REMARK SMILES IDX 41 45 82 46 42 47 87 48 81 49 83 50 43 51 86 52 80 53 79 54
REMARK SMILES IDX 44 56 70 57 53 58 69 59 54 60 57 61 68 62 84 63 55 64 56 65
REMARK SMILES IDX 67 67 85 68 58 69 45 70 46 71 51 72 47 73 48 74 50 75 52 76
REMARK SMILES IDX 49 77 71 78 72 79 77 80 73 81 74 82 76 83 78 84 75 85 59 86
REMARK SMILES IDX 60 87 65 88 61 89 62 90 64 91 66 92 63 93
REMARK H PARENT 14 26 83 55 57 66
REMARK Flexibility Score: inf
ROOT
ATOM      1  C   UNL A   1      40.801  20.793  27.648  1.00  0.00     0.188 C 
ENDROOT
BRANCH   1   2
ATOM      2  O   UNL A   1      40.058  21.928  27.222  1.00  0.00    -0.376 OA
BRANCH   2   3
ATOM      3  C   UNL A   1      39.370  21.725  25.987  1.00  0.00     0.202 C 
BRANCH   3   4
ATOM      4  C   UNL A   1      38.191  22.685  25.829  1.00  0.00     0.261 C 
BRANCH   4   5
ATOM      5  O   UNL A   1      36.919  22.038  25.629  1.00  0.00    -0.460 OA
BRANCH   5   6
ATOM      6  C   UNL A   1      36.275  22.190  24.442  1.00  0.00     0.338 C 
ATOM      7  O   UNL A   1      36.742  22.698  23.450  1.00  0.00    -0.246 OA
BRANCH   6   8
ATOM      8  C   UNL A   1      34.912  21.558  24.567  1.00  0.00     0.071 A 
ATOM      9  C   UNL A   1      33.635  19.508  24.921  1.00  0.00     0.119 A 
ATOM     10  C   UNL A   1      32.457  20.238  24.774  1.00  0.00     0.047 A 
ATOM     11  C   UNL A   1      34.856  20.169  24.834  1.00  0.00     0.062 A 
ATOM     12  C   UNL A   1      32.494  21.615  24.525  1.00  0.00     0.013 A 
ATOM     13  C   UNL A   1      33.714  22.303  24.395  1.00  0.00    -0.004 A 
BRANCH   9  14
ATOM     14  O   UNL A   1      33.454  18.168  25.118  1.00  0.00    -0.497 OA
ATOM     15  C   UNL A   1      32.234  17.598  24.657  1.00  0.00     0.278 C 
ENDBRANCH   9  14
BRANCH  13  16
ATOM     16  C   UNL A   1      33.684  23.714  23.957  1.00  0.00    -0.017 A 
ATOM     17  C   UNL A   1      33.480  24.110  22.630  1.00  0.00     0.010 A 
ATOM     18  C   UNL A   1      33.894  24.723  24.903  1.00  0.00     0.010 A 
ATOM     19  C   UNL A   1      33.432  25.475  22.294  1.00  0.00     0.022 A 
ATOM     20  C   UNL A   1      33.713  26.072  24.607  1.00  0.00     0.022 A 
ATOM     21  C   UNL A   1      33.524  26.456  23.292  1.00  0.00     0.082 A 
BRANCH  21  22
ATOM     22  S   UNL A   1      33.444  28.169  22.828  1.00  0.00     0.241 S 
ATOM     23  O   UNL A   1      33.671  28.943  24.023  1.00  0.00    -0.207 OA
ATOM     24  O   UNL A   1      34.328  28.304  21.688  1.00  0.00    -0.207 OA
BRANCH  22  25
ATOM     25  N   UNL A   1      31.917  28.511  22.208  1.00  0.00    -0.206 NA
ATOM     26  H   UNL A   1      31.717  27.732  21.581  1.00  0.00     0.141 HD
BRANCH  25  27
ATOM     27  C   UNL A   1      30.645  28.734  22.937  1.00  0.00     0.025 C 
ATOM     28  C   UNL A   1      29.634  29.602  22.195  1.00  0.00     0.028 C 
ATOM     29  C   UNL A   1      29.991  27.357  23.171  1.00  0.00     0.028 C 
ATOM     30  C   UNL A   1      30.910  29.307  24.311  1.00  0.00     0.028 C 
ENDBRANCH  25  27
ENDBRANCH  22  25
ENDBRANCH  21  22
ENDBRANCH  13  16
ENDBRANCH   6   8
ENDBRANCH   5   6
ENDBRANCH   4   5
ENDBRANCH   3   4
ENDBRANCH   2   3
ENDBRANCH   1   2
BRANCH   1  31
ATOM     31  C   UNL A   1      42.319  20.905  27.415  1.00  0.00     0.188 C 
BRANCH  31  32
ATOM     32  O   UNL A   1      42.937  20.232  26.326  1.00  0.00    -0.376 OA
BRANCH  32  33
ATOM     33  C   UNL A   1      43.565  21.009  25.325  1.00  0.00     0.202 C 
BRANCH  33  34
ATOM     34  C   UNL A   1      44.970  21.542  25.642  1.00  0.00     0.261 C 
BRANCH  34  35
ATOM     35  O   UNL A   1      45.017  22.815  26.309  1.00  0.00    -0.460 OA
BRANCH  35  36
ATOM     36  C   UNL A   1      44.743  23.892  25.530  1.00  0.00     0.338 C 
ATOM     37  O   UNL A   1      44.971  24.023  24.342  1.00  0.00    -0.246 OA
BRANCH  36  38
ATOM     38  C   UNL A   1      44.044  24.914  26.343  1.00  0.00     0.060 A 
ATOM     39  C   UNL A   1      44.541  26.226  26.408  1.00  0.00     0.016 A 
ATOM     40  C   UNL A   1      42.946  24.554  27.115  1.00  0.00     0.016 A 
ATOM     41  C   UNL A   1      43.953  27.177  27.262  1.00  0.00     0.010 A 
ATOM     42  C   UNL A   1      42.384  25.498  27.980  1.00  0.00     0.010 A 
ATOM     43  C   UNL A   1      42.880  26.822  28.086  1.00  0.00    -0.014 A 
BRANCH  43  44
ATOM     44  C   UNL A   1      42.331  27.725  29.160  1.00  0.00     0.031 A 
ATOM     45  C   UNL A   1      42.804  27.500  30.580  1.00  0.00     0.074 A 
ATOM     46  C   UNL A   1      41.387  28.673  28.960  1.00  0.00     0.049 A 
ATOM     47  N   UNL A   1      42.348  27.998  31.704  1.00  0.00    -0.248 NA
ATOM     48  C   UNL A   1      43.932  26.571  30.752  1.00  0.00     0.031 C 
ATOM     49  C   UNL A   1      40.816  29.078  27.677  1.00  0.00     0.029 A 
ATOM     50  N   UNL A   1      40.667  29.413  29.881  1.00  0.00    -0.354 N 
ATOM     51  C   UNL A   1      43.164  27.476  32.697  1.00  0.00     0.074 A 
ATOM     52  C   UNL A   1      44.021  26.496  32.068  1.00  0.00     0.031 C 
ATOM     53  C   UNL A   1      39.751  29.872  27.899  1.00  0.00     0.029 A 
ATOM     54  C   UNL A   1      39.569  30.048  29.337  1.00  0.00     0.049 A 
ATOM     55  H   UNL A   1      40.913  29.481  30.832  1.00  0.00     0.167 HD
ATOM     56  C   UNL A   1      43.280  27.842  33.997  1.00  0.00     0.037 A 
ATOM     57  C   UNL A   1      38.510  30.647  29.925  1.00  0.00     0.037 A 
ATOM     58  C   UNL A   1      42.457  28.823  34.647  1.00  0.00     0.049 A 
ATOM     59  C   UNL A   1      38.503  30.887  31.407  1.00  0.00     0.074 A 
ATOM     60  C   UNL A   1      42.568  29.332  35.930  1.00  0.00     0.029 A 
ATOM     61  N   UNL A   1      41.356  29.431  34.070  1.00  0.00    -0.354 N 
ATOM     62  N   UNL A   1      39.348  30.476  32.317  1.00  0.00    -0.248 NA
ATOM     63  C   UNL A   1      37.428  31.749  31.928  1.00  0.00     0.031 C 
ATOM     64  C   UNL A   1      41.504  30.217  36.143  1.00  0.00     0.029 A 
ATOM     65  C   UNL A   1      40.762  30.293  34.977  1.00  0.00     0.049 A 
ATOM     66  H   UNL A   1      41.042  29.274  33.150  1.00  0.00     0.167 HD
ATOM     67  C   UNL A   1      38.965  31.104  33.496  1.00  0.00     0.074 A 
ATOM     68  C   UNL A   1      37.777  31.874  33.200  1.00  0.00     0.031 C 
ATOM     69  C   UNL A   1      39.590  31.081  34.698  1.00  0.00     0.037 A 
BRANCH  56  70
ATOM     70  C   UNL A   1      44.400  27.207  34.766  1.00  0.00     0.057 A 
ATOM     71  C   UNL A   1      44.192  26.036  35.515  1.00  0.00     0.134 A 
ATOM     72  C   UNL A   1      45.678  27.771  34.792  1.00  0.00     0.134 A 
ATOM     73  F   UNL A   1      42.984  25.452  35.541  1.00  0.00    -0.206 F 
ATOM     74  C   UNL A   1      45.197  25.487  36.310  1.00  0.00     0.040 A 
ATOM     75  C   UNL A   1      46.703  27.209  35.556  1.00  0.00     0.040 A 
ATOM     76  F   UNL A   1      45.948  28.882  34.091  1.00  0.00    -0.206 F 
ATOM     77  C   UNL A   1      46.459  26.075  36.330  1.00  0.00     0.006 A 
ENDBRANCH  56  70
BRANCH  57  78
ATOM     78  C   UNL A   1      37.323  31.066  29.135  1.00  0.00     0.057 A 
ATOM     79  C   UNL A   1      37.135  32.387  28.718  1.00  0.00     0.134 A 
ATOM     80  C   UNL A   1      36.287  30.158  28.880  1.00  0.00     0.134 A 
ATOM     81  F   UNL A   1      38.050  33.321  29.013  1.00  0.00    -0.206 F 
ATOM     82  C   UNL A   1      35.973  32.783  28.050  1.00  0.00     0.040 A 
ATOM     83  C   UNL A   1      35.136  30.532  28.182  1.00  0.00     0.040 A 
ATOM     84  F   UNL A   1      36.358  28.903  29.346  1.00  0.00    -0.206 F 
ATOM     85  C   UNL A   1      34.977  31.850  27.764  1.00  0.00     0.006 A 
ENDBRANCH  57  78
BRANCH  69  86
ATOM     86  C   UNL A   1      39.080  32.004  35.765  1.00  0.00     0.057 A 
ATOM     87  C   UNL A   1      38.186  31.592  36.759  1.00  0.00     0.134 A 
ATOM     88  C   UNL A   1      39.516  33.336  35.801  1.00  0.00     0.134 A 
ATOM     89  F   UNL A   1      37.711  30.337  36.772  1.00  0.00    -0.206 F 
ATOM     90  C   UNL A   1      37.729  32.477  37.741  1.00  0.00     0.040 A 
ATOM     91  C   UNL A   1      39.090  34.221  36.792  1.00  0.00     0.040 A 
ATOM     92  F   UNL A   1      40.374  33.797  34.878  1.00  0.00    -0.206 F 
ATOM     93  C   UNL A   1      38.189  33.793  37.762  1.00  0.00     0.006 A 
ENDBRANCH  69  86
ENDBRANCH  43  44
ENDBRANCH  36  38
ENDBRANCH  35  36
ENDBRANCH  34  35
ENDBRANCH  33  34
ENDBRANCH  32  33
ENDBRANCH  31  32
ENDBRANCH   1  31
TORSDOF 22
ENDMDL
MODEL 2
REMARK VINA RESULT:     -11.0      4.478      6.812
REMARK SMILES COc1ccc(-c2ccc(S(=O)(=O)NC(C)(C)C)cc2)c(C(=O)OCCOCCOCCOC(=O)c2ccc(-c3c4nc(c(-c5c(F)cccc5F)c5ccc([nH]5)c(-c5c(F)cccc5F)c5nc(c(-c6c(F)cccc6F)c6ccc3[nH]6)C=C5)C=C4)cc2)c1
REMARK SMILES IDX 28 1 27 2 26 3 25 4 24 5 22 6 23 7 21 8 3 9 4 10 90 11 5 12
REMARK SMILES IDX 6 13 2 14 1 15 7 16 8 17 20 18 9 19 19 20 10 21 11 22 12 23
REMARK SMILES IDX 13 24 14 25 15 27 16 28 17 29 18 30 29 31 30 32 31 33 32 34
REMARK SMILES IDX 33 35 34 36 35 37 36 38 37 39 89 40 38 41 88 42 39 43 40 44
REMARK SMILES IDX 41 45 82 46 42 47 87 48 81 49 83 50 43 51 86 52 80 53 79 54
REMARK SMILES IDX 44 56 70 57 53 58 69 59 54 60 57 61 68 62 84 63 55 64 56 65
REMARK SMILES IDX 67 67 85 68 58 69 45 70 46 71 51 72 47 73 48 74 50 75 52 76
REMARK SMILES IDX 49 77 71 78 72 79 77 80 73 81 74 82 76 83 78 84 75 85 59 86
REMARK SMILES IDX 60 87 65 88 61 89 62 90 64 91 66 92 63 93
REMARK H PARENT 14 26 83 55 57 66
REMARK Flexibility Score: inf
ROOT
ATOM      1  C   UNL A   1      40.584  21.660  26.380  1.00  0.00     0.188 C 
ENDROOT
BRANCH   1   2
ATOM      2  O   UNL A   1      39.504  20.863  25.911  1.00  0.00    -0.376 OA
BRANCH   2   3
ATOM      3  C   UNL A   1      38.326  21.617  25.622  1.00  0.00     0.202 C 
BRANCH   3   4
ATOM      4  C   UNL A   1      37.365  20.845  24.718  1.00  0.00     0.261 C 
BRANCH   4   5
ATOM      5  O   UNL A   1      36.068  21.455  24.571  1.00  0.00    -0.460 OA
BRANCH   5   6
ATOM      6  C   UNL A   1      35.063  21.092  25.413  1.00  0.00     0.338 C 
ATOM      7  O   UNL A   1      34.949  21.444  26.562  1.00  0.00    -0.246 OA
BRANCH   6   8
ATOM      8  C   UNL A   1      34.095  20.234  24.639  1.00  0.00     0.071 A 
ATOM      9  C   UNL A   1      33.462  17.980  23.948  1.00  0.00     0.119 A 
ATOM     10  C   UNL A   1      32.411  18.521  23.210  1.00  0.00     0.047 A 
ATOM     11  C   UNL A   1      34.290  18.832  24.672  1.00  0.00     0.062 A 
ATOM     12  C   UNL A   1      32.195  19.903  23.178  1.00  0.00     0.013 A 
ATOM     13  C   UNL A   1      33.038  20.792  23.870  1.00  0.00    -0.004 A 
BRANCH   9  14
ATOM     14  O   UNL A   1      33.583  16.621  23.857  1.00  0.00    -0.497 OA
ATOM     15  C   UNL A   1      33.071  15.845  24.933  1.00  0.00     0.278 C 
ENDBRANCH   9  14
BRANCH  13  16
ATOM     16  C   UNL A   1      32.863  22.242  23.652  1.00  0.00    -0.017 A 
ATOM     17  C   UNL A   1      32.093  23.065  24.482  1.00  0.00     0.010 A 
ATOM     18  C   UNL A   1      33.474  22.841  22.544  1.00  0.00     0.010 A 
ATOM     19  C   UNL A   1      31.999  24.445  24.230  1.00  0.00     0.022 A 
ATOM     20  C   UNL A   1      33.500  24.222  22.363  1.00  0.00     0.022 A 
ATOM     21  C   UNL A   1      32.727  25.026  23.180  1.00  0.00     0.082 A 
BRANCH  21  22
ATOM     22  S   UNL A   1      32.593  26.776  22.903  1.00  0.00     0.241 S 
ATOM     23  O   UNL A   1      33.475  27.101  21.810  1.00  0.00    -0.207 OA
ATOM     24  O   UNL A   1      31.173  27.045  22.805  1.00  0.00    -0.207 OA
BRANCH  22  25
ATOM     25  N   UNL A   1      33.074  27.601  24.289  1.00  0.00    -0.206 NA
ATOM     26  H   UNL A   1      33.715  28.319  23.948  1.00  0.00     0.141 HD
BRANCH  25  27
ATOM     27  C   UNL A   1      32.238  28.302  25.294  1.00  0.00     0.025 C 
ATOM     28  C   UNL A   1      31.392  27.381  26.166  1.00  0.00     0.028 C 
ATOM     29  C   UNL A   1      33.184  29.085  26.227  1.00  0.00     0.028 C 
ATOM     30  C   UNL A   1      31.360  29.338  24.629  1.00  0.00     0.028 C 
ENDBRANCH  25  27
ENDBRANCH  22  25
ENDBRANCH  21  22
ENDBRANCH  13  16
ENDBRANCH   6   8
ENDBRANCH   5   6
ENDBRANCH   4   5
ENDBRANCH   3   4
ENDBRANCH   2   3
ENDBRANCH   1   2
BRANCH   1  31
ATOM     31  C   UNL A   1      41.802  20.855  26.867  1.00  0.00     0.188 C 
BRANCH  31  32
ATOM     32  O   UNL A   1      41.678  19.478  27.194  1.00  0.00    -0.376 OA
BRANCH  32  33
ATOM     33  C   UNL A   1      42.726  18.603  26.829  1.00  0.00     0.202 C 
BRANCH  33  34
ATOM     34  C   UNL A   1      43.212  18.672  25.374  1.00  0.00     0.261 C 
BRANCH  34  35
ATOM     35  O   UNL A   1      44.615  18.431  25.173  1.00  0.00    -0.460 OA
BRANCH  35  36
ATOM     36  C   UNL A   1      45.218  19.226  24.254  1.00  0.00     0.338 C 
ATOM     37  O   UNL A   1      45.810  18.879  23.248  1.00  0.00    -0.246 OA
BRANCH  36  38
ATOM     38  C   UNL A   1      45.002  20.645  24.623  1.00  0.00     0.060 A 
ATOM     39  C   UNL A   1      44.650  21.584  23.641  1.00  0.00     0.016 A 
ATOM     40  C   UNL A   1      45.235  21.065  25.927  1.00  0.00     0.016 A 
ATOM     41  C   UNL A   1      44.550  22.952  23.956  1.00  0.00     0.010 A 
ATOM     42  C   UNL A   1      45.159  22.429  26.225  1.00  0.00     0.010 A 
ATOM     43  C   UNL A   1      44.831  23.404  25.249  1.00  0.00    -0.014 A 
BRANCH  43  44
ATOM     44  C   UNL A   1      44.936  24.863  25.608  1.00  0.00     0.031 A 
ATOM     45  C   UNL A   1      46.320  25.457  25.751  1.00  0.00     0.074 A 
ATOM     46  C   UNL A   1      43.883  25.664  25.889  1.00  0.00     0.049 A 
ATOM     47  N   UNL A   1      46.689  26.617  26.238  1.00  0.00    -0.248 NA
ATOM     48  C   UNL A   1      47.440  24.614  25.301  1.00  0.00     0.031 C 
ATOM     49  C   UNL A   1      42.468  25.313  25.785  1.00  0.00     0.029 A 
ATOM     50  N   UNL A   1      43.859  26.942  26.420  1.00  0.00    -0.354 N 
ATOM     51  C   UNL A   1      48.070  26.652  26.105  1.00  0.00     0.074 A 
ATOM     52  C   UNL A   1      48.484  25.339  25.662  1.00  0.00     0.031 C 
ATOM     53  C   UNL A   1      41.729  26.278  26.365  1.00  0.00     0.029 A 
ATOM     54  C   UNL A   1      42.611  27.326  26.870  1.00  0.00     0.049 A 
ATOM     55  H   UNL A   1      44.653  27.521  26.472  1.00  0.00     0.167 HD
ATOM     56  C   UNL A   1      48.921  27.698  26.232  1.00  0.00     0.037 A 
ATOM     57  C   UNL A   1      42.231  28.363  27.648  1.00  0.00     0.037 A 
ATOM     58  C   UNL A   1      48.539  29.017  26.654  1.00  0.00     0.049 A 
ATOM     59  C   UNL A   1      43.208  29.450  27.991  1.00  0.00     0.074 A 
ATOM     60  C   UNL A   1      49.312  30.164  26.713  1.00  0.00     0.029 A 
ATOM     61  N   UNL A   1      47.278  29.361  27.109  1.00  0.00    -0.354 N 
ATOM     62  N   UNL A   1      44.494  29.513  27.757  1.00  0.00    -0.248 NA
ATOM     63  C   UNL A   1      42.654  30.652  28.638  1.00  0.00     0.031 C 
ATOM     64  C   UNL A   1      48.528  31.193  27.247  1.00  0.00     0.029 A 
ATOM     65  C   UNL A   1      47.255  30.697  27.474  1.00  0.00     0.049 A 
ATOM     66  H   UNL A   1      46.511  28.747  27.164  1.00  0.00     0.167 HD
ATOM     67  C   UNL A   1      44.883  30.792  28.139  1.00  0.00     0.074 A 
ATOM     68  C   UNL A   1      43.711  31.449  28.675  1.00  0.00     0.031 C 
ATOM     69  C   UNL A   1      46.097  31.374  27.995  1.00  0.00     0.037 A 
BRANCH  56  70
ATOM     70  C   UNL A   1      50.345  27.447  25.832  1.00  0.00     0.057 A 
ATOM     71  C   UNL A   1      50.738  27.503  24.485  1.00  0.00     0.134 A 
ATOM     72  C   UNL A   1      51.320  27.117  26.777  1.00  0.00     0.134 A 
ATOM     73  F   UNL A   1      49.847  27.802  23.527  1.00  0.00    -0.206 F 
ATOM     74  C   UNL A   1      52.035  27.179  24.087  1.00  0.00     0.040 A 
ATOM     75  C   UNL A   1      52.631  26.827  26.394  1.00  0.00     0.040 A 
ATOM     76  F   UNL A   1      51.014  27.057  28.081  1.00  0.00    -0.206 F 
ATOM     77  C   UNL A   1      52.986  26.840  25.046  1.00  0.00     0.006 A 
ENDBRANCH  56  70
BRANCH  57  78
ATOM     78  C   UNL A   1      40.853  28.451  28.198  1.00  0.00     0.057 A 
ATOM     79  C   UNL A   1      40.525  27.958  29.464  1.00  0.00     0.134 A 
ATOM     80  C   UNL A   1      39.805  28.937  27.406  1.00  0.00     0.134 A 
ATOM     81  F   UNL A   1      41.469  27.397  30.233  1.00  0.00    -0.206 F 
ATOM     82  C   UNL A   1      39.208  27.971  29.934  1.00  0.00     0.040 A 
ATOM     83  C   UNL A   1      38.490  28.989  27.876  1.00  0.00     0.040 A 
ATOM     84  F   UNL A   1      40.036  29.326  26.144  1.00  0.00    -0.206 F 
ATOM     85  C   UNL A   1      38.189  28.505  29.146  1.00  0.00     0.006 A 
ENDBRANCH  57  78
BRANCH  69  86
ATOM     86  C   UNL A   1      46.208  32.838  28.310  1.00  0.00     0.057 A 
ATOM     87  C   UNL A   1      46.604  33.314  29.565  1.00  0.00     0.134 A 
ATOM     88  C   UNL A   1      45.926  33.788  27.319  1.00  0.00     0.134 A 
ATOM     89  F   UNL A   1      46.868  32.460  30.566  1.00  0.00    -0.206 F 
ATOM     90  C   UNL A   1      46.698  34.683  29.827  1.00  0.00     0.040 A 
ATOM     91  C   UNL A   1      46.044  35.157  27.559  1.00  0.00     0.040 A 
ATOM     92  F   UNL A   1      45.541  33.400  26.093  1.00  0.00    -0.206 F 
ATOM     93  C   UNL A   1      46.425  35.608  28.820  1.00  0.00     0.006 A 
ENDBRANCH  69  86
ENDBRANCH  43  44
ENDBRANCH  36  38
ENDBRANCH  35  36
ENDBRANCH  34  35
ENDBRANCH  33  34
ENDBRANCH  32  33
ENDBRANCH  31  32
ENDBRANCH   1  31
TORSDOF 22
ENDMDL
MODEL 3
REMARK VINA RESULT:     -10.8      4.326     10.164
REMARK SMILES COc1ccc(-c2ccc(S(=O)(=O)NC(C)(C)C)cc2)c(C(=O)OCCOCCOCCOC(=O)c2ccc(-c3c4nc(c(-c5c(F)cccc5F)c5ccc([nH]5)c(-c5c(F)cccc5F)c5nc(c(-c6c(F)cccc6F)c6ccc3[nH]6)C=C5)C=C4)cc2)c1
REMARK SMILES IDX 28 1 27 2 26 3 25 4 24 5 22 6 23 7 21 8 3 9 4 10 90 11 5 12
REMARK SMILES IDX 6 13 2 14 1 15 7 16 8 17 20 18 9 19 19 20 10 21 11 22 12 23
REMARK SMILES IDX 13 24 14 25 15 27 16 28 17 29 18 30 29 31 30 32 31 33 32 34
REMARK SMILES IDX 33 35 34 36 35 37 36 38 37 39 89 40 38 41 88 42 39 43 40 44
REMARK SMILES IDX 41 45 82 46 42 47 87 48 81 49 83 50 43 51 86 52 80 53 79 54
REMARK SMILES IDX 44 56 70 57 53 58 69 59 54 60 57 61 68 62 84 63 55 64 56 65
REMARK SMILES IDX 67 67 85 68 58 69 45 70 46 71 51 72 47 73 48 74 50 75 52 76
REMARK SMILES IDX 49 77 71 78 72 79 77 80 73 81 74 82 76 83 78 84 75 85 59 86
REMARK SMILES IDX 60 87 65 88 61 89 62 90 64 91 66 92 63 93
REMARK H PARENT 14 26 83 55 57 66
REMARK Flexibility Score: inf
ROOT
ATOM      1  C   UNL A   1      32.993  33.414  27.620  1.00  0.00     0.188 C 
ENDROOT
BRANCH   1   2
ATOM      2  O   UNL A   1      32.673  32.086  27.227  1.00  0.00    -0.376 OA
BRANCH   2   3
ATOM      3  C   UNL A   1      33.738  31.159  27.443  1.00  0.00     0.202 C 
BRANCH   3   4
ATOM      4  C   UNL A   1      33.294  29.717  27.196  1.00  0.00     0.261 C 
BRANCH   4   5
ATOM      5  O   UNL A   1      32.220  29.579  26.245  1.00  0.00    -0.460 OA
BRANCH   5   6
ATOM      6  C   UNL A   1      32.495  29.132  24.991  1.00  0.00     0.338 C 
ATOM      7  O   UNL A   1      33.600  28.971  24.530  1.00  0.00    -0.246 OA
BRANCH   6   8
ATOM      8  C   UNL A   1      31.186  28.814  24.313  1.00  0.00     0.071 A 
ATOM      9  C   UNL A   1      29.214  29.685  23.168  1.00  0.00     0.119 A 
ATOM     10  C   UNL A   1      28.719  28.386  23.073  1.00  0.00     0.047 A 
ATOM     11  C   UNL A   1      30.450  29.895  23.772  1.00  0.00     0.062 A 
ATOM     12  C   UNL A   1      29.441  27.304  23.590  1.00  0.00     0.013 A 
ATOM     13  C   UNL A   1      30.675  27.491  24.238  1.00  0.00    -0.004 A 
BRANCH   9  14
ATOM     14  O   UNL A   1      28.387  30.648  22.661  1.00  0.00    -0.497 OA
ATOM     15  C   UNL A   1      28.035  30.551  21.286  1.00  0.00     0.278 C 
ENDBRANCH   9  14
BRANCH  13  16
ATOM     16  C   UNL A   1      31.298  26.334  24.914  1.00  0.00    -0.017 A 
ATOM     17  C   UNL A   1      30.922  25.885  26.185  1.00  0.00     0.010 A 
ATOM     18  C   UNL A   1      32.339  25.653  24.274  1.00  0.00     0.010 A 
ATOM     19  C   UNL A   1      31.539  24.755  26.753  1.00  0.00     0.022 A 
ATOM     20  C   UNL A   1      32.860  24.457  24.765  1.00  0.00     0.022 A 
ATOM     21  C   UNL A   1      32.493  24.027  26.026  1.00  0.00     0.082 A 
BRANCH  21  22
ATOM     22  S   UNL A   1      33.238  22.597  26.773  1.00  0.00     0.241 S 
ATOM     23  O   UNL A   1      34.652  22.666  26.501  1.00  0.00    -0.207 OA
ATOM     24  O   UNL A   1      32.754  22.575  28.138  1.00  0.00    -0.207 OA
BRANCH  22  25
ATOM     25  N   UNL A   1      32.592  21.204  26.084  1.00  0.00    -0.206 NA
ATOM     26  H   UNL A   1      31.698  21.504  25.693  1.00  0.00     0.141 HD
BRANCH  25  27
ATOM     27  C   UNL A   1      33.173  20.325  25.040  1.00  0.00     0.025 C 
ATOM     28  C   UNL A   1      34.682  20.460  24.867  1.00  0.00     0.028 C 
ATOM     29  C   UNL A   1      32.881  18.864  25.441  1.00  0.00     0.028 C 
ATOM     30  C   UNL A   1      32.477  20.538  23.714  1.00  0.00     0.028 C 
ENDBRANCH  25  27
ENDBRANCH  22  25
ENDBRANCH  21  22
ENDBRANCH  13  16
ENDBRANCH   6   8
ENDBRANCH   5   6
ENDBRANCH   4   5
ENDBRANCH   3   4
ENDBRANCH   2   3
ENDBRANCH   1   2
BRANCH   1  31
ATOM     31  C   UNL A   1      34.468  33.624  28.007  1.00  0.00     0.188 C 
BRANCH  31  32
ATOM     32  O   UNL A   1      34.825  34.524  29.046  1.00  0.00    -0.376 OA
BRANCH  32  33
ATOM     33  C   UNL A   1      33.856  34.837  30.027  1.00  0.00     0.202 C 
BRANCH  33  34
ATOM     34  C   UNL A   1      34.058  34.225  31.421  1.00  0.00     0.261 C 
BRANCH  34  35
ATOM     35  O   UNL A   1      34.404  32.829  31.444  1.00  0.00    -0.460 OA
BRANCH  35  36
ATOM     36  C   UNL A   1      35.237  32.452  32.447  1.00  0.00     0.338 C 
ATOM     37  O   UNL A   1      35.130  32.705  33.633  1.00  0.00    -0.246 OA
BRANCH  36  38
ATOM     38  C   UNL A   1      36.315  31.602  31.889  1.00  0.00     0.060 A 
ATOM     39  C   UNL A   1      37.227  30.966  32.746  1.00  0.00     0.016 A 
ATOM     40  C   UNL A   1      36.478  31.504  30.512  1.00  0.00     0.016 A 
ATOM     41  C   UNL A   1      38.321  30.248  32.228  1.00  0.00     0.010 A 
ATOM     42  C   UNL A   1      37.581  30.810  30.007  1.00  0.00     0.010 A 
ATOM     43  C   UNL A   1      38.534  30.180  30.848  1.00  0.00    -0.014 A 
BRANCH  43  44
ATOM     44  C   UNL A   1      39.782  29.601  30.233  1.00  0.00     0.031 A 
ATOM     45  C   UNL A   1      40.894  30.555  29.861  1.00  0.00     0.074 A 
ATOM     46  C   UNL A   1      39.949  28.296  29.919  1.00  0.00     0.049 A 
ATOM     47  N   UNL A   1      41.975  30.347  29.148  1.00  0.00    -0.248 NA
ATOM     48  C   UNL A   1      40.753  31.939  30.343  1.00  0.00     0.031 C 
ATOM     49  C   UNL A   1      39.026  27.202  30.214  1.00  0.00     0.029 A 
ATOM     50  N   UNL A   1      40.947  27.684  29.179  1.00  0.00    -0.354 N 
ATOM     51  C   UNL A   1      42.653  31.557  29.143  1.00  0.00     0.074 A 
ATOM     52  C   UNL A   1      41.785  32.531  29.766  1.00  0.00     0.031 C 
ATOM     53  C   UNL A   1      39.420  26.099  29.548  1.00  0.00     0.029 A 
ATOM     54  C   UNL A   1      40.631  26.398  28.789  1.00  0.00     0.049 A 
ATOM     55  H   UNL A   1      41.799  28.122  28.954  1.00  0.00     0.167 HD
ATOM     56  C   UNL A   1      43.924  31.831  28.758  1.00  0.00     0.037 A 
ATOM     57  C   UNL A   1      41.209  25.580  27.883  1.00  0.00     0.037 A 
ATOM     58  C   UNL A   1      44.817  30.883  28.152  1.00  0.00     0.049 A 
ATOM     59  C   UNL A   1      42.529  25.946  27.267  1.00  0.00     0.074 A 
ATOM     60  C   UNL A   1      46.153  31.041  27.824  1.00  0.00     0.029 A 
ATOM     61  N   UNL A   1      44.459  29.603  27.766  1.00  0.00    -0.354 N 
ATOM     62  N   UNL A   1      43.209  27.059  27.365  1.00  0.00    -0.248 NA
ATOM     63  C   UNL A   1      43.199  24.898  26.477  1.00  0.00     0.031 C 
ATOM     64  C   UNL A   1      46.591  29.869  27.196  1.00  0.00     0.029 A 
ATOM     65  C   UNL A   1      45.540  28.967  27.178  1.00  0.00     0.049 A 
ATOM     66  H   UNL A   1      43.567  29.205  27.889  1.00  0.00     0.167 HD
ATOM     67  C   UNL A   1      44.423  26.814  26.733  1.00  0.00     0.074 A 
ATOM     68  C   UNL A   1      44.362  25.470  26.203  1.00  0.00     0.031 C 
ATOM     69  C   UNL A   1      45.506  27.624  26.660  1.00  0.00     0.037 A 
BRANCH  56  70
ATOM     70  C   UNL A   1      44.425  33.212  29.060  1.00  0.00     0.057 A 
ATOM     71  C   UNL A   1      44.173  34.281  28.184  1.00  0.00     0.134 A 
ATOM     72  C   UNL A   1      45.183  33.478  30.204  1.00  0.00     0.134 A 
ATOM     73  F   UNL A   1      43.461  34.088  27.063  1.00  0.00    -0.206 F 
ATOM     74  C   UNL A   1      44.711  35.548  28.403  1.00  0.00     0.040 A 
ATOM     75  C   UNL A   1      45.696  34.753  30.452  1.00  0.00     0.040 A 
ATOM     76  F   UNL A   1      45.451  32.506  31.087  1.00  0.00    -0.206 F 
ATOM     77  C   UNL A   1      45.476  35.786  29.542  1.00  0.00     0.006 A 
ENDBRANCH  56  70
BRANCH  57  78
ATOM     78  C   UNL A   1      40.557  24.314  27.457  1.00  0.00     0.057 A 
ATOM     79  C   UNL A   1      40.992  23.065  27.908  1.00  0.00     0.134 A 
ATOM     80  C   UNL A   1      39.545  24.332  26.489  1.00  0.00     0.134 A 
ATOM     81  F   UNL A   1      42.018  22.980  28.766  1.00  0.00    -0.206 F 
ATOM     82  C   UNL A   1      40.424  21.879  27.433  1.00  0.00     0.040 A 
ATOM     83  C   UNL A   1      38.944  23.156  26.031  1.00  0.00     0.040 A 
ATOM     84  F   UNL A   1      39.156  25.491  25.938  1.00  0.00    -0.206 F 
ATOM     85  C   UNL A   1      39.384  21.923  26.505  1.00  0.00     0.006 A 
ENDBRANCH  57  78
BRANCH  69  86
ATOM     86  C   UNL A   1      46.768  27.048  26.087  1.00  0.00     0.057 A 
ATOM     87  C   UNL A   1      47.704  26.357  26.863  1.00  0.00     0.134 A 
ATOM     88  C   UNL A   1      47.035  27.179  24.717  1.00  0.00     0.134 A 
ATOM     89  F   UNL A   1      47.522  26.214  28.185  1.00  0.00    -0.206 F 
ATOM     90  C   UNL A   1      48.871  25.831  26.300  1.00  0.00     0.040 A 
ATOM     91  C   UNL A   1      48.181  26.634  24.137  1.00  0.00     0.040 A 
ATOM     92  F   UNL A   1      46.178  27.829  23.915  1.00  0.00    -0.206 F 
ATOM     93  C   UNL A   1      49.107  25.963  24.932  1.00  0.00     0.006 A 
ENDBRANCH  69  86
ENDBRANCH  43  44
ENDBRANCH  36  38
ENDBRANCH  35  36
ENDBRANCH  34  35
ENDBRANCH  33  34
ENDBRANCH  32  33
ENDBRANCH  31  32
ENDBRANCH   1  31
TORSDOF 22
ENDMDL
