MODEL 1
REMARK VINA RESULT:     -11.5      0.000      0.000
REMARK SMILES O=C(OCCOCCOCCOC(=O)[C@@H](Cc1ccccc1)/N=C1\C(=O)c2ccccc2C(=O)[C@H]1Cl)c1ccc(-c2c3nc(c(-c4c(F)cccc4F)c4ccc([nH]4)c(-c4c(F)cccc4F)c4nc(c(-c5c(F)cccc5F)c5ccc2[nH]5)C=C4)C=C3)cc1
REMARK SMILES IDX 7 1 6 2 5 3 4 4 3 5 2 6 1 7 37 8 38 9 90 10 39 11 89 12
REMARK SMILES IDX 40 13 41 14 42 15 83 16 43 17 88 18 82 19 84 20 44 21 87 22
REMARK SMILES IDX 81 23 80 24 45 26 71 27 54 28 70 29 55 30 58 31 69 32 85 33
REMARK SMILES IDX 56 34 57 35 68 37 86 38 59 39 46 40 47 41 52 42 48 43 49 44
REMARK SMILES IDX 51 45 53 46 50 47 72 48 73 49 78 50 74 51 75 52 77 53 79 54
REMARK SMILES IDX 76 55 60 56 61 57 66 58 62 59 63 60 65 61 67 62 64 63 8 64
REMARK SMILES IDX 9 65 10 66 11 67 12 68 13 69 14 70 15 71 16 72 17 73 18 74
REMARK SMILES IDX 22 75 19 76 21 77 20 78 23 79 24 80 25 81 35 82 26 83 27 84
REMARK SMILES IDX 33 85 36 86 28 87 32 88 34 89 29 90 31 91 30 92
REMARK H PARENT 84 25 58 36
REMARK Flexibility Score: inf
ROOT
ATOM      1  C   UNL A   1      34.850  32.768  27.841  1.00  0.00     0.188 C 
ENDROOT
BRANCH   1   2
ATOM      2  O   UNL A   1      35.286  33.571  28.954  1.00  0.00    -0.376 OA
BRANCH   2   3
ATOM      3  C   UNL A   1      34.200  33.909  29.828  1.00  0.00     0.202 C 
BRANCH   3   4
ATOM      4  C   UNL A   1      34.543  33.731  31.311  1.00  0.00     0.261 C 
BRANCH   4   5
ATOM      5  O   UNL A   1      34.984  32.380  31.560  1.00  0.00    -0.460 OA
BRANCH   5   6
ATOM      6  C   UNL A   1      36.030  31.973  32.318  1.00  0.00     0.338 C 
ATOM      7  O   UNL A   1      35.937  31.955  33.543  1.00  0.00    -0.246 OA
BRANCH   6   8
ATOM      8  C   UNL A   1      37.258  31.418  31.702  1.00  0.00     0.060 A 
ATOM      9  C   UNL A   1      38.227  30.724  32.425  1.00  0.00     0.016 A 
ATOM     10  C   UNL A   1      37.390  31.530  30.309  1.00  0.00     0.016 A 
ATOM     11  C   UNL A   1      39.380  30.268  31.782  1.00  0.00     0.010 A 
ATOM     12  C   UNL A   1      38.513  31.010  29.656  1.00  0.00     0.010 A 
ATOM     13  C   UNL A   1      39.535  30.405  30.395  1.00  0.00    -0.014 A 
BRANCH  13  14
ATOM     14  C   UNL A   1      40.783  29.930  29.747  1.00  0.00     0.031 A 
ATOM     15  C   UNL A   1      40.856  28.543  29.175  1.00  0.00     0.074 A 
ATOM     16  C   UNL A   1      41.829  30.765  29.607  1.00  0.00     0.049 A 
ATOM     17  N   UNL A   1      41.829  27.977  28.505  1.00  0.00    -0.248 NA
ATOM     18  C   UNL A   1      39.685  27.678  29.384  1.00  0.00     0.031 C 
ATOM     19  C   UNL A   1      41.893  32.136  30.113  1.00  0.00     0.029 A 
ATOM     20  N   UNL A   1      43.025  30.591  28.956  1.00  0.00    -0.354 N 
ATOM     21  C   UNL A   1      41.400  26.685  28.236  1.00  0.00     0.074 A 
ATOM     22  C   UNL A   1      40.076  26.550  28.807  1.00  0.00     0.031 C 
ATOM     23  C   UNL A   1      43.031  32.707  29.681  1.00  0.00     0.029 A 
ATOM     24  C   UNL A   1      43.779  31.735  28.889  1.00  0.00     0.049 A 
ATOM     25  H   UNL A   1      43.312  29.731  28.573  1.00  0.00     0.167 HD
ATOM     26  C   UNL A   1      42.047  25.697  27.576  1.00  0.00     0.037 A 
ATOM     27  C   UNL A   1      44.930  31.979  28.237  1.00  0.00     0.037 A 
ATOM     28  C   UNL A   1      43.349  25.818  26.979  1.00  0.00     0.049 A 
ATOM     29  C   UNL A   1      45.617  30.877  27.487  1.00  0.00     0.074 A 
ATOM     30  C   UNL A   1      44.085  24.858  26.306  1.00  0.00     0.029 A 
ATOM     31  N   UNL A   1      44.101  26.979  26.973  1.00  0.00    -0.354 N 
ATOM     32  N   UNL A   1      45.213  29.651  27.270  1.00  0.00    -0.248 NA
ATOM     33  C   UNL A   1      46.935  31.191  26.913  1.00  0.00     0.031 C 
ATOM     34  C   UNL A   1      45.288  25.442  25.889  1.00  0.00     0.029 A 
ATOM     35  C   UNL A   1      45.294  26.764  26.303  1.00  0.00     0.049 A 
ATOM     36  H   UNL A   1      43.830  27.831  27.383  1.00  0.00     0.167 HD
ATOM     37  C   UNL A   1      46.230  29.042  26.547  1.00  0.00     0.074 A 
ATOM     38  C   UNL A   1      47.260  30.039  26.342  1.00  0.00     0.031 C 
ATOM     39  C   UNL A   1      46.308  27.764  26.107  1.00  0.00     0.037 A 
BRANCH  26  40
ATOM     40  C   UNL A   1      41.344  24.381  27.479  1.00  0.00     0.057 A 
ATOM     41  C   UNL A   1      40.279  24.191  26.592  1.00  0.00     0.134 A 
ATOM     42  C   UNL A   1      41.736  23.300  28.277  1.00  0.00     0.134 A 
ATOM     43  F   UNL A   1      39.852  25.199  25.816  1.00  0.00    -0.206 F 
ATOM     44  C   UNL A   1      39.620  22.964  26.506  1.00  0.00     0.040 A 
ATOM     45  C   UNL A   1      41.087  22.068  28.197  1.00  0.00     0.040 A 
ATOM     46  F   UNL A   1      42.743  23.432  29.153  1.00  0.00    -0.206 F 
ATOM     47  C   UNL A   1      40.025  21.898  27.309  1.00  0.00     0.006 A 
ENDBRANCH  26  40
BRANCH  27  48
ATOM     48  C   UNL A   1      45.494  33.347  28.217  1.00  0.00     0.057 A 
ATOM     49  C   UNL A   1      46.316  33.783  29.261  1.00  0.00     0.134 A 
ATOM     50  C   UNL A   1      45.208  34.247  27.187  1.00  0.00     0.134 A 
ATOM     51  F   UNL A   1      46.618  32.952  30.271  1.00  0.00    -0.206 F 
ATOM     52  C   UNL A   1      46.822  35.080  29.290  1.00  0.00     0.040 A 
ATOM     53  C   UNL A   1      45.722  35.543  27.197  1.00  0.00     0.040 A 
ATOM     54  F   UNL A   1      44.419  33.879  26.169  1.00  0.00    -0.206 F 
ATOM     55  C   UNL A   1      46.529  35.964  28.253  1.00  0.00     0.006 A 
ENDBRANCH  27  48
BRANCH  39  56
ATOM     56  C   UNL A   1      47.551  27.375  25.376  1.00  0.00     0.057 A 
ATOM     57  C   UNL A   1      47.684  27.619  24.004  1.00  0.00     0.134 A 
ATOM     58  C   UNL A   1      48.624  26.776  26.043  1.00  0.00     0.134 A 
ATOM     59  F   UNL A   1      46.682  28.181  23.313  1.00  0.00    -0.206 F 
ATOM     60  C   UNL A   1      48.847  27.272  23.316  1.00  0.00     0.040 A 
ATOM     61  C   UNL A   1      49.794  26.428  25.367  1.00  0.00     0.040 A 
ATOM     62  F   UNL A   1      48.549  26.513  27.356  1.00  0.00    -0.206 F 
ATOM     63  C   UNL A   1      49.907  26.676  23.998  1.00  0.00     0.006 A 
ENDBRANCH  39  56
ENDBRANCH  13  14
ENDBRANCH   6   8
ENDBRANCH   5   6
ENDBRANCH   4   5
ENDBRANCH   3   4
ENDBRANCH   2   3
ENDBRANCH   1   2
BRANCH   1  64
ATOM     64  C   UNL A   1      34.127  31.508  28.323  1.00  0.00     0.188 C 
BRANCH  64  65
ATOM     65  O   UNL A   1      33.249  30.994  27.317  1.00  0.00    -0.376 OA
BRANCH  65  66
ATOM     66  C   UNL A   1      33.251  29.570  27.179  1.00  0.00     0.202 C 
BRANCH  66  67
ATOM     67  C   UNL A   1      33.597  29.151  25.751  1.00  0.00     0.261 C 
BRANCH  67  68
ATOM     68  O   UNL A   1      32.681  29.783  24.845  1.00  0.00    -0.462 OA
BRANCH  68  69
ATOM     69  C   UNL A   1      32.415  29.069  23.719  1.00  0.00     0.331 C 
ATOM     70  O   UNL A   1      33.046  29.162  22.670  1.00  0.00    -0.250 OA
BRANCH  69  71
ATOM     71  C   UNL A   1      31.288  28.062  23.948  1.00  0.00     0.219 C 
BRANCH  71  72
ATOM     72  C   UNL A   1      29.844  28.571  24.068  1.00  0.00     0.074 C 
BRANCH  72  73
ATOM     73  C   UNL A   1      29.450  29.813  23.306  1.00  0.00    -0.045 A 
ATOM     74  C   UNL A   1      29.291  31.040  23.960  1.00  0.00     0.004 A 
ATOM     75  C   UNL A   1      29.159  29.735  21.934  1.00  0.00     0.004 A 
ATOM     76  C   UNL A   1      28.830  32.159  23.263  1.00  0.00     0.000 A 
ATOM     77  C   UNL A   1      28.694  30.850  21.239  1.00  0.00     0.000 A 
ATOM     78  C   UNL A   1      28.525  32.062  21.905  1.00  0.00     0.000 A 
ENDBRANCH  72  73
ENDBRANCH  71  72
BRANCH  71  79
ATOM     79  N   UNL A   1      31.411  26.832  23.140  1.00  0.00    -0.268 NA
ATOM     80  C   UNL A   1      32.007  25.746  23.495  1.00  0.00     0.110 C 
ATOM     81  C   UNL A   1      32.789  25.494  24.771  1.00  0.00     0.209 C 
ATOM     82  C   UNL A   1      32.001  24.590  22.539  1.00  0.00     0.205 C 
ATOM     83  O   UNL A   1      32.446  25.951  25.839  1.00  0.00    -0.287 OA
ATOM     84  C   UNL A   1      34.015  24.677  24.653  1.00  0.00     0.035 A 
ATOM     85  C   UNL A   1      33.333  23.916  22.365  1.00  0.00     0.187 C 
ATOM     86  Cl  UNL A   1      30.840  23.376  23.130  1.00  0.00    -0.107 Cl
ATOM     87  C   UNL A   1      34.911  24.643  25.730  1.00  0.00     0.013 A 
ATOM     88  C   UNL A   1      34.304  23.979  23.482  1.00  0.00     0.031 A 
ATOM     89  O   UNL A   1      33.609  23.263  21.361  1.00  0.00    -0.292 OA
ATOM     90  C   UNL A   1      36.111  23.942  25.618  1.00  0.00     0.001 A 
ATOM     91  C   UNL A   1      35.515  23.281  23.372  1.00  0.00     0.012 A 
ATOM     92  C   UNL A   1      36.417  23.269  24.436  1.00  0.00     0.001 A 
ENDBRANCH  71  79
ENDBRANCH  69  71
ENDBRANCH  68  69
ENDBRANCH  67  68
ENDBRANCH  66  67
ENDBRANCH  65  66
ENDBRANCH  64  65
ENDBRANCH   1  64
TORSDOF 20
ENDMDL
MODEL 2
REMARK VINA RESULT:     -11.3      4.713     10.174
REMARK SMILES O=C(OCCOCCOCCOC(=O)[C@@H](Cc1ccccc1)/N=C1\C(=O)c2ccccc2C(=O)[C@H]1Cl)c1ccc(-c2c3nc(c(-c4c(F)cccc4F)c4ccc([nH]4)c(-c4c(F)cccc4F)c4nc(c(-c5c(F)cccc5F)c5ccc2[nH]5)C=C4)C=C3)cc1
REMARK SMILES IDX 7 1 6 2 5 3 4 4 3 5 2 6 1 7 37 8 38 9 90 10 39 11 89 12
REMARK SMILES IDX 40 13 41 14 42 15 83 16 43 17 88 18 82 19 84 20 44 21 87 22
REMARK SMILES IDX 81 23 80 24 45 26 71 27 54 28 70 29 55 30 58 31 69 32 85 33
REMARK SMILES IDX 56 34 57 35 68 37 86 38 59 39 46 40 47 41 52 42 48 43 49 44
REMARK SMILES IDX 51 45 53 46 50 47 72 48 73 49 78 50 74 51 75 52 77 53 79 54
REMARK SMILES IDX 76 55 60 56 61 57 66 58 62 59 63 60 65 61 67 62 64 63 8 64
REMARK SMILES IDX 9 65 10 66 11 67 12 68 13 69 14 70 15 71 16 72 17 73 18 74
REMARK SMILES IDX 22 75 19 76 21 77 20 78 23 79 24 80 25 81 35 82 26 83 27 84
REMARK SMILES IDX 33 85 36 86 28 87 32 88 34 89 29 90 31 91 30 92
REMARK H PARENT 84 25 58 36
REMARK Flexibility Score: inf
ROOT
ATOM      1  C   UNL A   1      41.031  21.158  26.154  1.00  0.00     0.188 C 
ENDROOT
BRANCH   1   2
ATOM      2  O   UNL A   1      42.010  21.977  25.489  1.00  0.00    -0.376 OA
BRANCH   2   3
ATOM      3  C   UNL A   1      43.338  21.456  25.643  1.00  0.00     0.202 C 
BRANCH   3   4
ATOM      4  C   UNL A   1      44.393  22.257  24.872  1.00  0.00     0.261 C 
BRANCH   4   5
ATOM      5  O   UNL A   1      43.947  23.617  24.689  1.00  0.00    -0.460 OA
BRANCH   5   6
ATOM      6  C   UNL A   1      44.511  24.750  25.172  1.00  0.00     0.338 C 
ATOM      7  O   UNL A   1      45.502  25.229  24.627  1.00  0.00    -0.246 OA
BRANCH   6   8
ATOM      8  C   UNL A   1      43.885  25.511  26.278  1.00  0.00     0.060 A 
ATOM      9  C   UNL A   1      44.062  26.883  26.457  1.00  0.00     0.016 A 
ATOM     10  C   UNL A   1      43.004  24.818  27.124  1.00  0.00     0.016 A 
ATOM     11  C   UNL A   1      43.474  27.523  27.549  1.00  0.00     0.010 A 
ATOM     12  C   UNL A   1      42.360  25.476  28.177  1.00  0.00     0.010 A 
ATOM     13  C   UNL A   1      42.619  26.830  28.419  1.00  0.00    -0.014 A 
BRANCH  13  14
ATOM     14  C   UNL A   1      42.029  27.536  29.583  1.00  0.00     0.031 A 
ATOM     15  C   UNL A   1      42.762  27.574  30.893  1.00  0.00     0.074 A 
ATOM     16  C   UNL A   1      40.868  28.204  29.448  1.00  0.00     0.049 A 
ATOM     17  N   UNL A   1      42.445  28.204  31.998  1.00  0.00    -0.248 NA
ATOM     18  C   UNL A   1      44.012  26.804  30.976  1.00  0.00     0.031 C 
ATOM     19  C   UNL A   1      40.054  28.252  28.234  1.00  0.00     0.029 A 
ATOM     20  N   UNL A   1      40.197  29.010  30.334  1.00  0.00    -0.354 N 
ATOM     21  C   UNL A   1      43.439  27.886  32.912  1.00  0.00     0.074 A 
ATOM     22  C   UNL A   1      44.375  27.014  32.234  1.00  0.00     0.031 C 
ATOM     23  C   UNL A   1      39.038  29.112  28.424  1.00  0.00     0.029 A 
ATOM     24  C   UNL A   1      39.122  29.654  29.777  1.00  0.00     0.049 A 
ATOM     25  H   UNL A   1      40.463  29.115  31.276  1.00  0.00     0.167 HD
ATOM     26  C   UNL A   1      43.565  28.281  34.200  1.00  0.00     0.037 A 
ATOM     27  C   UNL A   1      38.315  30.599  30.291  1.00  0.00     0.037 A 
ATOM     28  C   UNL A   1      42.663  29.166  34.883  1.00  0.00     0.049 A 
ATOM     29  C   UNL A   1      38.488  31.043  31.713  1.00  0.00     0.074 A 
ATOM     30  C   UNL A   1      42.707  29.603  36.196  1.00  0.00     0.029 A 
ATOM     31  N   UNL A   1      41.559  29.762  34.298  1.00  0.00    -0.354 N 
ATOM     32  N   UNL A   1      39.415  30.707  32.575  1.00  0.00    -0.248 NA
ATOM     33  C   UNL A   1      37.484  31.981  32.239  1.00  0.00     0.031 C 
ATOM     34  C   UNL A   1      41.626  30.469  36.406  1.00  0.00     0.029 A 
ATOM     35  C   UNL A   1      40.915  30.569  35.222  1.00  0.00     0.049 A 
ATOM     36  H   UNL A   1      41.274  29.632  33.366  1.00  0.00     0.167 HD
ATOM     37  C   UNL A   1      39.100  31.380  33.747  1.00  0.00     0.074 A 
ATOM     38  C   UNL A   1      37.910  32.162  33.482  1.00  0.00     0.031 C 
ATOM     39  C   UNL A   1      39.733  31.339  34.943  1.00  0.00     0.037 A 
BRANCH  26  40
ATOM     40  C   UNL A   1      44.730  27.734  34.960  1.00  0.00     0.057 A 
ATOM     41  C   UNL A   1      44.650  26.508  35.627  1.00  0.00     0.134 A 
ATOM     42  C   UNL A   1      45.938  28.439  35.022  1.00  0.00     0.134 A 
ATOM     43  F   UNL A   1      43.511  25.799  35.614  1.00  0.00    -0.206 F 
ATOM     44  C   UNL A   1      45.737  26.000  36.340  1.00  0.00     0.040 A 
ATOM     45  C   UNL A   1      47.032  27.939  35.729  1.00  0.00     0.040 A 
ATOM     46  F   UNL A   1      46.066  29.625  34.409  1.00  0.00    -0.206 F 
ATOM     47  C   UNL A   1      46.932  26.716  36.391  1.00  0.00     0.006 A 
ENDBRANCH  26  40
BRANCH  27  48
ATOM     48  C   UNL A   1      37.287  31.237  29.440  1.00  0.00     0.057 A 
ATOM     49  C   UNL A   1      36.110  30.550  29.127  1.00  0.00     0.134 A 
ATOM     50  C   UNL A   1      37.463  32.515  28.904  1.00  0.00     0.134 A 
ATOM     51  F   UNL A   1      35.897  29.320  29.620  1.00  0.00    -0.206 F 
ATOM     52  C   UNL A   1      35.146  31.109  28.290  1.00  0.00     0.040 A 
ATOM     53  C   UNL A   1      36.498  33.092  28.079  1.00  0.00     0.040 A 
ATOM     54  F   UNL A   1      38.577  33.211  29.169  1.00  0.00    -0.206 F 
ATOM     55  C   UNL A   1      35.337  32.386  27.767  1.00  0.00     0.006 A 
ENDBRANCH  27  48
BRANCH  39  56
ATOM     56  C   UNL A   1      39.143  32.151  36.049  1.00  0.00     0.057 A 
ATOM     57  C   UNL A   1      39.534  33.479  36.255  1.00  0.00     0.134 A 
ATOM     58  C   UNL A   1      38.169  31.615  36.898  1.00  0.00     0.134 A 
ATOM     59  F   UNL A   1      40.472  34.039  35.477  1.00  0.00    -0.206 F 
ATOM     60  C   UNL A   1      38.978  34.248  37.277  1.00  0.00     0.040 A 
ATOM     61  C   UNL A   1      37.602  32.376  37.921  1.00  0.00     0.040 A 
ATOM     62  F   UNL A   1      37.761  30.346  36.751  1.00  0.00    -0.206 F 
ATOM     63  C   UNL A   1      38.007  33.698  38.112  1.00  0.00     0.006 A 
ENDBRANCH  39  56
ENDBRANCH  13  14
ENDBRANCH   6   8
ENDBRANCH   5   6
ENDBRANCH   4   5
ENDBRANCH   3   4
ENDBRANCH   2   3
ENDBRANCH   1   2
BRANCH   1  64
ATOM     64  C   UNL A   1      39.659  21.835  26.157  1.00  0.00     0.188 C 
BRANCH  64  65
ATOM     65  O   UNL A   1      38.662  20.997  25.566  1.00  0.00    -0.376 OA
BRANCH  65  66
ATOM     66  C   UNL A   1      37.520  21.684  25.046  1.00  0.00     0.202 C 
BRANCH  66  67
ATOM     67  C   UNL A   1      36.282  20.787  25.052  1.00  0.00     0.261 C 
BRANCH  67  68
ATOM     68  O   UNL A   1      35.151  21.555  25.488  1.00  0.00    -0.462 OA
BRANCH  68  69
ATOM     69  C   UNL A   1      34.435  22.127  24.484  1.00  0.00     0.331 C 
ATOM     70  O   UNL A   1      34.912  22.511  23.420  1.00  0.00    -0.250 OA
BRANCH  69  71
ATOM     71  C   UNL A   1      32.941  22.149  24.804  1.00  0.00     0.219 C 
BRANCH  71  72
ATOM     72  C   UNL A   1      32.248  20.845  25.226  1.00  0.00     0.074 C 
BRANCH  72  73
ATOM     73  C   UNL A   1      32.541  19.586  24.448  1.00  0.00    -0.045 A 
ATOM     74  C   UNL A   1      33.251  18.528  25.029  1.00  0.00     0.004 A 
ATOM     75  C   UNL A   1      32.170  19.490  23.097  1.00  0.00     0.004 A 
ATOM     76  C   UNL A   1      33.602  17.411  24.268  1.00  0.00     0.000 A 
ATOM     77  C   UNL A   1      32.525  18.377  22.336  1.00  0.00     0.000 A 
ATOM     78  C   UNL A   1      33.246  17.339  22.922  1.00  0.00     0.000 A 
ENDBRANCH  72  73
ENDBRANCH  71  72
BRANCH  71  79
ATOM     79  N   UNL A   1      32.514  23.321  25.593  1.00  0.00    -0.268 NA
ATOM     80  C   UNL A   1      32.257  24.497  25.131  1.00  0.00     0.110 C 
ATOM     81  C   UNL A   1      32.406  24.981  23.701  1.00  0.00     0.209 C 
ATOM     82  C   UNL A   1      31.809  25.555  26.095  1.00  0.00     0.205 C 
ATOM     83  O   UNL A   1      32.148  24.277  22.750  1.00  0.00    -0.287 OA
ATOM     84  C   UNL A   1      32.909  26.358  23.511  1.00  0.00     0.035 A 
ATOM     85  C   UNL A   1      32.492  26.883  25.925  1.00  0.00     0.187 C 
ATOM     86  Cl  UNL A   1      30.058  25.802  25.889  1.00  0.00    -0.107 Cl
ATOM     87  C   UNL A   1      33.323  26.757  22.234  1.00  0.00     0.013 A 
ATOM     88  C   UNL A   1      33.010  27.241  24.585  1.00  0.00     0.031 A 
ATOM     89  O   UNL A   1      32.568  27.701  26.841  1.00  0.00    -0.292 OA
ATOM     90  C   UNL A   1      33.872  28.025  22.040  1.00  0.00     0.001 A 
ATOM     91  C   UNL A   1      33.568  28.512  24.387  1.00  0.00     0.012 A 
ATOM     92  C   UNL A   1      34.003  28.898  23.118  1.00  0.00     0.001 A 
ENDBRANCH  71  79
ENDBRANCH  69  71
ENDBRANCH  68  69
ENDBRANCH  67  68
ENDBRANCH  66  67
ENDBRANCH  65  66
ENDBRANCH  64  65
ENDBRANCH   1  64
TORSDOF 20
ENDMDL
MODEL 3
REMARK VINA RESULT:     -11.1      4.716     10.101
REMARK SMILES O=C(OCCOCCOCCOC(=O)[C@@H](Cc1ccccc1)/N=C1\C(=O)c2ccccc2C(=O)[C@H]1Cl)c1ccc(-c2c3nc(c(-c4c(F)cccc4F)c4ccc([nH]4)c(-c4c(F)cccc4F)c4nc(c(-c5c(F)cccc5F)c5ccc2[nH]5)C=C4)C=C3)cc1
REMARK SMILES IDX 7 1 6 2 5 3 4 4 3 5 2 6 1 7 37 8 38 9 90 10 39 11 89 12
REMARK SMILES IDX 40 13 41 14 42 15 83 16 43 17 88 18 82 19 84 20 44 21 87 22
REMARK SMILES IDX 81 23 80 24 45 26 71 27 54 28 70 29 55 30 58 31 69 32 85 33
REMARK SMILES IDX 56 34 57 35 68 37 86 38 59 39 46 40 47 41 52 42 48 43 49 44
REMARK SMILES IDX 51 45 53 46 50 47 72 48 73 49 78 50 74 51 75 52 77 53 79 54
REMARK SMILES IDX 76 55 60 56 61 57 66 58 62 59 63 60 65 61 67 62 64 63 8 64
REMARK SMILES IDX 9 65 10 66 11 67 12 68 13 69 14 70 15 71 16 72 17 73 18 74
REMARK SMILES IDX 22 75 19 76 21 77 20 78 23 79 24 80 25 81 35 82 26 83 27 84
REMARK SMILES IDX 33 85 36 86 28 87 32 88 34 89 29 90 31 91 30 92
REMARK H PARENT 84 25 58 36
REMARK Flexibility Score: inf
ROOT
ATOM      1  C   UNL A   1      40.886  22.197  26.163  1.00  0.00     0.188 C 
ENDROOT
BRANCH   1   2
ATOM      2  O   UNL A   1      41.930  21.298  25.742  1.00  0.00    -0.376 OA
BRANCH   2   3
ATOM      3  C   UNL A   1      43.234  21.861  25.942  1.00  0.00     0.202 C 
BRANCH   3   4
ATOM      4  C   UNL A   1      43.778  22.575  24.700  1.00  0.00     0.261 C 
BRANCH   4   5
ATOM      5  O   UNL A   1      43.448  23.979  24.750  1.00  0.00    -0.460 OA
BRANCH   5   6
ATOM      6  C   UNL A   1      44.195  24.992  25.250  1.00  0.00     0.338 C 
ATOM      7  O   UNL A   1      45.277  25.273  24.741  1.00  0.00    -0.246 OA
BRANCH   6   8
ATOM      8  C   UNL A   1      43.682  25.868  26.330  1.00  0.00     0.060 A 
ATOM      9  C   UNL A   1      43.913  27.243  26.371  1.00  0.00     0.016 A 
ATOM     10  C   UNL A   1      42.852  25.282  27.299  1.00  0.00     0.016 A 
ATOM     11  C   UNL A   1      43.432  27.995  27.445  1.00  0.00     0.010 A 
ATOM     12  C   UNL A   1      42.314  26.051  28.336  1.00  0.00     0.010 A 
ATOM     13  C   UNL A   1      42.630  27.410  28.436  1.00  0.00    -0.014 A 
BRANCH  13  14
ATOM     14  C   UNL A   1      42.156  28.235  29.575  1.00  0.00     0.031 A 
ATOM     15  C   UNL A   1      40.855  28.978  29.479  1.00  0.00     0.074 A 
ATOM     16  C   UNL A   1      42.857  28.263  30.724  1.00  0.00     0.049 A 
ATOM     17  N   UNL A   1      40.238  29.685  30.394  1.00  0.00    -0.248 NA
ATOM     18  C   UNL A   1      40.153  28.921  28.187  1.00  0.00     0.031 C 
ATOM     19  C   UNL A   1      44.134  27.588  30.954  1.00  0.00     0.029 A 
ATOM     20  N   UNL A   1      42.566  28.850  31.930  1.00  0.00    -0.354 N 
ATOM     21  C   UNL A   1      39.094  30.178  29.784  1.00  0.00     0.074 A 
ATOM     22  C   UNL A   1      39.095  29.684  28.422  1.00  0.00     0.031 C 
ATOM     23  C   UNL A   1      44.475  27.729  32.247  1.00  0.00     0.029 A 
ATOM     24  C   UNL A   1      43.451  28.520  32.924  1.00  0.00     0.049 A 
ATOM     25  H   UNL A   1      41.796  29.449  32.067  1.00  0.00     0.167 HD
ATOM     26  C   UNL A   1      38.129  30.971  30.304  1.00  0.00     0.037 A 
ATOM     27  C   UNL A   1      43.423  28.800  34.239  1.00  0.00     0.037 A 
ATOM     28  C   UNL A   1      38.096  31.449  31.659  1.00  0.00     0.049 A 
ATOM     29  C   UNL A   1      42.329  29.657  34.802  1.00  0.00     0.074 A 
ATOM     30  C   UNL A   1      37.163  32.273  32.264  1.00  0.00     0.029 A 
ATOM     31  N   UNL A   1      39.036  31.130  32.624  1.00  0.00    -0.354 N 
ATOM     32  N   UNL A   1      41.270  30.143  34.203  1.00  0.00    -0.248 NA
ATOM     33  C   UNL A   1      42.443  30.025  36.222  1.00  0.00     0.031 C 
ATOM     34  C   UNL A   1      37.539  32.452  33.602  1.00  0.00     0.029 A 
ATOM     35  C   UNL A   1      38.704  31.737  33.823  1.00  0.00     0.049 A 
ATOM     36  H   UNL A   1      39.824  30.558  32.479  1.00  0.00     0.167 HD
ATOM     37  C   UNL A   1      40.600  30.884  35.166  1.00  0.00     0.074 A 
ATOM     38  C   UNL A   1      41.356  30.766  36.395  1.00  0.00     0.031 C 
ATOM     39  C   UNL A   1      39.465  31.611  35.036  1.00  0.00     0.037 A 
BRANCH  26  40
ATOM     40  C   UNL A   1      37.027  31.381  29.382  1.00  0.00     0.057 A 
ATOM     41  C   UNL A   1      37.012  32.648  28.789  1.00  0.00     0.134 A 
ATOM     42  C   UNL A   1      35.977  30.505  29.087  1.00  0.00     0.134 A 
ATOM     43  F   UNL A   1      37.985  33.534  29.052  1.00  0.00    -0.206 F 
ATOM     44  C   UNL A   1      35.980  33.033  27.932  1.00  0.00     0.040 A 
ATOM     45  C   UNL A   1      34.942  30.877  28.229  1.00  0.00     0.040 A 
ATOM     46  F   UNL A   1      35.936  29.282  29.637  1.00  0.00    -0.206 F 
ATOM     47  C   UNL A   1      34.943  32.145  27.649  1.00  0.00     0.006 A 
ENDBRANCH  26  40
BRANCH  27  48
ATOM     48  C   UNL A   1      44.442  28.221  35.141  1.00  0.00     0.057 A 
ATOM     49  C   UNL A   1      45.630  28.914  35.395  1.00  0.00     0.134 A 
ATOM     50  C   UNL A   1      44.273  26.969  35.739  1.00  0.00     0.134 A 
ATOM     51  F   UNL A   1      45.836  30.120  34.843  1.00  0.00    -0.206 F 
ATOM     52  C   UNL A   1      46.626  28.371  36.203  1.00  0.00     0.040 A 
ATOM     53  C   UNL A   1      45.256  26.423  36.563  1.00  0.00     0.040 A 
ATOM     54  F   UNL A   1      43.156  26.262  35.520  1.00  0.00    -0.206 F 
ATOM     55  C   UNL A   1      46.439  27.123  36.794  1.00  0.00     0.006 A 
ENDBRANCH  27  48
BRANCH  39  56
ATOM     56  C   UNL A   1      38.987  32.340  36.249  1.00  0.00     0.057 A 
ATOM     57  C   UNL A   1      38.137  31.721  37.173  1.00  0.00     0.134 A 
ATOM     58  C   UNL A   1      39.389  33.654  36.507  1.00  0.00     0.134 A 
ATOM     59  F   UNL A   1      37.712  30.465  36.968  1.00  0.00    -0.206 F 
ATOM     60  C   UNL A   1      37.697  32.389  38.315  1.00  0.00     0.040 A 
ATOM     61  C   UNL A   1      38.959  34.333  37.649  1.00  0.00     0.040 A 
ATOM     62  F   UNL A   1      40.198  34.300  35.653  1.00  0.00    -0.206 F 
ATOM     63  C   UNL A   1      38.109  33.699  38.556  1.00  0.00     0.006 A 
ENDBRANCH  39  56
ENDBRANCH  13  14
ENDBRANCH   6   8
ENDBRANCH   5   6
ENDBRANCH   4   5
ENDBRANCH   3   4
ENDBRANCH   2   3
ENDBRANCH   1   2
BRANCH   1  64
ATOM     64  C   UNL A   1      39.540  21.475  26.243  1.00  0.00     0.188 C 
BRANCH  64  65
ATOM     65  O   UNL A   1      38.448  22.396  26.154  1.00  0.00    -0.376 OA
BRANCH  65  66
ATOM     66  C   UNL A   1      37.697  22.333  24.938  1.00  0.00     0.202 C 
BRANCH  66  67
ATOM     67  C   UNL A   1      36.470  23.242  24.995  1.00  0.00     0.261 C 
BRANCH  67  68
ATOM     68  O   UNL A   1      35.327  22.512  24.525  1.00  0.00    -0.462 OA
BRANCH  68  69
ATOM     69  C   UNL A   1      34.559  21.972  25.508  1.00  0.00     0.331 C 
ATOM     70  O   UNL A   1      34.999  21.424  26.514  1.00  0.00    -0.250 OA
BRANCH  69  71
ATOM     71  C   UNL A   1      33.071  22.213  25.253  1.00  0.00     0.219 C 
BRANCH  71  72
ATOM     72  C   UNL A   1      32.108  21.017  25.261  1.00  0.00     0.074 C 
BRANCH  72  73
ATOM     73  C   UNL A   1      32.494  19.772  24.500  1.00  0.00    -0.045 A 
ATOM     74  C   UNL A   1      32.228  19.653  23.131  1.00  0.00     0.004 A 
ATOM     75  C   UNL A   1      33.058  18.679  25.177  1.00  0.00     0.004 A 
ATOM     76  C   UNL A   1      32.499  18.460  22.460  1.00  0.00     0.000 A 
ATOM     77  C   UNL A   1      33.324  17.485  24.509  1.00  0.00     0.000 A 
ATOM     78  C   UNL A   1      33.040  17.374  23.149  1.00  0.00     0.000 A 
ENDBRANCH  72  73
ENDBRANCH  71  72
BRANCH  71  79
ATOM     79  N   UNL A   1      32.532  23.405  25.936  1.00  0.00    -0.268 NA
ATOM     80  C   UNL A   1      32.245  24.534  25.385  1.00  0.00     0.110 C 
ATOM     81  C   UNL A   1      32.464  24.938  23.938  1.00  0.00     0.209 C 
ATOM     82  C   UNL A   1      31.679  25.622  26.248  1.00  0.00     0.205 C 
ATOM     83  O   UNL A   1      32.307  24.164  23.021  1.00  0.00    -0.287 OA
ATOM     84  C   UNL A   1      32.905  26.328  23.693  1.00  0.00     0.035 A 
ATOM     85  C   UNL A   1      32.300  26.974  26.037  1.00  0.00     0.187 C 
ATOM     86  Cl  UNL A   1      29.935  25.756  25.916  1.00  0.00    -0.107 Cl
ATOM     87  C   UNL A   1      33.381  26.671  22.421  1.00  0.00     0.013 A 
ATOM     88  C   UNL A   1      32.887  27.279  24.712  1.00  0.00     0.031 A 
ATOM     89  O   UNL A   1      32.272  27.848  26.901  1.00  0.00    -0.292 OA
ATOM     90  C   UNL A   1      33.875  27.954  22.182  1.00  0.00     0.001 A 
ATOM     91  C   UNL A   1      33.390  28.564  24.469  1.00  0.00     0.012 A 
ATOM     92  C   UNL A   1      33.887  28.897  23.208  1.00  0.00     0.001 A 
ENDBRANCH  71  79
ENDBRANCH  69  71
ENDBRANCH  68  69
ENDBRANCH  67  68
ENDBRANCH  66  67
ENDBRANCH  65  66
ENDBRANCH  64  65
ENDBRANCH   1  64
TORSDOF 20
ENDMDL
