MODEL 1
REMARK VINA RESULT:     -12.7      0.000      0.000
REMARK SMILES CS(=O)(=O)c1ccc(C2=NN(c3ccc(C(=O)OCCOCCOCCOC(=O)c4ccc(-c5c6nc(c(-c7c(F)cccc7F)c7ccc([nH]7)c(-c7c(F)cccc7F)c7nc(c(-c8c(F)cccc8F)c8ccc5[nH]8)C=C7)C=C6)cc4)cc3)[C@H](c3ccc(F)cc3)C2)cc1
REMARK SMILES IDX 22 1 21 2 20 3 19 4 18 5 16 6 17 7 15 8 12 9 13 10 85 11
REMARK SMILES IDX 14 12 84 13 11 14 9 15 10 16 94 17 86 18 8 19 5 20 6 21
REMARK SMILES IDX 96 22 7 23 95 24 2 25 1 26 3 27 4 28 87 29 88 30 93 31 89 32
REMARK SMILES IDX 92 33 90 34 91 35 23 36 24 37 25 38 26 39 27 40 28 41 29 42
REMARK SMILES IDX 30 43 31 44 83 45 32 46 82 47 33 48 34 49 35 50 76 51 36 52
REMARK SMILES IDX 81 53 75 54 77 55 37 56 80 57 74 58 73 59 38 61 64 62 47 63
REMARK SMILES IDX 63 64 48 65 51 66 62 67 78 68 49 69 50 70 61 72 79 73 52 74
REMARK SMILES IDX 39 75 40 76 45 77 41 78 42 79 44 80 46 81 43 82 65 83 66 84
REMARK SMILES IDX 71 85 67 86 68 87 70 88 72 89 69 90 53 91 54 92 59 93 55 94
REMARK SMILES IDX 56 95 58 96 60 97 57 98
REMARK H PARENT 77 60 51 71
REMARK Flexibility Score: inf
ROOT
ATOM      1  C   UNL A   1      32.930  35.885  29.174  1.00  0.00     0.188 C 
ENDROOT
BRANCH   1   2
ATOM      2  O   UNL A   1      32.717  34.511  28.870  1.00  0.00    -0.376 OA
BRANCH   2   3
ATOM      3  C   UNL A   1      33.701  33.781  28.148  1.00  0.00     0.202 C 
BRANCH   3   4
ATOM      4  C   UNL A   1      34.028  32.335  28.547  1.00  0.00     0.261 C 
BRANCH   4   5
ATOM      5  O   UNL A   1      34.485  31.508  27.467  1.00  0.00    -0.460 OA
BRANCH   5   6
ATOM      6  C   UNL A   1      34.738  30.214  27.781  1.00  0.00     0.338 C 
ATOM      7  O   UNL A   1      35.412  29.807  28.713  1.00  0.00    -0.246 OA
BRANCH   6   8
ATOM      8  C   UNL A   1      33.954  29.304  26.907  1.00  0.00     0.060 A 
ATOM      9  C   UNL A   1      32.490  27.440  25.395  1.00  0.00     0.060 A 
ATOM     10  C   UNL A   1      32.076  27.779  26.687  1.00  0.00     0.029 A 
ATOM     11  C   UNL A   1      33.575  28.130  24.834  1.00  0.00     0.029 A 
ATOM     12  C   UNL A   1      32.807  28.701  27.442  1.00  0.00     0.018 A 
ATOM     13  C   UNL A   1      34.320  29.044  25.584  1.00  0.00     0.018 A 
BRANCH   9  14
ATOM     14  N   UNL A   1      31.966  26.329  24.730  1.00  0.00    -0.257 N 
ATOM     15  C   UNL A   1      32.164  24.329  24.021  1.00  0.00     0.071 C 
ATOM     16  N   UNL A   1      32.340  25.069  25.072  1.00  0.00    -0.176 NA
ATOM     17  C   UNL A   1      31.791  25.065  22.762  1.00  0.00     0.091 C 
ATOM     18  C   UNL A   1      31.548  26.471  23.325  1.00  0.00     0.144 C 
BRANCH  15  19
ATOM     19  C   UNL A   1      32.314  22.859  24.037  1.00  0.00    -0.002 A 
ATOM     20  C   UNL A   1      32.612  20.087  24.164  1.00  0.00     0.067 A 
ATOM     21  C   UNL A   1      32.698  20.845  25.334  1.00  0.00     0.021 A 
ATOM     22  C   UNL A   1      32.383  20.705  22.929  1.00  0.00     0.021 A 
ATOM     23  C   UNL A   1      32.557  22.233  25.266  1.00  0.00     0.011 A 
ATOM     24  C   UNL A   1      32.217  22.095  22.868  1.00  0.00     0.011 A 
BRANCH  20  25
ATOM     25  S   UNL A   1      32.886  18.328  24.227  1.00  0.00     0.175 S 
ATOM     26  C   UNL A   1      32.353  17.741  22.643  1.00  0.00     0.163 C 
ATOM     27  O   UNL A   1      31.983  17.776  25.219  1.00  0.00    -0.224 OA
ATOM     28  O   UNL A   1      34.318  18.131  24.325  1.00  0.00    -0.224 OA
ENDBRANCH  20  25
ENDBRANCH  15  19
BRANCH  18  29
ATOM     29  C   UNL A   1      30.133  27.038  23.260  1.00  0.00    -0.023 A 
ATOM     30  C   UNL A   1      29.007  26.386  23.786  1.00  0.00     0.009 A 
ATOM     31  C   UNL A   1      29.958  28.335  22.728  1.00  0.00     0.009 A 
ATOM     32  C   UNL A   1      27.757  27.016  23.792  1.00  0.00     0.039 A 
ATOM     33  C   UNL A   1      28.722  28.979  22.776  1.00  0.00     0.039 A 
ATOM     34  C   UNL A   1      27.630  28.310  23.307  1.00  0.00     0.123 A 
ATOM     35  F   UNL A   1      26.442  28.926  23.363  1.00  0.00    -0.207 F 
ENDBRANCH  18  29
ENDBRANCH   9  14
ENDBRANCH   6   8
ENDBRANCH   5   6
ENDBRANCH   4   5
ENDBRANCH   3   4
ENDBRANCH   2   3
ENDBRANCH   1   2
BRANCH   1  36
ATOM     36  C   UNL A   1      32.968  36.360  30.642  1.00  0.00     0.188 C 
BRANCH  36  37
ATOM     37  O   UNL A   1      32.503  35.417  31.576  1.00  0.00    -0.376 OA
BRANCH  37  38
ATOM     38  C   UNL A   1      33.411  34.796  32.467  1.00  0.00     0.202 C 
BRANCH  38  39
ATOM     39  C   UNL A   1      34.919  34.601  32.202  1.00  0.00     0.261 C 
BRANCH  39  40
ATOM     40  O   UNL A   1      35.377  33.311  31.788  1.00  0.00    -0.460 OA
BRANCH  40  41
ATOM     41  C   UNL A   1      36.109  32.612  32.684  1.00  0.00     0.338 C 
ATOM     42  O   UNL A   1      35.907  32.499  33.882  1.00  0.00    -0.246 OA
BRANCH  41  43
ATOM     43  C   UNL A   1      37.137  31.852  31.946  1.00  0.00     0.060 A 
ATOM     44  C   UNL A   1      37.960  30.962  32.647  1.00  0.00     0.016 A 
ATOM     45  C   UNL A   1      37.296  32.033  30.570  1.00  0.00     0.016 A 
ATOM     46  C   UNL A   1      38.964  30.265  31.975  1.00  0.00     0.010 A 
ATOM     47  C   UNL A   1      38.315  31.349  29.902  1.00  0.00     0.010 A 
ATOM     48  C   UNL A   1      39.172  30.482  30.606  1.00  0.00    -0.014 A 
BRANCH  48  49
ATOM     49  C   UNL A   1      40.383  29.944  29.941  1.00  0.00     0.031 A 
ATOM     50  C   UNL A   1      41.547  30.866  29.711  1.00  0.00     0.074 A 
ATOM     51  C   UNL A   1      40.452  28.659  29.547  1.00  0.00     0.049 A 
ATOM     52  N   UNL A   1      42.677  30.643  29.090  1.00  0.00    -0.248 NA
ATOM     53  C   UNL A   1      41.415  32.229  30.250  1.00  0.00     0.031 C 
ATOM     54  C   UNL A   1      39.410  27.655  29.745  1.00  0.00     0.029 A 
ATOM     55  N   UNL A   1      41.449  27.987  28.884  1.00  0.00    -0.354 N 
ATOM     56  C   UNL A   1      43.387  31.835  29.159  1.00  0.00     0.074 A 
ATOM     57  C   UNL A   1      42.548  32.788  29.854  1.00  0.00     0.031 C 
ATOM     58  C   UNL A   1      39.815  26.496  29.197  1.00  0.00     0.029 A 
ATOM     59  C   UNL A   1      41.129  26.685  28.585  1.00  0.00     0.049 A 
ATOM     60  H   UNL A   1      42.311  28.399  28.645  1.00  0.00     0.167 HD
ATOM     61  C   UNL A   1      44.628  32.110  28.694  1.00  0.00     0.037 A 
ATOM     62  C   UNL A   1      41.810  25.764  27.875  1.00  0.00     0.037 A 
ATOM     63  C   UNL A   1      45.461  31.164  28.000  1.00  0.00     0.049 A 
ATOM     64  C   UNL A   1      43.157  26.117  27.299  1.00  0.00     0.074 A 
ATOM     65  C   UNL A   1      46.740  31.343  27.504  1.00  0.00     0.029 A 
ATOM     66  N   UNL A   1      45.091  29.863  27.694  1.00  0.00    -0.354 N 
ATOM     67  N   UNL A   1      43.831  27.237  27.392  1.00  0.00    -0.248 NA
ATOM     68  C   UNL A   1      43.839  25.073  26.517  1.00  0.00     0.031 C 
ATOM     69  C   UNL A   1      47.124  30.167  26.852  1.00  0.00     0.029 A 
ATOM     70  C   UNL A   1      46.107  29.236  26.992  1.00  0.00     0.049 A 
ATOM     71  H   UNL A   1      44.233  29.447  27.940  1.00  0.00     0.167 HD
ATOM     72  C   UNL A   1      45.026  27.023  26.713  1.00  0.00     0.074 A 
ATOM     73  C   UNL A   1      44.988  25.663  26.221  1.00  0.00     0.031 C 
ATOM     74  C   UNL A   1      46.061  27.876  26.517  1.00  0.00     0.037 A 
BRANCH  61  75
ATOM     75  C   UNL A   1      45.147  33.503  28.899  1.00  0.00     0.057 A 
ATOM     76  C   UNL A   1      45.932  33.847  30.008  1.00  0.00     0.134 A 
ATOM     77  C   UNL A   1      44.881  34.508  27.961  1.00  0.00     0.134 A 
ATOM     78  F   UNL A   1      46.211  32.935  30.951  1.00  0.00    -0.206 F 
ATOM     79  C   UNL A   1      46.410  35.146  30.189  1.00  0.00     0.040 A 
ATOM     80  C   UNL A   1      45.377  35.803  28.116  1.00  0.00     0.040 A 
ATOM     81  F   UNL A   1      44.139  34.246  26.873  1.00  0.00    -0.206 F 
ATOM     82  C   UNL A   1      46.138  36.127  29.238  1.00  0.00     0.006 A 
ENDBRANCH  61  75
BRANCH  62  83
ATOM     83  C   UNL A   1      41.228  24.416  27.652  1.00  0.00     0.057 A 
ATOM     84  C   UNL A   1      41.708  23.294  28.338  1.00  0.00     0.134 A 
ATOM     85  C   UNL A   1      40.201  24.211  26.723  1.00  0.00     0.134 A 
ATOM     86  F   UNL A   1      42.711  23.420  29.221  1.00  0.00    -0.206 F 
ATOM     87  C   UNL A   1      41.202  22.015  28.095  1.00  0.00     0.040 A 
ATOM     88  C   UNL A   1      39.666  22.942  26.490  1.00  0.00     0.040 A 
ATOM     89  F   UNL A   1      39.698  25.242  26.029  1.00  0.00    -0.206 F 
ATOM     90  C   UNL A   1      40.174  21.838  27.172  1.00  0.00     0.006 A 
ENDBRANCH  62  83
BRANCH  74  91
ATOM     91  C   UNL A   1      47.260  27.353  25.778  1.00  0.00     0.057 A 
ATOM     92  C   UNL A   1      48.286  26.653  26.425  1.00  0.00     0.134 A 
ATOM     93  C   UNL A   1      47.366  27.514  24.390  1.00  0.00     0.134 A 
ATOM     94  F   UNL A   1      48.253  26.473  27.754  1.00  0.00    -0.206 F 
ATOM     95  C   UNL A   1      49.384  26.152  25.722  1.00  0.00     0.040 A 
ATOM     96  C   UNL A   1      48.444  26.994  23.672  1.00  0.00     0.040 A 
ATOM     97  F   UNL A   1      46.414  28.165  23.705  1.00  0.00    -0.206 F 
ATOM     98  C   UNL A   1      49.461  26.316  24.340  1.00  0.00     0.006 A 
ENDBRANCH  74  91
ENDBRANCH  48  49
ENDBRANCH  41  43
ENDBRANCH  40  41
ENDBRANCH  39  40
ENDBRANCH  38  39
ENDBRANCH  37  38
ENDBRANCH  36  37
ENDBRANCH   1  36
TORSDOF 21
ENDMDL
MODEL 2
REMARK VINA RESULT:     -11.6      0.667      5.791
REMARK SMILES CS(=O)(=O)c1ccc(C2=NN(c3ccc(C(=O)OCCOCCOCCOC(=O)c4ccc(-c5c6nc(c(-c7c(F)cccc7F)c7ccc([nH]7)c(-c7c(F)cccc7F)c7nc(c(-c8c(F)cccc8F)c8ccc5[nH]8)C=C7)C=C6)cc4)cc3)[C@H](c3ccc(F)cc3)C2)cc1
REMARK SMILES IDX 22 1 21 2 20 3 19 4 18 5 16 6 17 7 15 8 12 9 13 10 85 11
REMARK SMILES IDX 14 12 84 13 11 14 9 15 10 16 94 17 86 18 8 19 5 20 6 21
REMARK SMILES IDX 96 22 7 23 95 24 2 25 1 26 3 27 4 28 87 29 88 30 93 31 89 32
REMARK SMILES IDX 92 33 90 34 91 35 23 36 24 37 25 38 26 39 27 40 28 41 29 42
REMARK SMILES IDX 30 43 31 44 83 45 32 46 82 47 33 48 34 49 35 50 76 51 36 52
REMARK SMILES IDX 81 53 75 54 77 55 37 56 80 57 74 58 73 59 38 61 64 62 47 63
REMARK SMILES IDX 63 64 48 65 51 66 62 67 78 68 49 69 50 70 61 72 79 73 52 74
REMARK SMILES IDX 39 75 40 76 45 77 41 78 42 79 44 80 46 81 43 82 65 83 66 84
REMARK SMILES IDX 71 85 67 86 68 87 70 88 72 89 69 90 53 91 54 92 59 93 55 94
REMARK SMILES IDX 56 95 58 96 60 97 57 98
REMARK H PARENT 77 60 51 71
REMARK Flexibility Score: inf
ROOT
ATOM      1  C   UNL A   1      33.213  35.929  29.121  1.00  0.00     0.188 C 
ENDROOT
BRANCH   1   2
ATOM      2  O   UNL A   1      32.866  34.615  28.700  1.00  0.00    -0.376 OA
BRANCH   2   3
ATOM      3  C   UNL A   1      33.810  33.825  27.985  1.00  0.00     0.202 C 
BRANCH   3   4
ATOM      4  C   UNL A   1      34.093  32.382  28.430  1.00  0.00     0.261 C 
BRANCH   4   5
ATOM      5  O   UNL A   1      34.737  31.570  27.438  1.00  0.00    -0.460 OA
BRANCH   5   6
ATOM      6  C   UNL A   1      34.957  30.278  27.786  1.00  0.00     0.338 C 
ATOM      7  O   UNL A   1      35.635  29.877  28.718  1.00  0.00    -0.246 OA
BRANCH   6   8
ATOM      8  C   UNL A   1      34.130  29.368  26.954  1.00  0.00     0.060 A 
ATOM      9  C   UNL A   1      32.594  27.502  25.517  1.00  0.00     0.060 A 
ATOM     10  C   UNL A   1      32.261  27.821  26.837  1.00  0.00     0.029 A 
ATOM     11  C   UNL A   1      33.631  28.214  24.894  1.00  0.00     0.029 A 
ATOM     12  C   UNL A   1      33.028  28.744  27.554  1.00  0.00     0.018 A 
ATOM     13  C   UNL A   1      34.411  29.129  25.606  1.00  0.00     0.018 A 
BRANCH   9  14
ATOM     14  N   UNL A   1      32.042  26.393  24.872  1.00  0.00    -0.257 N 
ATOM     15  C   UNL A   1      32.220  24.405  24.125  1.00  0.00     0.071 C 
ATOM     16  N   UNL A   1      32.456  25.134  25.172  1.00  0.00    -0.176 NA
ATOM     17  C   UNL A   1      31.753  25.151  22.903  1.00  0.00     0.091 C 
ATOM     18  C   UNL A   1      31.529  26.546  23.501  1.00  0.00     0.144 C 
BRANCH  15  19
ATOM     19  C   UNL A   1      32.391  22.937  24.111  1.00  0.00    -0.002 A 
ATOM     20  C   UNL A   1      32.678  20.163  23.997  1.00  0.00     0.067 A 
ATOM     21  C   UNL A   1      32.179  20.852  22.888  1.00  0.00     0.021 A 
ATOM     22  C   UNL A   1      33.030  20.850  25.164  1.00  0.00     0.021 A 
ATOM     23  C   UNL A   1      32.029  22.239  22.952  1.00  0.00     0.011 A 
ATOM     24  C   UNL A   1      32.901  22.244  25.216  1.00  0.00     0.011 A 
BRANCH  20  25
ATOM     25  S   UNL A   1      32.784  18.385  23.959  1.00  0.00     0.175 S 
ATOM     26  C   UNL A   1      32.412  17.957  22.280  1.00  0.00     0.163 C 
ATOM     27  O   UNL A   1      31.714  17.862  24.787  1.00  0.00    -0.224 OA
ATOM     28  O   UNL A   1      34.168  18.043  24.217  1.00  0.00    -0.224 OA
ENDBRANCH  20  25
ENDBRANCH  15  19
BRANCH  18  29
ATOM     29  C   UNL A   1      30.105  27.092  23.538  1.00  0.00    -0.023 A 
ATOM     30  C   UNL A   1      29.727  28.320  22.975  1.00  0.00     0.009 A 
ATOM     31  C   UNL A   1      29.091  26.273  24.082  1.00  0.00     0.009 A 
ATOM     32  C   UNL A   1      28.381  28.706  22.945  1.00  0.00     0.039 A 
ATOM     33  C   UNL A   1      27.746  26.637  24.012  1.00  0.00     0.039 A 
ATOM     34  C   UNL A   1      27.405  27.854  23.445  1.00  0.00     0.123 A 
ATOM     35  F   UNL A   1      26.115  28.207  23.366  1.00  0.00    -0.207 F 
ENDBRANCH  18  29
ENDBRANCH   9  14
ENDBRANCH   6   8
ENDBRANCH   5   6
ENDBRANCH   4   5
ENDBRANCH   3   4
ENDBRANCH   2   3
ENDBRANCH   1   2
BRANCH   1  36
ATOM     36  C   UNL A   1      33.281  36.271  30.625  1.00  0.00     0.188 C 
BRANCH  36  37
ATOM     37  O   UNL A   1      33.069  35.179  31.485  1.00  0.00    -0.376 OA
BRANCH  37  38
ATOM     38  C   UNL A   1      33.968  34.933  32.551  1.00  0.00     0.202 C 
BRANCH  38  39
ATOM     39  C   UNL A   1      35.506  34.922  32.429  1.00  0.00     0.261 C 
BRANCH  39  40
ATOM     40  O   UNL A   1      36.124  33.855  31.706  1.00  0.00    -0.460 OA
BRANCH  40  41
ATOM     41  C   UNL A   1      36.409  32.733  32.405  1.00  0.00     0.338 C 
ATOM     42  O   UNL A   1      35.790  32.270  33.349  1.00  0.00    -0.246 OA
BRANCH  41  43
ATOM     43  C   UNL A   1      37.529  32.045  31.736  1.00  0.00     0.060 A 
ATOM     44  C   UNL A   1      38.602  31.581  32.507  1.00  0.00     0.016 A 
ATOM     45  C   UNL A   1      37.526  31.875  30.349  1.00  0.00     0.016 A 
ATOM     46  C   UNL A   1      39.690  30.964  31.888  1.00  0.00     0.010 A 
ATOM     47  C   UNL A   1      38.625  31.275  29.729  1.00  0.00     0.010 A 
ATOM     48  C   UNL A   1      39.724  30.840  30.493  1.00  0.00    -0.014 A 
BRANCH  48  49
ATOM     49  C   UNL A   1      40.972  30.419  29.813  1.00  0.00     0.031 A 
ATOM     50  C   UNL A   1      41.070  29.011  29.295  1.00  0.00     0.074 A 
ATOM     51  C   UNL A   1      42.004  31.268  29.654  1.00  0.00     0.049 A 
ATOM     52  N   UNL A   1      42.079  28.397  28.733  1.00  0.00    -0.248 NA
ATOM     53  C   UNL A   1      39.863  28.180  29.437  1.00  0.00     0.031 C 
ATOM     54  C   UNL A   1      42.022  32.666  30.076  1.00  0.00     0.029 A 
ATOM     55  N   UNL A   1      43.245  31.064  29.102  1.00  0.00    -0.354 N 
ATOM     56  C   UNL A   1      41.634  27.110  28.460  1.00  0.00     0.074 A 
ATOM     57  C   UNL A   1      40.273  27.020  28.947  1.00  0.00     0.031 C 
ATOM     58  C   UNL A   1      43.224  33.192  29.782  1.00  0.00     0.029 A 
ATOM     59  C   UNL A   1      44.068  32.160  29.183  1.00  0.00     0.049 A 
ATOM     60  H   UNL A   1      43.518  30.213  28.688  1.00  0.00     0.167 HD
ATOM     61  C   UNL A   1      42.294  26.097  27.852  1.00  0.00     0.037 A 
ATOM     62  C   UNL A   1      45.363  32.302  28.834  1.00  0.00     0.037 A 
ATOM     63  C   UNL A   1      43.647  26.184  27.373  1.00  0.00     0.049 A 
ATOM     64  C   UNL A   1      46.101  31.135  28.231  1.00  0.00     0.074 A 
ATOM     65  C   UNL A   1      44.398  25.216  26.729  1.00  0.00     0.029 A 
ATOM     66  N   UNL A   1      44.457  27.303  27.495  1.00  0.00    -0.354 N 
ATOM     67  N   UNL A   1      45.664  29.931  27.952  1.00  0.00    -0.248 NA
ATOM     68  C   UNL A   1      47.517  31.349  27.893  1.00  0.00     0.031 C 
ATOM     69  C   UNL A   1      45.679  25.732  26.508  1.00  0.00     0.029 A 
ATOM     70  C   UNL A   1      45.709  27.040  26.963  1.00  0.00     0.049 A 
ATOM     71  H   UNL A   1      44.183  28.157  27.901  1.00  0.00     0.167 HD
ATOM     72  C   UNL A   1      46.737  29.257  27.377  1.00  0.00     0.074 A 
ATOM     73  C   UNL A   1      47.842  30.190  27.338  1.00  0.00     0.031 C 
ATOM     74  C   UNL A   1      46.799  27.982  26.921  1.00  0.00     0.037 A 
BRANCH  61  75
ATOM     75  C   UNL A   1      41.564  24.794  27.698  1.00  0.00     0.057 A 
ATOM     76  C   UNL A   1      40.562  24.615  26.735  1.00  0.00     0.134 A 
ATOM     77  C   UNL A   1      41.886  23.697  28.507  1.00  0.00     0.134 A 
ATOM     78  F   UNL A   1      40.195  25.630  25.939  1.00  0.00    -0.206 F 
ATOM     79  C   UNL A   1      39.889  23.399  26.600  1.00  0.00     0.040 A 
ATOM     80  C   UNL A   1      41.240  22.469  28.362  1.00  0.00     0.040 A 
ATOM     81  F   UNL A   1      42.839  23.799  29.446  1.00  0.00    -0.206 F 
ATOM     82  C   UNL A   1      40.233  22.319  27.411  1.00  0.00     0.006 A 
ENDBRANCH  61  75
BRANCH  62  83
ATOM     83  C   UNL A   1      46.058  33.595  29.059  1.00  0.00     0.057 A 
ATOM     84  C   UNL A   1      46.149  34.556  28.046  1.00  0.00     0.134 A 
ATOM     85  C   UNL A   1      46.676  33.886  30.281  1.00  0.00     0.134 A 
ATOM     86  F   UNL A   1      45.601  34.325  26.844  1.00  0.00    -0.206 F 
ATOM     87  C   UNL A   1      46.845  35.752  28.232  1.00  0.00     0.040 A 
ATOM     88  C   UNL A   1      47.352  35.090  30.491  1.00  0.00     0.040 A 
ATOM     89  F   UNL A   1      46.629  33.006  31.292  1.00  0.00    -0.206 F 
ATOM     90  C   UNL A   1      47.445  36.023  29.460  1.00  0.00     0.006 A 
ENDBRANCH  62  83
BRANCH  74  91
ATOM     91  C   UNL A   1      48.089  27.531  26.297  1.00  0.00     0.057 A 
ATOM     92  C   UNL A   1      49.137  26.998  27.058  1.00  0.00     0.134 A 
ATOM     93  C   UNL A   1      48.266  27.590  24.908  1.00  0.00     0.134 A 
ATOM     94  F   UNL A   1      49.038  26.923  28.393  1.00  0.00    -0.206 F 
ATOM     95  C   UNL A   1      50.322  26.561  26.462  1.00  0.00     0.040 A 
ATOM     96  C   UNL A   1      49.435  27.131  24.299  1.00  0.00     0.040 A 
ATOM     97  F   UNL A   1      47.299  28.079  24.118  1.00  0.00    -0.206 F 
ATOM     98  C   UNL A   1      50.470  26.620  25.078  1.00  0.00     0.006 A 
ENDBRANCH  74  91
ENDBRANCH  48  49
ENDBRANCH  41  43
ENDBRANCH  40  41
ENDBRANCH  39  40
ENDBRANCH  38  39
ENDBRANCH  37  38
ENDBRANCH  36  37
ENDBRANCH   1  36
TORSDOF 21
ENDMDL
MODEL 3
REMARK VINA RESULT:     -11.1      4.908     10.380
REMARK SMILES CS(=O)(=O)c1ccc(C2=NN(c3ccc(C(=O)OCCOCCOCCOC(=O)c4ccc(-c5c6nc(c(-c7c(F)cccc7F)c7ccc([nH]7)c(-c7c(F)cccc7F)c7nc(c(-c8c(F)cccc8F)c8ccc5[nH]8)C=C7)C=C6)cc4)cc3)[C@H](c3ccc(F)cc3)C2)cc1
REMARK SMILES IDX 22 1 21 2 20 3 19 4 18 5 16 6 17 7 15 8 12 9 13 10 85 11
REMARK SMILES IDX 14 12 84 13 11 14 9 15 10 16 94 17 86 18 8 19 5 20 6 21
REMARK SMILES IDX 96 22 7 23 95 24 2 25 1 26 3 27 4 28 87 29 88 30 93 31 89 32
REMARK SMILES IDX 92 33 90 34 91 35 23 36 24 37 25 38 26 39 27 40 28 41 29 42
REMARK SMILES IDX 30 43 31 44 83 45 32 46 82 47 33 48 34 49 35 50 76 51 36 52
REMARK SMILES IDX 81 53 75 54 77 55 37 56 80 57 74 58 73 59 38 61 64 62 47 63
REMARK SMILES IDX 63 64 48 65 51 66 62 67 78 68 49 69 50 70 61 72 79 73 52 74
REMARK SMILES IDX 39 75 40 76 45 77 41 78 42 79 44 80 46 81 43 82 65 83 66 84
REMARK SMILES IDX 71 85 67 86 68 87 70 88 72 89 69 90 53 91 54 92 59 93 55 94
REMARK SMILES IDX 56 95 58 96 60 97 57 98
REMARK H PARENT 77 60 51 71
REMARK Flexibility Score: inf
ROOT
ATOM      1  C   UNL A   1      41.771  20.799  26.388  1.00  0.00     0.188 C 
ENDROOT
BRANCH   1   2
ATOM      2  O   UNL A   1      40.681  19.920  26.643  1.00  0.00    -0.376 OA
BRANCH   2   3
ATOM      3  C   UNL A   1      39.450  20.092  25.950  1.00  0.00     0.202 C 
BRANCH   3   4
ATOM      4  C   UNL A   1      38.943  21.506  25.630  1.00  0.00     0.261 C 
BRANCH   4   5
ATOM      5  O   UNL A   1      39.230  22.483  26.641  1.00  0.00    -0.460 OA
BRANCH   5   6
ATOM      6  C   UNL A   1      38.637  23.692  26.477  1.00  0.00     0.338 C 
ATOM      7  O   UNL A   1      39.163  24.786  26.601  1.00  0.00    -0.246 OA
BRANCH   6   8
ATOM      8  C   UNL A   1      37.251  23.526  25.973  1.00  0.00     0.060 A 
ATOM      9  C   UNL A   1      34.654  23.379  24.906  1.00  0.00     0.060 A 
ATOM     10  C   UNL A   1      35.764  23.390  24.057  1.00  0.00     0.029 A 
ATOM     11  C   UNL A   1      34.868  23.326  26.292  1.00  0.00     0.029 A 
ATOM     12  C   UNL A   1      37.056  23.470  24.586  1.00  0.00     0.018 A 
ATOM     13  C   UNL A   1      36.154  23.418  26.831  1.00  0.00     0.018 A 
BRANCH   9  14
ATOM     14  N   UNL A   1      33.361  23.590  24.420  1.00  0.00    -0.257 N 
ATOM     15  C   UNL A   1      31.626  24.814  24.238  1.00  0.00     0.071 C 
ATOM     16  N   UNL A   1      32.919  24.842  24.133  1.00  0.00    -0.176 NA
ATOM     17  C   UNL A   1      31.045  23.537  24.783  1.00  0.00     0.091 C 
ATOM     18  C   UNL A   1      32.295  22.648  24.796  1.00  0.00     0.144 C 
BRANCH  15  19
ATOM     19  C   UNL A   1      30.763  25.950  23.852  1.00  0.00    -0.002 A 
ATOM     20  C   UNL A   1      29.211  28.145  23.101  1.00  0.00     0.067 A 
ATOM     21  C   UNL A   1      30.601  28.207  22.979  1.00  0.00     0.021 A 
ATOM     22  C   UNL A   1      28.590  26.995  23.602  1.00  0.00     0.021 A 
ATOM     23  C   UNL A   1      31.376  27.110  23.364  1.00  0.00     0.011 A 
ATOM     24  C   UNL A   1      29.368  25.887  23.963  1.00  0.00     0.011 A 
BRANCH  20  25
ATOM     25  S   UNL A   1      28.223  29.572  22.704  1.00  0.00     0.175 S 
ATOM     26  C   UNL A   1      29.051  30.919  23.502  1.00  0.00     0.163 C 
ATOM     27  O   UNL A   1      26.934  29.411  23.351  1.00  0.00    -0.224 OA
ATOM     28  O   UNL A   1      28.324  29.764  21.271  1.00  0.00    -0.224 OA
ENDBRANCH  20  25
ENDBRANCH  15  19
BRANCH  18  29
ATOM     29  C   UNL A   1      32.324  21.435  23.871  1.00  0.00    -0.023 A 
ATOM     30  C   UNL A   1      32.576  20.126  24.309  1.00  0.00     0.009 A 
ATOM     31  C   UNL A   1      31.981  21.624  22.513  1.00  0.00     0.009 A 
ATOM     32  C   UNL A   1      32.475  19.047  23.424  1.00  0.00     0.039 A 
ATOM     33  C   UNL A   1      31.836  20.543  21.643  1.00  0.00     0.039 A 
ATOM     34  C   UNL A   1      32.087  19.263  22.108  1.00  0.00     0.123 A 
ATOM     35  F   UNL A   1      31.942  18.219  21.280  1.00  0.00    -0.207 F 
ENDBRANCH  18  29
ENDBRANCH   9  14
ENDBRANCH   6   8
ENDBRANCH   5   6
ENDBRANCH   4   5
ENDBRANCH   3   4
ENDBRANCH   2   3
ENDBRANCH   1   2
BRANCH   1  36
ATOM     36  C   UNL A   1      43.118  20.242  25.882  1.00  0.00     0.188 C 
BRANCH  36  37
ATOM     37  O   UNL A   1      44.201  21.131  25.995  1.00  0.00    -0.376 OA
BRANCH  37  38
ATOM     38  C   UNL A   1      44.599  21.905  24.878  1.00  0.00     0.202 C 
BRANCH  38  39
ATOM     39  C   UNL A   1      43.727  22.970  24.181  1.00  0.00     0.261 C 
BRANCH  39  40
ATOM     40  O   UNL A   1      43.409  24.166  24.896  1.00  0.00    -0.460 OA
BRANCH  40  41
ATOM     41  C   UNL A   1      44.450  24.943  25.272  1.00  0.00     0.338 C 
ATOM     42  O   UNL A   1      45.493  25.129  24.668  1.00  0.00    -0.246 OA
BRANCH  41  43
ATOM     43  C   UNL A   1      44.059  25.678  26.490  1.00  0.00     0.060 A 
ATOM     44  C   UNL A   1      43.066  25.142  27.319  1.00  0.00     0.016 A 
ATOM     45  C   UNL A   1      44.661  26.900  26.800  1.00  0.00     0.016 A 
ATOM     46  C   UNL A   1      42.653  25.842  28.454  1.00  0.00     0.010 A 
ATOM     47  C   UNL A   1      44.233  27.609  27.926  1.00  0.00     0.010 A 
ATOM     48  C   UNL A   1      43.208  27.096  28.744  1.00  0.00    -0.014 A 
BRANCH  48  49
ATOM     49  C   UNL A   1      42.606  27.953  29.793  1.00  0.00     0.031 A 
ATOM     50  C   UNL A   1      43.261  28.002  31.146  1.00  0.00     0.074 A 
ATOM     51  C   UNL A   1      41.498  28.677  29.555  1.00  0.00     0.049 A 
ATOM     52  N   UNL A   1      42.880  28.619  32.235  1.00  0.00    -0.248 NA
ATOM     53  C   UNL A   1      44.515  27.245  31.289  1.00  0.00     0.031 C 
ATOM     54  C   UNL A   1      40.789  28.746  28.280  1.00  0.00     0.029 A 
ATOM     55  N   UNL A   1      40.768  29.485  30.393  1.00  0.00    -0.354 N 
ATOM     56  C   UNL A   1      43.842  28.322  33.192  1.00  0.00     0.074 A 
ATOM     57  C   UNL A   1      44.807  27.444  32.565  1.00  0.00     0.031 C 
ATOM     58  C   UNL A   1      39.714  29.541  28.423  1.00  0.00     0.029 A 
ATOM     59  C   UNL A   1      39.642  30.009  29.806  1.00  0.00     0.049 A 
ATOM     60  H   UNL A   1      41.027  29.670  31.324  1.00  0.00     0.167 HD
ATOM     61  C   UNL A   1      43.920  28.748  34.475  1.00  0.00     0.037 A 
ATOM     62  C   UNL A   1      38.655  30.759  30.336  1.00  0.00     0.037 A 
ATOM     63  C   UNL A   1      42.958  29.616  35.099  1.00  0.00     0.049 A 
ATOM     64  C   UNL A   1      38.723  31.156  31.788  1.00  0.00     0.074 A 
ATOM     65  C   UNL A   1      42.959  30.117  36.390  1.00  0.00     0.029 A 
ATOM     66  N   UNL A   1      41.818  30.106  34.480  1.00  0.00    -0.354 N 
ATOM     67  N   UNL A   1      39.649  30.894  32.678  1.00  0.00    -0.248 NA
ATOM     68  C   UNL A   1      37.604  31.957  32.310  1.00  0.00     0.031 C 
ATOM     69  C   UNL A   1      41.792  30.866  36.567  1.00  0.00     0.029 A 
ATOM     70  C   UNL A   1      41.093  30.881  35.370  1.00  0.00     0.049 A 
ATOM     71  H   UNL A   1      41.562  29.929  33.546  1.00  0.00     0.167 HD
ATOM     72  C   UNL A   1      39.243  31.522  33.851  1.00  0.00     0.074 A 
ATOM     73  C   UNL A   1      37.993  32.187  33.556  1.00  0.00     0.031 C 
ATOM     74  C   UNL A   1      39.853  31.548  35.061  1.00  0.00     0.037 A 
BRANCH  61  75
ATOM     75  C   UNL A   1      45.074  28.253  35.296  1.00  0.00     0.057 A 
ATOM     76  C   UNL A   1      46.290  28.946  35.361  1.00  0.00     0.134 A 
ATOM     77  C   UNL A   1      44.960  27.079  36.052  1.00  0.00     0.134 A 
ATOM     78  F   UNL A   1      46.470  30.068  34.649  1.00  0.00    -0.206 F 
ATOM     79  C   UNL A   1      47.358  28.478  36.127  1.00  0.00     0.040 A 
ATOM     80  C   UNL A   1      46.010  26.616  36.844  1.00  0.00     0.040 A 
ATOM     81  F   UNL A   1      43.822  26.368  36.038  1.00  0.00    -0.206 F 
ATOM     82  C   UNL A   1      47.217  27.312  36.878  1.00  0.00     0.006 A 
ENDBRANCH  61  75
BRANCH  62  83
ATOM     83  C   UNL A   1      37.504  31.177  29.496  1.00  0.00     0.057 A 
ATOM     84  C   UNL A   1      36.440  30.305  29.236  1.00  0.00     0.134 A 
ATOM     85  C   UNL A   1      37.456  32.446  28.906  1.00  0.00     0.134 A 
ATOM     86  F   UNL A   1      36.442  29.066  29.750  1.00  0.00    -0.206 F 
ATOM     87  C   UNL A   1      35.380  30.672  28.405  1.00  0.00     0.040 A 
ATOM     88  C   UNL A   1      36.387  32.836  28.096  1.00  0.00     0.040 A 
ATOM     89  F   UNL A   1      38.445  33.327  29.111  1.00  0.00    -0.206 F 
ATOM     90  C   UNL A   1      35.350  31.943  27.837  1.00  0.00     0.006 A 
ENDBRANCH  62  83
BRANCH  74  91
ATOM     91  C   UNL A   1      39.204  32.357  36.148  1.00  0.00     0.057 A 
ATOM     92  C   UNL A   1      39.521  33.704  36.363  1.00  0.00     0.134 A 
ATOM     93  C   UNL A   1      38.215  31.790  36.962  1.00  0.00     0.134 A 
ATOM     94  F   UNL A   1      40.467  34.305  35.626  1.00  0.00    -0.206 F 
ATOM     95  C   UNL A   1      38.893  34.451  37.362  1.00  0.00     0.040 A 
ATOM     96  C   UNL A   1      37.561  32.533  37.945  1.00  0.00     0.040 A 
ATOM     97  F   UNL A   1      37.855  30.507  36.804  1.00  0.00    -0.206 F 
ATOM     98  C   UNL A   1      37.904  33.866  38.151  1.00  0.00     0.006 A 
ENDBRANCH  74  91
ENDBRANCH  48  49
ENDBRANCH  41  43
ENDBRANCH  40  41
ENDBRANCH  39  40
ENDBRANCH  38  39
ENDBRANCH  37  38
ENDBRANCH  36  37
ENDBRANCH   1  36
TORSDOF 21
ENDMDL
