MODEL 1
REMARK VINA RESULT:     -10.0      0.000      0.000
REMARK SMILES O=C(OCCOCCOCCOC(=O)c1oc2cccc3c2c1CCC3)c1ccc(-c2c3nc(c(-c4c(F)cccc4F)c4ccc([nH]4)c(-c4c(F)cccc4F)c4nc(c(-c5c(F)cccc5F)c5ccc2[nH]5)C=C4)C=C3)cc1
REMARK SMILES IDX 7 1 6 2 5 3 4 4 3 5 2 6 1 7 27 8 28 9 80 10 29 11 79 12
REMARK SMILES IDX 30 13 31 14 32 15 73 16 33 17 78 18 72 19 74 20 34 21 77 22
REMARK SMILES IDX 71 23 70 24 35 26 61 27 44 28 60 29 45 30 48 31 59 32 75 33
REMARK SMILES IDX 46 34 47 35 58 37 76 38 49 39 36 40 37 41 42 42 38 43 39 44
REMARK SMILES IDX 41 45 43 46 40 47 62 48 63 49 68 50 64 51 65 52 67 53 69 54
REMARK SMILES IDX 66 55 50 56 51 57 56 58 52 59 53 60 55 61 57 62 54 63 8 64
REMARK SMILES IDX 9 65 10 66 11 67 12 68 13 69 14 70 15 71 16 72 23 73 17 74
REMARK SMILES IDX 22 75 24 76 18 77 21 78 25 79 19 80 20 81 26 82
REMARK H PARENT 74 25 48 36
REMARK Flexibility Score: inf
ROOT
ATOM      1  C   UNL A   1      32.897  35.366  30.131  1.00  0.00     0.188 C 
ENDROOT
BRANCH   1   2
ATOM      2  O   UNL A   1      34.070  35.710  29.428  1.00  0.00    -0.376 OA
BRANCH   2   3
ATOM      3  C   UNL A   1      34.623  34.875  28.433  1.00  0.00     0.202 C 
BRANCH   3   4
ATOM      4  C   UNL A   1      33.852  33.697  27.819  1.00  0.00     0.261 C 
BRANCH   4   5
ATOM      5  O   UNL A   1      34.129  32.394  28.343  1.00  0.00    -0.460 OA
BRANCH   5   6
ATOM      6  C   UNL A   1      34.888  31.960  29.366  1.00  0.00     0.338 C 
ATOM      7  O   UNL A   1      34.597  32.321  30.505  1.00  0.00    -0.246 OA
BRANCH   6   8
ATOM      8  C   UNL A   1      36.124  31.154  29.196  1.00  0.00     0.060 A 
ATOM      9  C   UNL A   1      36.177  29.773  29.018  1.00  0.00     0.016 A 
ATOM     10  C   UNL A   1      37.335  31.875  29.264  1.00  0.00     0.016 A 
ATOM     11  C   UNL A   1      37.390  29.111  29.065  1.00  0.00     0.010 A 
ATOM     12  C   UNL A   1      38.555  31.220  29.299  1.00  0.00     0.010 A 
ATOM     13  C   UNL A   1      38.563  29.833  29.273  1.00  0.00    -0.014 A 
BRANCH  13  14
ATOM     14  C   UNL A   1      39.766  29.057  29.496  1.00  0.00     0.031 A 
ATOM     15  C   UNL A   1      40.160  28.858  30.911  1.00  0.00     0.074 A 
ATOM     16  C   UNL A   1      40.480  28.562  28.470  1.00  0.00     0.049 A 
ATOM     17  N   UNL A   1      41.233  29.267  31.503  1.00  0.00    -0.248 NA
ATOM     18  C   UNL A   1      39.194  28.192  31.795  1.00  0.00     0.031 C 
ATOM     19  C   UNL A   1      40.087  28.465  27.061  1.00  0.00     0.029 A 
ATOM     20  N   UNL A   1      41.697  27.954  28.499  1.00  0.00    -0.354 N 
ATOM     21  C   UNL A   1      41.174  28.746  32.793  1.00  0.00     0.074 A 
ATOM     22  C   UNL A   1      39.849  28.209  32.956  1.00  0.00     0.031 C 
ATOM     23  C   UNL A   1      40.951  27.649  26.420  1.00  0.00     0.029 A 
ATOM     24  C   UNL A   1      42.013  27.272  27.337  1.00  0.00     0.049 A 
ATOM     25  H   UNL A   1      42.299  27.996  29.277  1.00  0.00     0.167 HD
ATOM     26  C   UNL A   1      42.298  28.589  33.545  1.00  0.00     0.037 A 
ATOM     27  C   UNL A   1      43.031  26.395  27.169  1.00  0.00     0.037 A 
ATOM     28  C   UNL A   1      43.353  29.472  33.114  1.00  0.00     0.049 A 
ATOM     29  C   UNL A   1      44.028  26.635  28.241  1.00  0.00     0.074 A 
ATOM     30  C   UNL A   1      43.481  30.842  32.971  1.00  0.00     0.029 A 
ATOM     31  N   UNL A   1      44.428  28.938  32.449  1.00  0.00    -0.354 N 
ATOM     32  N   UNL A   1      44.803  27.679  28.302  1.00  0.00    -0.248 NA
ATOM     33  C   UNL A   1      43.875  25.901  29.490  1.00  0.00     0.031 C 
ATOM     34  C   UNL A   1      44.322  31.021  31.832  1.00  0.00     0.029 A 
ATOM     35  C   UNL A   1      44.676  29.752  31.375  1.00  0.00     0.049 A 
ATOM     36  H   UNL A   1      44.926  28.126  32.696  1.00  0.00     0.167 HD
ATOM     37  C   UNL A   1      44.887  27.981  29.653  1.00  0.00     0.074 A 
ATOM     38  C   UNL A   1      44.389  26.793  30.340  1.00  0.00     0.031 C 
ATOM     39  C   UNL A   1      45.087  29.263  30.082  1.00  0.00     0.037 A 
BRANCH  26  40
ATOM     40  C   UNL A   1      42.562  27.364  34.394  1.00  0.00     0.057 A 
ATOM     41  C   UNL A   1      43.343  26.266  33.976  1.00  0.00     0.134 A 
ATOM     42  C   UNL A   1      42.312  27.424  35.777  1.00  0.00     0.134 A 
ATOM     43  F   UNL A   1      43.709  26.081  32.703  1.00  0.00    -0.206 F 
ATOM     44  C   UNL A   1      43.883  25.337  34.869  1.00  0.00     0.040 A 
ATOM     45  C   UNL A   1      42.890  26.527  36.684  1.00  0.00     0.040 A 
ATOM     46  F   UNL A   1      41.578  28.415  36.303  1.00  0.00    -0.206 F 
ATOM     47  C   UNL A   1      43.693  25.488  36.232  1.00  0.00     0.006 A 
ENDBRANCH  26  40
BRANCH  27  48
ATOM     48  C   UNL A   1      43.060  25.201  26.298  1.00  0.00     0.057 A 
ATOM     49  C   UNL A   1      42.315  24.047  26.606  1.00  0.00     0.134 A 
ATOM     50  C   UNL A   1      44.005  25.069  25.273  1.00  0.00     0.134 A 
ATOM     51  F   UNL A   1      41.450  24.030  27.630  1.00  0.00    -0.206 F 
ATOM     52  C   UNL A   1      42.493  22.837  25.932  1.00  0.00     0.040 A 
ATOM     53  C   UNL A   1      44.204  23.857  24.599  1.00  0.00     0.040 A 
ATOM     54  F   UNL A   1      44.798  26.097  24.940  1.00  0.00    -0.206 F 
ATOM     55  C   UNL A   1      43.450  22.734  24.931  1.00  0.00     0.006 A 
ENDBRANCH  27  48
BRANCH  39  56
ATOM     56  C   UNL A   1      45.495  30.284  29.061  1.00  0.00     0.057 A 
ATOM     57  C   UNL A   1      46.843  30.645  28.962  1.00  0.00     0.134 A 
ATOM     58  C   UNL A   1      44.585  30.997  28.266  1.00  0.00     0.134 A 
ATOM     59  F   UNL A   1      47.762  30.051  29.741  1.00  0.00    -0.206 F 
ATOM     60  C   UNL A   1      47.274  31.649  28.093  1.00  0.00     0.040 A 
ATOM     61  C   UNL A   1      45.008  31.979  27.367  1.00  0.00     0.040 A 
ATOM     62  F   UNL A   1      43.264  30.799  28.377  1.00  0.00    -0.206 F 
ATOM     63  C   UNL A   1      46.357  32.310  27.279  1.00  0.00     0.006 A 
ENDBRANCH  39  56
ENDBRANCH  13  14
ENDBRANCH   6   8
ENDBRANCH   5   6
ENDBRANCH   4   5
ENDBRANCH   3   4
ENDBRANCH   2   3
ENDBRANCH   1   2
BRANCH   1  64
ATOM     64  C   UNL A   1      32.468  36.380  31.219  1.00  0.00     0.188 C 
BRANCH  64  65
ATOM     65  O   UNL A   1      33.189  37.585  31.460  1.00  0.00    -0.376 OA
BRANCH  65  66
ATOM     66  C   UNL A   1      34.018  37.739  32.595  1.00  0.00     0.202 C 
BRANCH  66  67
ATOM     67  C   UNL A   1      34.016  36.588  33.600  1.00  0.00     0.261 C 
BRANCH  67  68
ATOM     68  O   UNL A   1      35.156  35.724  33.523  1.00  0.00    -0.457 OA
BRANCH  68  69
ATOM     69  C   UNL A   1      34.877  34.392  33.490  1.00  0.00     0.374 C 
ATOM     70  O   UNL A   1      33.759  33.900  33.326  1.00  0.00    -0.242 OA
BRANCH  69  71
ATOM     71  C   UNL A   1      36.090  33.647  33.663  1.00  0.00     0.216 A 
ATOM     72  O   UNL A   1      36.230  32.826  34.771  1.00  0.00    -0.449 OA
ATOM     73  C   UNL A   1      37.241  33.596  32.902  1.00  0.00     0.014 A 
ATOM     74  C   UNL A   1      37.490  32.294  34.725  1.00  0.00     0.135 A 
ATOM     75  C   UNL A   1      38.133  32.780  33.614  1.00  0.00     0.028 A 
ATOM     76  C   UNL A   1      37.698  34.244  31.647  1.00  0.00     0.041 C 
ATOM     77  C   UNL A   1      38.106  31.426  35.617  1.00  0.00     0.048 A 
ATOM     78  C   UNL A   1      39.470  32.508  33.329  1.00  0.00    -0.037 A 
ATOM     79  C   UNL A   1      39.243  34.439  31.695  1.00  0.00     0.010 C 
ATOM     80  C   UNL A   1      39.446  31.103  35.323  1.00  0.00     0.004 A 
ATOM     81  C   UNL A   1      40.122  31.635  34.205  1.00  0.00     0.004 A 
ATOM     82  C   UNL A   1      40.054  33.164  32.106  1.00  0.00     0.036 C 
ENDBRANCH  69  71
ENDBRANCH  68  69
ENDBRANCH  67  68
ENDBRANCH  66  67
ENDBRANCH  65  66
ENDBRANCH  64  65
ENDBRANCH   1  64
TORSDOF 17
ENDMDL
MODEL 2
REMARK VINA RESULT:      -9.8      5.131     10.568
REMARK SMILES O=C(OCCOCCOCCOC(=O)c1oc2cccc3c2c1CCC3)c1ccc(-c2c3nc(c(-c4c(F)cccc4F)c4ccc([nH]4)c(-c4c(F)cccc4F)c4nc(c(-c5c(F)cccc5F)c5ccc2[nH]5)C=C4)C=C3)cc1
REMARK SMILES IDX 7 1 6 2 5 3 4 4 3 5 2 6 1 7 27 8 28 9 80 10 29 11 79 12
REMARK SMILES IDX 30 13 31 14 32 15 73 16 33 17 78 18 72 19 74 20 34 21 77 22
REMARK SMILES IDX 71 23 70 24 35 26 61 27 44 28 60 29 45 30 48 31 59 32 75 33
REMARK SMILES IDX 46 34 47 35 58 37 76 38 49 39 36 40 37 41 42 42 38 43 39 44
REMARK SMILES IDX 41 45 43 46 40 47 62 48 63 49 68 50 64 51 65 52 67 53 69 54
REMARK SMILES IDX 66 55 50 56 51 57 56 58 52 59 53 60 55 61 57 62 54 63 8 64
REMARK SMILES IDX 9 65 10 66 11 67 12 68 13 69 14 70 15 71 16 72 23 73 17 74
REMARK SMILES IDX 22 75 24 76 18 77 21 78 25 79 19 80 20 81 26 82
REMARK H PARENT 74 25 48 36
REMARK Flexibility Score: inf
ROOT
ATOM      1  C   UNL A   1      40.231  21.775  26.280  1.00  0.00     0.188 C 
ENDROOT
BRANCH   1   2
ATOM      2  O   UNL A   1      40.529  20.882  27.331  1.00  0.00    -0.376 OA
BRANCH   2   3
ATOM      3  C   UNL A   1      41.601  19.966  27.259  1.00  0.00     0.202 C 
BRANCH   3   4
ATOM      4  C   UNL A   1      42.153  19.440  25.925  1.00  0.00     0.261 C 
BRANCH   4   5
ATOM      5  O   UNL A   1      43.567  19.526  25.727  1.00  0.00    -0.460 OA
BRANCH   5   6
ATOM      6  C   UNL A   1      44.356  20.443  25.138  1.00  0.00     0.338 C 
ATOM      7  O   UNL A   1      45.165  20.064  24.292  1.00  0.00    -0.246 OA
BRANCH   6   8
ATOM      8  C   UNL A   1      44.387  21.878  25.521  1.00  0.00     0.060 A 
ATOM      9  C   UNL A   1      45.219  22.445  26.485  1.00  0.00     0.016 A 
ATOM     10  C   UNL A   1      43.455  22.705  24.860  1.00  0.00     0.016 A 
ATOM     11  C   UNL A   1      45.023  23.752  26.891  1.00  0.00     0.010 A 
ATOM     12  C   UNL A   1      43.261  24.019  25.252  1.00  0.00     0.010 A 
ATOM     13  C   UNL A   1      44.002  24.507  26.318  1.00  0.00    -0.014 A 
BRANCH  13  14
ATOM     14  C   UNL A   1      43.739  25.798  26.923  1.00  0.00     0.031 A 
ATOM     15  C   UNL A   1      44.752  26.850  26.679  1.00  0.00     0.074 A 
ATOM     16  C   UNL A   1      42.641  26.010  27.671  1.00  0.00     0.049 A 
ATOM     17  N   UNL A   1      45.499  27.453  27.545  1.00  0.00    -0.248 NA
ATOM     18  C   UNL A   1      45.027  27.215  25.283  1.00  0.00     0.031 C 
ATOM     19  C   UNL A   1      41.453  25.160  27.790  1.00  0.00     0.029 A 
ATOM     20  N   UNL A   1      42.327  27.097  28.426  1.00  0.00    -0.354 N 
ATOM     21  C   UNL A   1      46.207  28.415  26.829  1.00  0.00     0.074 A 
ATOM     22  C   UNL A   1      45.977  28.138  25.436  1.00  0.00     0.031 C 
ATOM     23  C   UNL A   1      40.470  25.862  28.395  1.00  0.00     0.029 A 
ATOM     24  C   UNL A   1      40.997  27.151  28.808  1.00  0.00     0.049 A 
ATOM     25  H   UNL A   1      42.986  27.783  28.678  1.00  0.00     0.167 HD
ATOM     26  C   UNL A   1      46.738  29.507  27.445  1.00  0.00     0.037 A 
ATOM     27  C   UNL A   1      40.358  28.214  29.353  1.00  0.00     0.037 A 
ATOM     28  C   UNL A   1      46.958  29.270  28.850  1.00  0.00     0.049 A 
ATOM     29  C   UNL A   1      41.381  29.127  29.917  1.00  0.00     0.074 A 
ATOM     30  C   UNL A   1      47.678  28.343  29.582  1.00  0.00     0.029 A 
ATOM     31  N   UNL A   1      46.133  29.885  29.758  1.00  0.00    -0.354 N 
ATOM     32  N   UNL A   1      42.083  28.875  30.984  1.00  0.00    -0.248 NA
ATOM     33  C   UNL A   1      41.925  30.162  29.047  1.00  0.00     0.031 C 
ATOM     34  C   UNL A   1      46.903  28.113  30.757  1.00  0.00     0.029 A 
ATOM     35  C   UNL A   1      45.779  28.935  30.680  1.00  0.00     0.049 A 
ATOM     36  H   UNL A   1      45.849  30.827  29.749  1.00  0.00     0.167 HD
ATOM     37  C   UNL A   1      43.342  29.389  30.712  1.00  0.00     0.074 A 
ATOM     38  C   UNL A   1      43.155  30.262  29.557  1.00  0.00     0.031 C 
ATOM     39  C   UNL A   1      44.466  28.845  31.269  1.00  0.00     0.037 A 
BRANCH  26  40
ATOM     40  C   UNL A   1      46.676  30.900  26.858  1.00  0.00     0.057 A 
ATOM     41  C   UNL A   1      45.477  31.584  26.567  1.00  0.00     0.134 A 
ATOM     42  C   UNL A   1      47.828  31.708  26.892  1.00  0.00     0.134 A 
ATOM     43  F   UNL A   1      44.286  30.976  26.538  1.00  0.00    -0.206 F 
ATOM     44  C   UNL A   1      45.419  32.968  26.387  1.00  0.00     0.040 A 
ATOM     45  C   UNL A   1      47.772  33.102  26.762  1.00  0.00     0.040 A 
ATOM     46  F   UNL A   1      49.033  31.180  27.151  1.00  0.00    -0.206 F 
ATOM     47  C   UNL A   1      46.561  33.738  26.526  1.00  0.00     0.006 A 
ENDBRANCH  26  40
BRANCH  27  48
ATOM     48  C   UNL A   1      38.943  28.602  29.178  1.00  0.00     0.057 A 
ATOM     49  C   UNL A   1      38.482  29.187  27.984  1.00  0.00     0.134 A 
ATOM     50  C   UNL A   1      38.057  28.635  30.262  1.00  0.00     0.134 A 
ATOM     51  F   UNL A   1      39.278  29.297  26.911  1.00  0.00    -0.206 F 
ATOM     52  C   UNL A   1      37.215  29.764  27.871  1.00  0.00     0.040 A 
ATOM     53  C   UNL A   1      36.789  29.223  30.166  1.00  0.00     0.040 A 
ATOM     54  F   UNL A   1      38.423  28.148  31.457  1.00  0.00    -0.206 F 
ATOM     55  C   UNL A   1      36.367  29.795  28.969  1.00  0.00     0.006 A 
ENDBRANCH  27  48
BRANCH  39  56
ATOM     56  C   UNL A   1      44.284  27.870  32.394  1.00  0.00     0.057 A 
ATOM     57  C   UNL A   1      44.378  28.327  33.713  1.00  0.00     0.134 A 
ATOM     58  C   UNL A   1      44.139  26.486  32.209  1.00  0.00     0.134 A 
ATOM     59  F   UNL A   1      44.584  29.631  33.964  1.00  0.00    -0.206 F 
ATOM     60  C   UNL A   1      44.303  27.457  34.802  1.00  0.00     0.040 A 
ATOM     61  C   UNL A   1      44.028  25.609  33.291  1.00  0.00     0.040 A 
ATOM     62  F   UNL A   1      44.154  25.945  30.984  1.00  0.00    -0.206 F 
ATOM     63  C   UNL A   1      44.112  26.093  34.593  1.00  0.00     0.006 A 
ENDBRANCH  39  56
ENDBRANCH  13  14
ENDBRANCH   6   8
ENDBRANCH   5   6
ENDBRANCH   4   5
ENDBRANCH   3   4
ENDBRANCH   2   3
ENDBRANCH   1   2
BRANCH   1  64
ATOM     64  C   UNL A   1      38.731  22.116  26.120  1.00  0.00     0.188 C 
BRANCH  64  65
ATOM     65  O   UNL A   1      37.937  21.574  25.067  1.00  0.00    -0.376 OA
BRANCH  65  66
ATOM     66  C   UNL A   1      36.609  21.143  25.287  1.00  0.00     0.202 C 
BRANCH  66  67
ATOM     67  C   UNL A   1      35.501  22.096  24.841  1.00  0.00     0.261 C 
BRANCH  67  68
ATOM     68  O   UNL A   1      34.398  22.199  25.748  1.00  0.00    -0.457 OA
BRANCH  68  69
ATOM     69  C   UNL A   1      33.267  22.751  25.230  1.00  0.00     0.374 C 
ATOM     70  O   UNL A   1      32.227  22.142  24.973  1.00  0.00    -0.242 OA
BRANCH  69  71
ATOM     71  C   UNL A   1      33.467  24.159  25.043  1.00  0.00     0.216 A 
ATOM     72  O   UNL A   1      33.602  24.978  26.152  1.00  0.00    -0.449 OA
ATOM     73  C   UNL A   1      33.534  24.921  23.894  1.00  0.00     0.014 A 
ATOM     74  C   UNL A   1      33.712  26.264  25.696  1.00  0.00     0.135 A 
ATOM     75  C   UNL A   1      33.636  26.253  24.325  1.00  0.00     0.028 A 
ATOM     76  C   UNL A   1      33.442  24.637  22.439  1.00  0.00     0.041 C 
ATOM     77  C   UNL A   1      33.851  27.440  26.419  1.00  0.00     0.048 A 
ATOM     78  C   UNL A   1      33.615  27.414  23.555  1.00  0.00    -0.037 A 
ATOM     79  C   UNL A   1      32.817  25.863  21.709  1.00  0.00     0.010 C 
ATOM     80  C   UNL A   1      33.878  28.625  25.656  1.00  0.00     0.004 A 
ATOM     81  C   UNL A   1      33.757  28.618  24.250  1.00  0.00     0.004 A 
ATOM     82  C   UNL A   1      33.465  27.242  22.066  1.00  0.00     0.036 C 
ENDBRANCH  69  71
ENDBRANCH  68  69
ENDBRANCH  67  68
ENDBRANCH  66  67
ENDBRANCH  65  66
ENDBRANCH  64  65
ENDBRANCH   1  64
TORSDOF 17
ENDMDL
MODEL 3
REMARK VINA RESULT:      -9.6      4.988     10.875
REMARK SMILES O=C(OCCOCCOCCOC(=O)c1oc2cccc3c2c1CCC3)c1ccc(-c2c3nc(c(-c4c(F)cccc4F)c4ccc([nH]4)c(-c4c(F)cccc4F)c4nc(c(-c5c(F)cccc5F)c5ccc2[nH]5)C=C4)C=C3)cc1
REMARK SMILES IDX 7 1 6 2 5 3 4 4 3 5 2 6 1 7 27 8 28 9 80 10 29 11 79 12
REMARK SMILES IDX 30 13 31 14 32 15 73 16 33 17 78 18 72 19 74 20 34 21 77 22
REMARK SMILES IDX 71 23 70 24 35 26 61 27 44 28 60 29 45 30 48 31 59 32 75 33
REMARK SMILES IDX 46 34 47 35 58 37 76 38 49 39 36 40 37 41 42 42 38 43 39 44
REMARK SMILES IDX 41 45 43 46 40 47 62 48 63 49 68 50 64 51 65 52 67 53 69 54
REMARK SMILES IDX 66 55 50 56 51 57 56 58 52 59 53 60 55 61 57 62 54 63 8 64
REMARK SMILES IDX 9 65 10 66 11 67 12 68 13 69 14 70 15 71 16 72 23 73 17 74
REMARK SMILES IDX 22 75 24 76 18 77 21 78 25 79 19 80 20 81 26 82
REMARK H PARENT 74 25 48 36
REMARK Flexibility Score: inf
ROOT
ATOM      1  C   UNL A   1      41.384  19.622  26.140  1.00  0.00     0.188 C 
ENDROOT
BRANCH   1   2
ATOM      2  O   UNL A   1      41.118  20.641  27.079  1.00  0.00    -0.376 OA
BRANCH   2   3
ATOM      3  C   UNL A   1      40.837  21.969  26.689  1.00  0.00     0.202 C 
BRANCH   3   4
ATOM      4  C   UNL A   1      39.409  22.469  26.422  1.00  0.00     0.261 C 
BRANCH   4   5
ATOM      5  O   UNL A   1      39.181  23.877  26.533  1.00  0.00    -0.460 OA
BRANCH   5   6
ATOM      6  C   UNL A   1      40.008  24.937  26.595  1.00  0.00     0.338 C 
ATOM      7  O   UNL A   1      41.065  24.893  25.968  1.00  0.00    -0.246 OA
BRANCH   6   8
ATOM      8  C   UNL A   1      39.773  26.121  27.461  1.00  0.00     0.060 A 
ATOM      9  C   UNL A   1      40.033  27.446  27.117  1.00  0.00     0.016 A 
ATOM     10  C   UNL A   1      39.279  25.841  28.753  1.00  0.00     0.016 A 
ATOM     11  C   UNL A   1      39.956  28.442  28.073  1.00  0.00     0.010 A 
ATOM     12  C   UNL A   1      39.187  26.835  29.713  1.00  0.00     0.010 A 
ATOM     13  C   UNL A   1      39.599  28.117  29.380  1.00  0.00    -0.014 A 
BRANCH  13  14
ATOM     14  C   UNL A   1      39.721  29.176  30.362  1.00  0.00     0.031 A 
ATOM     15  C   UNL A   1      38.540  30.056  30.522  1.00  0.00     0.074 A 
ATOM     16  C   UNL A   1      40.852  29.347  31.071  1.00  0.00     0.049 A 
ATOM     17  N   UNL A   1      38.455  31.325  30.291  1.00  0.00    -0.248 NA
ATOM     18  C   UNL A   1      37.272  29.423  30.908  1.00  0.00     0.031 C 
ATOM     19  C   UNL A   1      41.983  28.424  31.198  1.00  0.00     0.029 A 
ATOM     20  N   UNL A   1      41.182  30.368  31.906  1.00  0.00    -0.354 N 
ATOM     21  C   UNL A   1      37.172  31.695  30.684  1.00  0.00     0.074 A 
ATOM     22  C   UNL A   1      36.451  30.474  30.930  1.00  0.00     0.031 C 
ATOM     23  C   UNL A   1      42.767  28.831  32.220  1.00  0.00     0.029 A 
ATOM     24  C   UNL A   1      42.262  30.095  32.728  1.00  0.00     0.049 A 
ATOM     25  H   UNL A   1      40.698  31.225  31.924  1.00  0.00     0.167 HD
ATOM     26  C   UNL A   1      36.874  32.985  31.003  1.00  0.00     0.037 A 
ATOM     27  C   UNL A   1      42.660  30.817  33.802  1.00  0.00     0.037 A 
ATOM     28  C   UNL A   1      37.792  33.910  30.387  1.00  0.00     0.049 A 
ATOM     29  C   UNL A   1      42.082  32.178  33.682  1.00  0.00     0.074 A 
ATOM     30  C   UNL A   1      38.178  34.182  29.087  1.00  0.00     0.029 A 
ATOM     31  N   UNL A   1      38.719  34.543  31.177  1.00  0.00    -0.354 N 
ATOM     32  N   UNL A   1      42.470  33.067  32.813  1.00  0.00    -0.248 NA
ATOM     33  C   UNL A   1      40.769  32.415  34.268  1.00  0.00     0.031 C 
ATOM     34  C   UNL A   1      39.559  34.527  29.171  1.00  0.00     0.029 A 
ATOM     35  C   UNL A   1      39.918  34.473  30.518  1.00  0.00     0.049 A 
ATOM     36  H   UNL A   1      38.554  34.966  32.051  1.00  0.00     0.167 HD
ATOM     37  C   UNL A   1      41.307  33.718  32.427  1.00  0.00     0.074 A 
ATOM     38  C   UNL A   1      40.314  33.351  33.432  1.00  0.00     0.031 C 
ATOM     39  C   UNL A   1      41.181  34.265  31.181  1.00  0.00     0.037 A 
BRANCH  26  40
ATOM     40  C   UNL A   1      36.009  33.367  32.184  1.00  0.00     0.057 A 
ATOM     41  C   UNL A   1      36.340  33.095  33.529  1.00  0.00     0.134 A 
ATOM     42  C   UNL A   1      34.988  34.319  32.004  1.00  0.00     0.134 A 
ATOM     43  F   UNL A   1      37.315  32.249  33.876  1.00  0.00    -0.206 F 
ATOM     44  C   UNL A   1      35.747  33.761  34.604  1.00  0.00     0.040 A 
ATOM     45  C   UNL A   1      34.424  35.027  33.074  1.00  0.00     0.040 A 
ATOM     46  F   UNL A   1      34.575  34.664  30.776  1.00  0.00    -0.206 F 
ATOM     47  C   UNL A   1      34.816  34.760  34.379  1.00  0.00     0.006 A 
ENDBRANCH  26  40
BRANCH  27  48
ATOM     48  C   UNL A   1      43.289  30.319  35.043  1.00  0.00     0.057 A 
ATOM     49  C   UNL A   1      44.641  30.575  35.338  1.00  0.00     0.134 A 
ATOM     50  C   UNL A   1      42.649  29.375  35.856  1.00  0.00     0.134 A 
ATOM     51  F   UNL A   1      45.378  31.389  34.569  1.00  0.00    -0.206 F 
ATOM     52  C   UNL A   1      45.315  29.937  36.381  1.00  0.00     0.040 A 
ATOM     53  C   UNL A   1      43.318  28.717  36.896  1.00  0.00     0.040 A 
ATOM     54  F   UNL A   1      41.376  29.026  35.624  1.00  0.00    -0.206 F 
ATOM     55  C   UNL A   1      44.658  28.994  37.158  1.00  0.00     0.006 A 
ENDBRANCH  27  48
BRANCH  39  56
ATOM     56  C   UNL A   1      42.422  34.394  30.348  1.00  0.00     0.057 A 
ATOM     57  C   UNL A   1      42.827  33.312  29.558  1.00  0.00     0.134 A 
ATOM     58  C   UNL A   1      43.283  35.501  30.399  1.00  0.00     0.134 A 
ATOM     59  F   UNL A   1      42.086  32.193  29.514  1.00  0.00    -0.206 F 
ATOM     60  C   UNL A   1      44.016  33.338  28.827  1.00  0.00     0.040 A 
ATOM     61  C   UNL A   1      44.458  35.554  29.645  1.00  0.00     0.040 A 
ATOM     62  F   UNL A   1      43.035  36.535  31.216  1.00  0.00    -0.206 F 
ATOM     63  C   UNL A   1      44.829  34.469  28.857  1.00  0.00     0.006 A 
ENDBRANCH  39  56
ENDBRANCH  13  14
ENDBRANCH   6   8
ENDBRANCH   5   6
ENDBRANCH   4   5
ENDBRANCH   3   4
ENDBRANCH   2   3
ENDBRANCH   1   2
BRANCH   1  64
ATOM     64  C   UNL A   1      42.882  19.292  25.943  1.00  0.00     0.188 C 
BRANCH  64  65
ATOM     65  O   UNL A   1      43.659  19.880  24.903  1.00  0.00    -0.376 OA
BRANCH  65  66
ATOM     66  C   UNL A   1      44.826  19.256  24.405  1.00  0.00     0.202 C 
BRANCH  66  67
ATOM     67  C   UNL A   1      46.131  20.036  24.556  1.00  0.00     0.261 C 
BRANCH  67  68
ATOM     68  O   UNL A   1      46.095  21.082  25.533  1.00  0.00    -0.457 OA
BRANCH  68  69
ATOM     69  C   UNL A   1      45.994  22.344  25.032  1.00  0.00     0.374 C 
ATOM     70  O   UNL A   1      46.389  22.706  23.922  1.00  0.00    -0.242 OA
BRANCH  69  71
ATOM     71  C   UNL A   1      45.345  23.188  25.993  1.00  0.00     0.216 A 
ATOM     72  O   UNL A   1      44.630  22.609  27.030  1.00  0.00    -0.449 OA
ATOM     73  C   UNL A   1      45.263  24.562  26.087  1.00  0.00     0.014 A 
ATOM     74  C   UNL A   1      44.064  23.626  27.750  1.00  0.00     0.135 A 
ATOM     75  C   UNL A   1      44.408  24.821  27.169  1.00  0.00     0.028 A 
ATOM     76  C   UNL A   1      45.785  25.701  25.289  1.00  0.00     0.041 C 
ATOM     77  C   UNL A   1      43.247  23.556  28.871  1.00  0.00     0.048 A 
ATOM     78  C   UNL A   1      43.912  26.049  27.603  1.00  0.00    -0.037 A 
ATOM     79  C   UNL A   1      44.789  26.895  25.375  1.00  0.00     0.010 C 
ATOM     80  C   UNL A   1      42.769  24.791  29.353  1.00  0.00     0.004 A 
ATOM     81  C   UNL A   1      43.088  26.017  28.732  1.00  0.00     0.004 A 
ATOM     82  C   UNL A   1      44.332  27.268  26.826  1.00  0.00     0.036 C 
ENDBRANCH  69  71
ENDBRANCH  68  69
ENDBRANCH  67  68
ENDBRANCH  66  67
ENDBRANCH  65  66
ENDBRANCH  64  65
ENDBRANCH   1  64
TORSDOF 17
ENDMDL
