MODEL 1
REMARK VINA RESULT:     -10.0      0.000      0.000
REMARK SMILES COc1ccc(CCN2C(=O)C[C@@H](C(=O)OCCOCCOCCOC(=O)c3ccc(-c4c5nc(c(-c6c(F)cccc6F)c6ccc([nH]6)c(-c6c(F)cccc6F)c6nc(c(-c7c(F)cccc7F)c7ccc4[nH]7)C=C6)C=C5)cc3)S/C2=[NH+]\c2ccc(F)cc2)cc1OC
REMARK SMILES IDX 20 1 19 2 18 3 17 4 16 5 14 6 15 7 13 8 9 9 10 10 83 11
REMARK SMILES IDX 11 12 12 13 82 14 84 15 8 17 7 18 6 19 3 20 4 21 93 22 5 23
REMARK SMILES IDX 92 24 2 25 1 26 94 27 95 28 85 29 86 30 91 31 87 32 90 33
REMARK SMILES IDX 88 34 89 35 21 36 22 37 23 38 24 39 25 40 26 41 27 42 28 43
REMARK SMILES IDX 29 44 81 45 30 46 80 47 31 48 32 49 33 50 74 51 34 52 79 53
REMARK SMILES IDX 73 54 75 55 35 56 78 57 72 58 71 59 36 61 62 62 45 63 61 64
REMARK SMILES IDX 46 65 49 66 60 67 76 68 47 69 48 70 59 72 77 73 50 74 37 75
REMARK SMILES IDX 38 76 43 77 39 78 40 79 42 80 44 81 41 82 63 83 64 84 69 85
REMARK SMILES IDX 65 86 66 87 68 88 70 89 67 90 51 91 52 92 57 93 53 94 54 95
REMARK SMILES IDX 56 96 58 97 55 98
REMARK H PARENT 84 16 75 60 49 71
REMARK Flexibility Score: inf
ROOT
ATOM      1  C   UNL A   1      33.702  28.271  24.130  1.00  0.00     0.188 C 
ENDROOT
BRANCH   1   2
ATOM      2  O   UNL A   1      33.606  28.251  22.709  1.00  0.00    -0.376 OA
BRANCH   2   3
ATOM      3  C   UNL A   1      32.532  27.545  22.113  1.00  0.00     0.202 C 
BRANCH   3   4
ATOM      4  C   UNL A   1      32.870  26.302  21.277  1.00  0.00     0.261 C 
BRANCH   4   5
ATOM      5  O   UNL A   1      32.100  25.105  21.558  1.00  0.00    -0.462 OA
BRANCH   5   6
ATOM      6  C   UNL A   1      32.814  23.991  21.881  1.00  0.00     0.320 C 
ATOM      7  O   UNL A   1      33.506  23.378  21.070  1.00  0.00    -0.251 OA
BRANCH   6   8
ATOM      8  C   UNL A   1      32.666  23.469  23.317  1.00  0.00     0.180 C 
ATOM      9  N   UNL A   1      34.491  23.012  25.615  1.00  0.00    -0.191 N 
ATOM     10  C   UNL A   1      33.688  24.133  25.580  1.00  0.00     0.311 C 
ATOM     11  C   UNL A   1      34.068  21.791  25.124  1.00  0.00     0.319 C 
ATOM     12  O   UNL A   1      33.482  24.836  26.570  1.00  0.00    -0.247 OA
ATOM     13  C   UNL A   1      33.145  24.549  24.251  1.00  0.00     0.155 C 
ATOM     14  S   UNL A   1      33.224  21.797  23.604  1.00  0.00    -0.022 SA
ATOM     15  N   UNL A   1      34.375  20.699  25.758  1.00  0.00    -0.235 N 
ATOM     16  H   UNL A   1      34.879  20.764  26.603  1.00  0.00     0.313 HD
BRANCH   9  17
ATOM     17  C   UNL A   1      35.665  23.082  26.497  1.00  0.00     0.251 C 
BRANCH  17  18
ATOM     18  C   UNL A   1      36.826  23.876  25.844  1.00  0.00     0.082 C 
BRANCH  18  19
ATOM     19  C   UNL A   1      38.215  23.332  26.130  1.00  0.00    -0.040 A 
ATOM     20  C   UNL A   1      40.838  22.333  26.466  1.00  0.00     0.160 A 
ATOM     21  C   UNL A   1      39.785  21.470  26.158  1.00  0.00     0.051 A 
ATOM     22  C   UNL A   1      40.572  23.689  26.692  1.00  0.00     0.160 A 
ATOM     23  C   UNL A   1      38.480  21.959  26.029  1.00  0.00     0.008 A 
ATOM     24  C   UNL A   1      39.272  24.183  26.487  1.00  0.00     0.054 A 
BRANCH  20  25
ATOM     25  O   UNL A   1      42.137  21.905  26.402  1.00  0.00    -0.493 OA
ATOM     26  C   UNL A   1      42.310  20.555  25.993  1.00  0.00     0.278 C 
ENDBRANCH  20  25
BRANCH  22  27
ATOM     27  O   UNL A   1      41.486  24.635  27.085  1.00  0.00    -0.493 OA
ATOM     28  C   UNL A   1      42.036  25.441  26.045  1.00  0.00     0.278 C 
ENDBRANCH  22  27
ENDBRANCH  18  19
ENDBRANCH  17  18
ENDBRANCH   9  17
BRANCH  15  29
ATOM     29  C   UNL A   1      34.010  19.427  25.280  1.00  0.00     0.125 A 
ATOM     30  C   UNL A   1      32.738  18.880  25.510  1.00  0.00     0.055 A 
ATOM     31  C   UNL A   1      34.961  18.660  24.597  1.00  0.00     0.055 A 
ATOM     32  C   UNL A   1      32.418  17.600  25.038  1.00  0.00     0.043 A 
ATOM     33  C   UNL A   1      34.643  17.386  24.117  1.00  0.00     0.043 A 
ATOM     34  C   UNL A   1      33.375  16.866  24.345  1.00  0.00     0.123 A 
ATOM     35  F   UNL A   1      33.057  15.659  23.857  1.00  0.00    -0.207 F 
ENDBRANCH  15  29
ENDBRANCH   6   8
ENDBRANCH   5   6
ENDBRANCH   4   5
ENDBRANCH   3   4
ENDBRANCH   2   3
ENDBRANCH   1   2
BRANCH   1  36
ATOM     36  C   UNL A   1      32.450  27.988  24.984  1.00  0.00     0.188 C 
BRANCH  36  37
ATOM     37  O   UNL A   1      32.660  28.161  26.371  1.00  0.00    -0.376 OA
BRANCH  37  38
ATOM     38  C   UNL A   1      31.815  29.103  27.002  1.00  0.00     0.202 C 
BRANCH  38  39
ATOM     39  C   UNL A   1      32.418  30.513  27.023  1.00  0.00     0.261 C 
BRANCH  39  40
ATOM     40  O   UNL A   1      33.863  30.570  27.014  1.00  0.00    -0.460 OA
BRANCH  40  41
ATOM     41  C   UNL A   1      34.439  31.619  27.655  1.00  0.00     0.338 C 
ATOM     42  O   UNL A   1      33.937  32.704  27.856  1.00  0.00    -0.246 OA
BRANCH  41  43
ATOM     43  C   UNL A   1      35.706  31.148  28.276  1.00  0.00     0.060 A 
ATOM     44  C   UNL A   1      35.792  29.821  28.722  1.00  0.00     0.016 A 
ATOM     45  C   UNL A   1      36.798  31.999  28.440  1.00  0.00     0.016 A 
ATOM     46  C   UNL A   1      36.936  29.355  29.377  1.00  0.00     0.010 A 
ATOM     47  C   UNL A   1      37.944  31.534  29.105  1.00  0.00     0.010 A 
ATOM     48  C   UNL A   1      38.008  30.221  29.611  1.00  0.00    -0.014 A 
BRANCH  48  49
ATOM     49  C   UNL A   1      39.114  29.831  30.528  1.00  0.00     0.031 A 
ATOM     50  C   UNL A   1      39.124  30.398  31.924  1.00  0.00     0.074 A 
ATOM     51  C   UNL A   1      40.099  28.995  30.150  1.00  0.00     0.049 A 
ATOM     52  N   UNL A   1      40.046  30.326  32.850  1.00  0.00    -0.248 NA
ATOM     53  C   UNL A   1      37.926  31.155  32.325  1.00  0.00     0.031 C 
ATOM     54  C   UNL A   1      40.187  28.314  28.861  1.00  0.00     0.029 A 
ATOM     55  N   UNL A   1      41.231  28.595  30.820  1.00  0.00    -0.354 N 
ATOM     56  C   UNL A   1      39.555  31.050  33.930  1.00  0.00     0.074 A 
ATOM     57  C   UNL A   1      38.263  31.570  33.538  1.00  0.00     0.031 C 
ATOM     58  C   UNL A   1      41.325  27.595  28.825  1.00  0.00     0.029 A 
ATOM     59  C   UNL A   1      42.066  27.801  30.068  1.00  0.00     0.049 A 
ATOM     60  H   UNL A   1      41.426  28.851  31.751  1.00  0.00     0.167 HD
ATOM     61  C   UNL A   1      40.126  31.263  35.140  1.00  0.00     0.037 A 
ATOM     62  C   UNL A   1      43.300  27.328  30.337  1.00  0.00     0.037 A 
ATOM     63  C   UNL A   1      41.407  30.741  35.539  1.00  0.00     0.049 A 
ATOM     64  C   UNL A   1      43.958  27.655  31.656  1.00  0.00     0.074 A 
ATOM     65  C   UNL A   1      42.060  30.893  36.750  1.00  0.00     0.029 A 
ATOM     66  N   UNL A   1      42.234  29.972  34.735  1.00  0.00    -0.354 N 
ATOM     67  N   UNL A   1      43.489  28.342  32.670  1.00  0.00    -0.248 NA
ATOM     68  C   UNL A   1      45.320  27.141  31.866  1.00  0.00     0.031 C 
ATOM     69  C   UNL A   1      43.307  30.266  36.659  1.00  0.00     0.029 A 
ATOM     70  C   UNL A   1      43.402  29.666  35.415  1.00  0.00     0.049 A 
ATOM     71  H   UNL A   1      42.023  29.685  33.816  1.00  0.00     0.167 HD
ATOM     72  C   UNL A   1      44.479  28.308  33.647  1.00  0.00     0.074 A 
ATOM     73  C   UNL A   1      45.571  27.527  33.109  1.00  0.00     0.031 C 
ATOM     74  C   UNL A   1      44.481  28.874  34.880  1.00  0.00     0.037 A 
BRANCH  61  75
ATOM     75  C   UNL A   1      39.382  32.129  36.115  1.00  0.00     0.057 A 
ATOM     76  C   UNL A   1      38.334  31.635  36.902  1.00  0.00     0.134 A 
ATOM     77  C   UNL A   1      39.747  33.470  36.296  1.00  0.00     0.134 A 
ATOM     78  F   UNL A   1      37.925  30.364  36.770  1.00  0.00    -0.206 F 
ATOM     79  C   UNL A   1      37.661  32.448  37.816  1.00  0.00     0.040 A 
ATOM     80  C   UNL A   1      39.103  34.284  37.228  1.00  0.00     0.040 A 
ATOM     81  F   UNL A   1      40.747  34.007  35.579  1.00  0.00    -0.206 F 
ATOM     82  C   UNL A   1      38.051  33.775  37.987  1.00  0.00     0.006 A 
ENDBRANCH  61  75
BRANCH  62  83
ATOM     83  C   UNL A   1      44.025  26.506  29.331  1.00  0.00     0.057 A 
ATOM     84  C   UNL A   1      44.061  25.109  29.429  1.00  0.00     0.134 A 
ATOM     85  C   UNL A   1      44.737  27.095  28.279  1.00  0.00     0.134 A 
ATOM     86  F   UNL A   1      43.428  24.487  30.434  1.00  0.00    -0.206 F 
ATOM     87  C   UNL A   1      44.791  24.330  28.528  1.00  0.00     0.040 A 
ATOM     88  C   UNL A   1      45.446  26.327  27.353  1.00  0.00     0.040 A 
ATOM     89  F   UNL A   1      44.751  28.428  28.133  1.00  0.00    -0.206 F 
ATOM     90  C   UNL A   1      45.482  24.940  27.483  1.00  0.00     0.006 A 
ENDBRANCH  62  83
BRANCH  74  91
ATOM     91  C   UNL A   1      45.673  28.623  35.761  1.00  0.00     0.057 A 
ATOM     92  C   UNL A   1      46.769  29.495  35.804  1.00  0.00     0.134 A 
ATOM     93  C   UNL A   1      45.704  27.511  36.615  1.00  0.00     0.134 A 
ATOM     94  F   UNL A   1      46.810  30.574  35.007  1.00  0.00    -0.206 F 
ATOM     95  C   UNL A   1      47.861  29.257  36.642  1.00  0.00     0.040 A 
ATOM     96  C   UNL A   1      46.776  27.280  37.479  1.00  0.00     0.040 A 
ATOM     97  F   UNL A   1      44.684  26.639  36.636  1.00  0.00    -0.206 F 
ATOM     98  C   UNL A   1      47.863  28.150  37.488  1.00  0.00     0.006 A 
ENDBRANCH  74  91
ENDBRANCH  48  49
ENDBRANCH  41  43
ENDBRANCH  40  41
ENDBRANCH  39  40
ENDBRANCH  38  39
ENDBRANCH  37  38
ENDBRANCH  36  37
ENDBRANCH   1  36
TORSDOF 23
ENDMDL
MODEL 2
REMARK VINA RESULT:      -9.7      2.255      4.582
REMARK SMILES COc1ccc(CCN2C(=O)C[C@@H](C(=O)OCCOCCOCCOC(=O)c3ccc(-c4c5nc(c(-c6c(F)cccc6F)c6ccc([nH]6)c(-c6c(F)cccc6F)c6nc(c(-c7c(F)cccc7F)c7ccc4[nH]7)C=C6)C=C5)cc3)S/C2=[NH+]\c2ccc(F)cc2)cc1OC
REMARK SMILES IDX 20 1 19 2 18 3 17 4 16 5 14 6 15 7 13 8 9 9 10 10 83 11
REMARK SMILES IDX 11 12 12 13 82 14 84 15 8 17 7 18 6 19 3 20 4 21 93 22 5 23
REMARK SMILES IDX 92 24 2 25 1 26 94 27 95 28 85 29 86 30 91 31 87 32 90 33
REMARK SMILES IDX 88 34 89 35 21 36 22 37 23 38 24 39 25 40 26 41 27 42 28 43
REMARK SMILES IDX 29 44 81 45 30 46 80 47 31 48 32 49 33 50 74 51 34 52 79 53
REMARK SMILES IDX 73 54 75 55 35 56 78 57 72 58 71 59 36 61 62 62 45 63 61 64
REMARK SMILES IDX 46 65 49 66 60 67 76 68 47 69 48 70 59 72 77 73 50 74 37 75
REMARK SMILES IDX 38 76 43 77 39 78 40 79 42 80 44 81 41 82 63 83 64 84 69 85
REMARK SMILES IDX 65 86 66 87 68 88 70 89 67 90 51 91 52 92 57 93 53 94 54 95
REMARK SMILES IDX 56 96 58 97 55 98
REMARK H PARENT 84 16 75 60 49 71
REMARK Flexibility Score: inf
ROOT
ATOM      1  C   UNL A   1      31.752  28.560  25.119  1.00  0.00     0.188 C 
ENDROOT
BRANCH   1   2
ATOM      2  O   UNL A   1      30.931  27.537  25.676  1.00  0.00    -0.376 OA
BRANCH   2   3
ATOM      3  C   UNL A   1      31.531  26.575  26.526  1.00  0.00     0.202 C 
BRANCH   3   4
ATOM      4  C   UNL A   1      30.963  25.148  26.505  1.00  0.00     0.261 C 
BRANCH   4   5
ATOM      5  O   UNL A   1      31.717  24.142  27.227  1.00  0.00    -0.462 OA
BRANCH   5   6
ATOM      6  C   UNL A   1      31.821  22.922  26.630  1.00  0.00     0.320 C 
ATOM      7  O   UNL A   1      30.891  22.386  26.031  1.00  0.00    -0.251 OA
BRANCH   6   8
ATOM      8  C   UNL A   1      33.158  22.185  26.797  1.00  0.00     0.180 C 
ATOM      9  N   UNL A   1      35.588  21.781  25.138  1.00  0.00    -0.191 N 
ATOM     10  C   UNL A   1      35.589  22.714  26.154  1.00  0.00     0.311 C 
ATOM     11  C   UNL A   1      34.909  20.581  25.244  1.00  0.00     0.319 C 
ATOM     12  O   UNL A   1      36.623  23.216  26.596  1.00  0.00    -0.247 OA
ATOM     13  C   UNL A   1      34.263  23.196  26.647  1.00  0.00     0.155 C 
ATOM     14  S   UNL A   1      33.309  20.634  25.925  1.00  0.00    -0.022 SA
ATOM     15  N   UNL A   1      35.441  19.495  24.772  1.00  0.00    -0.235 N 
ATOM     16  H   UNL A   1      36.342  19.539  24.374  1.00  0.00     0.313 HD
BRANCH   9  17
ATOM     17  C   UNL A   1      36.606  21.959  24.092  1.00  0.00     0.251 C 
BRANCH  17  18
ATOM     18  C   UNL A   1      36.254  23.132  23.143  1.00  0.00     0.082 C 
BRANCH  18  19
ATOM     19  C   UNL A   1      34.810  23.600  23.209  1.00  0.00    -0.040 A 
ATOM     20  C   UNL A   1      32.143  24.533  23.144  1.00  0.00     0.160 A 
ATOM     21  C   UNL A   1      33.186  25.394  23.488  1.00  0.00     0.051 A 
ATOM     22  C   UNL A   1      32.415  23.179  22.914  1.00  0.00     0.160 A 
ATOM     23  C   UNL A   1      34.503  24.923  23.556  1.00  0.00     0.008 A 
ATOM     24  C   UNL A   1      33.748  22.732  22.913  1.00  0.00     0.054 A 
BRANCH  20  25
ATOM     25  O   UNL A   1      30.890  25.019  22.883  1.00  0.00    -0.493 OA
ATOM     26  C   UNL A   1      30.847  26.359  22.409  1.00  0.00     0.278 C 
ENDBRANCH  20  25
BRANCH  22  27
ATOM     27  O   UNL A   1      31.486  22.203  22.654  1.00  0.00    -0.493 OA
ATOM     28  C   UNL A   1      32.008  20.931  22.274  1.00  0.00     0.278 C 
ENDBRANCH  22  27
ENDBRANCH  18  19
ENDBRANCH  17  18
ENDBRANCH   9  17
BRANCH  15  29
ATOM     29  C   UNL A   1      34.775  18.255  24.811  1.00  0.00     0.125 A 
ATOM     30  C   UNL A   1      35.411  17.081  25.244  1.00  0.00     0.055 A 
ATOM     31  C   UNL A   1      33.454  18.179  24.357  1.00  0.00     0.055 A 
ATOM     32  C   UNL A   1      34.723  15.860  25.249  1.00  0.00     0.043 A 
ATOM     33  C   UNL A   1      32.762  16.965  24.367  1.00  0.00     0.043 A 
ATOM     34  C   UNL A   1      33.403  15.815  24.809  1.00  0.00     0.123 A 
ATOM     35  F   UNL A   1      32.732  14.657  24.852  1.00  0.00    -0.207 F 
ENDBRANCH  15  29
ENDBRANCH   6   8
ENDBRANCH   5   6
ENDBRANCH   4   5
ENDBRANCH   3   4
ENDBRANCH   2   3
ENDBRANCH   1   2
BRANCH   1  36
ATOM     36  C   UNL A   1      31.142  29.940  24.800  1.00  0.00     0.188 C 
BRANCH  36  37
ATOM     37  O   UNL A   1      31.413  30.919  25.783  1.00  0.00    -0.376 OA
BRANCH  37  38
ATOM     38  C   UNL A   1      32.246  30.500  26.845  1.00  0.00     0.202 C 
BRANCH  38  39
ATOM     39  C   UNL A   1      33.099  31.644  27.410  1.00  0.00     0.261 C 
BRANCH  39  40
ATOM     40  O   UNL A   1      34.275  31.238  28.145  1.00  0.00    -0.460 OA
BRANCH  40  41
ATOM     41  C   UNL A   1      35.363  32.043  28.054  1.00  0.00     0.338 C 
ATOM     42  O   UNL A   1      35.387  33.176  27.621  1.00  0.00    -0.246 OA
BRANCH  41  43
ATOM     43  C   UNL A   1      36.487  31.396  28.784  1.00  0.00     0.060 A 
ATOM     44  C   UNL A   1      37.715  32.065  28.870  1.00  0.00     0.016 A 
ATOM     45  C   UNL A   1      36.348  30.136  29.365  1.00  0.00     0.016 A 
ATOM     46  C   UNL A   1      38.821  31.465  29.483  1.00  0.00     0.010 A 
ATOM     47  C   UNL A   1      37.459  29.530  29.974  1.00  0.00     0.010 A 
ATOM     48  C   UNL A   1      38.712  30.173  30.005  1.00  0.00    -0.014 A 
BRANCH  48  49
ATOM     49  C   UNL A   1      39.926  29.416  30.418  1.00  0.00     0.031 A 
ATOM     50  C   UNL A   1      40.655  29.851  31.663  1.00  0.00     0.074 A 
ATOM     51  C   UNL A   1      40.390  28.366  29.715  1.00  0.00     0.049 A 
ATOM     52  N   UNL A   1      41.804  29.449  32.142  1.00  0.00    -0.248 NA
ATOM     53  C   UNL A   1      39.992  30.885  32.474  1.00  0.00     0.031 C 
ATOM     54  C   UNL A   1      39.756  27.786  28.534  1.00  0.00     0.029 A 
ATOM     55  N   UNL A   1      41.526  27.610  29.892  1.00  0.00    -0.354 N 
ATOM     56  C   UNL A   1      42.017  30.200  33.292  1.00  0.00     0.074 A 
ATOM     57  C   UNL A   1      40.887  31.094  33.428  1.00  0.00     0.031 C 
ATOM     58  C   UNL A   1      40.523  26.778  28.078  1.00  0.00     0.029 A 
ATOM     59  C   UNL A   1      41.723  26.671  28.907  1.00  0.00     0.049 A 
ATOM     60  H   UNL A   1      42.140  27.729  30.652  1.00  0.00     0.167 HD
ATOM     61  C   UNL A   1      43.057  30.150  34.159  1.00  0.00     0.037 A 
ATOM     62  C   UNL A   1      42.766  25.847  28.679  1.00  0.00     0.037 A 
ATOM     63  C   UNL A   1      44.180  29.256  34.034  1.00  0.00     0.049 A 
ATOM     64  C   UNL A   1      43.958  25.873  29.606  1.00  0.00     0.074 A 
ATOM     65  C   UNL A   1      45.274  29.125  34.872  1.00  0.00     0.029 A 
ATOM     66  N   UNL A   1      44.356  28.346  33.003  1.00  0.00    -0.354 N 
ATOM     67  N   UNL A   1      44.153  26.587  30.689  1.00  0.00    -0.248 NA
ATOM     68  C   UNL A   1      45.078  24.978  29.274  1.00  0.00     0.031 C 
ATOM     69  C   UNL A   1      46.140  28.178  34.317  1.00  0.00     0.029 A 
ATOM     70  C   UNL A   1      45.554  27.670  33.170  1.00  0.00     0.049 A 
ATOM     71  H   UNL A   1      43.723  28.202  32.261  1.00  0.00     0.167 HD
ATOM     72  C   UNL A   1      45.393  26.199  31.185  1.00  0.00     0.074 A 
ATOM     73  C   UNL A   1      45.903  25.182  30.292  1.00  0.00     0.031 C 
ATOM     74  C   UNL A   1      46.050  26.647  32.285  1.00  0.00     0.037 A 
BRANCH  61  75
ATOM     75  C   UNL A   1      43.049  31.116  35.309  1.00  0.00     0.057 A 
ATOM     76  C   UNL A   1      43.654  32.377  35.226  1.00  0.00     0.134 A 
ATOM     77  C   UNL A   1      42.393  30.793  36.504  1.00  0.00     0.134 A 
ATOM     78  F   UNL A   1      44.311  32.744  34.115  1.00  0.00    -0.206 F 
ATOM     79  C   UNL A   1      43.626  33.272  36.297  1.00  0.00     0.040 A 
ATOM     80  C   UNL A   1      42.332  31.691  37.570  1.00  0.00     0.040 A 
ATOM     81  F   UNL A   1      41.788  29.604  36.649  1.00  0.00    -0.206 F 
ATOM     82  C   UNL A   1      42.956  32.932  37.471  1.00  0.00     0.006 A 
ENDBRANCH  61  75
BRANCH  62  83
ATOM     83  C   UNL A   1      42.758  24.931  27.508  1.00  0.00     0.057 A 
ATOM     84  C   UNL A   1      42.256  23.627  27.612  1.00  0.00     0.134 A 
ATOM     85  C   UNL A   1      43.293  25.316  26.272  1.00  0.00     0.134 A 
ATOM     86  F   UNL A   1      41.762  23.186  28.778  1.00  0.00    -0.206 F 
ATOM     87  C   UNL A   1      42.302  22.736  26.537  1.00  0.00     0.040 A 
ATOM     88  C   UNL A   1      43.317  24.446  25.181  1.00  0.00     0.040 A 
ATOM     89  F   UNL A   1      43.797  26.547  26.106  1.00  0.00    -0.206 F 
ATOM     90  C   UNL A   1      42.828  23.148  25.315  1.00  0.00     0.006 A 
ENDBRANCH  62  83
BRANCH  74  91
ATOM     91  C   UNL A   1      47.365  26.001  32.623  1.00  0.00     0.057 A 
ATOM     92  C   UNL A   1      47.467  24.950  33.544  1.00  0.00     0.134 A 
ATOM     93  C   UNL A   1      48.543  26.412  31.983  1.00  0.00     0.134 A 
ATOM     94  F   UNL A   1      46.382  24.512  34.200  1.00  0.00    -0.206 F 
ATOM     95  C   UNL A   1      48.695  24.349  33.833  1.00  0.00     0.040 A 
ATOM     96  C   UNL A   1      49.770  25.798  32.242  1.00  0.00     0.040 A 
ATOM     97  F   UNL A   1      48.519  27.405  31.082  1.00  0.00    -0.206 F 
ATOM     98  C   UNL A   1      49.849  24.768  33.176  1.00  0.00     0.006 A 
ENDBRANCH  74  91
ENDBRANCH  48  49
ENDBRANCH  41  43
ENDBRANCH  40  41
ENDBRANCH  39  40
ENDBRANCH  38  39
ENDBRANCH  37  38
ENDBRANCH  36  37
ENDBRANCH   1  36
TORSDOF 23
ENDMDL
MODEL 3
REMARK VINA RESULT:      -9.6      4.330      6.801
REMARK SMILES COc1ccc(CCN2C(=O)C[C@@H](C(=O)OCCOCCOCCOC(=O)c3ccc(-c4c5nc(c(-c6c(F)cccc6F)c6ccc([nH]6)c(-c6c(F)cccc6F)c6nc(c(-c7c(F)cccc7F)c7ccc4[nH]7)C=C6)C=C5)cc3)S/C2=[NH+]\c2ccc(F)cc2)cc1OC
REMARK SMILES IDX 20 1 19 2 18 3 17 4 16 5 14 6 15 7 13 8 9 9 10 10 83 11
REMARK SMILES IDX 11 12 12 13 82 14 84 15 8 17 7 18 6 19 3 20 4 21 93 22 5 23
REMARK SMILES IDX 92 24 2 25 1 26 94 27 95 28 85 29 86 30 91 31 87 32 90 33
REMARK SMILES IDX 88 34 89 35 21 36 22 37 23 38 24 39 25 40 26 41 27 42 28 43
REMARK SMILES IDX 29 44 81 45 30 46 80 47 31 48 32 49 33 50 74 51 34 52 79 53
REMARK SMILES IDX 73 54 75 55 35 56 78 57 72 58 71 59 36 61 62 62 45 63 61 64
REMARK SMILES IDX 46 65 49 66 60 67 76 68 47 69 48 70 59 72 77 73 50 74 37 75
REMARK SMILES IDX 38 76 43 77 39 78 40 79 42 80 44 81 41 82 63 83 64 84 69 85
REMARK SMILES IDX 65 86 66 87 68 88 70 89 67 90 51 91 52 92 57 93 53 94 54 95
REMARK SMILES IDX 56 96 58 97 55 98
REMARK H PARENT 84 16 75 60 49 71
REMARK Flexibility Score: inf
ROOT
ATOM      1  C   UNL A   1      31.612  28.944  25.486  1.00  0.00     0.188 C 
ENDROOT
BRANCH   1   2
ATOM      2  O   UNL A   1      31.205  28.103  26.561  1.00  0.00    -0.376 OA
BRANCH   2   3
ATOM      3  C   UNL A   1      31.650  26.757  26.573  1.00  0.00     0.202 C 
BRANCH   3   4
ATOM      4  C   UNL A   1      30.586  25.651  26.500  1.00  0.00     0.261 C 
BRANCH   4   5
ATOM      5  O   UNL A   1      30.919  24.391  27.138  1.00  0.00    -0.462 OA
BRANCH   5   6
ATOM      6  C   UNL A   1      31.247  23.363  26.307  1.00  0.00     0.320 C 
ATOM      7  O   UNL A   1      30.538  23.005  25.369  1.00  0.00    -0.251 OA
BRANCH   6   8
ATOM      8  C   UNL A   1      32.537  22.597  26.635  1.00  0.00     0.180 C 
ATOM      9  N   UNL A   1      35.130  22.113  25.271  1.00  0.00    -0.191 N 
ATOM     10  C   UNL A   1      35.038  23.060  26.269  1.00  0.00     0.311 C 
ATOM     11  C   UNL A   1      34.413  20.931  25.312  1.00  0.00     0.319 C 
ATOM     12  O   UNL A   1      36.027  23.543  26.821  1.00  0.00    -0.247 OA
ATOM     13  C   UNL A   1      33.677  23.580  26.601  1.00  0.00     0.155 C 
ATOM     14  S   UNL A   1      32.748  21.031  25.804  1.00  0.00    -0.022 SA
ATOM     15  N   UNL A   1      34.969  19.825  24.917  1.00  0.00    -0.235 N 
ATOM     16  H   UNL A   1      35.910  19.843  24.624  1.00  0.00     0.313 HD
BRANCH   9  17
ATOM     17  C   UNL A   1      36.265  22.251  24.347  1.00  0.00     0.251 C 
BRANCH  17  18
ATOM     18  C   UNL A   1      35.810  22.741  22.948  1.00  0.00     0.082 C 
BRANCH  18  19
ATOM     19  C   UNL A   1      34.645  23.716  22.958  1.00  0.00    -0.040 A 
ATOM     20  C   UNL A   1      32.426  25.455  23.154  1.00  0.00     0.160 A 
ATOM     21  C   UNL A   1      32.275  24.172  22.627  1.00  0.00     0.051 A 
ATOM     22  C   UNL A   1      33.702  25.908  23.508  1.00  0.00     0.160 A 
ATOM     23  C   UNL A   1      33.381  23.324  22.496  1.00  0.00     0.008 A 
ATOM     24  C   UNL A   1      34.794  25.025  23.441  1.00  0.00     0.054 A 
BRANCH  20  25
ATOM     25  O   UNL A   1      31.332  26.217  23.470  1.00  0.00    -0.493 OA
ATOM     26  C   UNL A   1      30.608  26.726  22.357  1.00  0.00     0.278 C 
ENDBRANCH  20  25
BRANCH  22  27
ATOM     27  O   UNL A   1      34.015  27.168  23.954  1.00  0.00    -0.493 OA
ATOM     28  C   UNL A   1      34.068  28.187  22.957  1.00  0.00     0.278 C 
ENDBRANCH  22  27
ENDBRANCH  18  19
ENDBRANCH  17  18
ENDBRANCH   9  17
BRANCH  15  29
ATOM     29  C   UNL A   1      34.272  18.602  24.894  1.00  0.00     0.125 A 
ATOM     30  C   UNL A   1      33.298  18.282  25.853  1.00  0.00     0.055 A 
ATOM     31  C   UNL A   1      34.595  17.654  23.917  1.00  0.00     0.055 A 
ATOM     32  C   UNL A   1      32.640  17.045  25.812  1.00  0.00     0.043 A 
ATOM     33  C   UNL A   1      33.935  16.423  23.867  1.00  0.00     0.043 A 
ATOM     34  C   UNL A   1      32.966  16.127  24.818  1.00  0.00     0.123 A 
ATOM     35  F   UNL A   1      32.309  14.962  24.753  1.00  0.00    -0.207 F 
ENDBRANCH  15  29
ENDBRANCH   6   8
ENDBRANCH   5   6
ENDBRANCH   4   5
ENDBRANCH   3   4
ENDBRANCH   2   3
ENDBRANCH   1   2
BRANCH   1  36
ATOM     36  C   UNL A   1      31.608  30.475  25.670  1.00  0.00     0.188 C 
BRANCH  36  37
ATOM     37  O   UNL A   1      32.318  30.909  26.812  1.00  0.00    -0.376 OA
BRANCH  37  38
ATOM     38  C   UNL A   1      33.581  30.304  27.010  1.00  0.00     0.202 C 
BRANCH  38  39
ATOM     39  C   UNL A   1      34.307  30.850  28.247  1.00  0.00     0.261 C 
BRANCH  39  40
ATOM     40  O   UNL A   1      35.548  31.542  27.983  1.00  0.00    -0.460 OA
BRANCH  40  41
ATOM     41  C   UNL A   1      36.342  31.804  29.051  1.00  0.00     0.338 C 
ATOM     42  O   UNL A   1      36.051  32.476  30.018  1.00  0.00    -0.246 OA
BRANCH  41  43
ATOM     43  C   UNL A   1      37.554  30.946  28.955  1.00  0.00     0.060 A 
ATOM     44  C   UNL A   1      38.413  30.858  30.059  1.00  0.00     0.016 A 
ATOM     45  C   UNL A   1      37.860  30.245  27.790  1.00  0.00     0.016 A 
ATOM     46  C   UNL A   1      39.601  30.122  29.991  1.00  0.00     0.010 A 
ATOM     47  C   UNL A   1      39.055  29.512  27.717  1.00  0.00     0.010 A 
ATOM     48  C   UNL A   1      39.953  29.475  28.803  1.00  0.00    -0.014 A 
BRANCH  48  49
ATOM     49  C   UNL A   1      41.319  28.915  28.619  1.00  0.00     0.031 A 
ATOM     50  C   UNL A   1      42.496  29.853  28.684  1.00  0.00     0.074 A 
ATOM     51  C   UNL A   1      41.533  27.604  28.397  1.00  0.00     0.049 A 
ATOM     52  N   UNL A   1      43.757  29.633  28.413  1.00  0.00    -0.248 NA
ATOM     53  C   UNL A   1      42.203  31.232  29.108  1.00  0.00     0.031 C 
ATOM     54  C   UNL A   1      40.506  26.567  28.377  1.00  0.00     0.029 A 
ATOM     55  N   UNL A   1      42.699  26.928  28.122  1.00  0.00    -0.354 N 
ATOM     56  C   UNL A   1      44.403  30.849  28.606  1.00  0.00     0.074 A 
ATOM     57  C   UNL A   1      43.392  31.806  28.998  1.00  0.00     0.031 C 
ATOM     58  C   UNL A   1      41.083  25.386  28.085  1.00  0.00     0.029 A 
ATOM     59  C   UNL A   1      42.512  25.592  27.851  1.00  0.00     0.049 A 
ATOM     60  H   UNL A   1      43.585  27.358  28.121  1.00  0.00     0.167 HD
ATOM     61  C   UNL A   1      45.719  31.142  28.472  1.00  0.00     0.037 A 
ATOM     62  C   UNL A   1      43.384  24.655  27.428  1.00  0.00     0.037 A 
ATOM     63  C   UNL A   1      46.731  30.191  28.092  1.00  0.00     0.049 A 
ATOM     64  C   UNL A   1      44.829  25.026  27.195  1.00  0.00     0.074 A 
ATOM     65  C   UNL A   1      48.093  30.394  27.944  1.00  0.00     0.029 A 
ATOM     66  N   UNL A   1      46.493  28.858  27.793  1.00  0.00    -0.354 N 
ATOM     67  N   UNL A   1      45.431  26.176  27.377  1.00  0.00    -0.248 NA
ATOM     68  C   UNL A   1      45.716  23.964  26.694  1.00  0.00     0.031 C 
ATOM     69  C   UNL A   1      48.668  29.200  27.499  1.00  0.00     0.029 A 
ATOM     70  C   UNL A   1      47.678  28.235  27.435  1.00  0.00     0.049 A 
ATOM     71  H   UNL A   1      45.612  28.419  27.830  1.00  0.00     0.167 HD
ATOM     72  C   UNL A   1      46.767  25.966  27.051  1.00  0.00     0.074 A 
ATOM     73  C   UNL A   1      46.891  24.576  26.669  1.00  0.00     0.031 C 
ATOM     74  C   UNL A   1      47.799  26.847  27.070  1.00  0.00     0.037 A 
BRANCH  61  75
ATOM     75  C   UNL A   1      46.140  32.565  28.706  1.00  0.00     0.057 A 
ATOM     76  C   UNL A   1      46.617  33.006  29.946  1.00  0.00     0.134 A 
ATOM     77  C   UNL A   1      46.101  33.497  27.660  1.00  0.00     0.134 A 
ATOM     78  F   UNL A   1      46.667  32.169  30.993  1.00  0.00    -0.206 F 
ATOM     79  C   UNL A   1      47.019  34.329  30.145  1.00  0.00     0.040 A 
ATOM     80  C   UNL A   1      46.529  34.812  27.838  1.00  0.00     0.040 A 
ATOM     81  F   UNL A   1      45.660  33.139  26.444  1.00  0.00    -0.206 F 
ATOM     82  C   UNL A   1      46.984  35.234  29.086  1.00  0.00     0.006 A 
ENDBRANCH  61  75
BRANCH  62  83
ATOM     83  C   UNL A   1      42.924  23.264  27.168  1.00  0.00     0.057 A 
ATOM     84  C   UNL A   1      42.689  22.812  25.864  1.00  0.00     0.134 A 
ATOM     85  C   UNL A   1      42.664  22.370  28.214  1.00  0.00     0.134 A 
ATOM     86  F   UNL A   1      42.887  23.631  24.820  1.00  0.00    -0.206 F 
ATOM     87  C   UNL A   1      42.196  21.530  25.610  1.00  0.00     0.040 A 
ATOM     88  C   UNL A   1      42.200  21.076  27.974  1.00  0.00     0.040 A 
ATOM     89  F   UNL A   1      42.860  22.742  29.488  1.00  0.00    -0.206 F 
ATOM     90  C   UNL A   1      41.956  20.656  26.668  1.00  0.00     0.006 A 
ENDBRANCH  62  83
BRANCH  74  91
ATOM     91  C   UNL A   1      49.167  26.327  26.723  1.00  0.00     0.057 A 
ATOM     92  C   UNL A   1      49.711  26.453  25.439  1.00  0.00     0.134 A 
ATOM     93  C   UNL A   1      49.969  25.729  27.706  1.00  0.00     0.134 A 
ATOM     94  F   UNL A   1      48.996  27.007  24.448  1.00  0.00    -0.206 F 
ATOM     95  C   UNL A   1      50.991  25.981  25.138  1.00  0.00     0.040 A 
ATOM     96  C   UNL A   1      51.261  25.282  27.424  1.00  0.00     0.040 A 
ATOM     97  F   UNL A   1      49.517  25.586  28.961  1.00  0.00    -0.206 F 
ATOM     98  C   UNL A   1      51.773  25.400  26.135  1.00  0.00     0.006 A 
ENDBRANCH  74  91
ENDBRANCH  48  49
ENDBRANCH  41  43
ENDBRANCH  40  41
ENDBRANCH  39  40
ENDBRANCH  38  39
ENDBRANCH  37  38
ENDBRANCH  36  37
ENDBRANCH   1  36
TORSDOF 23
ENDMDL
