MODEL 1
REMARK VINA RESULT:     -11.8      0.000      0.000
REMARK SMILES O=C(OCCOCCOCCOC(=O)c1ccc([C@@H]2CC(O)=Nc3c2ncn3-c2cccc(Cl)c2)cc1)c1ccc(-c2c3nc(c(-c4c(F)cccc4F)c4ccc([nH]4)c(-c4c(F)cccc4F)c4nc(c(-c5c(F)cccc5F)c5ccc2[nH]5)C=C4)C=C3)cc1
REMARK SMILES IDX 7 1 6 2 5 3 4 4 3 5 2 6 1 7 38 8 39 9 91 10 40 11 90 12
REMARK SMILES IDX 41 13 42 14 43 15 84 16 44 17 89 18 83 19 85 20 45 21 88 22
REMARK SMILES IDX 82 23 81 24 46 26 72 27 55 28 71 29 56 30 59 31 70 32 86 33
REMARK SMILES IDX 57 34 58 35 69 37 87 38 60 39 47 40 48 41 53 42 49 43 50 44
REMARK SMILES IDX 52 45 54 46 51 47 73 48 74 49 79 50 75 51 76 52 78 53 80 54
REMARK SMILES IDX 77 55 61 56 62 57 67 58 63 59 64 60 66 61 68 62 65 63 8 64
REMARK SMILES IDX 9 65 10 66 11 67 12 68 13 69 14 70 15 71 16 72 37 73 17 74
REMARK SMILES IDX 36 75 18 76 19 77 20 78 25 79 21 80 24 81 26 82 23 83 28 84
REMARK SMILES IDX 27 85 22 86 29 88 30 89 35 90 31 91 33 92 32 93 34 94
REMARK H PARENT 85 25 59 36 22 87
REMARK Flexibility Score: inf
ROOT
ATOM      1  C   UNL A   1      33.404  36.118  29.163  1.00  0.00     0.188 C 
ENDROOT
BRANCH   1   2
ATOM      2  O   UNL A   1      32.637  36.409  30.305  1.00  0.00    -0.376 OA
BRANCH   2   3
ATOM      3  C   UNL A   1      32.984  37.416  31.235  1.00  0.00     0.202 C 
BRANCH   3   4
ATOM      4  C   UNL A   1      34.110  37.329  32.274  1.00  0.00     0.261 C 
BRANCH   4   5
ATOM      5  O   UNL A   1      34.082  36.218  33.164  1.00  0.00    -0.460 OA
BRANCH   5   6
ATOM      6  C   UNL A   1      34.146  34.891  32.943  1.00  0.00     0.338 C 
ATOM      7  O   UNL A   1      33.086  34.282  32.798  1.00  0.00    -0.246 OA
BRANCH   6   8
ATOM      8  C   UNL A   1      35.397  34.073  32.967  1.00  0.00     0.060 A 
ATOM      9  C   UNL A   1      36.707  34.545  33.006  1.00  0.00     0.016 A 
ATOM     10  C   UNL A   1      35.193  32.677  32.906  1.00  0.00     0.016 A 
ATOM     11  C   UNL A   1      37.768  33.671  32.792  1.00  0.00     0.010 A 
ATOM     12  C   UNL A   1      36.249  31.795  32.730  1.00  0.00     0.010 A 
ATOM     13  C   UNL A   1      37.528  32.309  32.593  1.00  0.00    -0.014 A 
BRANCH  13  14
ATOM     14  C   UNL A   1      38.668  31.462  32.274  1.00  0.00     0.031 A 
ATOM     15  C   UNL A   1      39.549  31.121  33.417  1.00  0.00     0.074 A 
ATOM     16  C   UNL A   1      38.918  30.991  31.036  1.00  0.00     0.049 A 
ATOM     17  N   UNL A   1      40.765  31.509  33.620  1.00  0.00    -0.248 NA
ATOM     18  C   UNL A   1      38.976  30.333  34.516  1.00  0.00     0.031 C 
ATOM     19  C   UNL A   1      38.038  30.997  29.865  1.00  0.00     0.029 A 
ATOM     20  N   UNL A   1      40.021  30.326  30.591  1.00  0.00    -0.354 N 
ATOM     21  C   UNL A   1      41.182  30.872  34.784  1.00  0.00     0.074 A 
ATOM     22  C   UNL A   1      40.008  30.268  35.360  1.00  0.00     0.031 C 
ATOM     23  C   UNL A   1      38.557  30.187  28.914  1.00  0.00     0.029 A 
ATOM     24  C   UNL A   1      39.864  29.722  29.351  1.00  0.00     0.049 A 
ATOM     25  H   UNL A   1      40.859  30.278  31.105  1.00  0.00     0.167 HD
ATOM     26  C   UNL A   1      42.504  30.719  35.073  1.00  0.00     0.037 A 
ATOM     27  C   UNL A   1      40.727  28.864  28.755  1.00  0.00     0.037 A 
ATOM     28  C   UNL A   1      43.321  31.631  34.315  1.00  0.00     0.049 A 
ATOM     29  C   UNL A   1      42.060  29.051  29.378  1.00  0.00     0.074 A 
ATOM     30  C   UNL A   1      43.396  33.006  34.198  1.00  0.00     0.029 A 
ATOM     31  N   UNL A   1      44.029  31.132  33.249  1.00  0.00    -0.354 N 
ATOM     32  N   UNL A   1      42.810  30.100  29.199  1.00  0.00    -0.248 NA
ATOM     33  C   UNL A   1      42.388  28.242  30.542  1.00  0.00     0.031 C 
ATOM     34  C   UNL A   1      43.706  33.244  32.827  1.00  0.00     0.029 A 
ATOM     35  C   UNL A   1      43.850  32.003  32.208  1.00  0.00     0.049 A 
ATOM     36  H   UNL A   1      44.563  30.305  33.237  1.00  0.00     0.167 HD
ATOM     37  C   UNL A   1      43.392  30.329  30.436  1.00  0.00     0.074 A 
ATOM     38  C   UNL A   1      43.183  29.096  31.189  1.00  0.00     0.031 C 
ATOM     39  C   UNL A   1      43.739  31.590  30.828  1.00  0.00     0.037 A 
BRANCH  26  40
ATOM     40  C   UNL A   1      43.086  29.510  35.761  1.00  0.00     0.057 A 
ATOM     41  C   UNL A   1      43.968  29.690  36.843  1.00  0.00     0.134 A 
ATOM     42  C   UNL A   1      43.063  28.210  35.216  1.00  0.00     0.134 A 
ATOM     43  F   UNL A   1      44.091  30.886  37.440  1.00  0.00    -0.206 F 
ATOM     44  C   UNL A   1      44.823  28.677  37.291  1.00  0.00     0.040 A 
ATOM     45  C   UNL A   1      43.876  27.177  35.690  1.00  0.00     0.040 A 
ATOM     46  F   UNL A   1      42.337  27.900  34.137  1.00  0.00    -0.206 F 
ATOM     47  C   UNL A   1      44.785  27.417  36.707  1.00  0.00     0.006 A 
ENDBRANCH  26  40
BRANCH  27  48
ATOM     48  C   UNL A   1      40.434  27.716  27.868  1.00  0.00     0.057 A 
ATOM     49  C   UNL A   1      41.056  27.587  26.617  1.00  0.00     0.134 A 
ATOM     50  C   UNL A   1      39.759  26.578  28.342  1.00  0.00     0.134 A 
ATOM     51  F   UNL A   1      41.755  28.605  26.095  1.00  0.00    -0.206 F 
ATOM     52  C   UNL A   1      41.036  26.386  25.896  1.00  0.00     0.040 A 
ATOM     53  C   UNL A   1      39.724  25.376  27.628  1.00  0.00     0.040 A 
ATOM     54  F   UNL A   1      39.192  26.563  29.556  1.00  0.00    -0.206 F 
ATOM     55  C   UNL A   1      40.379  25.271  26.407  1.00  0.00     0.006 A 
ENDBRANCH  27  48
BRANCH  39  56
ATOM     56  C   UNL A   1      43.752  32.675  29.790  1.00  0.00     0.057 A 
ATOM     57  C   UNL A   1      42.669  33.527  29.524  1.00  0.00     0.134 A 
ATOM     58  C   UNL A   1      44.955  32.957  29.131  1.00  0.00     0.134 A 
ATOM     59  F   UNL A   1      41.510  33.405  30.183  1.00  0.00    -0.206 F 
ATOM     60  C   UNL A   1      42.768  34.575  28.603  1.00  0.00     0.040 A 
ATOM     61  C   UNL A   1      45.077  34.022  28.238  1.00  0.00     0.040 A 
ATOM     62  F   UNL A   1      46.051  32.221  29.380  1.00  0.00    -0.206 F 
ATOM     63  C   UNL A   1      43.976  34.829  27.961  1.00  0.00     0.006 A 
ENDBRANCH  39  56
ENDBRANCH  13  14
ENDBRANCH   6   8
ENDBRANCH   5   6
ENDBRANCH   4   5
ENDBRANCH   3   4
ENDBRANCH   2   3
ENDBRANCH   1   2
BRANCH   1  64
ATOM     64  C   UNL A   1      33.404  34.657  28.654  1.00  0.00     0.188 C 
BRANCH  64  65
ATOM     65  O   UNL A   1      33.773  33.574  29.495  1.00  0.00    -0.376 OA
BRANCH  65  66
ATOM     66  C   UNL A   1      34.823  32.705  29.114  1.00  0.00     0.202 C 
BRANCH  66  67
ATOM     67  C   UNL A   1      34.639  31.792  27.895  1.00  0.00     0.261 C 
BRANCH  67  68
ATOM     68  O   UNL A   1      33.582  30.826  28.012  1.00  0.00    -0.460 OA
BRANCH  68  69
ATOM     69  C   UNL A   1      32.520  31.016  27.204  1.00  0.00     0.338 C 
ATOM     70  O   UNL A   1      31.955  32.080  26.942  1.00  0.00    -0.246 OA
BRANCH  69  71
ATOM     71  C   UNL A   1      32.152  29.754  26.552  1.00  0.00     0.060 A 
ATOM     72  C   UNL A   1      31.618  29.791  25.262  1.00  0.00     0.016 A 
ATOM     73  C   UNL A   1      32.253  28.546  27.240  1.00  0.00     0.016 A 
ATOM     74  C   UNL A   1      31.196  28.614  24.649  1.00  0.00     0.005 A 
ATOM     75  C   UNL A   1      31.783  27.372  26.641  1.00  0.00     0.005 A 
ATOM     76  C   UNL A   1      31.247  27.389  25.338  1.00  0.00    -0.038 A 
BRANCH  76  77
ATOM     77  C   UNL A   1      30.580  26.187  24.689  1.00  0.00     0.081 C 
ATOM     78  C   UNL A   1      29.630  25.489  25.687  1.00  0.00     0.111 C 
ATOM     79  C   UNL A   1      31.635  25.263  24.212  1.00  0.00     0.093 A 
ATOM     80  C   UNL A   1      30.165  24.192  26.269  1.00  0.00     0.188 C 
ATOM     81  C   UNL A   1      31.785  24.007  24.756  1.00  0.00     0.164 A 
ATOM     82  N   UNL A   1      32.581  25.523  23.259  1.00  0.00    -0.238 NA
ATOM     83  N   UNL A   1      31.124  23.458  25.804  1.00  0.00    -0.198 NA
ATOM     84  N   UNL A   1      32.887  23.469  24.124  1.00  0.00    -0.283 N 
ATOM     85  C   UNL A   1      33.347  24.449  23.266  1.00  0.00     0.206 A 
BRANCH  80  86
ATOM     86  O   UNL A   1      29.499  23.757  27.356  1.00  0.00    -0.496 OA
ATOM     87  H   UNL A   1      29.952  23.276  28.021  1.00  0.00     0.294 HD
ENDBRANCH  80  86
BRANCH  84  88
ATOM     88  C   UNL A   1      33.450  22.190  24.334  1.00  0.00     0.050 A 
ATOM     89  C   UNL A   1      34.732  22.071  24.880  1.00  0.00     0.027 A 
ATOM     90  C   UNL A   1      32.704  21.048  24.014  1.00  0.00     0.047 A 
ATOM     91  C   UNL A   1      35.249  20.800  25.147  1.00  0.00     0.004 A 
ATOM     92  C   UNL A   1      33.252  19.788  24.237  1.00  0.00     0.043 A 
ATOM     93  C   UNL A   1      34.513  19.659  24.817  1.00  0.00     0.020 A 
ATOM     94  Cl  UNL A   1      32.373  18.382  23.778  1.00  0.00    -0.084 Cl
ENDBRANCH  84  88
ENDBRANCH  76  77
ENDBRANCH  69  71
ENDBRANCH  68  69
ENDBRANCH  67  68
ENDBRANCH  66  67
ENDBRANCH  65  66
ENDBRANCH  64  65
ENDBRANCH   1  64
TORSDOF 20
ENDMDL
MODEL 2
REMARK VINA RESULT:     -11.7      3.829      7.883
REMARK SMILES O=C(OCCOCCOCCOC(=O)c1ccc([C@@H]2CC(O)=Nc3c2ncn3-c2cccc(Cl)c2)cc1)c1ccc(-c2c3nc(c(-c4c(F)cccc4F)c4ccc([nH]4)c(-c4c(F)cccc4F)c4nc(c(-c5c(F)cccc5F)c5ccc2[nH]5)C=C4)C=C3)cc1
REMARK SMILES IDX 7 1 6 2 5 3 4 4 3 5 2 6 1 7 38 8 39 9 91 10 40 11 90 12
REMARK SMILES IDX 41 13 42 14 43 15 84 16 44 17 89 18 83 19 85 20 45 21 88 22
REMARK SMILES IDX 82 23 81 24 46 26 72 27 55 28 71 29 56 30 59 31 70 32 86 33
REMARK SMILES IDX 57 34 58 35 69 37 87 38 60 39 47 40 48 41 53 42 49 43 50 44
REMARK SMILES IDX 52 45 54 46 51 47 73 48 74 49 79 50 75 51 76 52 78 53 80 54
REMARK SMILES IDX 77 55 61 56 62 57 67 58 63 59 64 60 66 61 68 62 65 63 8 64
REMARK SMILES IDX 9 65 10 66 11 67 12 68 13 69 14 70 15 71 16 72 37 73 17 74
REMARK SMILES IDX 36 75 18 76 19 77 20 78 25 79 21 80 24 81 26 82 23 83 28 84
REMARK SMILES IDX 27 85 22 86 29 88 30 89 35 90 31 91 33 92 32 93 34 94
REMARK H PARENT 85 25 59 36 22 87
REMARK Flexibility Score: inf
ROOT
ATOM      1  C   UNL A   1      33.439  29.800  27.199  1.00  0.00     0.188 C 
ENDROOT
BRANCH   1   2
ATOM      2  O   UNL A   1      33.303  31.198  27.134  1.00  0.00    -0.376 OA
BRANCH   2   3
ATOM      3  C   UNL A   1      33.988  32.084  27.998  1.00  0.00     0.202 C 
BRANCH   3   4
ATOM      4  C   UNL A   1      35.503  32.316  28.027  1.00  0.00     0.261 C 
BRANCH   4   5
ATOM      5  O   UNL A   1      36.336  31.176  27.833  1.00  0.00    -0.460 OA
BRANCH   5   6
ATOM      6  C   UNL A   1      36.768  30.228  28.686  1.00  0.00     0.338 C 
ATOM      7  O   UNL A   1      36.093  30.011  29.692  1.00  0.00    -0.246 OA
BRANCH   6   8
ATOM      8  C   UNL A   1      38.063  29.492  28.569  1.00  0.00     0.060 A 
ATOM      9  C   UNL A   1      38.771  28.872  29.597  1.00  0.00     0.016 A 
ATOM     10  C   UNL A   1      38.619  29.472  27.270  1.00  0.00     0.016 A 
ATOM     11  C   UNL A   1      40.070  28.427  29.376  1.00  0.00     0.010 A 
ATOM     12  C   UNL A   1      39.900  28.995  27.035  1.00  0.00     0.010 A 
ATOM     13  C   UNL A   1      40.650  28.547  28.110  1.00  0.00    -0.014 A 
BRANCH  13  14
ATOM     14  C   UNL A   1      42.045  28.158  27.967  1.00  0.00     0.031 A 
ATOM     15  C   UNL A   1      42.277  26.840  27.328  1.00  0.00     0.074 A 
ATOM     16  C   UNL A   1      43.076  28.932  28.361  1.00  0.00     0.049 A 
ATOM     17  N   UNL A   1      42.745  25.768  27.878  1.00  0.00    -0.248 NA
ATOM     18  C   UNL A   1      41.842  26.663  25.937  1.00  0.00     0.031 C 
ATOM     19  C   UNL A   1      43.055  30.343  28.755  1.00  0.00     0.029 A 
ATOM     20  N   UNL A   1      44.400  28.614  28.417  1.00  0.00    -0.354 N 
ATOM     21  C   UNL A   1      42.838  24.824  26.861  1.00  0.00     0.074 A 
ATOM     22  C   UNL A   1      42.152  25.383  25.724  1.00  0.00     0.031 C 
ATOM     23  C   UNL A   1      44.325  30.809  28.805  1.00  0.00     0.029 A 
ATOM     24  C   UNL A   1      45.243  29.702  28.588  1.00  0.00     0.049 A 
ATOM     25  H   UNL A   1      44.730  27.690  28.343  1.00  0.00     0.167 HD
ATOM     26  C   UNL A   1      43.653  23.739  26.973  1.00  0.00     0.037 A 
ATOM     27  C   UNL A   1      46.596  29.697  28.508  1.00  0.00     0.037 A 
ATOM     28  C   UNL A   1      44.011  23.485  28.344  1.00  0.00     0.049 A 
ATOM     29  C   UNL A   1      47.059  28.302  28.703  1.00  0.00     0.074 A 
ATOM     30  C   UNL A   1      43.306  23.209  29.500  1.00  0.00     0.029 A 
ATOM     31  N   UNL A   1      45.275  23.828  28.757  1.00  0.00    -0.354 N 
ATOM     32  N   UNL A   1      47.018  27.669  29.840  1.00  0.00    -0.248 NA
ATOM     33  C   UNL A   1      47.195  27.458  27.525  1.00  0.00     0.031 C 
ATOM     34  C   UNL A   1      44.022  23.875  30.538  1.00  0.00     0.029 A 
ATOM     35  C   UNL A   1      45.142  24.471  29.959  1.00  0.00     0.049 A 
ATOM     36  H   UNL A   1      46.116  23.647  28.279  1.00  0.00     0.167 HD
ATOM     37  C   UNL A   1      46.673  26.369  29.504  1.00  0.00     0.074 A 
ATOM     38  C   UNL A   1      46.902  26.273  28.066  1.00  0.00     0.031 C 
ATOM     39  C   UNL A   1      45.970  25.581  30.370  1.00  0.00     0.037 A 
BRANCH  26  40
ATOM     40  C   UNL A   1      44.417  23.131  25.823  1.00  0.00     0.057 A 
ATOM     41  C   UNL A   1      44.337  21.743  25.599  1.00  0.00     0.134 A 
ATOM     42  C   UNL A   1      45.454  23.791  25.134  1.00  0.00     0.134 A 
ATOM     43  F   UNL A   1      43.400  21.000  26.208  1.00  0.00    -0.206 F 
ATOM     44  C   UNL A   1      45.271  21.055  24.817  1.00  0.00     0.040 A 
ATOM     45  C   UNL A   1      46.361  23.120  24.310  1.00  0.00     0.040 A 
ATOM     46  F   UNL A   1      45.711  25.093  25.303  1.00  0.00    -0.206 F 
ATOM     47  C   UNL A   1      46.294  21.742  24.177  1.00  0.00     0.006 A 
ENDBRANCH  26  40
BRANCH  27  48
ATOM     48  C   UNL A   1      47.503  30.760  28.020  1.00  0.00     0.057 A 
ATOM     49  C   UNL A   1      47.174  31.538  26.900  1.00  0.00     0.134 A 
ATOM     50  C   UNL A   1      48.571  31.228  28.805  1.00  0.00     0.134 A 
ATOM     51  F   UNL A   1      46.147  31.195  26.109  1.00  0.00    -0.206 F 
ATOM     52  C   UNL A   1      47.847  32.729  26.597  1.00  0.00     0.040 A 
ATOM     53  C   UNL A   1      49.256  32.410  28.509  1.00  0.00     0.040 A 
ATOM     54  F   UNL A   1      48.925  30.606  29.938  1.00  0.00    -0.206 F 
ATOM     55  C   UNL A   1      48.884  33.175  27.411  1.00  0.00     0.006 A 
ENDBRANCH  27  48
BRANCH  39  56
ATOM     56  C   UNL A   1      45.834  26.040  31.794  1.00  0.00     0.057 A 
ATOM     57  C   UNL A   1      44.732  26.750  32.293  1.00  0.00     0.134 A 
ATOM     58  C   UNL A   1      46.795  25.626  32.725  1.00  0.00     0.134 A 
ATOM     59  F   UNL A   1      43.710  27.096  31.499  1.00  0.00    -0.206 F 
ATOM     60  C   UNL A   1      44.623  27.079  33.648  1.00  0.00     0.040 A 
ATOM     61  C   UNL A   1      46.678  25.916  34.085  1.00  0.00     0.040 A 
ATOM     62  F   UNL A   1      47.848  24.893  32.329  1.00  0.00    -0.206 F 
ATOM     63  C   UNL A   1      45.595  26.656  34.550  1.00  0.00     0.006 A 
ENDBRANCH  39  56
ENDBRANCH  13  14
ENDBRANCH   6   8
ENDBRANCH   5   6
ENDBRANCH   4   5
ENDBRANCH   3   4
ENDBRANCH   2   3
ENDBRANCH   1   2
BRANCH   1  64
ATOM     64  C   UNL A   1      32.147  28.961  27.348  1.00  0.00     0.188 C 
BRANCH  64  65
ATOM     65  O   UNL A   1      31.519  28.353  26.230  1.00  0.00    -0.376 OA
BRANCH  65  66
ATOM     66  C   UNL A   1      31.541  28.995  24.969  1.00  0.00     0.202 C 
BRANCH  66  67
ATOM     67  C   UNL A   1      31.953  28.196  23.725  1.00  0.00     0.261 C 
BRANCH  67  68
ATOM     68  O   UNL A   1      30.868  27.605  22.994  1.00  0.00    -0.460 OA
BRANCH  68  69
ATOM     69  C   UNL A   1      30.190  26.631  23.633  1.00  0.00     0.338 C 
ATOM     70  O   UNL A   1      29.087  26.716  24.179  1.00  0.00    -0.246 OA
BRANCH  69  71
ATOM     71  C   UNL A   1      30.905  25.356  23.510  1.00  0.00     0.060 A 
ATOM     72  C   UNL A   1      30.842  24.441  24.565  1.00  0.00     0.016 A 
ATOM     73  C   UNL A   1      31.704  25.096  22.398  1.00  0.00     0.016 A 
ATOM     74  C   UNL A   1      31.569  23.255  24.502  1.00  0.00     0.005 A 
ATOM     75  C   UNL A   1      32.471  23.927  22.360  1.00  0.00     0.005 A 
ATOM     76  C   UNL A   1      32.415  22.990  23.412  1.00  0.00    -0.038 A 
BRANCH  76  77
ATOM     77  C   UNL A   1      33.333  21.781  23.508  1.00  0.00     0.081 C 
ATOM     78  C   UNL A   1      32.915  20.875  24.687  1.00  0.00     0.111 C 
ATOM     79  C   UNL A   1      34.727  22.259  23.662  1.00  0.00     0.093 A 
ATOM     80  C   UNL A   1      33.813  20.971  25.909  1.00  0.00     0.188 C 
ATOM     81  C   UNL A   1      35.441  22.019  24.814  1.00  0.00     0.164 A 
ATOM     82  N   UNL A   1      35.443  23.000  22.762  1.00  0.00    -0.238 NA
ATOM     83  N   UNL A   1      35.018  21.441  25.964  1.00  0.00    -0.198 NA
ATOM     84  N   UNL A   1      36.652  22.656  24.628  1.00  0.00    -0.283 N 
ATOM     85  C   UNL A   1      36.572  23.265  23.391  1.00  0.00     0.206 A 
BRANCH  80  86
ATOM     86  O   UNL A   1      33.283  20.442  27.029  1.00  0.00    -0.496 OA
ATOM     87  H   UNL A   1      32.382  20.595  27.238  1.00  0.00     0.294 HD
ENDBRANCH  80  86
BRANCH  84  88
ATOM     88  C   UNL A   1      37.738  22.704  25.530  1.00  0.00     0.050 A 
ATOM     89  C   UNL A   1      38.593  21.604  25.655  1.00  0.00     0.027 A 
ATOM     90  C   UNL A   1      37.962  23.867  26.277  1.00  0.00     0.047 A 
ATOM     91  C   UNL A   1      39.703  21.691  26.499  1.00  0.00     0.004 A 
ATOM     92  C   UNL A   1      39.041  23.921  27.154  1.00  0.00     0.043 A 
ATOM     93  C   UNL A   1      39.922  22.845  27.256  1.00  0.00     0.020 A 
ATOM     94  Cl  UNL A   1      39.281  25.318  28.129  1.00  0.00    -0.084 Cl
ENDBRANCH  84  88
ENDBRANCH  76  77
ENDBRANCH  69  71
ENDBRANCH  68  69
ENDBRANCH  67  68
ENDBRANCH  66  67
ENDBRANCH  65  66
ENDBRANCH  64  65
ENDBRANCH   1  64
TORSDOF 20
ENDMDL
MODEL 3
REMARK VINA RESULT:     -11.5      3.518      8.973
REMARK SMILES O=C(OCCOCCOCCOC(=O)c1ccc([C@@H]2CC(O)=Nc3c2ncn3-c2cccc(Cl)c2)cc1)c1ccc(-c2c3nc(c(-c4c(F)cccc4F)c4ccc([nH]4)c(-c4c(F)cccc4F)c4nc(c(-c5c(F)cccc5F)c5ccc2[nH]5)C=C4)C=C3)cc1
REMARK SMILES IDX 7 1 6 2 5 3 4 4 3 5 2 6 1 7 38 8 39 9 91 10 40 11 90 12
REMARK SMILES IDX 41 13 42 14 43 15 84 16 44 17 89 18 83 19 85 20 45 21 88 22
REMARK SMILES IDX 82 23 81 24 46 26 72 27 55 28 71 29 56 30 59 31 70 32 86 33
REMARK SMILES IDX 57 34 58 35 69 37 87 38 60 39 47 40 48 41 53 42 49 43 50 44
REMARK SMILES IDX 52 45 54 46 51 47 73 48 74 49 79 50 75 51 76 52 78 53 80 54
REMARK SMILES IDX 77 55 61 56 62 57 67 58 63 59 64 60 66 61 68 62 65 63 8 64
REMARK SMILES IDX 9 65 10 66 11 67 12 68 13 69 14 70 15 71 16 72 37 73 17 74
REMARK SMILES IDX 36 75 18 76 19 77 20 78 25 79 21 80 24 81 26 82 23 83 28 84
REMARK SMILES IDX 27 85 22 86 29 88 30 89 35 90 31 91 33 92 32 93 34 94
REMARK H PARENT 85 25 59 36 22 87
REMARK Flexibility Score: inf
ROOT
ATOM      1  C   UNL A   1      36.549  23.046  24.442  1.00  0.00     0.188 C 
ENDROOT
BRANCH   1   2
ATOM      2  O   UNL A   1      36.979  21.762  24.063  1.00  0.00    -0.376 OA
BRANCH   2   3
ATOM      3  C   UNL A   1      37.516  20.825  24.975  1.00  0.00     0.202 C 
BRANCH   3   4
ATOM      4  C   UNL A   1      38.865  20.945  25.695  1.00  0.00     0.261 C 
BRANCH   4   5
ATOM      5  O   UNL A   1      39.117  22.159  26.396  1.00  0.00    -0.460 OA
BRANCH   5   6
ATOM      6  C   UNL A   1      40.092  22.511  27.256  1.00  0.00     0.338 C 
ATOM      7  O   UNL A   1      40.644  21.614  27.894  1.00  0.00    -0.246 OA
BRANCH   6   8
ATOM      8  C   UNL A   1      40.486  23.914  27.584  1.00  0.00     0.060 A 
ATOM      9  C   UNL A   1      41.645  24.329  28.237  1.00  0.00     0.016 A 
ATOM     10  C   UNL A   1      39.543  24.897  27.210  1.00  0.00     0.016 A 
ATOM     11  C   UNL A   1      41.763  25.645  28.675  1.00  0.00     0.010 A 
ATOM     12  C   UNL A   1      39.672  26.219  27.612  1.00  0.00     0.010 A 
ATOM     13  C   UNL A   1      40.747  26.568  28.413  1.00  0.00    -0.014 A 
BRANCH  13  14
ATOM     14  C   UNL A   1      40.882  27.900  28.984  1.00  0.00     0.031 A 
ATOM     15  C   UNL A   1      42.010  28.707  28.459  1.00  0.00     0.074 A 
ATOM     16  C   UNL A   1      40.041  28.397  29.912  1.00  0.00     0.049 A 
ATOM     17  N   UNL A   1      43.077  29.074  29.089  1.00  0.00    -0.248 NA
ATOM     18  C   UNL A   1      41.996  29.065  27.035  1.00  0.00     0.031 C 
ATOM     19  C   UNL A   1      38.746  27.867  30.345  1.00  0.00     0.029 A 
ATOM     20  N   UNL A   1      40.154  29.556  30.622  1.00  0.00    -0.354 N 
ATOM     21  C   UNL A   1      43.794  29.867  28.198  1.00  0.00     0.074 A 
ATOM     22  C   UNL A   1      43.152  29.721  26.916  1.00  0.00     0.031 C 
ATOM     23  C   UNL A   1      38.105  28.804  31.081  1.00  0.00     0.029 A 
ATOM     24  C   UNL A   1      38.997  29.934  31.288  1.00  0.00     0.049 A 
ATOM     25  H   UNL A   1      40.986  30.079  30.659  1.00  0.00     0.167 HD
ATOM     26  C   UNL A   1      44.741  30.743  28.633  1.00  0.00     0.037 A 
ATOM     27  C   UNL A   1      38.776  31.113  31.919  1.00  0.00     0.037 A 
ATOM     28  C   UNL A   1      45.181  30.429  29.967  1.00  0.00     0.049 A 
ATOM     29  C   UNL A   1      40.094  31.723  32.219  1.00  0.00     0.074 A 
ATOM     30  C   UNL A   1      45.769  29.331  30.566  1.00  0.00     0.029 A 
ATOM     31  N   UNL A   1      44.726  31.210  31.000  1.00  0.00    -0.354 N 
ATOM     32  N   UNL A   1      40.921  31.273  33.118  1.00  0.00    -0.248 NA
ATOM     33  C   UNL A   1      40.678  32.607  31.221  1.00  0.00     0.031 C 
ATOM     34  C   UNL A   1      45.199  29.272  31.872  1.00  0.00     0.029 A 
ATOM     35  C   UNL A   1      44.340  30.363  32.004  1.00  0.00     0.049 A 
ATOM     36  H   UNL A   1      44.684  32.194  31.015  1.00  0.00     0.167 HD
ATOM     37  C   UNL A   1      42.177  31.443  32.554  1.00  0.00     0.074 A 
ATOM     38  C   UNL A   1      41.972  32.364  31.440  1.00  0.00     0.031 C 
ATOM     39  C   UNL A   1      43.208  30.606  32.867  1.00  0.00     0.037 A 
BRANCH  26  40
ATOM     40  C   UNL A   1      45.003  32.088  28.002  1.00  0.00     0.057 A 
ATOM     41  C   UNL A   1      44.017  33.089  28.079  1.00  0.00     0.134 A 
ATOM     42  C   UNL A   1      46.033  32.331  27.071  1.00  0.00     0.134 A 
ATOM     43  F   UNL A   1      42.976  32.969  28.918  1.00  0.00    -0.206 F 
ATOM     44  C   UNL A   1      44.011  34.204  27.233  1.00  0.00     0.040 A 
ATOM     45  C   UNL A   1      46.064  33.466  26.257  1.00  0.00     0.040 A 
ATOM     46  F   UNL A   1      46.999  31.439  26.824  1.00  0.00    -0.206 F 
ATOM     47  C   UNL A   1      45.034  34.390  26.311  1.00  0.00     0.006 A 
ENDBRANCH  26  40
BRANCH  27  48
ATOM     48  C   UNL A   1      37.514  31.874  32.055  1.00  0.00     0.057 A 
ATOM     49  C   UNL A   1      36.837  31.944  33.281  1.00  0.00     0.134 A 
ATOM     50  C   UNL A   1      37.095  32.779  31.065  1.00  0.00     0.134 A 
ATOM     51  F   UNL A   1      37.187  31.147  34.301  1.00  0.00    -0.206 F 
ATOM     52  C   UNL A   1      35.825  32.884  33.520  1.00  0.00     0.040 A 
ATOM     53  C   UNL A   1      36.081  33.715  31.287  1.00  0.00     0.040 A 
ATOM     54  F   UNL A   1      37.719  32.851  29.881  1.00  0.00    -0.206 F 
ATOM     55  C   UNL A   1      35.453  33.782  32.525  1.00  0.00     0.006 A 
ENDBRANCH  27  48
BRANCH  39  56
ATOM     56  C   UNL A   1      43.043  29.688  34.045  1.00  0.00     0.057 A 
ATOM     57  C   UNL A   1      42.402  28.441  33.991  1.00  0.00     0.134 A 
ATOM     58  C   UNL A   1      43.677  30.023  35.249  1.00  0.00     0.134 A 
ATOM     59  F   UNL A   1      41.860  27.986  32.854  1.00  0.00    -0.206 F 
ATOM     60  C   UNL A   1      42.351  27.593  35.102  1.00  0.00     0.040 A 
ATOM     61  C   UNL A   1      43.665  29.168  36.352  1.00  0.00     0.040 A 
ATOM     62  F   UNL A   1      44.359  31.174  35.356  1.00  0.00    -0.206 F 
ATOM     63  C   UNL A   1      42.989  27.953  36.285  1.00  0.00     0.006 A 
ENDBRANCH  39  56
ENDBRANCH  13  14
ENDBRANCH   6   8
ENDBRANCH   5   6
ENDBRANCH   4   5
ENDBRANCH   3   4
ENDBRANCH   2   3
ENDBRANCH   1   2
BRANCH   1  64
ATOM     64  C   UNL A   1      35.829  23.187  25.806  1.00  0.00     0.188 C 
BRANCH  64  65
ATOM     65  O   UNL A   1      34.477  22.794  25.978  1.00  0.00    -0.376 OA
BRANCH  65  66
ATOM     66  C   UNL A   1      34.155  21.432  26.189  1.00  0.00     0.202 C 
BRANCH  66  67
ATOM     67  C   UNL A   1      33.445  20.646  25.079  1.00  0.00     0.261 C 
BRANCH  67  68
ATOM     68  O   UNL A   1      33.613  21.177  23.754  1.00  0.00    -0.460 OA
BRANCH  68  69
ATOM     69  C   UNL A   1      32.486  21.578  23.134  1.00  0.00     0.338 C 
ATOM     70  O   UNL A   1      31.757  20.912  22.394  1.00  0.00    -0.246 OA
BRANCH  69  71
ATOM     71  C   UNL A   1      32.146  22.946  23.542  1.00  0.00     0.060 A 
ATOM     72  C   UNL A   1      31.033  23.150  24.361  1.00  0.00     0.016 A 
ATOM     73  C   UNL A   1      32.871  24.031  23.052  1.00  0.00     0.016 A 
ATOM     74  C   UNL A   1      30.649  24.443  24.705  1.00  0.00     0.005 A 
ATOM     75  C   UNL A   1      32.454  25.331  23.359  1.00  0.00     0.005 A 
ATOM     76  C   UNL A   1      31.337  25.556  24.188  1.00  0.00    -0.038 A 
BRANCH  76  77
ATOM     77  C   UNL A   1      30.738  26.932  24.435  1.00  0.00     0.081 C 
ATOM     78  C   UNL A   1      30.896  27.825  23.185  1.00  0.00     0.111 C 
ATOM     79  C   UNL A   1      31.406  27.531  25.614  1.00  0.00     0.093 A 
ATOM     80  C   UNL A   1      31.985  28.879  23.293  1.00  0.00     0.188 C 
ATOM     81  C   UNL A   1      32.186  28.660  25.497  1.00  0.00     0.164 A 
ATOM     82  N   UNL A   1      31.385  27.055  26.897  1.00  0.00    -0.238 NA
ATOM     83  N   UNL A   1      32.545  29.324  24.372  1.00  0.00    -0.198 NA
ATOM     84  N   UNL A   1      32.688  28.884  26.763  1.00  0.00    -0.283 N 
ATOM     85  C   UNL A   1      32.204  27.858  27.550  1.00  0.00     0.206 A 
BRANCH  80  86
ATOM     86  O   UNL A   1      32.338  29.433  22.117  1.00  0.00    -0.496 OA
ATOM     87  H   UNL A   1      33.074  30.011  22.074  1.00  0.00     0.294 HD
ENDBRANCH  80  86
BRANCH  84  88
ATOM     88  C   UNL A   1      33.547  29.931  27.166  1.00  0.00     0.050 A 
ATOM     89  C   UNL A   1      33.035  31.217  27.373  1.00  0.00     0.027 A 
ATOM     90  C   UNL A   1      34.905  29.664  27.378  1.00  0.00     0.047 A 
ATOM     91  C   UNL A   1      33.883  32.226  27.838  1.00  0.00     0.004 A 
ATOM     92  C   UNL A   1      35.749  30.691  27.791  1.00  0.00     0.043 A 
ATOM     93  C   UNL A   1      35.241  31.966  28.038  1.00  0.00     0.020 A 
ATOM     94  Cl  UNL A   1      37.432  30.390  27.982  1.00  0.00    -0.084 Cl
ENDBRANCH  84  88
ENDBRANCH  76  77
ENDBRANCH  69  71
ENDBRANCH  68  69
ENDBRANCH  67  68
ENDBRANCH  66  67
ENDBRANCH  65  66
ENDBRANCH  64  65
ENDBRANCH   1  64
TORSDOF 20
ENDMDL
