MODEL 1
REMARK VINA RESULT:     -11.2      0.000      0.000
REMARK SMILES O=C(CN1C(=O)/C(=C\c2c(F)cccc2Cl)Oc2ccccc21)OCCOCCOCCOC(=O)c1ccc(-c2c3nc(c(-c4c(F)cccc4F)c4ccc([nH]4)c(-c4c(F)cccc4F)c4nc(c(-c5c(F)cccc5F)c5ccc2[nH]5)C=C4)C=C3)cc1
REMARK SMILES IDX 28 1 27 2 26 3 25 4 24 5 2 6 1 7 3 8 4 9 5 10 23 11 6 12
REMARK SMILES IDX 7 13 18 14 22 15 8 16 17 17 19 18 21 19 20 20 9 21 10 22
REMARK SMILES IDX 15 23 11 24 12 25 14 26 16 27 13 28 29 29 30 30 31 31 32 32
REMARK SMILES IDX 33 33 34 34 35 35 36 36 37 37 89 38 38 39 88 40 39 41 40 42
REMARK SMILES IDX 41 43 82 44 42 45 87 46 81 47 83 48 43 49 86 50 80 51 79 52
REMARK SMILES IDX 44 54 70 55 53 56 69 57 54 58 57 59 68 60 84 61 55 62 56 63
REMARK SMILES IDX 67 65 85 66 58 67 45 68 46 69 51 70 47 71 48 72 50 73 52 74
REMARK SMILES IDX 49 75 71 76 72 77 77 78 73 79 74 80 76 81 78 82 75 83 59 84
REMARK SMILES IDX 60 85 65 86 61 87 62 88 64 89 66 90 63 91
REMARK H PARENT 83 53 57 64
REMARK Flexibility Score: inf
ROOT
ATOM      1  C   UNL A   1      45.307  40.451  26.053  1.00  0.00     0.188 C 
ENDROOT
BRANCH   1   2
ATOM      2  O   UNL A   1      44.549  41.055  25.016  1.00  0.00    -0.376 OA
BRANCH   2   3
ATOM      3  C   UNL A   1      43.286  41.628  25.327  1.00  0.00     0.202 C 
BRANCH   3   4
ATOM      4  C   UNL A   1      42.344  41.975  24.166  1.00  0.00     0.261 C 
BRANCH   4   5
ATOM      5  O   UNL A   1      42.961  42.321  22.912  1.00  0.00    -0.462 OA
BRANCH   5   6
ATOM      6  C   UNL A   1      42.209  42.744  21.862  1.00  0.00     0.326 C 
ATOM      7  O   UNL A   1      41.068  43.158  22.033  1.00  0.00    -0.250 OA
BRANCH   6   8
ATOM      8  C   UNL A   1      42.799  42.411  20.502  1.00  0.00     0.248 C 
BRANCH   8   9
ATOM      9  N   UNL A   1      43.668  43.430  19.939  1.00  0.00    -0.291 N 
ATOM     10  C   UNL A   1      44.991  43.419  20.346  1.00  0.00     0.294 C 
ATOM     11  C   UNL A   1      43.176  44.481  19.116  1.00  0.00     0.088 A 
ATOM     12  O   UNL A   1      45.528  42.471  20.911  1.00  0.00    -0.265 OA
ATOM     13  C   UNL A   1      45.663  44.748  20.177  1.00  0.00     0.193 C 
ATOM     14  C   UNL A   1      44.057  45.480  18.681  1.00  0.00     0.151 A 
ATOM     15  C   UNL A   1      41.839  44.575  18.725  1.00  0.00     0.030 A 
ATOM     16  C   UNL A   1      46.271  45.350  21.212  1.00  0.00     0.065 C 
ATOM     17  O   UNL A   1      45.385  45.489  19.039  1.00  0.00    -0.449 OA
ATOM     18  C   UNL A   1      43.610  46.550  17.905  1.00  0.00     0.049 A 
ATOM     19  C   UNL A   1      41.378  45.651  17.967  1.00  0.00     0.002 A 
ATOM     20  C   UNL A   1      42.263  46.643  17.561  1.00  0.00     0.004 A 
BRANCH  16  21
ATOM     21  C   UNL A   1      46.228  44.814  22.576  1.00  0.00     0.033 A 
ATOM     22  C   UNL A   1      45.162  45.142  23.417  1.00  0.00     0.132 A 
ATOM     23  C   UNL A   1      47.295  44.058  23.096  1.00  0.00     0.051 A 
ATOM     24  F   UNL A   1      44.123  45.853  22.952  1.00  0.00    -0.206 F 
ATOM     25  C   UNL A   1      45.163  44.761  24.749  1.00  0.00     0.040 A 
ATOM     26  C   UNL A   1      47.279  43.633  24.420  1.00  0.00     0.021 A 
ATOM     27  Cl  UNL A   1      48.679  43.638  22.146  1.00  0.00    -0.084 Cl
ATOM     28  C   UNL A   1      46.214  43.989  25.236  1.00  0.00     0.005 A 
ENDBRANCH  16  21
ENDBRANCH   8   9
ENDBRANCH   6   8
ENDBRANCH   5   6
ENDBRANCH   4   5
ENDBRANCH   3   4
ENDBRANCH   2   3
ENDBRANCH   1   2
BRANCH   1  29
ATOM     29  C   UNL A   1      46.753  40.038  25.757  1.00  0.00     0.188 C 
BRANCH  29  30
ATOM     30  O   UNL A   1      46.932  38.646  25.526  1.00  0.00    -0.376 OA
BRANCH  30  31
ATOM     31  C   UNL A   1      47.733  37.974  26.495  1.00  0.00     0.202 C 
BRANCH  31  32
ATOM     32  C   UNL A   1      47.003  36.865  27.268  1.00  0.00     0.261 C 
BRANCH  32  33
ATOM     33  O   UNL A   1      45.800  37.253  27.954  1.00  0.00    -0.460 OA
BRANCH  33  34
ATOM     34  C   UNL A   1      44.638  36.715  27.530  1.00  0.00     0.338 C 
ATOM     35  O   UNL A   1      43.660  37.317  27.116  1.00  0.00    -0.246 OA
BRANCH  34  36
ATOM     36  C   UNL A   1      44.756  35.239  27.528  1.00  0.00     0.060 A 
ATOM     37  C   UNL A   1      45.207  34.553  28.657  1.00  0.00     0.016 A 
ATOM     38  C   UNL A   1      44.353  34.528  26.391  1.00  0.00     0.016 A 
ATOM     39  C   UNL A   1      45.205  33.152  28.661  1.00  0.00     0.010 A 
ATOM     40  C   UNL A   1      44.358  33.127  26.395  1.00  0.00     0.010 A 
ATOM     41  C   UNL A   1      44.753  32.424  27.541  1.00  0.00    -0.014 A 
BRANCH  41  42
ATOM     42  C   UNL A   1      44.473  30.971  27.686  1.00  0.00     0.031 A 
ATOM     43  C   UNL A   1      43.211  30.410  28.265  1.00  0.00     0.074 A 
ATOM     44  C   UNL A   1      45.425  30.097  27.308  1.00  0.00     0.049 A 
ATOM     45  N   UNL A   1      42.703  29.214  28.083  1.00  0.00    -0.248 NA
ATOM     46  C   UNL A   1      42.428  31.259  29.169  1.00  0.00     0.031 C 
ATOM     47  C   UNL A   1      46.780  30.446  26.879  1.00  0.00     0.029 A 
ATOM     48  N   UNL A   1      45.397  28.727  27.257  1.00  0.00    -0.354 N 
ATOM     49  C   UNL A   1      41.466  29.228  28.707  1.00  0.00     0.074 A 
ATOM     50  C   UNL A   1      41.389  30.471  29.441  1.00  0.00     0.031 C 
ATOM     51  C   UNL A   1      47.466  29.314  26.645  1.00  0.00     0.029 A 
ATOM     52  C   UNL A   1      46.587  28.169  26.873  1.00  0.00     0.049 A 
ATOM     53  H   UNL A   1      44.599  28.195  27.476  1.00  0.00     0.167 HD
ATOM     54  C   UNL A   1      40.465  28.327  28.558  1.00  0.00     0.037 A 
ATOM     55  C   UNL A   1      46.931  26.878  26.716  1.00  0.00     0.037 A 
ATOM     56  C   UNL A   1      40.634  27.013  27.999  1.00  0.00     0.049 A 
ATOM     57  C   UNL A   1      45.891  25.802  26.851  1.00  0.00     0.074 A 
ATOM     58  C   UNL A   1      39.681  26.039  27.756  1.00  0.00     0.029 A 
ATOM     59  N   UNL A   1      41.861  26.455  27.699  1.00  0.00    -0.354 N 
ATOM     60  N   UNL A   1      44.602  25.920  27.047  1.00  0.00    -0.248 NA
ATOM     61  C   UNL A   1      46.352  24.413  26.710  1.00  0.00     0.031 C 
ATOM     62  C   UNL A   1      40.345  24.862  27.387  1.00  0.00     0.029 A 
ATOM     63  C   UNL A   1      41.706  25.119  27.378  1.00  0.00     0.049 A 
ATOM     64  H   UNL A   1      42.721  26.936  27.711  1.00  0.00     0.167 HD
ATOM     65  C   UNL A   1      44.092  24.627  27.009  1.00  0.00     0.074 A 
ATOM     66  C   UNL A   1      45.210  23.741  26.774  1.00  0.00     0.031 C 
ATOM     67  C   UNL A   1      42.806  24.223  27.146  1.00  0.00     0.037 A 
BRANCH  54  68
ATOM     68  C   UNL A   1      39.064  28.752  28.868  1.00  0.00     0.057 A 
ATOM     69  C   UNL A   1      38.262  29.466  27.980  1.00  0.00     0.134 A 
ATOM     70  C   UNL A   1      38.570  28.539  30.166  1.00  0.00     0.134 A 
ATOM     71  F   UNL A   1      38.688  29.724  26.736  1.00  0.00    -0.206 F 
ATOM     72  C   UNL A   1      37.001  29.935  28.365  1.00  0.00     0.040 A 
ATOM     73  C   UNL A   1      37.316  29.004  30.562  1.00  0.00     0.040 A 
ATOM     74  F   UNL A   1      39.301  27.864  31.068  1.00  0.00    -0.206 F 
ATOM     75  C   UNL A   1      36.525  29.703  29.656  1.00  0.00     0.006 A 
ENDBRANCH  54  68
BRANCH  55  76
ATOM     76  C   UNL A   1      48.333  26.528  26.401  1.00  0.00     0.057 A 
ATOM     77  C   UNL A   1      48.794  26.543  25.079  1.00  0.00     0.134 A 
ATOM     78  C   UNL A   1      49.247  26.208  27.408  1.00  0.00     0.134 A 
ATOM     79  F   UNL A   1      47.958  26.842  24.074  1.00  0.00    -0.206 F 
ATOM     80  C   UNL A   1      50.122  26.257  24.770  1.00  0.00     0.040 A 
ATOM     81  C   UNL A   1      50.583  25.938  27.114  1.00  0.00     0.040 A 
ATOM     82  F   UNL A   1      48.860  26.195  28.692  1.00  0.00    -0.206 F 
ATOM     83  C   UNL A   1      51.023  25.962  25.791  1.00  0.00     0.006 A 
ENDBRANCH  55  76
BRANCH  67  84
ATOM     84  C   UNL A   1      42.523  22.755  27.049  1.00  0.00     0.057 A 
ATOM     85  C   UNL A   1      42.284  21.988  28.197  1.00  0.00     0.134 A 
ATOM     86  C   UNL A   1      42.522  22.090  25.817  1.00  0.00     0.134 A 
ATOM     87  F   UNL A   1      42.282  22.559  29.410  1.00  0.00    -0.206 F 
ATOM     88  C   UNL A   1      42.057  20.613  28.121  1.00  0.00     0.040 A 
ATOM     89  C   UNL A   1      42.271  20.722  25.725  1.00  0.00     0.040 A 
ATOM     90  F   UNL A   1      42.732  22.770  24.679  1.00  0.00    -0.206 F 
ATOM     91  C   UNL A   1      42.044  19.977  26.881  1.00  0.00     0.006 A 
ENDBRANCH  67  84
ENDBRANCH  41  42
ENDBRANCH  34  36
ENDBRANCH  33  34
ENDBRANCH  32  33
ENDBRANCH  31  32
ENDBRANCH  30  31
ENDBRANCH  29  30
ENDBRANCH   1  29
TORSDOF 19
ENDMDL
MODEL 2
REMARK VINA RESULT:     -10.9      8.248     14.188
REMARK SMILES O=C(CN1C(=O)/C(=C\c2c(F)cccc2Cl)Oc2ccccc21)OCCOCCOCCOC(=O)c1ccc(-c2c3nc(c(-c4c(F)cccc4F)c4ccc([nH]4)c(-c4c(F)cccc4F)c4nc(c(-c5c(F)cccc5F)c5ccc2[nH]5)C=C4)C=C3)cc1
REMARK SMILES IDX 28 1 27 2 26 3 25 4 24 5 2 6 1 7 3 8 4 9 5 10 23 11 6 12
REMARK SMILES IDX 7 13 18 14 22 15 8 16 17 17 19 18 21 19 20 20 9 21 10 22
REMARK SMILES IDX 15 23 11 24 12 25 14 26 16 27 13 28 29 29 30 30 31 31 32 32
REMARK SMILES IDX 33 33 34 34 35 35 36 36 37 37 89 38 38 39 88 40 39 41 40 42
REMARK SMILES IDX 41 43 82 44 42 45 87 46 81 47 83 48 43 49 86 50 80 51 79 52
REMARK SMILES IDX 44 54 70 55 53 56 69 57 54 58 57 59 68 60 84 61 55 62 56 63
REMARK SMILES IDX 67 65 85 66 58 67 45 68 46 69 51 70 47 71 48 72 50 73 52 74
REMARK SMILES IDX 49 75 71 76 72 77 77 78 73 79 74 80 76 81 78 82 75 83 59 84
REMARK SMILES IDX 60 85 65 86 61 87 62 88 64 89 66 90 63 91
REMARK H PARENT 83 53 57 64
REMARK Flexibility Score: inf
ROOT
ATOM      1  C   UNL A   1      34.097  33.135  28.375  1.00  0.00     0.188 C 
ENDROOT
BRANCH   1   2
ATOM      2  O   UNL A   1      35.178  32.217  28.448  1.00  0.00    -0.376 OA
BRANCH   2   3
ATOM      3  C   UNL A   1      35.160  31.061  27.622  1.00  0.00     0.202 C 
BRANCH   3   4
ATOM      4  C   UNL A   1      33.811  30.377  27.363  1.00  0.00     0.261 C 
BRANCH   4   5
ATOM      5  O   UNL A   1      33.739  28.964  27.629  1.00  0.00    -0.462 OA
BRANCH   5   6
ATOM      6  C   UNL A   1      32.667  28.236  27.221  1.00  0.00     0.326 C 
ATOM      7  O   UNL A   1      31.755  27.970  27.996  1.00  0.00    -0.250 OA
BRANCH   6   8
ATOM      8  C   UNL A   1      32.839  27.590  25.856  1.00  0.00     0.248 C 
BRANCH   8   9
ATOM      9  N   UNL A   1      31.636  27.000  25.296  1.00  0.00    -0.291 N 
ATOM     10  C   UNL A   1      31.480  25.632  25.448  1.00  0.00     0.294 C 
ATOM     11  C   UNL A   1      30.716  27.745  24.507  1.00  0.00     0.088 A 
ATOM     12  O   UNL A   1      32.125  24.951  26.239  1.00  0.00    -0.265 OA
ATOM     13  C   UNL A   1      30.558  25.034  24.430  1.00  0.00     0.193 C 
ATOM     14  C   UNL A   1      29.623  27.090  23.925  1.00  0.00     0.151 A 
ATOM     15  C   UNL A   1      30.858  29.114  24.271  1.00  0.00     0.030 A 
ATOM     16  C   UNL A   1      30.955  24.011  23.655  1.00  0.00     0.065 C 
ATOM     17  O   UNL A   1      29.417  25.738  24.076  1.00  0.00    -0.449 OA
ATOM     18  C   UNL A   1      28.719  27.775  23.112  1.00  0.00     0.049 A 
ATOM     19  C   UNL A   1      29.971  29.803  23.443  1.00  0.00     0.002 A 
ATOM     20  C   UNL A   1      28.904  29.131  22.858  1.00  0.00     0.004 A 
BRANCH  16  21
ATOM     21  C   UNL A   1      32.325  23.489  23.676  1.00  0.00     0.033 A 
ATOM     22  C   UNL A   1      32.624  22.354  24.433  1.00  0.00     0.132 A 
ATOM     23  C   UNL A   1      33.374  24.171  23.031  1.00  0.00     0.051 A 
ATOM     24  F   UNL A   1      31.648  21.674  25.054  1.00  0.00    -0.206 F 
ATOM     25  C   UNL A   1      33.933  21.920  24.580  1.00  0.00     0.040 A 
ATOM     26  C   UNL A   1      34.683  23.712  23.136  1.00  0.00     0.021 A 
ATOM     27  Cl  UNL A   1      33.110  25.610  22.106  1.00  0.00    -0.084 Cl
ATOM     28  C   UNL A   1      34.951  22.591  23.909  1.00  0.00     0.005 A 
ENDBRANCH  16  21
ENDBRANCH   8   9
ENDBRANCH   6   8
ENDBRANCH   5   6
ENDBRANCH   4   5
ENDBRANCH   3   4
ENDBRANCH   2   3
ENDBRANCH   1   2
BRANCH   1  29
ATOM     29  C   UNL A   1      33.961  34.193  29.475  1.00  0.00     0.188 C 
BRANCH  29  30
ATOM     30  O   UNL A   1      35.048  34.234  30.391  1.00  0.00    -0.376 OA
BRANCH  30  31
ATOM     31  C   UNL A   1      34.707  34.658  31.710  1.00  0.00     0.202 C 
BRANCH  31  32
ATOM     32  C   UNL A   1      34.375  33.515  32.680  1.00  0.00     0.261 C 
BRANCH  32  33
ATOM     33  O   UNL A   1      35.132  32.303  32.520  1.00  0.00    -0.460 OA
BRANCH  33  34
ATOM     34  C   UNL A   1      36.270  32.178  33.233  1.00  0.00     0.338 C 
ATOM     35  O   UNL A   1      36.460  32.554  34.379  1.00  0.00    -0.246 OA
BRANCH  34  36
ATOM     36  C   UNL A   1      37.253  31.396  32.451  1.00  0.00     0.060 A 
ATOM     37  C   UNL A   1      37.196  31.358  31.056  1.00  0.00     0.016 A 
ATOM     38  C   UNL A   1      38.285  30.733  33.128  1.00  0.00     0.016 A 
ATOM     39  C   UNL A   1      38.204  30.697  30.341  1.00  0.00     0.010 A 
ATOM     40  C   UNL A   1      39.288  30.068  32.410  1.00  0.00     0.010 A 
ATOM     41  C   UNL A   1      39.276  30.071  31.009  1.00  0.00    -0.014 A 
BRANCH  41  42
ATOM     42  C   UNL A   1      40.473  29.656  30.229  1.00  0.00     0.031 A 
ATOM     43  C   UNL A   1      41.626  30.557  29.914  1.00  0.00     0.074 A 
ATOM     44  C   UNL A   1      40.512  28.402  29.741  1.00  0.00     0.049 A 
ATOM     45  N   UNL A   1      42.854  30.215  29.602  1.00  0.00    -0.248 NA
ATOM     46  C   UNL A   1      41.395  32.005  29.922  1.00  0.00     0.031 C 
ATOM     47  C   UNL A   1      39.418  27.431  29.795  1.00  0.00     0.029 A 
ATOM     48  N   UNL A   1      41.512  27.746  29.071  1.00  0.00    -0.354 N 
ATOM     49  C   UNL A   1      43.575  31.397  29.545  1.00  0.00     0.074 A 
ATOM     50  C   UNL A   1      42.613  32.471  29.651  1.00  0.00     0.031 C 
ATOM     51  C   UNL A   1      39.796  26.315  29.151  1.00  0.00     0.029 A 
ATOM     52  C   UNL A   1      41.167  26.482  28.672  1.00  0.00     0.049 A 
ATOM     53  H   UNL A   1      42.395  28.144  28.894  1.00  0.00     0.167 HD
ATOM     54  C   UNL A   1      44.923  31.533  29.531  1.00  0.00     0.037 A 
ATOM     55  C   UNL A   1      41.878  25.559  28.000  1.00  0.00     0.037 A 
ATOM     56  C   UNL A   1      45.840  30.470  29.220  1.00  0.00     0.049 A 
ATOM     57  C   UNL A   1      43.325  25.807  27.685  1.00  0.00     0.074 A 
ATOM     58  C   UNL A   1      47.225  30.484  29.224  1.00  0.00     0.029 A 
ATOM     59  N   UNL A   1      45.455  29.233  28.742  1.00  0.00    -0.354 N 
ATOM     60  N   UNL A   1      44.084  26.816  28.034  1.00  0.00    -0.248 NA
ATOM     61  C   UNL A   1      44.022  24.771  26.909  1.00  0.00     0.031 C 
ATOM     62  C   UNL A   1      47.674  29.279  28.667  1.00  0.00     0.029 A 
ATOM     63  C   UNL A   1      46.567  28.513  28.345  1.00  0.00     0.049 A 
ATOM     64  H   UNL A   1      44.525  28.910  28.692  1.00  0.00     0.167 HD
ATOM     65  C   UNL A   1      45.357  26.516  27.560  1.00  0.00     0.074 A 
ATOM     66  C   UNL A   1      45.266  25.233  26.897  1.00  0.00     0.031 C 
ATOM     67  C   UNL A   1      46.495  27.241  27.680  1.00  0.00     0.037 A 
BRANCH  54  68
ATOM     68  C   UNL A   1      45.519  32.825  29.990  1.00  0.00     0.057 A 
ATOM     69  C   UNL A   1      45.678  33.166  31.332  1.00  0.00     0.134 A 
ATOM     70  C   UNL A   1      45.818  33.806  29.028  1.00  0.00     0.134 A 
ATOM     71  F   UNL A   1      45.385  32.283  32.297  1.00  0.00    -0.206 F 
ATOM     72  C   UNL A   1      46.137  34.435  31.704  1.00  0.00     0.040 A 
ATOM     73  C   UNL A   1      46.275  35.074  29.387  1.00  0.00     0.040 A 
ATOM     74  F   UNL A   1      45.678  33.537  27.720  1.00  0.00    -0.206 F 
ATOM     75  C   UNL A   1      46.438  35.390  30.732  1.00  0.00     0.006 A 
ENDBRANCH  54  68
BRANCH  55  76
ATOM     76  C   UNL A   1      41.227  24.297  27.583  1.00  0.00     0.057 A 
ATOM     77  C   UNL A   1      41.481  23.102  28.267  1.00  0.00     0.134 A 
ATOM     78  C   UNL A   1      40.317  24.263  26.524  1.00  0.00     0.134 A 
ATOM     79  F   UNL A   1      42.348  23.079  29.290  1.00  0.00    -0.206 F 
ATOM     80  C   UNL A   1      40.846  21.914  27.914  1.00  0.00     0.040 A 
ATOM     81  C   UNL A   1      39.660  23.085  26.173  1.00  0.00     0.040 A 
ATOM     82  F   UNL A   1      40.027  25.383  25.847  1.00  0.00    -0.206 F 
ATOM     83  C   UNL A   1      39.924  21.906  26.869  1.00  0.00     0.006 A 
ENDBRANCH  55  76
BRANCH  67  84
ATOM     84  C   UNL A   1      47.747  26.675  27.082  1.00  0.00     0.057 A 
ATOM     85  C   UNL A   1      48.139  27.008  25.778  1.00  0.00     0.134 A 
ATOM     86  C   UNL A   1      48.550  25.771  27.787  1.00  0.00     0.134 A 
ATOM     87  F   UNL A   1      47.409  27.860  25.044  1.00  0.00    -0.206 F 
ATOM     88  C   UNL A   1      49.282  26.458  25.198  1.00  0.00     0.040 A 
ATOM     89  C   UNL A   1      49.710  25.235  27.228  1.00  0.00     0.040 A 
ATOM     90  F   UNL A   1      48.236  25.421  29.044  1.00  0.00    -0.206 F 
ATOM     91  C   UNL A   1      50.075  25.573  25.926  1.00  0.00     0.006 A 
ENDBRANCH  67  84
ENDBRANCH  41  42
ENDBRANCH  34  36
ENDBRANCH  33  34
ENDBRANCH  32  33
ENDBRANCH  31  32
ENDBRANCH  30  31
ENDBRANCH  29  30
ENDBRANCH   1  29
TORSDOF 19
ENDMDL
MODEL 3
REMARK VINA RESULT:     -10.5     10.358     16.828
REMARK SMILES O=C(CN1C(=O)/C(=C\c2c(F)cccc2Cl)Oc2ccccc21)OCCOCCOCCOC(=O)c1ccc(-c2c3nc(c(-c4c(F)cccc4F)c4ccc([nH]4)c(-c4c(F)cccc4F)c4nc(c(-c5c(F)cccc5F)c5ccc2[nH]5)C=C4)C=C3)cc1
REMARK SMILES IDX 28 1 27 2 26 3 25 4 24 5 2 6 1 7 3 8 4 9 5 10 23 11 6 12
REMARK SMILES IDX 7 13 18 14 22 15 8 16 17 17 19 18 21 19 20 20 9 21 10 22
REMARK SMILES IDX 15 23 11 24 12 25 14 26 16 27 13 28 29 29 30 30 31 31 32 32
REMARK SMILES IDX 33 33 34 34 35 35 36 36 37 37 89 38 38 39 88 40 39 41 40 42
REMARK SMILES IDX 41 43 82 44 42 45 87 46 81 47 83 48 43 49 86 50 80 51 79 52
REMARK SMILES IDX 44 54 70 55 53 56 69 57 54 58 57 59 68 60 84 61 55 62 56 63
REMARK SMILES IDX 67 65 85 66 58 67 45 68 46 69 51 70 47 71 48 72 50 73 52 74
REMARK SMILES IDX 49 75 71 76 72 77 77 78 73 79 74 80 76 81 78 82 75 83 59 84
REMARK SMILES IDX 60 85 65 86 61 87 62 88 64 89 66 90 63 91
REMARK H PARENT 83 53 57 64
REMARK Flexibility Score: inf
ROOT
ATOM      1  C   UNL A   1      40.658  22.024  27.495  1.00  0.00     0.188 C 
ENDROOT
BRANCH   1   2
ATOM      2  O   UNL A   1      39.631  22.403  26.591  1.00  0.00    -0.376 OA
BRANCH   2   3
ATOM      3  C   UNL A   1      38.896  23.593  26.841  1.00  0.00     0.202 C 
BRANCH   3   4
ATOM      4  C   UNL A   1      37.571  23.796  26.093  1.00  0.00     0.261 C 
BRANCH   4   5
ATOM      5  O   UNL A   1      37.617  23.700  24.657  1.00  0.00    -0.462 OA
BRANCH   5   6
ATOM      6  C   UNL A   1      36.567  23.190  23.962  1.00  0.00     0.326 C 
ATOM      7  O   UNL A   1      36.657  22.967  22.760  1.00  0.00    -0.250 OA
BRANCH   6   8
ATOM      8  C   UNL A   1      35.258  23.182  24.734  1.00  0.00     0.248 C 
BRANCH   8   9
ATOM      9  N   UNL A   1      34.111  22.675  24.000  1.00  0.00    -0.291 N 
ATOM     10  C   UNL A   1      33.312  23.609  23.363  1.00  0.00     0.294 C 
ATOM     11  C   UNL A   1      33.729  21.305  24.033  1.00  0.00     0.088 A 
ATOM     12  O   UNL A   1      33.650  24.769  23.147  1.00  0.00    -0.265 OA
ATOM     13  C   UNL A   1      31.922  23.110  23.109  1.00  0.00     0.193 C 
ATOM     14  C   UNL A   1      32.561  20.902  23.374  1.00  0.00     0.151 A 
ATOM     15  C   UNL A   1      34.465  20.330  24.710  1.00  0.00     0.030 A 
ATOM     16  C   UNL A   1      30.852  23.797  23.543  1.00  0.00     0.065 C 
ATOM     17  O   UNL A   1      31.755  21.795  22.705  1.00  0.00    -0.449 OA
ATOM     18  C   UNL A   1      32.129  19.576  23.413  1.00  0.00     0.049 A 
ATOM     19  C   UNL A   1      34.031  19.006  24.774  1.00  0.00     0.002 A 
ATOM     20  C   UNL A   1      32.858  18.630  24.129  1.00  0.00     0.004 A 
BRANCH  16  21
ATOM     21  C   UNL A   1      30.968  25.000  24.373  1.00  0.00     0.033 A 
ATOM     22  C   UNL A   1      30.897  26.262  23.779  1.00  0.00     0.132 A 
ATOM     23  C   UNL A   1      31.258  24.912  25.748  1.00  0.00     0.051 A 
ATOM     24  F   UNL A   1      30.614  26.384  22.473  1.00  0.00    -0.206 F 
ATOM     25  C   UNL A   1      31.139  27.411  24.516  1.00  0.00     0.040 A 
ATOM     26  C   UNL A   1      31.454  26.064  26.502  1.00  0.00     0.021 A 
ATOM     27  Cl  UNL A   1      31.409  23.394  26.565  1.00  0.00    -0.084 Cl
ATOM     28  C   UNL A   1      31.394  27.303  25.880  1.00  0.00     0.005 A 
ENDBRANCH  16  21
ENDBRANCH   8   9
ENDBRANCH   6   8
ENDBRANCH   5   6
ENDBRANCH   4   5
ENDBRANCH   3   4
ENDBRANCH   2   3
ENDBRANCH   1   2
BRANCH   1  29
ATOM     29  C   UNL A   1      42.079  21.840  26.952  1.00  0.00     0.188 C 
BRANCH  29  30
ATOM     30  O   UNL A   1      42.378  22.627  25.805  1.00  0.00    -0.376 OA
BRANCH  30  31
ATOM     31  C   UNL A   1      43.765  22.730  25.491  1.00  0.00     0.202 C 
BRANCH  31  32
ATOM     32  C   UNL A   1      44.159  24.018  24.753  1.00  0.00     0.261 C 
BRANCH  32  33
ATOM     33  O   UNL A   1      44.180  25.222  25.541  1.00  0.00    -0.460 OA
BRANCH  33  34
ATOM     34  C   UNL A   1      43.067  25.983  25.548  1.00  0.00     0.338 C 
ATOM     35  O   UNL A   1      42.282  26.140  24.627  1.00  0.00    -0.246 OA
BRANCH  34  36
ATOM     36  C   UNL A   1      42.860  26.532  26.907  1.00  0.00     0.060 A 
ATOM     37  C   UNL A   1      43.634  27.593  27.381  1.00  0.00     0.016 A 
ATOM     38  C   UNL A   1      41.831  26.006  27.700  1.00  0.00     0.016 A 
ATOM     39  C   UNL A   1      43.342  28.159  28.628  1.00  0.00     0.010 A 
ATOM     40  C   UNL A   1      41.546  26.570  28.951  1.00  0.00     0.010 A 
ATOM     41  C   UNL A   1      42.276  27.673  29.414  1.00  0.00    -0.014 A 
BRANCH  41  42
ATOM     42  C   UNL A   1      41.800  28.480  30.569  1.00  0.00     0.031 A 
ATOM     43  C   UNL A   1      42.347  28.363  31.959  1.00  0.00     0.074 A 
ATOM     44  C   UNL A   1      40.789  29.346  30.369  1.00  0.00     0.049 A 
ATOM     45  N   UNL A   1      42.296  29.254  32.921  1.00  0.00    -0.248 NA
ATOM     46  C   UNL A   1      43.007  27.110  32.339  1.00  0.00     0.031 C 
ATOM     47  C   UNL A   1      40.015  29.482  29.135  1.00  0.00     0.029 A 
ATOM     48  N   UNL A   1      40.222  30.255  31.225  1.00  0.00    -0.354 N 
ATOM     49  C   UNL A   1      43.060  28.738  33.956  1.00  0.00     0.074 A 
ATOM     50  C   UNL A   1      43.391  27.380  33.586  1.00  0.00     0.031 C 
ATOM     51  C   UNL A   1      39.049  30.396  29.327  1.00  0.00     0.029 A 
ATOM     52  C   UNL A   1      39.161  30.930  30.683  1.00  0.00     0.049 A 
ATOM     53  H   UNL A   1      40.547  30.407  32.142  1.00  0.00     0.167 HD
ATOM     54  C   UNL A   1      43.527  29.405  35.039  1.00  0.00     0.037 A 
ATOM     55  C   UNL A   1      38.371  31.878  31.217  1.00  0.00     0.037 A 
ATOM     56  C   UNL A   1      43.022  30.675  35.487  1.00  0.00     0.049 A 
ATOM     57  C   UNL A   1      38.681  32.437  32.577  1.00  0.00     0.074 A 
ATOM     58  C   UNL A   1      43.453  31.462  36.541  1.00  0.00     0.029 A 
ATOM     59  N   UNL A   1      41.898  31.286  34.965  1.00  0.00    -0.354 N 
ATOM     60  N   UNL A   1      39.699  32.184  33.360  1.00  0.00    -0.248 NA
ATOM     61  C   UNL A   1      37.745  33.437  33.111  1.00  0.00     0.031 C 
ATOM     62  C   UNL A   1      42.536  32.508  36.707  1.00  0.00     0.029 A 
ATOM     63  C   UNL A   1      41.554  32.380  35.738  1.00  0.00     0.049 A 
ATOM     64  H   UNL A   1      41.413  30.988  34.161  1.00  0.00     0.167 HD
ATOM     65  C   UNL A   1      39.551  33.025  34.458  1.00  0.00     0.074 A 
ATOM     66  C   UNL A   1      38.345  33.792  34.240  1.00  0.00     0.031 C 
ATOM     67  C   UNL A   1      40.357  33.150  35.540  1.00  0.00     0.037 A 
BRANCH  54  68
ATOM     68  C   UNL A   1      44.727  28.867  35.751  1.00  0.00     0.057 A 
ATOM     69  C   UNL A   1      46.038  29.163  35.382  1.00  0.00     0.134 A 
ATOM     70  C   UNL A   1      44.534  27.913  36.764  1.00  0.00     0.134 A 
ATOM     71  F   UNL A   1      46.286  30.045  34.404  1.00  0.00    -0.206 F 
ATOM     72  C   UNL A   1      47.122  28.542  36.013  1.00  0.00     0.040 A 
ATOM     73  C   UNL A   1      45.607  27.286  37.400  1.00  0.00     0.040 A 
ATOM     74  F   UNL A   1      43.293  27.583  37.158  1.00  0.00    -0.206 F 
ATOM     75  C   UNL A   1      46.908  27.605  37.025  1.00  0.00     0.006 A 
ENDBRANCH  54  68
BRANCH  55  76
ATOM     76  C   UNL A   1      37.204  32.372  30.453  1.00  0.00     0.057 A 
ATOM     77  C   UNL A   1      35.927  31.845  30.680  1.00  0.00     0.134 A 
ATOM     78  C   UNL A   1      37.330  33.397  29.513  1.00  0.00     0.134 A 
ATOM     79  F   UNL A   1      35.751  30.857  31.570  1.00  0.00    -0.206 F 
ATOM     80  C   UNL A   1      34.811  32.326  29.999  1.00  0.00     0.040 A 
ATOM     81  C   UNL A   1      36.219  33.902  28.839  1.00  0.00     0.040 A 
ATOM     82  F   UNL A   1      38.529  33.948  29.270  1.00  0.00    -0.206 F 
ATOM     83  C   UNL A   1      34.955  33.366  29.082  1.00  0.00     0.006 A 
ENDBRANCH  55  76
BRANCH  67  84
ATOM     84  C   UNL A   1      39.971  34.152  36.584  1.00  0.00     0.057 A 
ATOM     85  C   UNL A   1      40.353  35.495  36.473  1.00  0.00     0.134 A 
ATOM     86  C   UNL A   1      39.246  33.779  37.722  1.00  0.00     0.134 A 
ATOM     87  F   UNL A   1      41.058  35.918  35.414  1.00  0.00    -0.206 F 
ATOM     88  C   UNL A   1      40.031  36.429  37.458  1.00  0.00     0.040 A 
ATOM     89  C   UNL A   1      38.895  34.708  38.702  1.00  0.00     0.040 A 
ATOM     90  F   UNL A   1      38.839  32.510  37.882  1.00  0.00    -0.206 F 
ATOM     91  C   UNL A   1      39.294  36.037  38.574  1.00  0.00     0.006 A 
ENDBRANCH  67  84
ENDBRANCH  41  42
ENDBRANCH  34  36
ENDBRANCH  33  34
ENDBRANCH  32  33
ENDBRANCH  31  32
ENDBRANCH  30  31
ENDBRANCH  29  30
ENDBRANCH   1  29
TORSDOF 19
ENDMDL
