MODEL 1
REMARK VINA RESULT:     -10.7      0.000      0.000
REMARK SMILES CC/C(C(=O)OCCOCCOCCOC(=O)c1ccc(-c2c3nc(c(-c4c(F)cccc4F)c4ccc([nH]4)c(-c4c(F)cccc4F)c4nc(c(-c5c(F)cccc5F)c5ccc2[nH]5)C=C4)C=C3)cc1)=C1\CCc2ccccc21
REMARK SMILES IDX 11 1 10 2 9 3 8 4 7 5 6 6 4 7 5 8 3 9 72 10 73 11 80 12
REMARK SMILES IDX 74 13 75 14 79 15 76 16 78 17 77 18 2 19 1 20 12 21 13 22
REMARK SMILES IDX 14 23 15 24 16 25 17 26 18 27 19 28 71 29 20 30 70 31 21 32
REMARK SMILES IDX 22 33 23 34 64 35 24 36 69 37 63 38 65 39 25 40 68 41 62 42
REMARK SMILES IDX 61 43 26 45 52 46 35 47 51 48 36 49 39 50 50 51 66 52 37 53
REMARK SMILES IDX 38 54 49 56 67 57 40 58 27 59 28 60 33 61 29 62 30 63 32 64
REMARK SMILES IDX 34 65 31 66 53 67 54 68 59 69 55 70 56 71 58 72 60 73 57 74
REMARK SMILES IDX 41 75 42 76 47 77 43 78 44 79 46 80 48 81 45 82
REMARK H PARENT 65 44 39 55
REMARK Flexibility Score: inf
ROOT
ATOM      1  C   UNL A   1      39.984  20.835  26.421  1.00  0.00     0.188 C 
ENDROOT
BRANCH   1   2
ATOM      2  C   UNL A   1      39.135  21.938  25.747  1.00  0.00     0.188 C 
BRANCH   2   3
ATOM      3  O   UNL A   1      37.724  21.905  25.824  1.00  0.00    -0.376 OA
BRANCH   3   4
ATOM      4  C   UNL A   1      36.937  22.041  24.647  1.00  0.00     0.202 C 
BRANCH   4   5
ATOM      5  C   UNL A   1      36.321  23.379  24.231  1.00  0.00     0.261 C 
BRANCH   5   6
ATOM      6  O   UNL A   1      35.525  23.287  23.047  1.00  0.00    -0.460 OA
BRANCH   6   7
ATOM      7  C   UNL A   1      34.317  23.887  23.073  1.00  0.00     0.334 C 
ATOM      8  O   UNL A   1      33.951  24.764  22.303  1.00  0.00    -0.247 OA
BRANCH   7   9
ATOM      9  C   UNL A   1      33.387  23.234  24.048  1.00  0.00     0.041 C 
ATOM     10  C   UNL A   1      32.811  23.880  25.092  1.00  0.00    -0.030 C 
ATOM     11  C   UNL A   1      31.610  23.364  25.874  1.00  0.00     0.041 C 
ATOM     12  C   UNL A   1      32.962  25.264  25.591  1.00  0.00    -0.019 A 
ATOM     13  C   UNL A   1      30.708  24.596  26.033  1.00  0.00     0.041 C 
ATOM     14  C   UNL A   1      31.721  25.695  26.071  1.00  0.00    -0.040 A 
ATOM     15  C   UNL A   1      34.063  26.090  25.761  1.00  0.00     0.009 A 
ATOM     16  C   UNL A   1      31.522  26.991  26.533  1.00  0.00     0.004 A 
ATOM     17  C   UNL A   1      33.889  27.389  26.247  1.00  0.00     0.001 A 
ATOM     18  C   UNL A   1      32.618  27.850  26.598  1.00  0.00     0.000 A 
BRANCH   9  19
ATOM     19  C   UNL A   1      33.030  21.811  23.637  1.00  0.00     0.040 C 
ATOM     20  C   UNL A   1      33.577  20.756  24.594  1.00  0.00     0.009 C 
ENDBRANCH   9  19
ENDBRANCH   7   9
ENDBRANCH   6   7
ENDBRANCH   5   6
ENDBRANCH   4   5
ENDBRANCH   3   4
ENDBRANCH   2   3
ENDBRANCH   1   2
BRANCH   1  21
ATOM     21  O   UNL A   1      41.320  21.058  26.819  1.00  0.00    -0.376 OA
BRANCH  21  22
ATOM     22  C   UNL A   1      42.381  20.553  26.030  1.00  0.00     0.202 C 
BRANCH  22  23
ATOM     23  C   UNL A   1      43.419  21.492  25.405  1.00  0.00     0.261 C 
BRANCH  23  24
ATOM     24  O   UNL A   1      42.888  22.693  24.826  1.00  0.00    -0.460 OA
BRANCH  24  25
ATOM     25  C   UNL A   1      43.659  23.795  24.970  1.00  0.00     0.338 C 
ATOM     26  O   UNL A   1      44.690  24.067  24.364  1.00  0.00    -0.246 OA
BRANCH  25  27
ATOM     27  C   UNL A   1      42.990  24.760  25.859  1.00  0.00     0.060 A 
ATOM     28  C   UNL A   1      43.555  26.036  25.999  1.00  0.00     0.016 A 
ATOM     29  C   UNL A   1      41.855  24.405  26.588  1.00  0.00     0.016 A 
ATOM     30  C   UNL A   1      43.000  26.954  26.886  1.00  0.00     0.010 A 
ATOM     31  C   UNL A   1      41.315  25.317  27.501  1.00  0.00     0.010 A 
ATOM     32  C   UNL A   1      41.902  26.585  27.673  1.00  0.00    -0.014 A 
BRANCH  32  33
ATOM     33  C   UNL A   1      41.494  27.457  28.802  1.00  0.00     0.031 A 
ATOM     34  C   UNL A   1      42.268  27.380  30.088  1.00  0.00     0.074 A 
ATOM     35  C   UNL A   1      40.482  28.334  28.677  1.00  0.00     0.049 A 
ATOM     36  N   UNL A   1      42.079  28.020  31.213  1.00  0.00    -0.248 NA
ATOM     37  C   UNL A   1      43.414  26.455  30.105  1.00  0.00     0.031 C 
ATOM     38  C   UNL A   1      39.691  28.547  27.467  1.00  0.00     0.029 A 
ATOM     39  N   UNL A   1      39.949  29.208  29.591  1.00  0.00    -0.354 N 
ATOM     40  C   UNL A   1      43.077  27.575  32.072  1.00  0.00     0.074 A 
ATOM     41  C   UNL A   1      43.850  26.589  31.347  1.00  0.00     0.031 C 
ATOM     42  C   UNL A   1      38.760  29.485  27.718  1.00  0.00     0.029 A 
ATOM     43  C   UNL A   1      38.870  29.912  29.113  1.00  0.00     0.049 A 
ATOM     44  H   UNL A   1      40.304  29.320  30.501  1.00  0.00     0.167 HD
ATOM     45  C   UNL A   1      43.332  27.958  33.345  1.00  0.00     0.037 A 
ATOM     46  C   UNL A   1      38.054  30.781  29.739  1.00  0.00     0.037 A 
ATOM     47  C   UNL A   1      42.555  28.929  34.072  1.00  0.00     0.049 A 
ATOM     48  C   UNL A   1      38.301  31.121  31.187  1.00  0.00     0.074 A 
ATOM     49  C   UNL A   1      42.735  29.383  35.367  1.00  0.00     0.029 A 
ATOM     50  N   UNL A   1      41.442  29.586  33.569  1.00  0.00    -0.354 N 
ATOM     51  N   UNL A   1      39.254  30.708  31.987  1.00  0.00    -0.248 NA
ATOM     52  C   UNL A   1      37.355  32.053  31.818  1.00  0.00     0.031 C 
ATOM     53  C   UNL A   1      41.698  30.271  35.667  1.00  0.00     0.029 A 
ATOM     54  C   UNL A   1      40.910  30.422  34.538  1.00  0.00     0.049 A 
ATOM     55  H   UNL A   1      41.084  29.475  32.659  1.00  0.00     0.167 HD
ATOM     56  C   UNL A   1      39.045  31.356  33.200  1.00  0.00     0.074 A 
ATOM     57  C   UNL A   1      37.882  32.200  33.025  1.00  0.00     0.031 C 
ATOM     58  C   UNL A   1      39.754  31.263  34.353  1.00  0.00     0.037 A 
BRANCH  45  59
ATOM     59  C   UNL A   1      44.480  27.291  34.047  1.00  0.00     0.057 A 
ATOM     60  C   UNL A   1      45.755  27.870  34.104  1.00  0.00     0.134 A 
ATOM     61  C   UNL A   1      44.302  26.060  34.691  1.00  0.00     0.134 A 
ATOM     62  F   UNL A   1      45.998  29.040  33.495  1.00  0.00    -0.206 F 
ATOM     63  C   UNL A   1      46.816  27.236  34.752  1.00  0.00     0.040 A 
ATOM     64  C   UNL A   1      45.348  25.431  35.368  1.00  0.00     0.040 A 
ATOM     65  F   UNL A   1      43.106  25.452  34.679  1.00  0.00    -0.206 F 
ATOM     66  C   UNL A   1      46.612  26.015  35.392  1.00  0.00     0.006 A 
ENDBRANCH  45  59
BRANCH  46  67
ATOM     67  C   UNL A   1      36.906  31.384  29.013  1.00  0.00     0.057 A 
ATOM     68  C   UNL A   1      36.938  32.715  28.579  1.00  0.00     0.134 A 
ATOM     69  C   UNL A   1      35.733  30.657  28.774  1.00  0.00     0.134 A 
ATOM     70  F   UNL A   1      38.021  33.473  28.803  1.00  0.00    -0.206 F 
ATOM     71  C   UNL A   1      35.838  33.308  27.954  1.00  0.00     0.040 A 
ATOM     72  C   UNL A   1      34.638  31.228  28.124  1.00  0.00     0.040 A 
ATOM     73  F   UNL A   1      35.636  29.380  29.168  1.00  0.00    -0.206 F 
ATOM     74  C   UNL A   1      34.685  32.561  27.721  1.00  0.00     0.006 A 
ENDBRANCH  46  67
BRANCH  58  75
ATOM     75  C   UNL A   1      39.320  32.131  35.502  1.00  0.00     0.057 A 
ATOM     76  C   UNL A   1      38.433  31.678  36.488  1.00  0.00     0.134 A 
ATOM     77  C   UNL A   1      39.820  33.434  35.637  1.00  0.00     0.134 A 
ATOM     78  F   UNL A   1      37.909  30.445  36.418  1.00  0.00    -0.206 F 
ATOM     79  C   UNL A   1      38.031  32.500  37.543  1.00  0.00     0.040 A 
ATOM     80  C   UNL A   1      39.451  34.254  36.705  1.00  0.00     0.040 A 
ATOM     81  F   UNL A   1      40.683  33.930  34.738  1.00  0.00    -0.206 F 
ATOM     82  C   UNL A   1      38.545  33.790  37.657  1.00  0.00     0.006 A 
ENDBRANCH  58  75
ENDBRANCH  32  33
ENDBRANCH  25  27
ENDBRANCH  24  25
ENDBRANCH  23  24
ENDBRANCH  22  23
ENDBRANCH  21  22
ENDBRANCH   1  21
TORSDOF 18
ENDMDL
MODEL 2
REMARK VINA RESULT:     -10.2      4.739      9.608
REMARK SMILES CC/C(C(=O)OCCOCCOCCOC(=O)c1ccc(-c2c3nc(c(-c4c(F)cccc4F)c4ccc([nH]4)c(-c4c(F)cccc4F)c4nc(c(-c5c(F)cccc5F)c5ccc2[nH]5)C=C4)C=C3)cc1)=C1\CCc2ccccc21
REMARK SMILES IDX 11 1 10 2 9 3 8 4 7 5 6 6 4 7 5 8 3 9 72 10 73 11 80 12
REMARK SMILES IDX 74 13 75 14 79 15 76 16 78 17 77 18 2 19 1 20 12 21 13 22
REMARK SMILES IDX 14 23 15 24 16 25 17 26 18 27 19 28 71 29 20 30 70 31 21 32
REMARK SMILES IDX 22 33 23 34 64 35 24 36 69 37 63 38 65 39 25 40 68 41 62 42
REMARK SMILES IDX 61 43 26 45 52 46 35 47 51 48 36 49 39 50 50 51 66 52 37 53
REMARK SMILES IDX 38 54 49 56 67 57 40 58 27 59 28 60 33 61 29 62 30 63 32 64
REMARK SMILES IDX 34 65 31 66 53 67 54 68 59 69 55 70 56 71 58 72 60 73 57 74
REMARK SMILES IDX 41 75 42 76 47 77 43 78 44 79 46 80 48 81 45 82
REMARK H PARENT 65 44 39 55
REMARK Flexibility Score: inf
ROOT
ATOM      1  C   UNL A   1      34.298  32.460  27.921  1.00  0.00     0.188 C 
ENDROOT
BRANCH   1   2
ATOM      2  C   UNL A   1      34.348  30.942  27.630  1.00  0.00     0.188 C 
BRANCH   2   3
ATOM      3  O   UNL A   1      33.155  30.213  27.419  1.00  0.00    -0.376 OA
BRANCH   3   4
ATOM      4  C   UNL A   1      33.164  28.791  27.463  1.00  0.00     0.202 C 
BRANCH   4   5
ATOM      5  C   UNL A   1      31.943  27.984  27.909  1.00  0.00     0.261 C 
BRANCH   5   6
ATOM      6  O   UNL A   1      31.237  27.385  26.819  1.00  0.00    -0.460 OA
BRANCH   6   7
ATOM      7  C   UNL A   1      31.676  26.184  26.390  1.00  0.00     0.334 C 
ATOM      8  O   UNL A   1      31.275  25.102  26.797  1.00  0.00    -0.247 OA
BRANCH   7   9
ATOM      9  C   UNL A   1      32.599  26.310  25.218  1.00  0.00     0.041 C 
ATOM     10  C   UNL A   1      32.265  26.922  24.056  1.00  0.00    -0.030 C 
ATOM     11  C   UNL A   1      33.264  27.381  23.000  1.00  0.00     0.041 C 
ATOM     12  C   UNL A   1      30.997  27.527  23.596  1.00  0.00    -0.019 A 
ATOM     13  C   UNL A   1      32.775  28.781  22.604  1.00  0.00     0.041 C 
ATOM     14  C   UNL A   1      31.301  28.645  22.812  1.00  0.00    -0.040 A 
ATOM     15  C   UNL A   1      29.671  27.131  23.702  1.00  0.00     0.009 A 
ATOM     16  C   UNL A   1      30.310  29.475  22.301  1.00  0.00     0.004 A 
ATOM     17  C   UNL A   1      28.660  27.940  23.173  1.00  0.00     0.001 A 
ATOM     18  C   UNL A   1      28.977  29.126  22.507  1.00  0.00     0.000 A 
BRANCH   9  19
ATOM     19  C   UNL A   1      34.006  25.823  25.540  1.00  0.00     0.040 C 
ATOM     20  C   UNL A   1      34.293  24.422  25.008  1.00  0.00     0.009 C 
ENDBRANCH   9  19
ENDBRANCH   7   9
ENDBRANCH   6   7
ENDBRANCH   5   6
ENDBRANCH   4   5
ENDBRANCH   3   4
ENDBRANCH   2   3
ENDBRANCH   1   2
BRANCH   1  21
ATOM     21  O   UNL A   1      33.722  32.976  29.102  1.00  0.00    -0.376 OA
BRANCH  21  22
ATOM     22  C   UNL A   1      34.411  33.964  29.845  1.00  0.00     0.202 C 
BRANCH  22  23
ATOM     23  C   UNL A   1      34.633  33.808  31.354  1.00  0.00     0.261 C 
BRANCH  23  24
ATOM     24  O   UNL A   1      34.739  32.454  31.820  1.00  0.00    -0.460 OA
BRANCH  24  25
ATOM     25  C   UNL A   1      35.785  32.205  32.641  1.00  0.00     0.338 C 
ATOM     26  O   UNL A   1      35.862  32.437  33.843  1.00  0.00    -0.246 OA
BRANCH  25  27
ATOM     27  C   UNL A   1      36.807  31.424  31.923  1.00  0.00     0.060 A 
ATOM     28  C   UNL A   1      37.869  30.881  32.662  1.00  0.00     0.016 A 
ATOM     29  C   UNL A   1      36.759  31.271  30.537  1.00  0.00     0.016 A 
ATOM     30  C   UNL A   1      38.897  30.201  32.015  1.00  0.00     0.010 A 
ATOM     31  C   UNL A   1      37.807  30.613  29.885  1.00  0.00     0.010 A 
ATOM     32  C   UNL A   1      38.894  30.100  30.618  1.00  0.00    -0.014 A 
BRANCH  32  33
ATOM     33  C   UNL A   1      40.115  29.626  29.923  1.00  0.00     0.031 A 
ATOM     34  C   UNL A   1      41.257  30.586  29.737  1.00  0.00     0.074 A 
ATOM     35  C   UNL A   1      40.231  28.355  29.502  1.00  0.00     0.049 A 
ATOM     36  N   UNL A   1      42.407  30.408  29.139  1.00  0.00    -0.248 NA
ATOM     37  C   UNL A   1      41.077  31.931  30.309  1.00  0.00     0.031 C 
ATOM     38  C   UNL A   1      39.222  27.311  29.671  1.00  0.00     0.029 A 
ATOM     39  N   UNL A   1      41.257  27.730  28.837  1.00  0.00    -0.354 N 
ATOM     40  C   UNL A   1      43.085  31.614  29.257  1.00  0.00     0.074 A 
ATOM     41  C   UNL A   1      42.206  32.527  29.958  1.00  0.00     0.031 C 
ATOM     42  C   UNL A   1      39.674  26.175  29.112  1.00  0.00     0.029 A 
ATOM     43  C   UNL A   1      40.988  26.421  28.517  1.00  0.00     0.049 A 
ATOM     44  H   UNL A   1      42.104  28.176  28.612  1.00  0.00     0.167 HD
ATOM     45  C   UNL A   1      44.329  31.933  28.828  1.00  0.00     0.037 A 
ATOM     46  C   UNL A   1      41.710  25.536  27.804  1.00  0.00     0.037 A 
ATOM     47  C   UNL A   1      45.198  31.031  28.119  1.00  0.00     0.049 A 
ATOM     48  C   UNL A   1      43.053  25.944  27.255  1.00  0.00     0.074 A 
ATOM     49  C   UNL A   1      46.478  31.262  27.643  1.00  0.00     0.029 A 
ATOM     50  N   UNL A   1      44.872  29.729  27.772  1.00  0.00    -0.354 N 
ATOM     51  N   UNL A   1      43.694  27.081  27.384  1.00  0.00    -0.248 NA
ATOM     52  C   UNL A   1      43.776  24.939  26.461  1.00  0.00     0.031 C 
ATOM     53  C   UNL A   1      46.902  30.119  26.959  1.00  0.00     0.029 A 
ATOM     54  C   UNL A   1      45.916  29.152  27.065  1.00  0.00     0.049 A 
ATOM     55  H   UNL A   1      44.025  29.280  27.996  1.00  0.00     0.167 HD
ATOM     56  C   UNL A   1      44.906  26.916  26.721  1.00  0.00     0.074 A 
ATOM     57  C   UNL A   1      44.916  25.564  26.204  1.00  0.00     0.031 C 
ATOM     58  C   UNL A   1      45.920  27.803  26.558  1.00  0.00     0.037 A 
BRANCH  45  59
ATOM     59  C   UNL A   1      44.806  33.334  29.082  1.00  0.00     0.057 A 
ATOM     60  C   UNL A   1      45.558  33.670  30.216  1.00  0.00     0.134 A 
ATOM     61  C   UNL A   1      44.523  34.359  28.171  1.00  0.00     0.134 A 
ATOM     62  F   UNL A   1      45.851  32.740  31.138  1.00  0.00    -0.206 F 
ATOM     63  C   UNL A   1      45.989  34.978  30.446  1.00  0.00     0.040 A 
ATOM     64  C   UNL A   1      44.974  35.664  28.374  1.00  0.00     0.040 A 
ATOM     65  F   UNL A   1      43.811  34.107  27.062  1.00  0.00    -0.206 F 
ATOM     66  C   UNL A   1      45.702  35.978  29.519  1.00  0.00     0.006 A 
ENDBRANCH  45  59
BRANCH  46  67
ATOM     67  C   UNL A   1      41.177  24.173  27.544  1.00  0.00     0.057 A 
ATOM     68  C   UNL A   1      40.133  23.961  26.635  1.00  0.00     0.134 A 
ATOM     69  C   UNL A   1      41.670  23.056  28.229  1.00  0.00     0.134 A 
ATOM     70  F   UNL A   1      39.597  24.994  25.969  1.00  0.00    -0.206 F 
ATOM     71  C   UNL A   1      39.583  22.693  26.435  1.00  0.00     0.040 A 
ATOM     72  C   UNL A   1      41.151  21.778  28.016  1.00  0.00     0.040 A 
ATOM     73  F   UNL A   1      42.667  23.192  29.116  1.00  0.00    -0.206 F 
ATOM     74  C   UNL A   1      40.097  21.596  27.123  1.00  0.00     0.006 A 
ENDBRANCH  46  67
BRANCH  58  75
ATOM     75  C   UNL A   1      47.145  27.325  25.831  1.00  0.00     0.057 A 
ATOM     76  C   UNL A   1      48.184  26.646  26.482  1.00  0.00     0.134 A 
ATOM     77  C   UNL A   1      47.276  27.527  24.449  1.00  0.00     0.134 A 
ATOM     78  F   UNL A   1      48.130  26.426  27.804  1.00  0.00    -0.206 F 
ATOM     79  C   UNL A   1      49.322  26.218  25.794  1.00  0.00     0.040 A 
ATOM     80  C   UNL A   1      48.394  27.074  23.745  1.00  0.00     0.040 A 
ATOM     81  F   UNL A   1      46.315  28.158  23.759  1.00  0.00    -0.206 F 
ATOM     82  C   UNL A   1      49.426  26.426  24.420  1.00  0.00     0.006 A 
ENDBRANCH  58  75
ENDBRANCH  32  33
ENDBRANCH  25  27
ENDBRANCH  24  25
ENDBRANCH  23  24
ENDBRANCH  22  23
ENDBRANCH  21  22
ENDBRANCH   1  21
TORSDOF 18
ENDMDL
MODEL 3
REMARK VINA RESULT:     -10.2      1.196      2.279
REMARK SMILES CC/C(C(=O)OCCOCCOCCOC(=O)c1ccc(-c2c3nc(c(-c4c(F)cccc4F)c4ccc([nH]4)c(-c4c(F)cccc4F)c4nc(c(-c5c(F)cccc5F)c5ccc2[nH]5)C=C4)C=C3)cc1)=C1\CCc2ccccc21
REMARK SMILES IDX 11 1 10 2 9 3 8 4 7 5 6 6 4 7 5 8 3 9 72 10 73 11 80 12
REMARK SMILES IDX 74 13 75 14 79 15 76 16 78 17 77 18 2 19 1 20 12 21 13 22
REMARK SMILES IDX 14 23 15 24 16 25 17 26 18 27 19 28 71 29 20 30 70 31 21 32
REMARK SMILES IDX 22 33 23 34 64 35 24 36 69 37 63 38 65 39 25 40 68 41 62 42
REMARK SMILES IDX 61 43 26 45 52 46 35 47 51 48 36 49 39 50 50 51 66 52 37 53
REMARK SMILES IDX 38 54 49 56 67 57 40 58 27 59 28 60 33 61 29 62 30 63 32 64
REMARK SMILES IDX 34 65 31 66 53 67 54 68 59 69 55 70 56 71 58 72 60 73 57 74
REMARK SMILES IDX 41 75 42 76 47 77 43 78 44 79 46 80 48 81 45 82
REMARK H PARENT 65 44 39 55
REMARK Flexibility Score: inf
ROOT
ATOM      1  C   UNL A   1      41.335  20.417  26.213  1.00  0.00     0.188 C 
ENDROOT
BRANCH   1   2
ATOM      2  C   UNL A   1      40.303  21.331  26.914  1.00  0.00     0.188 C 
BRANCH   2   3
ATOM      3  O   UNL A   1      39.590  22.304  26.177  1.00  0.00    -0.376 OA
BRANCH   3   4
ATOM      4  C   UNL A   1      38.444  21.933  25.419  1.00  0.00     0.202 C 
BRANCH   4   5
ATOM      5  C   UNL A   1      37.022  22.116  25.955  1.00  0.00     0.261 C 
BRANCH   5   6
ATOM      6  O   UNL A   1      36.099  21.156  25.434  1.00  0.00    -0.460 OA
BRANCH   6   7
ATOM      7  C   UNL A   1      34.837  21.198  25.911  1.00  0.00     0.334 C 
ATOM      8  O   UNL A   1      34.532  21.436  27.071  1.00  0.00    -0.247 OA
BRANCH   7   9
ATOM      9  C   UNL A   1      33.820  21.094  24.818  1.00  0.00     0.041 C 
ATOM     10  C   UNL A   1      33.295  22.163  24.169  1.00  0.00    -0.030 C 
ATOM     11  C   UNL A   1      32.550  22.091  22.842  1.00  0.00     0.041 C 
ATOM     12  C   UNL A   1      33.480  23.616  24.367  1.00  0.00    -0.019 A 
ATOM     13  C   UNL A   1      33.117  23.264  22.030  1.00  0.00     0.041 C 
ATOM     14  C   UNL A   1      33.445  24.239  23.115  1.00  0.00    -0.040 A 
ATOM     15  C   UNL A   1      33.552  24.411  25.502  1.00  0.00     0.009 A 
ATOM     16  C   UNL A   1      33.673  25.601  22.965  1.00  0.00     0.004 A 
ATOM     17  C   UNL A   1      33.757  25.789  25.373  1.00  0.00     0.001 A 
ATOM     18  C   UNL A   1      33.853  26.376  24.109  1.00  0.00     0.000 A 
BRANCH   9  19
ATOM     19  C   UNL A   1      33.571  19.650  24.401  1.00  0.00     0.040 C 
ATOM     20  C   UNL A   1      32.415  18.999  25.157  1.00  0.00     0.009 C 
ENDBRANCH   9  19
ENDBRANCH   7   9
ENDBRANCH   6   7
ENDBRANCH   5   6
ENDBRANCH   4   5
ENDBRANCH   3   4
ENDBRANCH   2   3
ENDBRANCH   1   2
BRANCH   1  21
ATOM     21  O   UNL A   1      42.697  20.402  26.587  1.00  0.00    -0.376 OA
BRANCH  21  22
ATOM     22  C   UNL A   1      43.698  20.367  25.588  1.00  0.00     0.202 C 
BRANCH  22  23
ATOM     23  C   UNL A   1      44.454  21.637  25.180  1.00  0.00     0.261 C 
BRANCH  23  24
ATOM     24  O   UNL A   1      44.361  22.729  26.107  1.00  0.00    -0.460 OA
BRANCH  24  25
ATOM     25  C   UNL A   1      44.335  23.961  25.549  1.00  0.00     0.338 C 
ATOM     26  O   UNL A   1      44.732  24.284  24.435  1.00  0.00    -0.246 OA
BRANCH  25  27
ATOM     27  C   UNL A   1      43.578  24.884  26.412  1.00  0.00     0.060 A 
ATOM     28  C   UNL A   1      44.006  26.217  26.496  1.00  0.00     0.016 A 
ATOM     29  C   UNL A   1      42.496  24.439  27.172  1.00  0.00     0.016 A 
ATOM     30  C   UNL A   1      43.367  27.105  27.357  1.00  0.00     0.010 A 
ATOM     31  C   UNL A   1      41.873  25.325  28.059  1.00  0.00     0.010 A 
ATOM     32  C   UNL A   1      42.324  26.653  28.175  1.00  0.00    -0.014 A 
BRANCH  32  33
ATOM     33  C   UNL A   1      41.839  27.520  29.277  1.00  0.00     0.031 A 
ATOM     34  C   UNL A   1      42.566  27.487  30.592  1.00  0.00     0.074 A 
ATOM     35  C   UNL A   1      40.800  28.355  29.103  1.00  0.00     0.049 A 
ATOM     36  N   UNL A   1      42.310  28.132  31.701  1.00  0.00    -0.248 NA
ATOM     37  C   UNL A   1      43.746  26.609  30.663  1.00  0.00     0.031 C 
ATOM     38  C   UNL A   1      40.047  28.524  27.862  1.00  0.00     0.029 A 
ATOM     39  N   UNL A   1      40.198  29.218  29.985  1.00  0.00    -0.354 N 
ATOM     40  C   UNL A   1      43.291  27.736  32.602  1.00  0.00     0.074 A 
ATOM     41  C   UNL A   1      44.129  26.773  31.920  1.00  0.00     0.031 C 
ATOM     42  C   UNL A   1      39.072  29.427  28.066  1.00  0.00     0.029 A 
ATOM     43  C   UNL A   1      39.112  29.873  29.458  1.00  0.00     0.049 A 
ATOM     44  H   UNL A   1      40.514  29.353  30.907  1.00  0.00     0.167 HD
ATOM     45  C   UNL A   1      43.482  28.142  33.880  1.00  0.00     0.037 A 
ATOM     46  C   UNL A   1      38.239  30.715  30.043  1.00  0.00     0.037 A 
ATOM     47  C   UNL A   1      42.641  29.089  34.564  1.00  0.00     0.049 A 
ATOM     48  C   UNL A   1      38.417  31.080  31.495  1.00  0.00     0.074 A 
ATOM     49  C   UNL A   1      42.753  29.564  35.860  1.00  0.00     0.029 A 
ATOM     50  N   UNL A   1      41.523  29.696  34.012  1.00  0.00    -0.354 N 
ATOM     51  N   UNL A   1      39.355  30.714  32.335  1.00  0.00    -0.248 NA
ATOM     52  C   UNL A   1      37.412  31.982  32.078  1.00  0.00     0.031 C 
ATOM     53  C   UNL A   1      41.671  30.413  36.110  1.00  0.00     0.029 A 
ATOM     54  C   UNL A   1      40.921  30.521  34.950  1.00  0.00     0.049 A 
ATOM     55  H   UNL A   1      41.204  29.561  33.090  1.00  0.00     0.167 HD
ATOM     56  C   UNL A   1      39.074  31.367  33.531  1.00  0.00     0.074 A 
ATOM     57  C   UNL A   1      37.887  32.162  33.302  1.00  0.00     0.031 C 
ATOM     58  C   UNL A   1      39.741  31.314  34.712  1.00  0.00     0.037 A 
BRANCH  45  59
ATOM     59  C   UNL A   1      44.627  27.528  34.633  1.00  0.00     0.057 A 
ATOM     60  C   UNL A   1      44.462  26.402  35.451  1.00  0.00     0.134 A 
ATOM     61  C   UNL A   1      45.917  28.061  34.524  1.00  0.00     0.134 A 
ATOM     62  F   UNL A   1      43.249  25.851  35.612  1.00  0.00    -0.206 F 
ATOM     63  C   UNL A   1      45.532  25.846  36.153  1.00  0.00     0.040 A 
ATOM     64  C   UNL A   1      47.001  27.496  35.197  1.00  0.00     0.040 A 
ATOM     65  F   UNL A   1      46.148  29.136  33.755  1.00  0.00    -0.206 F 
ATOM     66  C   UNL A   1      46.808  26.389  36.022  1.00  0.00     0.006 A 
ENDBRANCH  45  59
BRANCH  46  67
ATOM     67  C   UNL A   1      37.097  31.265  29.267  1.00  0.00     0.057 A 
ATOM     68  C   UNL A   1      35.966  30.489  28.986  1.00  0.00     0.134 A 
ATOM     69  C   UNL A   1      37.127  32.567  28.752  1.00  0.00     0.134 A 
ATOM     70  F   UNL A   1      35.889  29.224  29.427  1.00  0.00    -0.206 F 
ATOM     71  C   UNL A   1      34.919  30.977  28.202  1.00  0.00     0.040 A 
ATOM     72  C   UNL A   1      36.073  33.078  27.993  1.00  0.00     0.040 A 
ATOM     73  F   UNL A   1      38.183  33.362  28.981  1.00  0.00    -0.206 F 
ATOM     74  C   UNL A   1      34.969  32.278  27.708  1.00  0.00     0.006 A 
ENDBRANCH  46  67
BRANCH  58  75
ATOM     75  C   UNL A   1      39.231  32.176  35.833  1.00  0.00     0.057 A 
ATOM     76  C   UNL A   1      39.635  33.508  35.996  1.00  0.00     0.134 A 
ATOM     77  C   UNL A   1      38.299  31.670  36.751  1.00  0.00     0.134 A 
ATOM     78  F   UNL A   1      40.530  34.055  35.159  1.00  0.00    -0.206 F 
ATOM     79  C   UNL A   1      39.159  34.292  37.049  1.00  0.00     0.040 A 
ATOM     80  C   UNL A   1      37.793  32.454  37.789  1.00  0.00     0.040 A 
ATOM     81  F   UNL A   1      37.858  30.407  36.649  1.00  0.00    -0.206 F 
ATOM     82  C   UNL A   1      38.231  33.768  37.946  1.00  0.00     0.006 A 
ENDBRANCH  58  75
ENDBRANCH  32  33
ENDBRANCH  25  27
ENDBRANCH  24  25
ENDBRANCH  23  24
ENDBRANCH  22  23
ENDBRANCH  21  22
ENDBRANCH   1  21
TORSDOF 18
ENDMDL
