MODEL 1
REMARK VINA RESULT:     -11.0      0.000      0.000
REMARK SMILES O=C(OCCOCCOCCOC(=O)[C@@H]1CN(c2ncccn2)CCN1C(=O)C1CCOCC1)c1ccc(-c2c3nc(c(-c4c(F)cccc4F)c4ccc([nH]4)c(-c4c(F)cccc4F)c4nc(c(-c5c(F)cccc5F)c5ccc2[nH]5)C=C4)C=C3)cc1
REMARK SMILES IDX 7 1 6 2 5 3 4 4 3 5 2 6 1 7 35 8 36 9 88 10 37 11 87 12
REMARK SMILES IDX 38 13 39 14 40 15 81 16 41 17 86 18 80 19 82 20 42 21 85 22
REMARK SMILES IDX 79 23 78 24 43 26 69 27 52 28 68 29 53 30 56 31 67 32 83 33
REMARK SMILES IDX 54 34 55 35 66 37 84 38 57 39 44 40 45 41 50 42 46 43 47 44
REMARK SMILES IDX 49 45 51 46 48 47 70 48 71 49 76 50 72 51 73 52 75 53 77 54
REMARK SMILES IDX 74 55 58 56 59 57 64 58 60 59 61 60 63 61 65 62 62 63 8 64
REMARK SMILES IDX 9 65 10 66 11 67 12 68 13 69 14 70 15 71 16 72 26 73 17 74
REMARK SMILES IDX 25 75 24 76 27 77 28 78 29 79 30 80 34 81 31 82 33 83 32 84
REMARK SMILES IDX 18 85 19 86 23 87 20 88 22 89 21 90
REMARK H PARENT 82 25 56 36
REMARK Flexibility Score: inf
ROOT
ATOM      1  C   UNL A   1      41.543  20.249  27.030  1.00  0.00     0.188 C 
ENDROOT
BRANCH   1   2
ATOM      2  O   UNL A   1      42.042  20.050  25.709  1.00  0.00    -0.376 OA
BRANCH   2   3
ATOM      3  C   UNL A   1      43.459  19.924  25.572  1.00  0.00     0.202 C 
BRANCH   3   4
ATOM      4  C   UNL A   1      44.159  21.249  25.242  1.00  0.00     0.261 C 
BRANCH   4   5
ATOM      5  O   UNL A   1      43.229  22.340  25.135  1.00  0.00    -0.460 OA
BRANCH   5   6
ATOM      6  C   UNL A   1      43.759  23.556  24.858  1.00  0.00     0.338 C 
ATOM      7  O   UNL A   1      44.602  23.793  24.003  1.00  0.00    -0.246 OA
BRANCH   6   8
ATOM      8  C   UNL A   1      43.144  24.546  25.787  1.00  0.00     0.060 A 
ATOM      9  C   UNL A   1      43.724  25.818  25.946  1.00  0.00     0.016 A 
ATOM     10  C   UNL A   1      41.963  24.235  26.469  1.00  0.00     0.016 A 
ATOM     11  C   UNL A   1      43.155  26.763  26.789  1.00  0.00     0.010 A 
ATOM     12  C   UNL A   1      41.390  25.184  27.327  1.00  0.00     0.010 A 
ATOM     13  C   UNL A   1      41.992  26.447  27.496  1.00  0.00    -0.014 A 
BRANCH  13  14
ATOM     14  C   UNL A   1      41.583  27.338  28.600  1.00  0.00     0.031 A 
ATOM     15  C   UNL A   1      42.347  27.198  29.874  1.00  0.00     0.074 A 
ATOM     16  C   UNL A   1      40.687  28.332  28.474  1.00  0.00     0.049 A 
ATOM     17  N   UNL A   1      42.250  27.903  30.966  1.00  0.00    -0.248 NA
ATOM     18  C   UNL A   1      43.426  26.195  29.884  1.00  0.00     0.031 C 
ATOM     19  C   UNL A   1      40.077  28.764  27.230  1.00  0.00     0.029 A 
ATOM     20  N   UNL A   1      40.124  29.166  29.407  1.00  0.00    -0.354 N 
ATOM     21  C   UNL A   1      43.310  27.495  31.752  1.00  0.00     0.074 A 
ATOM     22  C   UNL A   1      43.997  26.434  31.051  1.00  0.00     0.031 C 
ATOM     23  C   UNL A   1      39.146  29.699  27.475  1.00  0.00     0.029 A 
ATOM     24  C   UNL A   1      39.083  29.913  28.907  1.00  0.00     0.049 A 
ATOM     25  H   UNL A   1      40.435  29.225  30.339  1.00  0.00     0.167 HD
ATOM     26  C   UNL A   1      43.690  27.992  32.948  1.00  0.00     0.037 A 
ATOM     27  C   UNL A   1      38.161  30.658  29.541  1.00  0.00     0.037 A 
ATOM     28  C   UNL A   1      42.923  28.957  33.680  1.00  0.00     0.049 A 
ATOM     29  C   UNL A   1      38.375  30.917  30.998  1.00  0.00     0.074 A 
ATOM     30  C   UNL A   1      43.136  29.441  34.955  1.00  0.00     0.029 A 
ATOM     31  N   UNL A   1      41.756  29.549  33.211  1.00  0.00    -0.354 N 
ATOM     32  N   UNL A   1      39.370  30.523  31.754  1.00  0.00    -0.248 NA
ATOM     33  C   UNL A   1      37.393  31.768  31.678  1.00  0.00     0.031 C 
ATOM     34  C   UNL A   1      42.054  30.262  35.289  1.00  0.00     0.029 A 
ATOM     35  C   UNL A   1      41.204  30.348  34.197  1.00  0.00     0.049 A 
ATOM     36  H   UNL A   1      41.378  29.418  32.311  1.00  0.00     0.167 HD
ATOM     37  C   UNL A   1      39.183  31.141  32.976  1.00  0.00     0.074 A 
ATOM     38  C   UNL A   1      37.958  31.911  32.869  1.00  0.00     0.031 C 
ATOM     39  C   UNL A   1      39.979  31.102  34.071  1.00  0.00     0.037 A 
BRANCH  26  40
ATOM     40  C   UNL A   1      44.930  27.397  33.529  1.00  0.00     0.057 A 
ATOM     41  C   UNL A   1      46.199  27.926  33.254  1.00  0.00     0.134 A 
ATOM     42  C   UNL A   1      44.862  26.210  34.266  1.00  0.00     0.134 A 
ATOM     43  F   UNL A   1      46.329  29.035  32.510  1.00  0.00    -0.206 F 
ATOM     44  C   UNL A   1      47.362  27.274  33.668  1.00  0.00     0.040 A 
ATOM     45  C   UNL A   1      46.017  25.562  34.702  1.00  0.00     0.040 A 
ATOM     46  F   UNL A   1      43.677  25.643  34.534  1.00  0.00    -0.206 F 
ATOM     47  C   UNL A   1      47.271  26.088  34.393  1.00  0.00     0.006 A 
ENDBRANCH  26  40
BRANCH  27  48
ATOM     48  C   UNL A   1      36.964  31.174  28.833  1.00  0.00     0.057 A 
ATOM     49  C   UNL A   1      36.834  32.518  28.471  1.00  0.00     0.134 A 
ATOM     50  C   UNL A   1      35.877  30.328  28.570  1.00  0.00     0.134 A 
ATOM     51  F   UNL A   1      37.832  33.379  28.712  1.00  0.00    -0.206 F 
ATOM     52  C   UNL A   1      35.656  33.013  27.903  1.00  0.00     0.040 A 
ATOM     53  C   UNL A   1      34.698  30.809  27.996  1.00  0.00     0.040 A 
ATOM     54  F   UNL A   1      35.936  29.027  28.894  1.00  0.00    -0.206 F 
ATOM     55  C   UNL A   1      34.581  32.156  27.668  1.00  0.00     0.006 A 
ENDBRANCH  27  48
BRANCH  39  56
ATOM     56  C   UNL A   1      39.575  31.961  35.226  1.00  0.00     0.057 A 
ATOM     57  C   UNL A   1      38.766  31.482  36.262  1.00  0.00     0.134 A 
ATOM     58  C   UNL A   1      40.042  33.278  35.317  1.00  0.00     0.134 A 
ATOM     59  F   UNL A   1      38.270  30.236  36.218  1.00  0.00    -0.206 F 
ATOM     60  C   UNL A   1      38.423  32.291  37.344  1.00  0.00     0.040 A 
ATOM     61  C   UNL A   1      39.734  34.085  36.409  1.00  0.00     0.040 A 
ATOM     62  F   UNL A   1      40.822  33.794  34.354  1.00  0.00    -0.206 F 
ATOM     63  C   UNL A   1      38.916  33.592  37.425  1.00  0.00     0.006 A 
ENDBRANCH  39  56
ENDBRANCH  13  14
ENDBRANCH   6   8
ENDBRANCH   5   6
ENDBRANCH   4   5
ENDBRANCH   3   4
ENDBRANCH   2   3
ENDBRANCH   1   2
BRANCH   1  64
ATOM     64  C   UNL A   1      40.391  21.283  27.143  1.00  0.00     0.188 C 
BRANCH  64  65
ATOM     65  O   UNL A   1      39.454  21.227  26.050  1.00  0.00    -0.376 OA
BRANCH  65  66
ATOM     66  C   UNL A   1      38.479  22.293  26.064  1.00  0.00     0.202 C 
BRANCH  66  67
ATOM     67  C   UNL A   1      37.360  22.280  24.980  1.00  0.00     0.261 C 
BRANCH  67  68
ATOM     68  O   UNL A   1      36.073  21.744  25.359  1.00  0.00    -0.462 OA
BRANCH  68  69
ATOM     69  C   UNL A   1      35.196  22.582  25.938  1.00  0.00     0.330 C 
ATOM     70  O   UNL A   1      35.303  22.978  27.094  1.00  0.00    -0.250 OA
BRANCH  69  71
ATOM     71  C   UNL A   1      34.036  22.965  25.014  1.00  0.00     0.214 C 
ATOM     72  C   UNL A   1      33.253  24.214  25.419  1.00  0.00     0.157 C 
ATOM     73  N   UNL A   1      33.147  22.010  24.305  1.00  0.00    -0.325 N 
ATOM     74  N   UNL A   1      32.578  24.806  24.250  1.00  0.00    -0.336 N 
ATOM     75  C   UNL A   1      32.710  22.610  23.015  1.00  0.00     0.142 C 
ATOM     76  C   UNL A   1      31.956  23.944  23.238  1.00  0.00     0.141 C 
BRANCH  73  77
ATOM     77  C   UNL A   1      32.526  20.840  24.633  1.00  0.00     0.226 C 
ATOM     78  O   UNL A   1      31.444  20.974  25.229  1.00  0.00    -0.275 OA
BRANCH  77  79
ATOM     79  C   UNL A   1      32.868  19.372  24.314  1.00  0.00     0.083 C 
ATOM     80  C   UNL A   1      34.238  18.746  24.488  1.00  0.00     0.042 C 
ATOM     81  C   UNL A   1      32.246  19.036  22.992  1.00  0.00     0.042 C 
ATOM     82  C   UNL A   1      34.190  17.286  23.995  1.00  0.00     0.161 C 
ATOM     83  C   UNL A   1      32.439  17.635  22.466  1.00  0.00     0.161 C 
ATOM     84  O   UNL A   1      33.792  17.227  22.625  1.00  0.00    -0.381 OA
ENDBRANCH  77  79
ENDBRANCH  73  77
BRANCH  74  85
ATOM     85  C   UNL A   1      33.026  26.010  23.762  1.00  0.00     0.225 A 
ATOM     86  N   UNL A   1      33.013  26.177  22.430  1.00  0.00    -0.221 NA
ATOM     87  N   UNL A   1      33.478  26.933  24.622  1.00  0.00    -0.221 NA
ATOM     88  C   UNL A   1      33.445  27.357  21.951  1.00  0.00     0.117 A 
ATOM     89  C   UNL A   1      33.941  28.082  24.091  1.00  0.00     0.117 A 
ATOM     90  C   UNL A   1      33.935  28.359  22.746  1.00  0.00     0.040 A 
ENDBRANCH  74  85
ENDBRANCH  69  71
ENDBRANCH  68  69
ENDBRANCH  67  68
ENDBRANCH  66  67
ENDBRANCH  65  66
ENDBRANCH  64  65
ENDBRANCH   1  64
TORSDOF 20
ENDMDL
MODEL 2
REMARK VINA RESULT:     -10.8      0.979      6.062
REMARK SMILES O=C(OCCOCCOCCOC(=O)[C@@H]1CN(c2ncccn2)CCN1C(=O)C1CCOCC1)c1ccc(-c2c3nc(c(-c4c(F)cccc4F)c4ccc([nH]4)c(-c4c(F)cccc4F)c4nc(c(-c5c(F)cccc5F)c5ccc2[nH]5)C=C4)C=C3)cc1
REMARK SMILES IDX 7 1 6 2 5 3 4 4 3 5 2 6 1 7 35 8 36 9 88 10 37 11 87 12
REMARK SMILES IDX 38 13 39 14 40 15 81 16 41 17 86 18 80 19 82 20 42 21 85 22
REMARK SMILES IDX 79 23 78 24 43 26 69 27 52 28 68 29 53 30 56 31 67 32 83 33
REMARK SMILES IDX 54 34 55 35 66 37 84 38 57 39 44 40 45 41 50 42 46 43 47 44
REMARK SMILES IDX 49 45 51 46 48 47 70 48 71 49 76 50 72 51 73 52 75 53 77 54
REMARK SMILES IDX 74 55 58 56 59 57 64 58 60 59 61 60 63 61 65 62 62 63 8 64
REMARK SMILES IDX 9 65 10 66 11 67 12 68 13 69 14 70 15 71 16 72 26 73 17 74
REMARK SMILES IDX 25 75 24 76 27 77 28 78 29 79 30 80 34 81 31 82 33 83 32 84
REMARK SMILES IDX 18 85 19 86 23 87 20 88 22 89 21 90
REMARK H PARENT 82 25 56 36
REMARK Flexibility Score: inf
ROOT
ATOM      1  C   UNL A   1      40.839  21.706  27.575  1.00  0.00     0.188 C 
ENDROOT
BRANCH   1   2
ATOM      2  O   UNL A   1      42.256  21.752  27.420  1.00  0.00    -0.376 OA
BRANCH   2   3
ATOM      3  C   UNL A   1      42.782  21.251  26.189  1.00  0.00     0.202 C 
BRANCH   3   4
ATOM      4  C   UNL A   1      43.709  22.242  25.474  1.00  0.00     0.261 C 
BRANCH   4   5
ATOM      5  O   UNL A   1      43.061  23.498  25.214  1.00  0.00    -0.460 OA
BRANCH   5   6
ATOM      6  C   UNL A   1      43.845  24.602  25.269  1.00  0.00     0.338 C 
ATOM      7  O   UNL A   1      44.839  24.810  24.586  1.00  0.00    -0.246 OA
BRANCH   6   8
ATOM      8  C   UNL A   1      43.289  25.507  26.314  1.00  0.00     0.060 A 
ATOM      9  C   UNL A   1      44.013  26.644  26.719  1.00  0.00     0.016 A 
ATOM     10  C   UNL A   1      42.028  25.258  26.865  1.00  0.00     0.016 A 
ATOM     11  C   UNL A   1      43.504  27.513  27.676  1.00  0.00     0.010 A 
ATOM     12  C   UNL A   1      41.515  26.129  27.837  1.00  0.00     0.010 A 
ATOM     13  C   UNL A   1      42.258  27.253  28.251  1.00  0.00    -0.014 A 
BRANCH  13  14
ATOM     14  C   UNL A   1      41.880  28.005  29.465  1.00  0.00     0.031 A 
ATOM     15  C   UNL A   1      40.757  28.974  29.313  1.00  0.00     0.074 A 
ATOM     16  C   UNL A   1      42.383  27.762  30.688  1.00  0.00     0.049 A 
ATOM     17  N   UNL A   1      40.175  29.699  30.227  1.00  0.00    -0.248 NA
ATOM     18  C   UNL A   1      40.147  29.067  27.975  1.00  0.00     0.031 C 
ATOM     19  C   UNL A   1      43.268  26.666  31.033  1.00  0.00     0.029 A 
ATOM     20  N   UNL A   1      42.223  28.425  31.878  1.00  0.00    -0.354 N 
ATOM     21  C   UNL A   1      39.079  30.258  29.599  1.00  0.00     0.074 A 
ATOM     22  C   UNL A   1      39.111  29.851  28.213  1.00  0.00     0.031 C 
ATOM     23  C   UNL A   1      43.670  26.784  32.308  1.00  0.00     0.029 A 
ATOM     24  C   UNL A   1      43.080  27.987  32.861  1.00  0.00     0.049 A 
ATOM     25  H   UNL A   1      41.563  29.143  32.016  1.00  0.00     0.167 HD
ATOM     26  C   UNL A   1      38.113  31.024  30.149  1.00  0.00     0.037 A 
ATOM     27  C   UNL A   1      43.378  28.518  34.059  1.00  0.00     0.037 A 
ATOM     28  C   UNL A   1      38.168  31.515  31.495  1.00  0.00     0.049 A 
ATOM     29  C   UNL A   1      42.525  29.649  34.537  1.00  0.00     0.074 A 
ATOM     30  C   UNL A   1      37.318  32.401  32.125  1.00  0.00     0.029 A 
ATOM     31  N   UNL A   1      39.169  31.197  32.405  1.00  0.00    -0.354 N 
ATOM     32  N   UNL A   1      41.492  30.194  33.942  1.00  0.00    -0.248 NA
ATOM     33  C   UNL A   1      42.823  30.197  35.864  1.00  0.00     0.031 C 
ATOM     34  C   UNL A   1      37.849  32.682  33.388  1.00  0.00     0.029 A 
ATOM     35  C   UNL A   1      38.992  31.917  33.573  1.00  0.00     0.049 A 
ATOM     36  H   UNL A   1      39.898  30.554  32.241  1.00  0.00     0.167 HD
ATOM     37  C   UNL A   1      40.964  31.092  34.850  1.00  0.00     0.074 A 
ATOM     38  C   UNL A   1      41.813  31.041  36.026  1.00  0.00     0.031 C 
ATOM     39  C   UNL A   1      39.852  31.856  34.730  1.00  0.00     0.037 A 
BRANCH  26  40
ATOM     40  C   UNL A   1      37.006  31.422  29.231  1.00  0.00     0.057 A 
ATOM     41  C   UNL A   1      36.934  32.710  28.681  1.00  0.00     0.134 A 
ATOM     42  C   UNL A   1      35.937  30.552  28.998  1.00  0.00     0.134 A 
ATOM     43  F   UNL A   1      37.906  33.605  28.910  1.00  0.00    -0.206 F 
ATOM     44  C   UNL A   1      35.817  33.127  27.954  1.00  0.00     0.040 A 
ATOM     45  C   UNL A   1      34.826  30.950  28.256  1.00  0.00     0.040 A 
ATOM     46  F   UNL A   1      35.938  29.318  29.524  1.00  0.00    -0.206 F 
ATOM     47  C   UNL A   1      34.760  32.245  27.742  1.00  0.00     0.006 A 
ENDBRANCH  26  40
BRANCH  27  48
ATOM     48  C   UNL A   1      44.525  28.024  34.859  1.00  0.00     0.057 A 
ATOM     49  C   UNL A   1      44.376  27.060  35.860  1.00  0.00     0.134 A 
ATOM     50  C   UNL A   1      45.802  28.577  34.684  1.00  0.00     0.134 A 
ATOM     51  F   UNL A   1      43.177  26.507  36.088  1.00  0.00    -0.206 F 
ATOM     52  C   UNL A   1      45.444  26.684  36.681  1.00  0.00     0.040 A 
ATOM     53  C   UNL A   1      46.878  28.204  35.491  1.00  0.00     0.040 A 
ATOM     54  F   UNL A   1      46.014  29.509  33.741  1.00  0.00    -0.206 F 
ATOM     55  C   UNL A   1      46.700  27.261  36.498  1.00  0.00     0.006 A 
ENDBRANCH  27  48
BRANCH  39  56
ATOM     56  C   UNL A   1      39.460  32.663  35.926  1.00  0.00     0.057 A 
ATOM     57  C   UNL A   1      39.922  33.968  36.127  1.00  0.00     0.134 A 
ATOM     58  C   UNL A   1      38.570  32.132  36.868  1.00  0.00     0.134 A 
ATOM     59  F   UNL A   1      40.795  34.521  35.271  1.00  0.00    -0.206 F 
ATOM     60  C   UNL A   1      39.523  34.713  37.236  1.00  0.00     0.040 A 
ATOM     61  C   UNL A   1      38.138  32.879  37.961  1.00  0.00     0.040 A 
ATOM     62  F   UNL A   1      38.092  30.885  36.729  1.00  0.00    -0.206 F 
ATOM     63  C   UNL A   1      38.620  34.173  38.150  1.00  0.00     0.006 A 
ENDBRANCH  39  56
ENDBRANCH  13  14
ENDBRANCH   6   8
ENDBRANCH   5   6
ENDBRANCH   4   5
ENDBRANCH   3   4
ENDBRANCH   2   3
ENDBRANCH   1   2
BRANCH   1  64
ATOM     64  C   UNL A   1      40.082  20.962  26.443  1.00  0.00     0.188 C 
BRANCH  64  65
ATOM     65  O   UNL A   1      39.120  21.783  25.753  1.00  0.00    -0.376 OA
BRANCH  65  66
ATOM     66  C   UNL A   1      38.067  21.031  25.111  1.00  0.00     0.202 C 
BRANCH  66  67
ATOM     67  C   UNL A   1      36.790  21.798  24.652  1.00  0.00     0.261 C 
BRANCH  67  68
ATOM     68  O   UNL A   1      36.305  22.854  25.512  1.00  0.00    -0.462 OA
BRANCH  68  69
ATOM     69  C   UNL A   1      35.086  22.702  26.055  1.00  0.00     0.330 C 
ATOM     70  O   UNL A   1      34.901  22.282  27.192  1.00  0.00    -0.250 OA
BRANCH  69  71
ATOM     71  C   UNL A   1      33.952  23.078  25.096  1.00  0.00     0.214 C 
ATOM     72  C   UNL A   1      33.159  24.331  25.470  1.00  0.00     0.157 C 
ATOM     73  N   UNL A   1      33.082  22.119  24.370  1.00  0.00    -0.325 N 
ATOM     74  N   UNL A   1      32.517  24.915  24.278  1.00  0.00    -0.336 N 
ATOM     75  C   UNL A   1      32.683  22.709  23.063  1.00  0.00     0.142 C 
ATOM     76  C   UNL A   1      31.923  24.046  23.255  1.00  0.00     0.141 C 
BRANCH  73  77
ATOM     77  C   UNL A   1      32.452  20.952  24.689  1.00  0.00     0.226 C 
ATOM     78  O   UNL A   1      31.391  21.088  25.321  1.00  0.00    -0.275 OA
BRANCH  77  79
ATOM     79  C   UNL A   1      32.759  19.486  24.325  1.00  0.00     0.083 C 
ATOM     80  C   UNL A   1      34.091  18.798  24.555  1.00  0.00     0.042 C 
ATOM     81  C   UNL A   1      32.212  19.233  22.952  1.00  0.00     0.042 C 
ATOM     82  C   UNL A   1      34.020  17.365  23.994  1.00  0.00     0.161 C 
ATOM     83  C   UNL A   1      32.386  17.850  22.376  1.00  0.00     0.161 C 
ATOM     84  O   UNL A   1      33.709  17.382  22.600  1.00  0.00    -0.381 OA
ENDBRANCH  77  79
ENDBRANCH  73  77
BRANCH  74  85
ATOM     85  C   UNL A   1      32.980  26.115  23.793  1.00  0.00     0.225 A 
ATOM     86  N   UNL A   1      33.099  27.127  24.668  1.00  0.00    -0.221 NA
ATOM     87  N   UNL A   1      33.254  26.227  22.487  1.00  0.00    -0.221 NA
ATOM     88  C   UNL A   1      33.558  28.299  24.196  1.00  0.00     0.117 A 
ATOM     89  C   UNL A   1      33.668  27.434  22.054  1.00  0.00     0.117 A 
ATOM     90  C   UNL A   1      33.855  28.517  22.877  1.00  0.00     0.040 A 
ENDBRANCH  74  85
ENDBRANCH  69  71
ENDBRANCH  68  69
ENDBRANCH  67  68
ENDBRANCH  66  67
ENDBRANCH  65  66
ENDBRANCH  64  65
ENDBRANCH   1  64
TORSDOF 20
ENDMDL
MODEL 3
REMARK VINA RESULT:     -10.7      1.738      4.122
REMARK SMILES O=C(OCCOCCOCCOC(=O)[C@@H]1CN(c2ncccn2)CCN1C(=O)C1CCOCC1)c1ccc(-c2c3nc(c(-c4c(F)cccc4F)c4ccc([nH]4)c(-c4c(F)cccc4F)c4nc(c(-c5c(F)cccc5F)c5ccc2[nH]5)C=C4)C=C3)cc1
REMARK SMILES IDX 7 1 6 2 5 3 4 4 3 5 2 6 1 7 35 8 36 9 88 10 37 11 87 12
REMARK SMILES IDX 38 13 39 14 40 15 81 16 41 17 86 18 80 19 82 20 42 21 85 22
REMARK SMILES IDX 79 23 78 24 43 26 69 27 52 28 68 29 53 30 56 31 67 32 83 33
REMARK SMILES IDX 54 34 55 35 66 37 84 38 57 39 44 40 45 41 50 42 46 43 47 44
REMARK SMILES IDX 49 45 51 46 48 47 70 48 71 49 76 50 72 51 73 52 75 53 77 54
REMARK SMILES IDX 74 55 58 56 59 57 64 58 60 59 61 60 63 61 65 62 62 63 8 64
REMARK SMILES IDX 9 65 10 66 11 67 12 68 13 69 14 70 15 71 16 72 26 73 17 74
REMARK SMILES IDX 25 75 24 76 27 77 28 78 29 79 30 80 34 81 31 82 33 83 32 84
REMARK SMILES IDX 18 85 19 86 23 87 20 88 22 89 21 90
REMARK H PARENT 82 25 56 36
REMARK Flexibility Score: inf
ROOT
ATOM      1  C   UNL A   1      40.693  20.770  26.311  1.00  0.00     0.188 C 
ENDROOT
BRANCH   1   2
ATOM      2  O   UNL A   1      42.047  20.856  26.752  1.00  0.00    -0.376 OA
BRANCH   2   3
ATOM      3  C   UNL A   1      43.055  20.555  25.785  1.00  0.00     0.202 C 
BRANCH   3   4
ATOM      4  C   UNL A   1      43.885  21.777  25.370  1.00  0.00     0.261 C 
BRANCH   4   5
ATOM      5  O   UNL A   1      43.103  22.984  25.361  1.00  0.00    -0.460 OA
BRANCH   5   6
ATOM      6  C   UNL A   1      43.794  24.147  25.278  1.00  0.00     0.338 C 
ATOM      7  O   UNL A   1      44.578  24.453  24.389  1.00  0.00    -0.246 OA
BRANCH   6   8
ATOM      8  C   UNL A   1      43.440  24.976  26.464  1.00  0.00     0.060 A 
ATOM      9  C   UNL A   1      42.420  24.557  27.337  1.00  0.00     0.016 A 
ATOM     10  C   UNL A   1      44.147  26.151  26.740  1.00  0.00     0.016 A 
ATOM     11  C   UNL A   1      42.088  25.303  28.460  1.00  0.00     0.010 A 
ATOM     12  C   UNL A   1      43.809  26.911  27.868  1.00  0.00     0.010 A 
ATOM     13  C   UNL A   1      42.771  26.493  28.725  1.00  0.00    -0.014 A 
BRANCH  13  14
ATOM     14  C   UNL A   1      42.206  27.412  29.734  1.00  0.00     0.031 A 
ATOM     15  C   UNL A   1      42.815  27.348  31.094  1.00  0.00     0.074 A 
ATOM     16  C   UNL A   1      41.303  28.369  29.459  1.00  0.00     0.049 A 
ATOM     17  N   UNL A   1      42.567  28.092  32.135  1.00  0.00    -0.248 NA
ATOM     18  C   UNL A   1      43.914  26.384  31.276  1.00  0.00     0.031 C 
ATOM     19  C   UNL A   1      40.835  28.731  28.134  1.00  0.00     0.029 A 
ATOM     20  N   UNL A   1      40.608  29.219  30.281  1.00  0.00    -0.354 N 
ATOM     21  C   UNL A   1      43.536  27.752  33.059  1.00  0.00     0.074 A 
ATOM     22  C   UNL A   1      44.333  26.689  32.491  1.00  0.00     0.031 C 
ATOM     23  C   UNL A   1      39.855  29.642  28.225  1.00  0.00     0.029 A 
ATOM     24  C   UNL A   1      39.613  29.909  29.629  1.00  0.00     0.049 A 
ATOM     25  H   UNL A   1      40.802  29.325  31.241  1.00  0.00     0.167 HD
ATOM     26  C   UNL A   1      43.754  28.308  34.269  1.00  0.00     0.037 A 
ATOM     27  C   UNL A   1      38.600  30.647  30.116  1.00  0.00     0.037 A 
ATOM     28  C   UNL A   1      42.877  29.275  34.862  1.00  0.00     0.049 A 
ATOM     29  C   UNL A   1      38.629  30.970  31.575  1.00  0.00     0.074 A 
ATOM     30  C   UNL A   1      42.921  29.815  36.132  1.00  0.00     0.029 A 
ATOM     31  N   UNL A   1      41.758  29.807  34.233  1.00  0.00    -0.354 N 
ATOM     32  N   UNL A   1      39.538  30.641  32.461  1.00  0.00    -0.248 NA
ATOM     33  C   UNL A   1      37.548  31.813  32.096  1.00  0.00     0.031 C 
ATOM     34  C   UNL A   1      41.783  30.611  36.299  1.00  0.00     0.029 A 
ATOM     35  C   UNL A   1      41.068  30.625  35.110  1.00  0.00     0.049 A 
ATOM     36  H   UNL A   1      41.495  29.628  33.301  1.00  0.00     0.167 HD
ATOM     37  C   UNL A   1      39.186  31.300  33.625  1.00  0.00     0.074 A 
ATOM     38  C   UNL A   1      37.961  32.022  33.339  1.00  0.00     0.031 C 
ATOM     39  C   UNL A   1      39.846  31.331  34.807  1.00  0.00     0.037 A 
BRANCH  26  40
ATOM     40  C   UNL A   1      44.932  27.779  35.019  1.00  0.00     0.057 A 
ATOM     41  C   UNL A   1      44.824  26.672  35.873  1.00  0.00     0.134 A 
ATOM     42  C   UNL A   1      46.153  28.459  34.982  1.00  0.00     0.134 A 
ATOM     43  F   UNL A   1      43.664  26.009  35.987  1.00  0.00    -0.206 F 
ATOM     44  C   UNL A   1      45.886  26.281  36.690  1.00  0.00     0.040 A 
ATOM     45  C   UNL A   1      47.227  28.064  35.778  1.00  0.00     0.040 A 
ATOM     46  F   UNL A   1      46.305  29.542  34.205  1.00  0.00    -0.206 F 
ATOM     47  C   UNL A   1      47.091  26.979  36.643  1.00  0.00     0.006 A 
ENDBRANCH  26  40
BRANCH  27  48
ATOM     48  C   UNL A   1      37.483  31.093  29.249  1.00  0.00     0.057 A 
ATOM     49  C   UNL A   1      37.379  32.407  28.783  1.00  0.00     0.134 A 
ATOM     50  C   UNL A   1      36.438  30.213  28.929  1.00  0.00     0.134 A 
ATOM     51  F   UNL A   1      38.337  33.300  29.070  1.00  0.00    -0.206 F 
ATOM     52  C   UNL A   1      36.265  32.843  28.059  1.00  0.00     0.040 A 
ATOM     53  C   UNL A   1      35.325  30.634  28.200  1.00  0.00     0.040 A 
ATOM     54  F   UNL A   1      36.474  28.939  29.346  1.00  0.00    -0.206 F 
ATOM     55  C   UNL A   1      35.231  31.954  27.768  1.00  0.00     0.006 A 
ENDBRANCH  27  48
BRANCH  39  56
ATOM     56  C   UNL A   1      39.280  32.221  35.868  1.00  0.00     0.057 A 
ATOM     57  C   UNL A   1      39.640  33.568  35.978  1.00  0.00     0.134 A 
ATOM     58  C   UNL A   1      38.327  31.722  36.765  1.00  0.00     0.134 A 
ATOM     59  F   UNL A   1      40.565  34.095  35.162  1.00  0.00    -0.206 F 
ATOM     60  C   UNL A   1      39.081  34.387  36.958  1.00  0.00     0.040 A 
ATOM     61  C   UNL A   1      37.737  32.539  37.725  1.00  0.00     0.040 A 
ATOM     62  F   UNL A   1      37.942  30.438  36.708  1.00  0.00    -0.206 F 
ATOM     63  C   UNL A   1      38.119  33.876  37.827  1.00  0.00     0.006 A 
ENDBRANCH  39  56
ENDBRANCH  13  14
ENDBRANCH   6   8
ENDBRANCH   5   6
ENDBRANCH   4   5
ENDBRANCH   3   4
ENDBRANCH   2   3
ENDBRANCH   1   2
BRANCH   1  64
ATOM     64  C   UNL A   1      39.847  22.048  26.551  1.00  0.00     0.188 C 
BRANCH  64  65
ATOM     65  O   UNL A   1      38.507  21.962  26.025  1.00  0.00    -0.376 OA
BRANCH  65  66
ATOM     66  C   UNL A   1      37.845  23.241  25.909  1.00  0.00     0.202 C 
BRANCH  66  67
ATOM     67  C   UNL A   1      36.304  23.252  25.679  1.00  0.00     0.261 C 
BRANCH  67  68
ATOM     68  O   UNL A   1      35.799  24.072  24.601  1.00  0.00    -0.462 OA
BRANCH  68  69
ATOM     69  C   UNL A   1      34.694  24.799  24.838  1.00  0.00     0.330 C 
ATOM     70  O   UNL A   1      34.668  26.024  24.782  1.00  0.00    -0.250 OA
BRANCH  69  71
ATOM     71  C   UNL A   1      33.483  23.941  25.215  1.00  0.00     0.214 C 
ATOM     72  C   UNL A   1      33.039  22.925  24.161  1.00  0.00     0.157 C 
ATOM     73  N   UNL A   1      32.315  24.399  26.009  1.00  0.00    -0.325 N 
ATOM     74  N   UNL A   1      32.292  21.819  24.787  1.00  0.00    -0.336 N 
ATOM     75  C   UNL A   1      31.778  23.256  26.797  1.00  0.00     0.142 C 
ATOM     76  C   UNL A   1      31.346  22.088  25.877  1.00  0.00     0.141 C 
BRANCH  73  77
ATOM     77  C   UNL A   1      31.551  25.528  26.042  1.00  0.00     0.226 C 
ATOM     78  O   UNL A   1      30.325  25.329  25.995  1.00  0.00    -0.275 OA
BRANCH  77  79
ATOM     79  C   UNL A   1      31.919  27.013  26.228  1.00  0.00     0.083 C 
ATOM     80  C   UNL A   1      31.575  27.843  27.449  1.00  0.00     0.042 C 
ATOM     81  C   UNL A   1      31.611  27.723  24.944  1.00  0.00     0.042 C 
ATOM     82  C   UNL A   1      32.052  29.291  27.222  1.00  0.00     0.161 C 
ATOM     83  C   UNL A   1      31.899  29.202  24.879  1.00  0.00     0.161 C 
ATOM     84  O   UNL A   1      31.440  29.850  26.059  1.00  0.00    -0.381 OA
ENDBRANCH  77  79
ENDBRANCH  73  77
BRANCH  74  85
ATOM     85  C   UNL A   1      32.867  20.573  24.840  1.00  0.00     0.225 A 
ATOM     86  N   UNL A   1      34.192  20.497  24.635  1.00  0.00    -0.221 NA
ATOM     87  N   UNL A   1      32.088  19.505  25.057  1.00  0.00    -0.221 NA
ATOM     88  C   UNL A   1      34.758  19.279  24.693  1.00  0.00     0.117 A 
ATOM     89  C   UNL A   1      32.694  18.301  25.061  1.00  0.00     0.117 A 
ATOM     90  C   UNL A   1      34.046  18.127  24.899  1.00  0.00     0.040 A 
ENDBRANCH  74  85
ENDBRANCH  69  71
ENDBRANCH  68  69
ENDBRANCH  67  68
ENDBRANCH  66  67
ENDBRANCH  65  66
ENDBRANCH  64  65
ENDBRANCH   1  64
TORSDOF 20
ENDMDL
