MODEL 1
REMARK VINA RESULT:     -10.8      0.000      0.000
REMARK SMILES Cc1ccc([C@H](CC(=O)OCCOCCOCCOC(=O)c2ccc(-c3c4nc(c(-c5c(F)cccc5F)c5ccc([nH]5)c(-c5c(F)cccc5F)c5nc(c(-c6c(F)cccc6F)c6ccc3[nH]6)C=C5)C=C4)cc2)NC(=O)C(F)(F)F)cc1
REMARK SMILES IDX 14 1 13 2 12 3 11 4 10 5 8 6 9 7 7 8 6 9 5 10 1 11 2 12 3 13
REMARK SMILES IDX 84 14 4 15 83 16 76 17 77 18 78 20 79 21 80 22 81 23 82 24
REMARK SMILES IDX 15 25 16 26 17 27 18 28 19 29 20 30 21 31 22 32 23 33 75 34
REMARK SMILES IDX 24 35 74 36 25 37 26 38 27 39 68 40 28 41 73 42 67 43 69 44
REMARK SMILES IDX 29 45 72 46 66 47 65 48 30 50 56 51 39 52 55 53 40 54 43 55
REMARK SMILES IDX 54 56 70 57 41 58 42 59 53 61 71 62 44 63 31 64 32 65 37 66
REMARK SMILES IDX 33 67 34 68 36 69 38 70 35 71 57 72 58 73 63 74 59 75 60 76
REMARK SMILES IDX 62 77 64 78 61 79 45 80 46 81 51 82 47 83 48 84 50 85 52 86
REMARK SMILES IDX 49 87
REMARK H PARENT 76 19 69 49 43 60
REMARK Flexibility Score: inf
ROOT
ATOM      1  C   UNL A   1      32.783  30.025  26.938  1.00  0.00     0.188 C 
ENDROOT
BRANCH   1   2
ATOM      2  O   UNL A   1      32.849  28.582  27.061  1.00  0.00    -0.376 OA
BRANCH   2   3
ATOM      3  C   UNL A   1      32.382  27.650  26.067  1.00  0.00     0.202 C 
BRANCH   3   4
ATOM      4  C   UNL A   1      33.400  26.812  25.026  1.00  0.00     0.261 C 
BRANCH   4   5
ATOM      5  O   UNL A   1      33.463  25.209  24.518  1.00  0.00    -0.463 OA
BRANCH   5   6
ATOM      6  C   UNL A   1      33.727  24.537  23.299  1.00  0.00     0.308 C 
ATOM      7  O   UNL A   1      33.053  24.491  22.269  1.00  0.00    -0.252 OA
BRANCH   6   8
ATOM      8  C   UNL A   1      34.722  23.465  23.180  1.00  0.00     0.152 C 
BRANCH   8   9
ATOM      9  C   UNL A   1      34.513  22.181  23.912  1.00  0.00     0.123 C 
BRANCH   9  10
ATOM     10  C   UNL A   1      35.707  22.173  24.858  1.00  0.00    -0.025 A 
ATOM     11  C   UNL A   1      39.709  22.273  26.453  1.00  0.00     0.044 C 
ATOM     12  C   UNL A   1      38.299  22.240  25.947  1.00  0.00    -0.051 A 
ATOM     13  C   UNL A   1      37.822  21.079  25.333  1.00  0.00     0.004 A 
ATOM     14  C   UNL A   1      37.471  23.365  26.031  1.00  0.00     0.004 A 
ATOM     15  C   UNL A   1      36.536  21.039  24.811  1.00  0.00     0.006 A 
ATOM     16  C   UNL A   1      36.185  23.336  25.488  1.00  0.00     0.006 A 
ENDBRANCH   9  10
BRANCH   9  17
ATOM     17  N   UNL A   1      33.240  22.125  24.613  1.00  0.00    -0.341 N 
ATOM     18  C   UNL A   1      32.431  21.030  24.804  1.00  0.00     0.326 C 
ATOM     19  H   UNL A   1      32.918  22.974  24.995  1.00  0.00     0.164 HD
ATOM     20  O   UNL A   1      31.484  21.170  25.588  1.00  0.00    -0.265 OA
BRANCH  18  21
ATOM     21  C   UNL A   1      32.724  19.697  24.079  1.00  0.00     0.471 C 
ATOM     22  F   UNL A   1      34.011  19.291  24.253  1.00  0.00    -0.162 F 
ATOM     23  F   UNL A   1      32.519  19.748  22.730  1.00  0.00    -0.162 F 
ATOM     24  F   UNL A   1      31.928  18.681  24.515  1.00  0.00    -0.162 F 
ENDBRANCH  18  21
ENDBRANCH   9  17
ENDBRANCH   8   9
ENDBRANCH   6   8
ENDBRANCH   5   6
ENDBRANCH   4   5
ENDBRANCH   3   4
ENDBRANCH   2   3
ENDBRANCH   1   2
BRANCH   1  25
ATOM     25  C   UNL A   1      33.929  30.953  27.359  1.00  0.00     0.188 C 
BRANCH  25  26
ATOM     26  O   UNL A   1      33.407  32.121  27.966  1.00  0.00    -0.376 OA
BRANCH  26  27
ATOM     27  C   UNL A   1      34.263  33.253  28.002  1.00  0.00     0.202 C 
BRANCH  27  28
ATOM     28  C   UNL A   1      34.519  33.784  29.432  1.00  0.00     0.261 C 
BRANCH  28  29
ATOM     29  O   UNL A   1      35.747  33.243  29.985  1.00  0.00    -0.460 OA
BRANCH  29  30
ATOM     30  C   UNL A   1      35.665  32.136  30.797  1.00  0.00     0.338 C 
ATOM     31  O   UNL A   1      35.238  32.142  31.945  1.00  0.00    -0.246 OA
BRANCH  30  32
ATOM     32  C   UNL A   1      36.423  30.992  30.182  1.00  0.00     0.060 A 
ATOM     33  C   UNL A   1      36.489  29.659  30.622  1.00  0.00     0.016 A 
ATOM     34  C   UNL A   1      37.411  31.367  29.343  1.00  0.00     0.016 A 
ATOM     35  C   UNL A   1      37.650  28.810  30.349  1.00  0.00     0.010 A 
ATOM     36  C   UNL A   1      38.578  30.624  29.407  1.00  0.00     0.010 A 
ATOM     37  C   UNL A   1      38.829  29.311  29.795  1.00  0.00    -0.014 A 
BRANCH  37  38
ATOM     38  C   UNL A   1      40.295  28.616  29.629  1.00  0.00     0.031 A 
ATOM     39  C   UNL A   1      40.850  27.160  28.990  1.00  0.00     0.074 A 
ATOM     40  C   UNL A   1      41.285  29.360  30.165  1.00  0.00     0.049 A 
ATOM     41  N   UNL A   1      41.916  26.509  29.427  1.00  0.00    -0.248 NA
ATOM     42  C   UNL A   1      40.326  26.317  27.868  1.00  0.00     0.031 C 
ATOM     43  C   UNL A   1      42.726  29.163  30.085  1.00  0.00     0.029 A 
ATOM     44  N   UNL A   1      41.131  30.400  31.090  1.00  0.00    -0.354 N 
ATOM     45  C   UNL A   1      42.204  25.429  28.567  1.00  0.00     0.074 A 
ATOM     46  C   UNL A   1      41.108  25.272  27.711  1.00  0.00     0.031 C 
ATOM     47  C   UNL A   1      43.287  29.783  31.136  1.00  0.00     0.029 A 
ATOM     48  C   UNL A   1      42.207  30.265  31.981  1.00  0.00     0.049 A 
ATOM     49  H   UNL A   1      40.421  31.081  31.110  1.00  0.00     0.167 HD
ATOM     50  C   UNL A   1      43.404  24.803  28.437  1.00  0.00     0.037 A 
ATOM     51  C   UNL A   1      41.964  29.927  33.280  1.00  0.00     0.037 A 
ATOM     52  C   UNL A   1      44.326  25.313  29.402  1.00  0.00     0.049 A 
ATOM     53  C   UNL A   1      42.645  28.638  33.704  1.00  0.00     0.074 A 
ATOM     54  C   UNL A   1      45.300  26.289  29.410  1.00  0.00     0.029 A 
ATOM     55  N   UNL A   1      44.001  25.070  30.709  1.00  0.00    -0.354 N 
ATOM     56  N   UNL A   1      43.374  27.890  32.919  1.00  0.00    -0.248 NA
ATOM     57  C   UNL A   1      42.500  28.048  35.036  1.00  0.00     0.031 C 
ATOM     58  C   UNL A   1      45.523  26.653  30.773  1.00  0.00     0.029 A 
ATOM     59  C   UNL A   1      44.713  25.862  31.569  1.00  0.00     0.049 A 
ATOM     60  H   UNL A   1      43.335  24.404  30.997  1.00  0.00     0.167 HD
ATOM     61  C   UNL A   1      43.719  26.738  33.570  1.00  0.00     0.074 A 
ATOM     62  C   UNL A   1      43.156  26.884  34.897  1.00  0.00     0.031 C 
ATOM     63  C   UNL A   1      44.398  25.718  32.973  1.00  0.00     0.037 A 
BRANCH  50  64
ATOM     64  C   UNL A   1      43.729  23.934  27.233  1.00  0.00     0.057 A 
ATOM     65  C   UNL A   1      44.333  24.494  26.098  1.00  0.00     0.134 A 
ATOM     66  C   UNL A   1      43.357  22.579  27.093  1.00  0.00     0.134 A 
ATOM     67  F   UNL A   1      44.802  25.748  26.110  1.00  0.00    -0.206 F 
ATOM     68  C   UNL A   1      44.448  23.805  24.880  1.00  0.00     0.040 A 
ATOM     69  C   UNL A   1      43.411  21.896  25.863  1.00  0.00     0.040 A 
ATOM     70  F   UNL A   1      42.883  21.879  28.137  1.00  0.00    -0.206 F 
ATOM     71  C   UNL A   1      43.945  22.519  24.744  1.00  0.00     0.006 A 
ENDBRANCH  50  64
BRANCH  51  72
ATOM     72  C   UNL A   1      40.676  30.480  33.817  1.00  0.00     0.057 A 
ATOM     73  C   UNL A   1      40.655  31.810  34.300  1.00  0.00     0.134 A 
ATOM     74  C   UNL A   1      39.429  29.880  33.626  1.00  0.00     0.134 A 
ATOM     75  F   UNL A   1      41.806  32.469  34.517  1.00  0.00    -0.206 F 
ATOM     76  C   UNL A   1      39.470  32.533  34.471  1.00  0.00     0.040 A 
ATOM     77  C   UNL A   1      38.228  30.585  33.830  1.00  0.00     0.040 A 
ATOM     78  F   UNL A   1      39.331  28.644  33.117  1.00  0.00    -0.206 F 
ATOM     79  C   UNL A   1      38.249  31.923  34.220  1.00  0.00     0.006 A 
ENDBRANCH  51  72
BRANCH  63  80
ATOM     80  C   UNL A   1      44.772  24.442  33.671  1.00  0.00     0.057 A 
ATOM     81  C   UNL A   1      46.108  24.071  33.834  1.00  0.00     0.134 A 
ATOM     82  C   UNL A   1      43.815  23.479  34.063  1.00  0.00     0.134 A 
ATOM     83  F   UNL A   1      47.100  24.889  33.449  1.00  0.00    -0.206 F 
ATOM     84  C   UNL A   1      46.473  22.836  34.378  1.00  0.00     0.040 A 
ATOM     85  C   UNL A   1      44.167  22.220  34.549  1.00  0.00     0.040 A 
ATOM     86  F   UNL A   1      42.497  23.720  34.017  1.00  0.00    -0.206 F 
ATOM     87  C   UNL A   1      45.503  21.899  34.721  1.00  0.00     0.006 A 
ENDBRANCH  63  80
ENDBRANCH  37  38
ENDBRANCH  30  32
ENDBRANCH  29  30
ENDBRANCH  28  29
ENDBRANCH  27  28
ENDBRANCH  26  27
ENDBRANCH  25  26
ENDBRANCH   1  25
TORSDOF 21
ENDMDL
MODEL 2
REMARK VINA RESULT:     -10.8      1.550      2.408
REMARK SMILES Cc1ccc([C@H](CC(=O)OCCOCCOCCOC(=O)c2ccc(-c3c4nc(c(-c5c(F)cccc5F)c5ccc([nH]5)c(-c5c(F)cccc5F)c5nc(c(-c6c(F)cccc6F)c6ccc3[nH]6)C=C5)C=C4)cc2)NC(=O)C(F)(F)F)cc1
REMARK SMILES IDX 14 1 13 2 12 3 11 4 10 5 8 6 9 7 7 8 6 9 5 10 1 11 2 12 3 13
REMARK SMILES IDX 84 14 4 15 83 16 76 17 77 18 78 20 79 21 80 22 81 23 82 24
REMARK SMILES IDX 15 25 16 26 17 27 18 28 19 29 20 30 21 31 22 32 23 33 75 34
REMARK SMILES IDX 24 35 74 36 25 37 26 38 27 39 68 40 28 41 73 42 67 43 69 44
REMARK SMILES IDX 29 45 72 46 66 47 65 48 30 50 56 51 39 52 55 53 40 54 43 55
REMARK SMILES IDX 54 56 70 57 41 58 42 59 53 61 71 62 44 63 31 64 32 65 37 66
REMARK SMILES IDX 33 67 34 68 36 69 38 70 35 71 57 72 58 73 63 74 59 75 60 76
REMARK SMILES IDX 62 77 64 78 61 79 45 80 46 81 51 82 47 83 48 84 50 85 52 86
REMARK SMILES IDX 49 87
REMARK H PARENT 76 19 69 49 43 60
REMARK Flexibility Score: inf
ROOT
ATOM      1  C   UNL A   1      33.072  30.188  26.722  1.00  0.00     0.188 C 
ENDROOT
BRANCH   1   2
ATOM      2  O   UNL A   1      32.855  28.814  27.130  1.00  0.00    -0.376 OA
BRANCH   2   3
ATOM      3  C   UNL A   1      31.900  27.920  26.529  1.00  0.00     0.202 C 
BRANCH   3   4
ATOM      4  C   UNL A   1      31.893  26.258  26.780  1.00  0.00     0.261 C 
BRANCH   4   5
ATOM      5  O   UNL A   1      30.721  25.068  26.584  1.00  0.00    -0.463 OA
BRANCH   5   6
ATOM      6  C   UNL A   1      30.673  23.657  26.704  1.00  0.00     0.308 C 
ATOM      7  O   UNL A   1      29.937  22.955  27.399  1.00  0.00    -0.252 OA
BRANCH   6   8
ATOM      8  C   UNL A   1      31.767  22.783  26.262  1.00  0.00     0.152 C 
BRANCH   8   9
ATOM      9  C   UNL A   1      32.573  23.161  25.065  1.00  0.00     0.123 C 
BRANCH   9  10
ATOM     10  C   UNL A   1      33.062  21.799  24.585  1.00  0.00    -0.025 A 
ATOM     11  C   UNL A   1      34.418  17.711  24.461  1.00  0.00     0.044 C 
ATOM     12  C   UNL A   1      33.943  19.132  24.452  1.00  0.00    -0.051 A 
ATOM     13  C   UNL A   1      34.820  20.146  24.846  1.00  0.00     0.004 A 
ATOM     14  C   UNL A   1      32.626  19.456  24.108  1.00  0.00     0.004 A 
ATOM     15  C   UNL A   1      34.391  21.466  24.894  1.00  0.00     0.006 A 
ATOM     16  C   UNL A   1      32.184  20.778  24.177  1.00  0.00     0.006 A 
ENDBRANCH   9  10
BRANCH   9  17
ATOM     17  N   UNL A   1      31.800  23.868  24.056  1.00  0.00    -0.341 N 
ATOM     18  C   UNL A   1      32.259  24.752  23.109  1.00  0.00     0.326 C 
ATOM     19  H   UNL A   1      30.831  23.693  24.051  1.00  0.00     0.164 HD
ATOM     20  O   UNL A   1      31.455  25.095  22.233  1.00  0.00    -0.265 OA
BRANCH  18  21
ATOM     21  C   UNL A   1      33.718  25.264  23.149  1.00  0.00     0.471 C 
ATOM     22  F   UNL A   1      34.014  25.872  24.330  1.00  0.00    -0.162 F 
ATOM     23  F   UNL A   1      34.010  26.169  22.170  1.00  0.00    -0.162 F 
ATOM     24  F   UNL A   1      34.625  24.263  22.983  1.00  0.00    -0.162 F 
ENDBRANCH  18  21
ENDBRANCH   9  17
ENDBRANCH   8   9
ENDBRANCH   6   8
ENDBRANCH   5   6
ENDBRANCH   4   5
ENDBRANCH   3   4
ENDBRANCH   2   3
ENDBRANCH   1   2
BRANCH   1  25
ATOM     25  C   UNL A   1      34.132  31.093  27.364  1.00  0.00     0.188 C 
BRANCH  25  26
ATOM     26  O   UNL A   1      33.506  32.179  28.022  1.00  0.00    -0.376 OA
BRANCH  26  27
ATOM     27  C   UNL A   1      34.246  33.389  28.092  1.00  0.00     0.202 C 
BRANCH  27  28
ATOM     28  C   UNL A   1      34.476  33.884  29.539  1.00  0.00     0.261 C 
BRANCH  28  29
ATOM     29  O   UNL A   1      35.688  33.320  30.105  1.00  0.00    -0.460 OA
BRANCH  29  30
ATOM     30  C   UNL A   1      35.577  32.212  30.911  1.00  0.00     0.338 C 
ATOM     31  O   UNL A   1      35.126  32.219  32.049  1.00  0.00    -0.246 OA
BRANCH  30  32
ATOM     32  C   UNL A   1      36.337  31.061  30.310  1.00  0.00     0.060 A 
ATOM     33  C   UNL A   1      36.441  29.745  30.790  1.00  0.00     0.016 A 
ATOM     34  C   UNL A   1      37.291  31.426  29.427  1.00  0.00     0.016 A 
ATOM     35  C   UNL A   1      37.608  28.908  30.507  1.00  0.00     0.010 A 
ATOM     36  C   UNL A   1      38.472  30.705  29.478  1.00  0.00     0.010 A 
ATOM     37  C   UNL A   1      38.760  29.411  29.900  1.00  0.00    -0.014 A 
BRANCH  37  38
ATOM     38  C   UNL A   1      40.232  28.737  29.710  1.00  0.00     0.031 A 
ATOM     39  C   UNL A   1      40.797  27.290  29.057  1.00  0.00     0.074 A 
ATOM     40  C   UNL A   1      41.220  29.492  30.233  1.00  0.00     0.049 A 
ATOM     41  N   UNL A   1      41.879  26.652  29.475  1.00  0.00    -0.248 NA
ATOM     42  C   UNL A   1      40.268  26.444  27.940  1.00  0.00     0.031 C 
ATOM     43  C   UNL A   1      42.663  29.315  30.131  1.00  0.00     0.029 A 
ATOM     44  N   UNL A   1      41.066  30.527  31.164  1.00  0.00    -0.354 N 
ATOM     45  C   UNL A   1      42.168  25.579  28.608  1.00  0.00     0.074 A 
ATOM     46  C   UNL A   1      41.062  25.410  27.767  1.00  0.00     0.031 C 
ATOM     47  C   UNL A   1      43.231  29.939  31.176  1.00  0.00     0.029 A 
ATOM     48  C   UNL A   1      42.157  30.403  32.038  1.00  0.00     0.049 A 
ATOM     49  H   UNL A   1      40.347  31.197  31.198  1.00  0.00     0.167 HD
ATOM     50  C   UNL A   1      43.375  24.971  28.457  1.00  0.00     0.037 A 
ATOM     51  C   UNL A   1      41.938  30.058  33.340  1.00  0.00     0.037 A 
ATOM     52  C   UNL A   1      44.305  25.490  29.410  1.00  0.00     0.049 A 
ATOM     53  C   UNL A   1      42.643  28.777  33.749  1.00  0.00     0.074 A 
ATOM     54  C   UNL A   1      45.265  26.479  29.407  1.00  0.00     0.029 A 
ATOM     55  N   UNL A   1      44.003  25.237  30.722  1.00  0.00    -0.354 N 
ATOM     56  N   UNL A   1      43.370  28.042  32.951  1.00  0.00    -0.248 NA
ATOM     57  C   UNL A   1      42.526  28.180  35.081  1.00  0.00     0.031 C 
ATOM     58  C   UNL A   1      45.504  26.841  30.768  1.00  0.00     0.029 A 
ATOM     59  C   UNL A   1      44.716  26.036  31.574  1.00  0.00     0.049 A 
ATOM     60  H   UNL A   1      43.350  24.561  31.017  1.00  0.00     0.167 HD
ATOM     61  C   UNL A   1      43.740  26.892  33.592  1.00  0.00     0.074 A 
ATOM     62  C   UNL A   1      43.195  27.025  34.928  1.00  0.00     0.031 C 
ATOM     63  C   UNL A   1      44.424  25.883  32.981  1.00  0.00     0.037 A 
BRANCH  50  64
ATOM     64  C   UNL A   1      43.693  24.110  27.246  1.00  0.00     0.057 A 
ATOM     65  C   UNL A   1      44.191  24.696  26.072  1.00  0.00     0.134 A 
ATOM     66  C   UNL A   1      43.413  22.731  27.140  1.00  0.00     0.134 A 
ATOM     67  F   UNL A   1      44.568  25.980  26.045  1.00  0.00    -0.206 F 
ATOM     68  C   UNL A   1      44.287  24.000  24.856  1.00  0.00     0.040 A 
ATOM     69  C   UNL A   1      43.447  22.036  25.916  1.00  0.00     0.040 A 
ATOM     70  F   UNL A   1      43.051  22.013  28.216  1.00  0.00    -0.206 F 
ATOM     71  C   UNL A   1      43.871  22.680  24.762  1.00  0.00     0.006 A 
ENDBRANCH  50  64
BRANCH  51  72
ATOM     72  C   UNL A   1      40.651  30.591  33.898  1.00  0.00     0.057 A 
ATOM     73  C   UNL A   1      40.613  31.927  34.364  1.00  0.00     0.134 A 
ATOM     74  C   UNL A   1      39.413  29.963  33.743  1.00  0.00     0.134 A 
ATOM     75  F   UNL A   1      41.754  32.612  34.547  1.00  0.00    -0.206 F 
ATOM     76  C   UNL A   1      39.417  32.627  34.552  1.00  0.00     0.040 A 
ATOM     77  C   UNL A   1      38.203  30.646  33.964  1.00  0.00     0.040 A 
ATOM     78  F   UNL A   1      39.329  28.718  33.252  1.00  0.00    -0.206 F 
ATOM     79  C   UNL A   1      38.204  31.989  34.336  1.00  0.00     0.006 A 
ENDBRANCH  51  72
BRANCH  63  80
ATOM     80  C   UNL A   1      44.826  24.610  33.669  1.00  0.00     0.057 A 
ATOM     81  C   UNL A   1      46.170  24.271  33.835  1.00  0.00     0.134 A 
ATOM     82  C   UNL A   1      43.891  23.621  34.047  1.00  0.00     0.134 A 
ATOM     83  F   UNL A   1      47.143  25.115  33.461  1.00  0.00    -0.206 F 
ATOM     84  C   UNL A   1      46.563  23.039  34.369  1.00  0.00     0.040 A 
ATOM     85  C   UNL A   1      44.271  22.366  34.524  1.00  0.00     0.040 A 
ATOM     86  F   UNL A   1      42.568  23.830  33.998  1.00  0.00    -0.206 F 
ATOM     87  C   UNL A   1      45.614  22.076  34.699  1.00  0.00     0.006 A 
ENDBRANCH  63  80
ENDBRANCH  37  38
ENDBRANCH  30  32
ENDBRANCH  29  30
ENDBRANCH  28  29
ENDBRANCH  27  28
ENDBRANCH  26  27
ENDBRANCH  25  26
ENDBRANCH   1  25
TORSDOF 21
ENDMDL
MODEL 3
REMARK VINA RESULT:     -10.7      1.579      2.660
REMARK SMILES Cc1ccc([C@H](CC(=O)OCCOCCOCCOC(=O)c2ccc(-c3c4nc(c(-c5c(F)cccc5F)c5ccc([nH]5)c(-c5c(F)cccc5F)c5nc(c(-c6c(F)cccc6F)c6ccc3[nH]6)C=C5)C=C4)cc2)NC(=O)C(F)(F)F)cc1
REMARK SMILES IDX 14 1 13 2 12 3 11 4 10 5 8 6 9 7 7 8 6 9 5 10 1 11 2 12 3 13
REMARK SMILES IDX 84 14 4 15 83 16 76 17 77 18 78 20 79 21 80 22 81 23 82 24
REMARK SMILES IDX 15 25 16 26 17 27 18 28 19 29 20 30 21 31 22 32 23 33 75 34
REMARK SMILES IDX 24 35 74 36 25 37 26 38 27 39 68 40 28 41 73 42 67 43 69 44
REMARK SMILES IDX 29 45 72 46 66 47 65 48 30 50 56 51 39 52 55 53 40 54 43 55
REMARK SMILES IDX 54 56 70 57 41 58 42 59 53 61 71 62 44 63 31 64 32 65 37 66
REMARK SMILES IDX 33 67 34 68 36 69 38 70 35 71 57 72 58 73 63 74 59 75 60 76
REMARK SMILES IDX 62 77 64 78 61 79 45 80 46 81 51 82 47 83 48 84 50 85 52 86
REMARK SMILES IDX 49 87
REMARK H PARENT 76 19 69 49 43 60
REMARK Flexibility Score: inf
ROOT
ATOM      1  C   UNL A   1      33.514  29.299  25.573  1.00  0.00     0.188 C 
ENDROOT
BRANCH   1   2
ATOM      2  O   UNL A   1      33.933  28.174  24.762  1.00  0.00    -0.376 OA
BRANCH   2   3
ATOM      3  C   UNL A   1      33.430  27.875  23.446  1.00  0.00     0.202 C 
BRANCH   3   4
ATOM      4  C   UNL A   1      32.768  26.392  23.016  1.00  0.00     0.261 C 
BRANCH   4   5
ATOM      5  O   UNL A   1      32.701  24.895  23.780  1.00  0.00    -0.463 OA
BRANCH   5   6
ATOM      6  C   UNL A   1      31.944  23.707  23.627  1.00  0.00     0.308 C 
ATOM      7  O   UNL A   1      30.802  23.558  23.188  1.00  0.00    -0.252 OA
BRANCH   6   8
ATOM      8  C   UNL A   1      32.282  22.453  24.310  1.00  0.00     0.152 C 
BRANCH   8   9
ATOM      9  C   UNL A   1      33.714  22.113  24.560  1.00  0.00     0.123 C 
BRANCH   9  10
ATOM     10  C   UNL A   1      33.662  20.591  24.599  1.00  0.00    -0.025 A 
ATOM     11  C   UNL A   1      33.744  16.429  23.486  1.00  0.00     0.044 C 
ATOM     12  C   UNL A   1      33.714  17.862  23.923  1.00  0.00    -0.051 A 
ATOM     13  C   UNL A   1      32.592  18.641  23.627  1.00  0.00     0.004 A 
ATOM     14  C   UNL A   1      34.805  18.446  24.574  1.00  0.00     0.004 A 
ATOM     15  C   UNL A   1      32.559  19.984  23.977  1.00  0.00     0.006 A 
ATOM     16  C   UNL A   1      34.785  19.802  24.908  1.00  0.00     0.006 A 
ENDBRANCH   9  10
BRANCH   9  17
ATOM     17  N   UNL A   1      34.608  22.619  23.531  1.00  0.00    -0.341 N 
ATOM     18  C   UNL A   1      35.878  23.120  23.691  1.00  0.00     0.326 C 
ATOM     19  H   UNL A   1      34.262  22.602  22.609  1.00  0.00     0.164 HD
ATOM     20  O   UNL A   1      36.529  23.324  22.658  1.00  0.00    -0.265 OA
BRANCH  18  21
ATOM     21  C   UNL A   1      36.448  23.391  25.103  1.00  0.00     0.471 C 
ATOM     22  F   UNL A   1      35.585  24.106  25.874  1.00  0.00    -0.162 F 
ATOM     23  F   UNL A   1      37.621  24.088  25.097  1.00  0.00    -0.162 F 
ATOM     24  F   UNL A   1      36.725  22.244  25.781  1.00  0.00    -0.162 F 
ENDBRANCH  18  21
ENDBRANCH   9  17
ENDBRANCH   8   9
ENDBRANCH   6   8
ENDBRANCH   5   6
ENDBRANCH   4   5
ENDBRANCH   3   4
ENDBRANCH   2   3
ENDBRANCH   1   2
BRANCH   1  25
ATOM     25  C   UNL A   1      33.656  29.329  27.100  1.00  0.00     0.188 C 
BRANCH  25  26
ATOM     26  O   UNL A   1      32.949  30.436  27.630  1.00  0.00    -0.376 OA
BRANCH  26  27
ATOM     27  C   UNL A   1      33.291  31.713  27.111  1.00  0.00     0.202 C 
BRANCH  27  28
ATOM     28  C   UNL A   1      34.012  32.619  28.136  1.00  0.00     0.261 C 
BRANCH  28  29
ATOM     29  O   UNL A   1      35.359  32.147  28.404  1.00  0.00    -0.460 OA
BRANCH  29  30
ATOM     30  C   UNL A   1      35.609  31.541  29.613  1.00  0.00     0.338 C 
ATOM     31  O   UNL A   1      35.406  32.055  30.706  1.00  0.00    -0.246 OA
BRANCH  30  32
ATOM     32  C   UNL A   1      36.417  30.290  29.403  1.00  0.00     0.060 A 
ATOM     33  C   UNL A   1      36.754  29.308  30.349  1.00  0.00     0.016 A 
ATOM     34  C   UNL A   1      37.182  30.303  28.292  1.00  0.00     0.016 A 
ATOM     35  C   UNL A   1      37.967  28.497  30.223  1.00  0.00     0.010 A 
ATOM     36  C   UNL A   1      38.441  29.739  28.415  1.00  0.00     0.010 A 
ATOM     37  C   UNL A   1      38.948  28.762  29.266  1.00  0.00    -0.014 A 
BRANCH  37  38
ATOM     38  C   UNL A   1      40.452  28.155  29.102  1.00  0.00     0.031 A 
ATOM     39  C   UNL A   1      41.091  26.723  28.487  1.00  0.00     0.074 A 
ATOM     40  C   UNL A   1      41.399  28.969  29.615  1.00  0.00     0.049 A 
ATOM     41  N   UNL A   1      42.199  26.148  28.928  1.00  0.00    -0.248 NA
ATOM     42  C   UNL A   1      40.613  25.827  27.386  1.00  0.00     0.031 C 
ATOM     43  C   UNL A   1      42.849  28.860  29.527  1.00  0.00     0.029 A 
ATOM     44  N   UNL A   1      41.188  30.016  30.520  1.00  0.00    -0.354 N 
ATOM     45  C   UNL A   1      42.547  25.071  28.087  1.00  0.00     0.074 A 
ATOM     46  C   UNL A   1      41.456  24.829  27.243  1.00  0.00     0.031 C 
ATOM     47  C   UNL A   1      43.378  29.534  30.561  1.00  0.00     0.029 A 
ATOM     48  C   UNL A   1      42.275  29.965  31.405  1.00  0.00     0.049 A 
ATOM     49  H   UNL A   1      40.437  30.652  30.533  1.00  0.00     0.167 HD
ATOM     50  C   UNL A   1      43.782  24.518  27.959  1.00  0.00     0.037 A 
ATOM     51  C   UNL A   1      42.063  29.639  32.713  1.00  0.00     0.037 A 
ATOM     52  C   UNL A   1      44.678  25.102  28.906  1.00  0.00     0.049 A 
ATOM     53  C   UNL A   1      42.825  28.404  33.156  1.00  0.00     0.074 A 
ATOM     54  C   UNL A   1      45.590  26.136  28.888  1.00  0.00     0.029 A 
ATOM     55  N   UNL A   1      44.378  24.866  30.221  1.00  0.00    -0.354 N 
ATOM     56  N   UNL A   1      43.593  27.687  32.380  1.00  0.00    -0.248 NA
ATOM     57  C   UNL A   1      42.726  27.833  34.501  1.00  0.00     0.031 C 
ATOM     58  C   UNL A   1      45.800  26.540  30.241  1.00  0.00     0.029 A 
ATOM     59  C   UNL A   1      45.045  25.717  31.059  1.00  0.00     0.049 A 
ATOM     60  H   UNL A   1      43.756  24.166  30.527  1.00  0.00     0.167 HD
ATOM     61  C   UNL A   1      44.013  26.571  33.051  1.00  0.00     0.074 A 
ATOM     62  C   UNL A   1      43.451  26.708  34.379  1.00  0.00     0.031 C 
ATOM     63  C   UNL A   1      44.749  25.583  32.468  1.00  0.00     0.037 A 
BRANCH  50  64
ATOM     64  C   UNL A   1      44.151  23.646  26.770  1.00  0.00     0.057 A 
ATOM     65  C   UNL A   1      44.879  24.183  25.698  1.00  0.00     0.134 A 
ATOM     66  C   UNL A   1      43.712  22.318  26.576  1.00  0.00     0.134 A 
ATOM     67  F   UNL A   1      45.420  25.405  25.770  1.00  0.00    -0.206 F 
ATOM     68  C   UNL A   1      45.052  23.504  24.481  1.00  0.00     0.040 A 
ATOM     69  C   UNL A   1      43.825  21.649  25.342  1.00  0.00     0.040 A 
ATOM     70  F   UNL A   1      43.113  21.635  27.565  1.00  0.00    -0.206 F 
ATOM     71  C   UNL A   1      44.486  22.253  24.281  1.00  0.00     0.006 A 
ENDBRANCH  50  64
BRANCH  51  72
ATOM     72  C   UNL A   1      40.748  30.123  33.249  1.00  0.00     0.057 A 
ATOM     73  C   UNL A   1      40.583  31.505  33.507  1.00  0.00     0.134 A 
ATOM     74  C   UNL A   1      39.578  29.357  33.257  1.00  0.00     0.134 A 
ATOM     75  F   UNL A   1      41.651  32.321  33.522  1.00  0.00    -0.206 F 
ATOM     76  C   UNL A   1      39.327  32.103  33.647  1.00  0.00     0.040 A 
ATOM     77  C   UNL A   1      38.311  29.942  33.434  1.00  0.00     0.040 A 
ATOM     78  F   UNL A   1      39.611  28.049  32.967  1.00  0.00    -0.206 F 
ATOM     79  C   UNL A   1      38.182  31.321  33.595  1.00  0.00     0.006 A 
ENDBRANCH  51  72
BRANCH  63  80
ATOM     80  C   UNL A   1      45.207  24.346  33.188  1.00  0.00     0.057 A 
ATOM     81  C   UNL A   1      44.363  23.245  33.342  1.00  0.00     0.134 A 
ATOM     82  C   UNL A   1      46.440  24.276  33.874  1.00  0.00     0.134 A 
ATOM     83  F   UNL A   1      43.147  23.226  32.776  1.00  0.00    -0.206 F 
ATOM     84  C   UNL A   1      44.729  22.132  34.105  1.00  0.00     0.040 A 
ATOM     85  C   UNL A   1      46.791  23.199  34.687  1.00  0.00     0.040 A 
ATOM     86  F   UNL A   1      47.372  25.234  33.770  1.00  0.00    -0.206 F 
ATOM     87  C   UNL A   1      45.938  22.114  34.795  1.00  0.00     0.006 A 
ENDBRANCH  63  80
ENDBRANCH  37  38
ENDBRANCH  30  32
ENDBRANCH  29  30
ENDBRANCH  28  29
ENDBRANCH  27  28
ENDBRANCH  26  27
ENDBRANCH  25  26
ENDBRANCH   1  25
TORSDOF 21
ENDMDL
