MODEL 1
REMARK VINA RESULT:     -10.7      0.000      0.000
REMARK SMILES O=C(OCCOCCOCCOC(=O)[C@@H]1C=C[C@H](NS(=O)(=O)c2ccc(Cl)cc2)C1)c1ccc(-c2c3nc(c(-c4c(F)cccc4F)c4ccc([nH]4)c(-c4c(F)cccc4F)c4nc(c(-c5c(F)cccc5F)c5ccc2[nH]5)C=C4)C=C3)cc1
REMARK SMILES IDX 8 1 7 2 6 3 5 4 4 5 3 6 2 7 1 8 31 9 32 10 84 11 33 12 83 13
REMARK SMILES IDX 34 14 35 15 36 16 77 17 37 18 82 19 76 20 78 21 38 22 81 23
REMARK SMILES IDX 75 24 74 25 39 27 65 28 48 29 64 30 49 31 52 32 63 33 79 34
REMARK SMILES IDX 50 35 51 36 62 38 80 39 53 40 40 41 41 42 46 43 42 44 43 45
REMARK SMILES IDX 45 46 47 47 44 48 66 49 67 50 72 51 68 52 69 53 71 54 73 55
REMARK SMILES IDX 70 56 54 57 55 58 60 59 56 60 57 61 59 62 61 63 58 64 9 65
REMARK SMILES IDX 10 66 11 67 12 68 13 69 14 70 15 71 16 72 30 73 17 74 18 75
REMARK SMILES IDX 19 76 20 78 21 79 22 80 23 81 24 82 29 83 25 84 28 85 26 86
REMARK SMILES IDX 27 87
REMARK H PARENT 78 26 52 37 19 77
REMARK Flexibility Score: inf
ROOT
ATOM      1  C   UNL A   1      33.238  28.872  22.981  1.00  0.00     0.188 C 
ENDROOT
BRANCH   1   2
ATOM      2  C   UNL A   1      33.723  28.791  24.429  1.00  0.00     0.188 C 
BRANCH   2   3
ATOM      3  O   UNL A   1      32.619  28.760  25.336  1.00  0.00    -0.376 OA
BRANCH   3   4
ATOM      4  C   UNL A   1      31.554  29.657  25.000  1.00  0.00     0.202 C 
BRANCH   4   5
ATOM      5  C   UNL A   1      31.441  30.829  25.972  1.00  0.00     0.261 C 
BRANCH   5   6
ATOM      6  O   UNL A   1      32.482  30.687  26.943  1.00  0.00    -0.460 OA
BRANCH   6   7
ATOM      7  C   UNL A   1      33.111  31.830  27.306  1.00  0.00     0.338 C 
ATOM      8  O   UNL A   1      32.690  32.971  27.277  1.00  0.00    -0.246 OA
BRANCH   7   9
ATOM      9  C   UNL A   1      34.455  31.410  27.715  1.00  0.00     0.060 A 
ATOM     10  C   UNL A   1      34.679  30.046  27.937  1.00  0.00     0.016 A 
ATOM     11  C   UNL A   1      35.429  32.364  28.002  1.00  0.00     0.016 A 
ATOM     12  C   UNL A   1      35.832  29.642  28.575  1.00  0.00     0.010 A 
ATOM     13  C   UNL A   1      36.610  31.950  28.614  1.00  0.00     0.010 A 
ATOM     14  C   UNL A   1      36.787  30.596  28.937  1.00  0.00    -0.014 A 
BRANCH  14  15
ATOM     15  C   UNL A   1      37.922  30.137  29.751  1.00  0.00     0.031 A 
ATOM     16  C   UNL A   1      39.070  29.466  29.072  1.00  0.00     0.074 A 
ATOM     17  C   UNL A   1      37.939  30.444  31.058  1.00  0.00     0.049 A 
ATOM     18  N   UNL A   1      40.133  28.939  29.608  1.00  0.00    -0.248 NA
ATOM     19  C   UNL A   1      38.999  29.333  27.605  1.00  0.00     0.031 C 
ATOM     20  C   UNL A   1      36.849  31.116  31.762  1.00  0.00     0.029 A 
ATOM     21  N   UNL A   1      38.911  30.303  32.005  1.00  0.00    -0.354 N 
ATOM     22  C   UNL A   1      40.788  28.293  28.570  1.00  0.00     0.074 A 
ATOM     23  C   UNL A   1      40.060  28.577  27.355  1.00  0.00     0.031 C 
ATOM     24  C   UNL A   1      37.265  31.449  32.993  1.00  0.00     0.029 A 
ATOM     25  C   UNL A   1      38.615  30.939  33.189  1.00  0.00     0.049 A 
ATOM     26  H   UNL A   1      39.742  29.797  31.857  1.00  0.00     0.167 HD
ATOM     27  C   UNL A   1      41.856  27.471  28.671  1.00  0.00     0.037 A 
ATOM     28  C   UNL A   1      39.368  31.076  34.295  1.00  0.00     0.037 A 
ATOM     29  C   UNL A   1      42.559  27.258  29.908  1.00  0.00     0.049 A 
ATOM     30  C   UNL A   1      40.655  30.296  34.334  1.00  0.00     0.074 A 
ATOM     31  C   UNL A   1      43.616  26.410  30.177  1.00  0.00     0.029 A 
ATOM     32  N   UNL A   1      42.269  27.931  31.091  1.00  0.00    -0.354 N 
ATOM     33  N   UNL A   1      41.224  29.601  33.376  1.00  0.00    -0.248 NA
ATOM     34  C   UNL A   1      41.353  30.236  35.623  1.00  0.00     0.031 C 
ATOM     35  C   UNL A   1      43.943  26.546  31.532  1.00  0.00     0.029 A 
ATOM     36  C   UNL A   1      43.115  27.506  32.098  1.00  0.00     0.049 A 
ATOM     37  H   UNL A   1      41.564  28.610  31.195  1.00  0.00     0.167 HD
ATOM     38  C   UNL A   1      42.295  28.952  33.966  1.00  0.00     0.074 A 
ATOM     39  C   UNL A   1      42.361  29.424  35.336  1.00  0.00     0.031 C 
ATOM     40  C   UNL A   1      43.111  27.998  33.452  1.00  0.00     0.037 A 
BRANCH  27  41
ATOM     41  C   UNL A   1      42.208  26.654  27.467  1.00  0.00     0.057 A 
ATOM     42  C   UNL A   1      41.653  25.396  27.207  1.00  0.00     0.134 A 
ATOM     43  C   UNL A   1      43.162  27.139  26.560  1.00  0.00     0.134 A 
ATOM     44  F   UNL A   1      40.762  24.858  28.052  1.00  0.00    -0.206 F 
ATOM     45  C   UNL A   1      42.044  24.644  26.094  1.00  0.00     0.040 A 
ATOM     46  C   UNL A   1      43.546  26.407  25.435  1.00  0.00     0.040 A 
ATOM     47  F   UNL A   1      43.744  28.332  26.758  1.00  0.00    -0.206 F 
ATOM     48  C   UNL A   1      42.991  25.152  25.203  1.00  0.00     0.006 A 
ENDBRANCH  27  41
BRANCH  28  49
ATOM     49  C   UNL A   1      38.924  31.911  35.445  1.00  0.00     0.057 A 
ATOM     50  C   UNL A   1      39.227  33.280  35.492  1.00  0.00     0.134 A 
ATOM     51  C   UNL A   1      38.198  31.387  36.522  1.00  0.00     0.134 A 
ATOM     52  F   UNL A   1      39.933  33.849  34.504  1.00  0.00    -0.206 F 
ATOM     53  C   UNL A   1      38.834  34.086  36.564  1.00  0.00     0.040 A 
ATOM     54  C   UNL A   1      37.766  32.189  37.580  1.00  0.00     0.040 A 
ATOM     55  F   UNL A   1      37.878  30.086  36.556  1.00  0.00    -0.206 F 
ATOM     56  C   UNL A   1      38.092  33.542  37.608  1.00  0.00     0.006 A 
ENDBRANCH  28  49
BRANCH  40  57
ATOM     57  C   UNL A   1      44.067  27.365  34.412  1.00  0.00     0.057 A 
ATOM     58  C   UNL A   1      43.719  26.195  35.100  1.00  0.00     0.134 A 
ATOM     59  C   UNL A   1      45.347  27.889  34.611  1.00  0.00     0.134 A 
ATOM     60  F   UNL A   1      42.499  25.658  34.955  1.00  0.00    -0.206 F 
ATOM     61  C   UNL A   1      44.613  25.573  35.970  1.00  0.00     0.040 A 
ATOM     62  C   UNL A   1      46.257  27.263  35.463  1.00  0.00     0.040 A 
ATOM     63  F   UNL A   1      45.735  29.003  33.972  1.00  0.00    -0.206 F 
ATOM     64  C   UNL A   1      45.889  26.105  36.146  1.00  0.00     0.006 A 
ENDBRANCH  40  57
ENDBRANCH  14  15
ENDBRANCH   7   9
ENDBRANCH   6   7
ENDBRANCH   5   6
ENDBRANCH   4   5
ENDBRANCH   3   4
ENDBRANCH   2   3
ENDBRANCH   1   2
BRANCH   1  65
ATOM     65  O   UNL A   1      33.853  27.949  22.082  1.00  0.00    -0.376 OA
BRANCH  65  66
ATOM     66  C   UNL A   1      33.518  26.576  22.237  1.00  0.00     0.202 C 
BRANCH  66  67
ATOM     67  C   UNL A   1      32.212  26.094  21.608  1.00  0.00     0.261 C 
BRANCH  67  68
ATOM     68  O   UNL A   1      31.322  25.298  22.396  1.00  0.00    -0.463 OA
BRANCH  68  69
ATOM     69  C   UNL A   1      30.585  26.002  23.307  1.00  0.00     0.312 C 
ATOM     70  O   UNL A   1      30.110  27.114  23.112  1.00  0.00    -0.252 OA
BRANCH  69  71
ATOM     71  C   UNL A   1      30.384  25.199  24.584  1.00  0.00     0.123 C 
ATOM     72  C   UNL A   1      31.052  25.826  25.777  1.00  0.00    -0.015 C 
ATOM     73  C   UNL A   1      31.047  23.814  24.533  1.00  0.00     0.043 C 
ATOM     74  C   UNL A   1      32.045  25.073  26.263  1.00  0.00    -0.011 C 
ATOM     75  C   UNL A   1      32.250  23.825  25.471  1.00  0.00     0.093 C 
BRANCH  75  76
ATOM     76  N   UNL A   1      33.612  23.842  24.956  1.00  0.00    -0.204 NA
ATOM     77  H   UNL A   1      34.192  23.908  25.793  1.00  0.00     0.142 HD
BRANCH  76  78
ATOM     78  S   UNL A   1      34.412  22.748  23.995  1.00  0.00     0.241 S 
ATOM     79  O   UNL A   1      33.638  21.530  24.087  1.00  0.00    -0.207 OA
ATOM     80  O   UNL A   1      34.711  23.350  22.717  1.00  0.00    -0.207 OA
BRANCH  78  81
ATOM     81  C   UNL A   1      35.948  22.410  24.812  1.00  0.00     0.082 A 
ATOM     82  C   UNL A   1      36.662  23.415  25.465  1.00  0.00     0.023 A 
ATOM     83  C   UNL A   1      36.476  21.117  24.714  1.00  0.00     0.023 A 
ATOM     84  C   UNL A   1      37.959  23.160  25.918  1.00  0.00     0.022 A 
ATOM     85  C   UNL A   1      37.766  20.859  25.190  1.00  0.00     0.022 A 
ATOM     86  C   UNL A   1      38.516  21.893  25.752  1.00  0.00     0.041 A 
ATOM     87  Cl  UNL A   1      40.155  21.616  26.194  1.00  0.00    -0.084 Cl
ENDBRANCH  78  81
ENDBRANCH  76  78
ENDBRANCH  75  76
ENDBRANCH  69  71
ENDBRANCH  68  69
ENDBRANCH  67  68
ENDBRANCH  66  67
ENDBRANCH  65  66
ENDBRANCH   1  65
TORSDOF 20
ENDMDL
MODEL 2
REMARK VINA RESULT:     -10.3      0.559      6.149
REMARK SMILES O=C(OCCOCCOCCOC(=O)[C@@H]1C=C[C@H](NS(=O)(=O)c2ccc(Cl)cc2)C1)c1ccc(-c2c3nc(c(-c4c(F)cccc4F)c4ccc([nH]4)c(-c4c(F)cccc4F)c4nc(c(-c5c(F)cccc5F)c5ccc2[nH]5)C=C4)C=C3)cc1
REMARK SMILES IDX 8 1 7 2 6 3 5 4 4 5 3 6 2 7 1 8 31 9 32 10 84 11 33 12 83 13
REMARK SMILES IDX 34 14 35 15 36 16 77 17 37 18 82 19 76 20 78 21 38 22 81 23
REMARK SMILES IDX 75 24 74 25 39 27 65 28 48 29 64 30 49 31 52 32 63 33 79 34
REMARK SMILES IDX 50 35 51 36 62 38 80 39 53 40 40 41 41 42 46 43 42 44 43 45
REMARK SMILES IDX 45 46 47 47 44 48 66 49 67 50 72 51 68 52 69 53 71 54 73 55
REMARK SMILES IDX 70 56 54 57 55 58 60 59 56 60 57 61 59 62 61 63 58 64 9 65
REMARK SMILES IDX 10 66 11 67 12 68 13 69 14 70 15 71 16 72 30 73 17 74 18 75
REMARK SMILES IDX 19 76 20 78 21 79 22 80 23 81 24 82 29 83 25 84 28 85 26 86
REMARK SMILES IDX 27 87
REMARK H PARENT 78 26 52 37 19 77
REMARK Flexibility Score: inf
ROOT
ATOM      1  C   UNL A   1      32.901  28.869  23.348  1.00  0.00     0.188 C 
ENDROOT
BRANCH   1   2
ATOM      2  C   UNL A   1      33.460  28.812  24.771  1.00  0.00     0.188 C 
BRANCH   2   3
ATOM      3  O   UNL A   1      32.432  29.061  25.733  1.00  0.00    -0.376 OA
BRANCH   3   4
ATOM      4  C   UNL A   1      31.493  30.070  25.345  1.00  0.00     0.202 C 
BRANCH   4   5
ATOM      5  C   UNL A   1      31.490  31.270  26.290  1.00  0.00     0.261 C 
BRANCH   5   6
ATOM      6  O   UNL A   1      32.578  31.101  27.204  1.00  0.00    -0.460 OA
BRANCH   6   7
ATOM      7  C   UNL A   1      33.254  32.228  27.531  1.00  0.00     0.338 C 
ATOM      8  O   UNL A   1      32.861  33.378  27.528  1.00  0.00    -0.246 OA
BRANCH   7   9
ATOM      9  C   UNL A   1      34.610  31.774  27.859  1.00  0.00     0.060 A 
ATOM     10  C   UNL A   1      34.805  30.411  28.110  1.00  0.00     0.016 A 
ATOM     11  C   UNL A   1      35.632  32.703  28.046  1.00  0.00     0.016 A 
ATOM     12  C   UNL A   1      35.986  29.987  28.679  1.00  0.00     0.010 A 
ATOM     13  C   UNL A   1      36.840  32.267  28.588  1.00  0.00     0.010 A 
ATOM     14  C   UNL A   1      36.995  30.918  28.942  1.00  0.00    -0.014 A 
BRANCH  14  15
ATOM     15  C   UNL A   1      38.170  30.446  29.689  1.00  0.00     0.031 A 
ATOM     16  C   UNL A   1      38.224  30.673  31.164  1.00  0.00     0.074 A 
ATOM     17  C   UNL A   1      39.094  29.723  29.038  1.00  0.00     0.049 A 
ATOM     18  N   UNL A   1      39.188  30.390  31.993  1.00  0.00    -0.248 NA
ATOM     19  C   UNL A   1      37.066  31.342  31.785  1.00  0.00     0.031 C 
ATOM     20  C   UNL A   1      39.074  29.458  27.601  1.00  0.00     0.029 A 
ATOM     21  N   UNL A   1      40.178  29.027  29.490  1.00  0.00    -0.354 N 
ATOM     22  C   UNL A   1      38.818  30.964  33.199  1.00  0.00     0.074 A 
ATOM     23  C   UNL A   1      37.497  31.524  33.025  1.00  0.00     0.031 C 
ATOM     24  C   UNL A   1      40.016  28.548  27.312  1.00  0.00     0.029 A 
ATOM     25  C   UNL A   1      40.758  28.235  28.525  1.00  0.00     0.049 A 
ATOM     26  H   UNL A   1      40.511  29.084  30.415  1.00  0.00     0.167 HD
ATOM     27  C   UNL A   1      39.575  31.070  34.314  1.00  0.00     0.037 A 
ATOM     28  C   UNL A   1      41.778  27.365  28.636  1.00  0.00     0.037 A 
ATOM     29  C   UNL A   1      40.871  30.456  34.435  1.00  0.00     0.049 A 
ATOM     30  C   UNL A   1      42.515  27.355  29.949  1.00  0.00     0.074 A 
ATOM     31  C   UNL A   1      41.777  30.528  35.474  1.00  0.00     0.029 A 
ATOM     32  N   UNL A   1      41.433  29.633  33.464  1.00  0.00    -0.354 N 
ATOM     33  N   UNL A   1      42.215  27.981  31.064  1.00  0.00    -0.248 NA
ATOM     34  C   UNL A   1      43.773  26.603  29.996  1.00  0.00     0.031 C 
ATOM     35  C   UNL A   1      42.902  29.775  35.117  1.00  0.00     0.029 A 
ATOM     36  C   UNL A   1      42.681  29.203  33.872  1.00  0.00     0.049 A 
ATOM     37  H   UNL A   1      41.004  29.392  32.612  1.00  0.00     0.167 HD
ATOM     38  C   UNL A   1      43.287  27.771  31.915  1.00  0.00     0.074 A 
ATOM     39  C   UNL A   1      44.191  26.870  31.225  1.00  0.00     0.031 C 
ATOM     40  C   UNL A   1      43.545  28.324  33.125  1.00  0.00     0.037 A 
BRANCH  27  41
ATOM     41  C   UNL A   1      39.084  31.986  35.392  1.00  0.00     0.057 A 
ATOM     42  C   UNL A   1      39.369  33.355  35.420  1.00  0.00     0.134 A 
ATOM     43  C   UNL A   1      38.326  31.462  36.449  1.00  0.00     0.134 A 
ATOM     44  F   UNL A   1      40.117  33.915  34.458  1.00  0.00    -0.206 F 
ATOM     45  C   UNL A   1      38.930  34.168  36.470  1.00  0.00     0.040 A 
ATOM     46  C   UNL A   1      37.866  32.266  37.493  1.00  0.00     0.040 A 
ATOM     47  F   UNL A   1      38.030  30.153  36.490  1.00  0.00    -0.206 F 
ATOM     48  C   UNL A   1      38.173  33.624  37.508  1.00  0.00     0.006 A 
ENDBRANCH  27  41
BRANCH  28  49
ATOM     49  C   UNL A   1      42.194  26.499  27.499  1.00  0.00     0.057 A 
ATOM     50  C   UNL A   1      43.098  26.970  26.537  1.00  0.00     0.134 A 
ATOM     51  C   UNL A   1      41.713  25.194  27.330  1.00  0.00     0.134 A 
ATOM     52  F   UNL A   1      43.589  28.215  26.624  1.00  0.00    -0.206 F 
ATOM     53  C   UNL A   1      43.498  26.184  25.452  1.00  0.00     0.040 A 
ATOM     54  C   UNL A   1      42.134  24.384  26.273  1.00  0.00     0.040 A 
ATOM     55  F   UNL A   1      40.838  24.674  28.202  1.00  0.00    -0.206 F 
ATOM     56  C   UNL A   1      43.022  24.882  25.324  1.00  0.00     0.006 A 
ENDBRANCH  28  49
BRANCH  40  57
ATOM     57  C   UNL A   1      44.888  28.025  33.712  1.00  0.00     0.057 A 
ATOM     58  C   UNL A   1      45.078  26.900  34.525  1.00  0.00     0.134 A 
ATOM     59  C   UNL A   1      45.997  28.827  33.428  1.00  0.00     0.134 A 
ATOM     60  F   UNL A   1      44.044  26.105  34.839  1.00  0.00    -0.206 F 
ATOM     61  C   UNL A   1      46.331  26.589  35.049  1.00  0.00     0.040 A 
ATOM     62  C   UNL A   1      47.259  28.513  33.931  1.00  0.00     0.040 A 
ATOM     63  F   UNL A   1      45.873  29.912  32.650  1.00  0.00    -0.206 F 
ATOM     64  C   UNL A   1      47.427  27.394  34.745  1.00  0.00     0.006 A 
ENDBRANCH  40  57
ENDBRANCH  14  15
ENDBRANCH   7   9
ENDBRANCH   6   7
ENDBRANCH   5   6
ENDBRANCH   4   5
ENDBRANCH   3   4
ENDBRANCH   2   3
ENDBRANCH   1   2
BRANCH   1  65
ATOM     65  O   UNL A   1      33.599  28.075  22.389  1.00  0.00    -0.376 OA
BRANCH  65  66
ATOM     66  C   UNL A   1      33.191  26.720  22.253  1.00  0.00     0.202 C 
BRANCH  66  67
ATOM     67  C   UNL A   1      31.743  26.458  21.845  1.00  0.00     0.261 C 
BRANCH  67  68
ATOM     68  O   UNL A   1      30.965  25.542  22.621  1.00  0.00    -0.463 OA
BRANCH  68  69
ATOM     69  C   UNL A   1      30.215  26.123  23.606  1.00  0.00     0.312 C 
ATOM     70  O   UNL A   1      29.551  27.142  23.467  1.00  0.00    -0.252 OA
BRANCH  69  71
ATOM     71  C   UNL A   1      30.271  25.307  24.888  1.00  0.00     0.123 C 
ATOM     72  C   UNL A   1      31.100  25.961  25.959  1.00  0.00    -0.015 C 
ATOM     73  C   UNL A   1      30.981  23.956  24.710  1.00  0.00     0.043 C 
ATOM     74  C   UNL A   1      32.196  25.256  26.262  1.00  0.00    -0.011 C 
ATOM     75  C   UNL A   1      32.323  24.022  25.432  1.00  0.00     0.093 C 
BRANCH  75  76
ATOM     76  N   UNL A   1      33.575  24.107  24.696  1.00  0.00    -0.204 NA
ATOM     77  H   UNL A   1      34.257  24.394  25.399  1.00  0.00     0.142 HD
BRANCH  76  78
ATOM     78  S   UNL A   1      34.378  22.958  23.802  1.00  0.00     0.241 S 
ATOM     79  O   UNL A   1      33.553  21.774  23.884  1.00  0.00    -0.207 OA
ATOM     80  O   UNL A   1      34.764  23.515  22.527  1.00  0.00    -0.207 OA
BRANCH  78  81
ATOM     81  C   UNL A   1      35.857  22.582  24.703  1.00  0.00     0.082 A 
ATOM     82  C   UNL A   1      36.596  23.581  25.338  1.00  0.00     0.023 A 
ATOM     83  C   UNL A   1      36.317  21.260  24.692  1.00  0.00     0.023 A 
ATOM     84  C   UNL A   1      37.857  23.281  25.860  1.00  0.00     0.022 A 
ATOM     85  C   UNL A   1      37.570  20.960  25.238  1.00  0.00     0.022 A 
ATOM     86  C   UNL A   1      38.351  21.980  25.782  1.00  0.00     0.041 A 
ATOM     87  Cl  UNL A   1      39.952  21.640  26.310  1.00  0.00    -0.084 Cl
ENDBRANCH  78  81
ENDBRANCH  76  78
ENDBRANCH  75  76
ENDBRANCH  69  71
ENDBRANCH  68  69
ENDBRANCH  67  68
ENDBRANCH  66  67
ENDBRANCH  65  66
ENDBRANCH   1  65
TORSDOF 20
ENDMDL
MODEL 3
REMARK VINA RESULT:     -10.2      4.123      6.459
REMARK SMILES O=C(OCCOCCOCCOC(=O)[C@@H]1C=C[C@H](NS(=O)(=O)c2ccc(Cl)cc2)C1)c1ccc(-c2c3nc(c(-c4c(F)cccc4F)c4ccc([nH]4)c(-c4c(F)cccc4F)c4nc(c(-c5c(F)cccc5F)c5ccc2[nH]5)C=C4)C=C3)cc1
REMARK SMILES IDX 8 1 7 2 6 3 5 4 4 5 3 6 2 7 1 8 31 9 32 10 84 11 33 12 83 13
REMARK SMILES IDX 34 14 35 15 36 16 77 17 37 18 82 19 76 20 78 21 38 22 81 23
REMARK SMILES IDX 75 24 74 25 39 27 65 28 48 29 64 30 49 31 52 32 63 33 79 34
REMARK SMILES IDX 50 35 51 36 62 38 80 39 53 40 40 41 41 42 46 43 42 44 43 45
REMARK SMILES IDX 45 46 47 47 44 48 66 49 67 50 72 51 68 52 69 53 71 54 73 55
REMARK SMILES IDX 70 56 54 57 55 58 60 59 56 60 57 61 59 62 61 63 58 64 9 65
REMARK SMILES IDX 10 66 11 67 12 68 13 69 14 70 15 71 16 72 30 73 17 74 18 75
REMARK SMILES IDX 19 76 20 78 21 79 22 80 23 81 24 82 29 83 25 84 28 85 26 86
REMARK SMILES IDX 27 87
REMARK H PARENT 78 26 52 37 19 77
REMARK Flexibility Score: inf
ROOT
ATOM      1  C   UNL A   1      31.754  29.612  26.581  1.00  0.00     0.188 C 
ENDROOT
BRANCH   1   2
ATOM      2  C   UNL A   1      32.406  30.981  26.783  1.00  0.00     0.188 C 
BRANCH   2   3
ATOM      3  O   UNL A   1      33.579  30.872  27.593  1.00  0.00    -0.376 OA
BRANCH   3   4
ATOM      4  C   UNL A   1      34.012  32.108  28.172  1.00  0.00     0.202 C 
BRANCH   4   5
ATOM      5  C   UNL A   1      35.168  31.928  29.153  1.00  0.00     0.261 C 
BRANCH   5   6
ATOM      6  O   UNL A   1      35.644  30.586  29.019  1.00  0.00    -0.460 OA
BRANCH   6   7
ATOM      7  C   UNL A   1      36.302  30.082  30.089  1.00  0.00     0.338 C 
ATOM      8  O   UNL A   1      36.026  30.186  31.269  1.00  0.00    -0.246 OA
BRANCH   7   9
ATOM      9  C   UNL A   1      37.473  29.400  29.528  1.00  0.00     0.060 A 
ATOM     10  C   UNL A   1      38.241  28.599  30.382  1.00  0.00     0.016 A 
ATOM     11  C   UNL A   1      37.873  29.660  28.219  1.00  0.00     0.016 A 
ATOM     12  C   UNL A   1      39.483  28.164  29.973  1.00  0.00     0.010 A 
ATOM     13  C   UNL A   1      39.114  29.189  27.794  1.00  0.00     0.010 A 
ATOM     14  C   UNL A   1      39.931  28.481  28.687  1.00  0.00    -0.014 A 
BRANCH  14  15
ATOM     15  C   UNL A   1      41.319  28.130  28.353  1.00  0.00     0.031 A 
ATOM     16  C   UNL A   1      41.602  26.784  27.773  1.00  0.00     0.074 A 
ATOM     17  C   UNL A   1      42.265  29.076  28.472  1.00  0.00     0.049 A 
ATOM     18  N   UNL A   1      42.754  26.259  27.466  1.00  0.00    -0.248 NA
ATOM     19  C   UNL A   1      40.450  25.894  27.544  1.00  0.00     0.031 C 
ATOM     20  C   UNL A   1      42.032  30.412  29.016  1.00  0.00     0.029 A 
ATOM     21  N   UNL A   1      43.575  29.095  28.089  1.00  0.00    -0.354 N 
ATOM     22  C   UNL A   1      42.483  24.939  27.141  1.00  0.00     0.074 A 
ATOM     23  C   UNL A   1      41.050  24.767  27.188  1.00  0.00     0.031 C 
ATOM     24  C   UNL A   1      43.123  31.164  28.807  1.00  0.00     0.029 A 
ATOM     25  C   UNL A   1      44.155  30.338  28.195  1.00  0.00     0.049 A 
ATOM     26  H   UNL A   1      44.056  28.299  27.767  1.00  0.00     0.167 HD
ATOM     27  C   UNL A   1      43.385  23.958  26.909  1.00  0.00     0.037 A 
ATOM     28  C   UNL A   1      45.388  30.737  27.834  1.00  0.00     0.037 A 
ATOM     29  C   UNL A   1      44.800  24.205  26.840  1.00  0.00     0.049 A 
ATOM     30  C   UNL A   1      46.345  29.659  27.401  1.00  0.00     0.074 A 
ATOM     31  C   UNL A   1      45.836  23.306  26.676  1.00  0.00     0.029 A 
ATOM     32  N   UNL A   1      45.373  25.471  26.918  1.00  0.00    -0.354 N 
ATOM     33  N   UNL A   1      46.106  28.385  27.189  1.00  0.00    -0.248 NA
ATOM     34  C   UNL A   1      47.752  30.044  27.251  1.00  0.00     0.031 C 
ATOM     35  C   UNL A   1      47.037  24.025  26.688  1.00  0.00     0.029 A 
ATOM     36  C   UNL A   1      46.748  25.376  26.823  1.00  0.00     0.049 A 
ATOM     37  H   UNL A   1      44.871  26.311  27.027  1.00  0.00     0.167 HD
ATOM     38  C   UNL A   1      47.341  27.801  26.967  1.00  0.00     0.074 A 
ATOM     39  C   UNL A   1      48.313  28.878  26.961  1.00  0.00     0.031 C 
ATOM     40  C   UNL A   1      47.664  26.489  26.850  1.00  0.00     0.037 A 
BRANCH  27  41
ATOM     41  C   UNL A   1      42.873  22.552  26.872  1.00  0.00     0.057 A 
ATOM     42  C   UNL A   1      42.446  21.863  28.012  1.00  0.00     0.134 A 
ATOM     43  C   UNL A   1      42.841  21.863  25.651  1.00  0.00     0.134 A 
ATOM     44  F   UNL A   1      42.483  22.451  29.216  1.00  0.00    -0.206 F 
ATOM     45  C   UNL A   1      42.019  20.533  27.941  1.00  0.00     0.040 A 
ATOM     46  C   UNL A   1      42.398  20.542  25.563  1.00  0.00     0.040 A 
ATOM     47  F   UNL A   1      43.251  22.461  24.521  1.00  0.00    -0.206 F 
ATOM     48  C   UNL A   1      41.991  19.871  26.713  1.00  0.00     0.006 A 
ENDBRANCH  27  41
BRANCH  28  49
ATOM     49  C   UNL A   1      45.803  32.165  27.913  1.00  0.00     0.057 A 
ATOM     50  C   UNL A   1      46.495  32.645  29.034  1.00  0.00     0.134 A 
ATOM     51  C   UNL A   1      45.528  33.088  26.897  1.00  0.00     0.134 A 
ATOM     52  F   UNL A   1      46.780  31.823  30.055  1.00  0.00    -0.206 F 
ATOM     53  C   UNL A   1      46.887  33.982  29.144  1.00  0.00     0.040 A 
ATOM     54  C   UNL A   1      45.947  34.418  26.975  1.00  0.00     0.040 A 
ATOM     55  F   UNL A   1      44.861  32.709  25.798  1.00  0.00    -0.206 F 
ATOM     56  C   UNL A   1      46.621  34.871  28.105  1.00  0.00     0.006 A 
ENDBRANCH  28  49
BRANCH  40  57
ATOM     57  C   UNL A   1      49.124  26.173  26.795  1.00  0.00     0.057 A 
ATOM     58  C   UNL A   1      49.808  26.164  25.571  1.00  0.00     0.134 A 
ATOM     59  C   UNL A   1      49.856  25.927  27.959  1.00  0.00     0.134 A 
ATOM     60  F   UNL A   1      49.150  26.381  24.423  1.00  0.00    -0.206 F 
ATOM     61  C   UNL A   1      51.176  25.907  25.509  1.00  0.00     0.040 A 
ATOM     62  C   UNL A   1      51.229  25.689  27.910  1.00  0.00     0.040 A 
ATOM     63  F   UNL A   1      49.253  25.930  29.157  1.00  0.00    -0.206 F 
ATOM     64  C   UNL A   1      51.891  25.676  26.682  1.00  0.00     0.006 A 
ENDBRANCH  40  57
ENDBRANCH  14  15
ENDBRANCH   7   9
ENDBRANCH   6   7
ENDBRANCH   5   6
ENDBRANCH   4   5
ENDBRANCH   3   4
ENDBRANCH   2   3
ENDBRANCH   1   2
BRANCH   1  65
ATOM     65  O   UNL A   1      32.487  28.706  25.757  1.00  0.00    -0.376 OA
BRANCH  65  66
ATOM     66  C   UNL A   1      32.965  29.204  24.515  1.00  0.00     0.202 C 
BRANCH  66  67
ATOM     67  C   UNL A   1      32.255  28.734  23.247  1.00  0.00     0.261 C 
BRANCH  67  68
ATOM     68  O   UNL A   1      30.923  28.222  23.353  1.00  0.00    -0.463 OA
BRANCH  68  69
ATOM     69  C   UNL A   1      30.723  27.022  22.728  1.00  0.00     0.312 C 
ATOM     70  O   UNL A   1      31.164  26.728  21.625  1.00  0.00    -0.252 OA
BRANCH  69  71
ATOM     71  C   UNL A   1      29.922  26.075  23.610  1.00  0.00     0.123 C 
ATOM     72  C   UNL A   1      30.199  26.271  25.075  1.00  0.00    -0.015 C 
ATOM     73  C   UNL A   1      30.298  24.600  23.404  1.00  0.00     0.043 C 
ATOM     74  C   UNL A   1      30.788  25.207  25.632  1.00  0.00    -0.011 C 
ATOM     75  C   UNL A   1      31.047  24.120  24.643  1.00  0.00     0.093 C 
BRANCH  75  76
ATOM     76  N   UNL A   1      32.481  23.876  24.613  1.00  0.00    -0.204 NA
ATOM     77  H   UNL A   1      32.721  23.692  25.588  1.00  0.00     0.142 HD
BRANCH  76  78
ATOM     78  S   UNL A   1      33.364  22.753  23.763  1.00  0.00     0.241 S 
ATOM     79  O   UNL A   1      32.654  21.505  23.938  1.00  0.00    -0.207 OA
ATOM     80  O   UNL A   1      33.664  23.265  22.446  1.00  0.00    -0.207 OA
BRANCH  78  81
ATOM     81  C   UNL A   1      34.894  22.568  24.638  1.00  0.00     0.082 A 
ATOM     82  C   UNL A   1      35.510  23.652  25.264  1.00  0.00     0.023 A 
ATOM     83  C   UNL A   1      35.519  21.316  24.615  1.00  0.00     0.023 A 
ATOM     84  C   UNL A   1      36.808  23.516  25.764  1.00  0.00     0.022 A 
ATOM     85  C   UNL A   1      36.809  21.177  25.138  1.00  0.00     0.022 A 
ATOM     86  C   UNL A   1      37.462  22.289  25.672  1.00  0.00     0.041 A 
ATOM     87  Cl  UNL A   1      39.103  22.156  26.173  1.00  0.00    -0.084 Cl
ENDBRANCH  78  81
ENDBRANCH  76  78
ENDBRANCH  75  76
ENDBRANCH  69  71
ENDBRANCH  68  69
ENDBRANCH  67  68
ENDBRANCH  66  67
ENDBRANCH  65  66
ENDBRANCH   1  65
TORSDOF 20
ENDMDL
