MODEL 1
REMARK VINA RESULT:     -11.6      0.000      0.000
REMARK SMILES O=C(Nc1ccccc1)N[C@H]1C[C@@H](C(=O)OCCOCCOCCOC(=O)c2ccc(-c3c4nc(c(-c5c(F)cccc5F)c5ccc([nH]5)c(-c5c(F)cccc5F)c5nc(c(-c6c(F)cccc6F)c6ccc3[nH]6)C=C5)C=C4)cc2)Nc2cc(Cl)cc(Cl)c21
REMARK SMILES IDX 20 1 19 2 18 3 17 4 16 5 14 6 15 7 13 8 11 9 12 10 90 11
REMARK SMILES IDX 83 12 88 13 82 14 84 15 87 16 89 17 85 19 86 20 10 21 1 22
REMARK SMILES IDX 2 23 3 24 4 27 5 28 9 29 6 30 8 31 7 32 21 33 22 34 23 35
REMARK SMILES IDX 24 36 25 37 26 38 27 39 28 40 29 41 81 42 30 43 80 44 31 45
REMARK SMILES IDX 32 46 33 47 74 48 34 49 79 50 73 51 75 52 35 53 78 54 72 55
REMARK SMILES IDX 71 56 36 58 62 59 45 60 61 61 46 62 49 63 60 64 76 65 47 66
REMARK SMILES IDX 48 67 59 69 77 70 50 71 37 72 38 73 43 74 39 75 40 76 42 77
REMARK SMILES IDX 44 78 41 79 63 80 64 81 69 82 65 83 66 84 68 85 70 86 67 87
REMARK SMILES IDX 51 88 52 89 57 90 53 91 54 92 56 93 58 94 55 95
REMARK H PARENT 82 18 3 25 10 26 75 57 49 68
REMARK Flexibility Score: inf
ROOT
ATOM      1  C   UNL A   1      42.615  19.034  26.340  1.00  0.00     0.188 C 
ENDROOT
BRANCH   1   2
ATOM      2  O   UNL A   1      41.494  19.807  25.971  1.00  0.00    -0.376 OA
BRANCH   2   3
ATOM      3  C   UNL A   1      41.097  20.895  26.798  1.00  0.00     0.202 C 
BRANCH   3   4
ATOM      4  C   UNL A   1      39.986  21.883  26.396  1.00  0.00     0.261 C 
BRANCH   4   5
ATOM      5  O   UNL A   1      38.833  21.305  25.751  1.00  0.00    -0.462 OA
BRANCH   5   6
ATOM      6  C   UNL A   1      37.795  22.192  25.592  1.00  0.00     0.328 C 
ATOM      7  O   UNL A   1      37.809  23.342  26.023  1.00  0.00    -0.250 OA
BRANCH   6   8
ATOM      8  C   UNL A   1      36.656  21.643  24.705  1.00  0.00     0.192 C 
ATOM      9  C   UNL A   1      34.449  22.578  23.667  1.00  0.00     0.120 C 
ATOM     10  C   UNL A   1      35.983  22.704  23.835  1.00  0.00     0.067 C 
ATOM     11  C   UNL A   1      33.911  21.181  23.943  1.00  0.00     0.016 A 
ATOM     12  C   UNL A   1      34.570  20.410  24.910  1.00  0.00     0.043 A 
ATOM     13  C   UNL A   1      32.740  20.657  23.360  1.00  0.00     0.049 A 
ATOM     14  N   UNL A   1      35.708  20.902  25.534  1.00  0.00    -0.372 N 
ATOM     15  C   UNL A   1      34.012  19.208  25.362  1.00  0.00     0.046 A 
ATOM     16  C   UNL A   1      32.202  19.441  23.794  1.00  0.00     0.041 A 
ATOM     17  Cl  UNL A   1      31.904  21.443  22.072  1.00  0.00    -0.084 Cl
ATOM     18  H   UNL A   1      35.868  20.760  26.495  1.00  0.00     0.161 HD
ATOM     19  C   UNL A   1      32.831  18.730  24.806  1.00  0.00     0.044 A 
ATOM     20  Cl  UNL A   1      32.147  17.261  25.379  1.00  0.00    -0.084 Cl
BRANCH   9  21
ATOM     21  N   UNL A   1      33.740  23.561  24.497  1.00  0.00    -0.331 N 
ATOM     22  O   UNL A   1      32.830  24.738  22.751  1.00  0.00    -0.248 OA
ATOM     23  C   UNL A   1      32.913  24.515  23.952  1.00  0.00     0.319 C 
ATOM     24  N   UNL A   1      32.014  25.043  24.837  1.00  0.00    -0.308 N 
ATOM     25  H   UNL A   1      31.128  24.615  24.866  1.00  0.00     0.171 HD
ATOM     26  H   UNL A   1      33.858  23.534  25.474  1.00  0.00     0.166 HD
BRANCH  24  27
ATOM     27  C   UNL A   1      32.212  26.126  25.709  1.00  0.00     0.042 A 
ATOM     28  C   UNL A   1      33.491  26.699  25.755  1.00  0.00     0.026 A 
ATOM     29  C   UNL A   1      31.197  26.665  26.497  1.00  0.00     0.026 A 
ATOM     30  C   UNL A   1      33.731  27.854  26.504  1.00  0.00     0.002 A 
ATOM     31  C   UNL A   1      31.440  27.817  27.257  1.00  0.00     0.002 A 
ATOM     32  C   UNL A   1      32.696  28.425  27.241  1.00  0.00     0.000 A 
ENDBRANCH  24  27
ENDBRANCH   9  21
ENDBRANCH   6   8
ENDBRANCH   5   6
ENDBRANCH   4   5
ENDBRANCH   3   4
ENDBRANCH   2   3
ENDBRANCH   1   2
BRANCH   1  33
ATOM     33  C   UNL A   1      43.746  19.138  25.322  1.00  0.00     0.188 C 
BRANCH  33  34
ATOM     34  O   UNL A   1      43.956  20.375  24.640  1.00  0.00    -0.376 OA
BRANCH  34  35
ATOM     35  C   UNL A   1      45.078  21.134  25.103  1.00  0.00     0.202 C 
BRANCH  35  36
ATOM     36  C   UNL A   1      44.861  22.203  26.194  1.00  0.00     0.261 C 
BRANCH  36  37
ATOM     37  O   UNL A   1      44.719  23.547  25.730  1.00  0.00    -0.460 OA
BRANCH  37  38
ATOM     38  C   UNL A   1      43.445  23.966  25.551  1.00  0.00     0.338 C 
ATOM     39  O   UNL A   1      42.577  23.484  24.832  1.00  0.00    -0.246 OA
BRANCH  38  40
ATOM     40  C   UNL A   1      43.145  24.964  26.579  1.00  0.00     0.060 A 
ATOM     41  C   UNL A   1      42.191  24.619  27.548  1.00  0.00     0.016 A 
ATOM     42  C   UNL A   1      43.836  26.173  26.640  1.00  0.00     0.016 A 
ATOM     43  C   UNL A   1      41.946  25.473  28.614  1.00  0.00     0.010 A 
ATOM     44  C   UNL A   1      43.549  27.053  27.680  1.00  0.00     0.010 A 
ATOM     45  C   UNL A   1      42.604  26.705  28.663  1.00  0.00    -0.014 A 
BRANCH  45  46
ATOM     46  C   UNL A   1      42.188  27.729  29.639  1.00  0.00     0.031 A 
ATOM     47  C   UNL A   1      42.906  27.765  30.952  1.00  0.00     0.074 A 
ATOM     48  C   UNL A   1      41.162  28.552  29.375  1.00  0.00     0.049 A 
ATOM     49  N   UNL A   1      42.589  28.387  32.054  1.00  0.00    -0.248 NA
ATOM     50  C   UNL A   1      44.144  26.972  31.035  1.00  0.00     0.031 C 
ATOM     51  C   UNL A   1      40.451  28.639  28.100  1.00  0.00     0.029 A 
ATOM     52  N   UNL A   1      40.520  29.451  30.184  1.00  0.00    -0.354 N 
ATOM     53  C   UNL A   1      43.572  28.040  32.971  1.00  0.00     0.074 A 
ATOM     54  C   UNL A   1      44.489  27.146  32.301  1.00  0.00     0.031 C 
ATOM     55  C   UNL A   1      39.442  29.519  28.226  1.00  0.00     0.029 A 
ATOM     56  C   UNL A   1      39.409  30.011  29.601  1.00  0.00     0.049 A 
ATOM     57  H   UNL A   1      40.824  29.675  31.094  1.00  0.00     0.167 HD
ATOM     58  C   UNL A   1      43.686  28.431  34.261  1.00  0.00     0.037 A 
ATOM     59  C   UNL A   1      38.455  30.791  30.142  1.00  0.00     0.037 A 
ATOM     60  C   UNL A   1      42.751  29.314  34.904  1.00  0.00     0.049 A 
ATOM     61  C   UNL A   1      38.557  31.150  31.602  1.00  0.00     0.074 A 
ATOM     62  C   UNL A   1      42.755  29.778  36.206  1.00  0.00     0.029 A 
ATOM     63  N   UNL A   1      41.637  29.863  34.283  1.00  0.00    -0.354 N 
ATOM     64  N   UNL A   1      39.475  30.808  32.476  1.00  0.00    -0.248 NA
ATOM     65  C   UNL A   1      37.489  31.995  32.154  1.00  0.00     0.031 C 
ATOM     66  C   UNL A   1      41.618  30.572  36.385  1.00  0.00     0.029 A 
ATOM     67  C   UNL A   1      40.935  30.648  35.180  1.00  0.00     0.049 A 
ATOM     68  H   UNL A   1      41.384  29.717  33.343  1.00  0.00     0.167 HD
ATOM     69  C   UNL A   1      39.115  31.422  33.670  1.00  0.00     0.074 A 
ATOM     70  C   UNL A   1      37.898  32.162  33.403  1.00  0.00     0.031 C 
ATOM     71  C   UNL A   1      39.733  31.384  34.876  1.00  0.00     0.037 A 
BRANCH  58  72
ATOM     72  C   UNL A   1      44.826  27.864  35.054  1.00  0.00     0.057 A 
ATOM     73  C   UNL A   1      44.715  26.658  35.759  1.00  0.00     0.134 A 
ATOM     74  C   UNL A   1      46.051  28.538  35.118  1.00  0.00     0.134 A 
ATOM     75  F   UNL A   1      43.562  25.974  35.761  1.00  0.00    -0.206 F 
ATOM     76  C   UNL A   1      45.775  26.157  36.519  1.00  0.00     0.040 A 
ATOM     77  C   UNL A   1      47.127  28.032  35.850  1.00  0.00     0.040 A 
ATOM     78  F   UNL A   1      46.225  29.700  34.470  1.00  0.00    -0.206 F 
ATOM     79  C   UNL A   1      46.987  26.842  36.560  1.00  0.00     0.006 A 
ENDBRANCH  58  72
BRANCH  59  80
ATOM     80  C   UNL A   1      37.311  31.257  29.316  1.00  0.00     0.057 A 
ATOM     81  C   UNL A   1      36.227  30.416  29.044  1.00  0.00     0.134 A 
ATOM     82  C   UNL A   1      37.275  32.548  28.773  1.00  0.00     0.134 A 
ATOM     83  F   UNL A   1      36.212  29.161  29.515  1.00  0.00    -0.206 F 
ATOM     84  C   UNL A   1      35.156  30.833  28.250  1.00  0.00     0.040 A 
ATOM     85  C   UNL A   1      36.198  32.988  27.999  1.00  0.00     0.040 A 
ATOM     86  F   UNL A   1      38.281  33.406  28.995  1.00  0.00    -0.206 F 
ATOM     87  C   UNL A   1      35.137  32.126  27.731  1.00  0.00     0.006 A 
ENDBRANCH  59  80
BRANCH  71  88
ATOM     88  C   UNL A   1      39.134  32.205  35.979  1.00  0.00     0.057 A 
ATOM     89  C   UNL A   1      38.204  31.673  36.880  1.00  0.00     0.134 A 
ATOM     90  C   UNL A   1      39.536  33.534  36.169  1.00  0.00     0.134 A 
ATOM     91  F   UNL A   1      37.770  30.411  36.745  1.00  0.00    -0.206 F 
ATOM     92  C   UNL A   1      37.679  32.443  37.921  1.00  0.00     0.040 A 
ATOM     93  C   UNL A   1      39.041  34.303  37.221  1.00  0.00     0.040 A 
ATOM     94  F   UNL A   1      40.433  34.098  35.346  1.00  0.00    -0.206 F 
ATOM     95  C   UNL A   1      38.104  33.759  38.098  1.00  0.00     0.006 A 
ENDBRANCH  71  88
ENDBRANCH  45  46
ENDBRANCH  38  40
ENDBRANCH  37  38
ENDBRANCH  36  37
ENDBRANCH  35  36
ENDBRANCH  34  35
ENDBRANCH  33  34
ENDBRANCH   1  33
TORSDOF 19
ENDMDL
MODEL 2
REMARK VINA RESULT:     -11.3      0.591      5.958
REMARK SMILES O=C(Nc1ccccc1)N[C@H]1C[C@@H](C(=O)OCCOCCOCCOC(=O)c2ccc(-c3c4nc(c(-c5c(F)cccc5F)c5ccc([nH]5)c(-c5c(F)cccc5F)c5nc(c(-c6c(F)cccc6F)c6ccc3[nH]6)C=C5)C=C4)cc2)Nc2cc(Cl)cc(Cl)c21
REMARK SMILES IDX 20 1 19 2 18 3 17 4 16 5 14 6 15 7 13 8 11 9 12 10 90 11
REMARK SMILES IDX 83 12 88 13 82 14 84 15 87 16 89 17 85 19 86 20 10 21 1 22
REMARK SMILES IDX 2 23 3 24 4 27 5 28 9 29 6 30 8 31 7 32 21 33 22 34 23 35
REMARK SMILES IDX 24 36 25 37 26 38 27 39 28 40 29 41 81 42 30 43 80 44 31 45
REMARK SMILES IDX 32 46 33 47 74 48 34 49 79 50 73 51 75 52 35 53 78 54 72 55
REMARK SMILES IDX 71 56 36 58 62 59 45 60 61 61 46 62 49 63 60 64 76 65 47 66
REMARK SMILES IDX 48 67 59 69 77 70 50 71 37 72 38 73 43 74 39 75 40 76 42 77
REMARK SMILES IDX 44 78 41 79 63 80 64 81 69 82 65 83 66 84 68 85 70 86 67 87
REMARK SMILES IDX 51 88 52 89 57 90 53 91 54 92 56 93 58 94 55 95
REMARK H PARENT 82 18 3 25 10 26 75 57 49 68
REMARK Flexibility Score: inf
ROOT
ATOM      1  C   UNL A   1      42.949  19.839  26.368  1.00  0.00     0.188 C 
ENDROOT
BRANCH   1   2
ATOM      2  O   UNL A   1      41.634  20.320  26.190  1.00  0.00    -0.376 OA
BRANCH   2   3
ATOM      3  C   UNL A   1      41.100  21.247  27.128  1.00  0.00     0.202 C 
BRANCH   3   4
ATOM      4  C   UNL A   1      39.958  22.219  26.778  1.00  0.00     0.261 C 
BRANCH   4   5
ATOM      5  O   UNL A   1      38.880  21.667  25.995  1.00  0.00    -0.462 OA
BRANCH   5   6
ATOM      6  C   UNL A   1      37.868  22.566  25.752  1.00  0.00     0.328 C 
ATOM      7  O   UNL A   1      37.882  23.730  26.141  1.00  0.00    -0.250 OA
BRANCH   6   8
ATOM      8  C   UNL A   1      36.765  22.004  24.828  1.00  0.00     0.192 C 
ATOM      9  C   UNL A   1      34.614  22.930  23.670  1.00  0.00     0.120 C 
ATOM     10  C   UNL A   1      36.139  23.049  23.904  1.00  0.00     0.067 C 
ATOM     11  C   UNL A   1      34.053  21.544  23.955  1.00  0.00     0.016 A 
ATOM     12  C   UNL A   1      34.661  20.791  24.969  1.00  0.00     0.043 A 
ATOM     13  C   UNL A   1      32.905  21.015  23.333  1.00  0.00     0.049 A 
ATOM     14  N   UNL A   1      35.775  21.290  25.631  1.00  0.00    -0.372 N 
ATOM     15  C   UNL A   1      34.074  19.604  25.423  1.00  0.00     0.046 A 
ATOM     16  C   UNL A   1      32.338  19.813  23.771  1.00  0.00     0.041 A 
ATOM     17  Cl  UNL A   1      32.133  21.776  21.991  1.00  0.00    -0.084 Cl
ATOM     18  H   UNL A   1      35.891  21.170  26.601  1.00  0.00     0.161 HD
ATOM     19  C   UNL A   1      32.915  19.122  24.826  1.00  0.00     0.044 A 
ATOM     20  Cl  UNL A   1      32.195  17.672  25.402  1.00  0.00    -0.084 Cl
BRANCH   9  21
ATOM     21  N   UNL A   1      33.876  23.938  24.445  1.00  0.00    -0.331 N 
ATOM     22  O   UNL A   1      33.165  25.157  22.637  1.00  0.00    -0.248 OA
ATOM     23  C   UNL A   1      33.137  24.926  23.840  1.00  0.00     0.319 C 
ATOM     24  N   UNL A   1      32.188  25.486  24.649  1.00  0.00    -0.308 N 
ATOM     25  H   UNL A   1      31.286  25.094  24.600  1.00  0.00     0.171 HD
ATOM     26  H   UNL A   1      33.911  23.902  25.429  1.00  0.00     0.166 HD
BRANCH  24  27
ATOM     27  C   UNL A   1      32.354  26.557  25.542  1.00  0.00     0.042 A 
ATOM     28  C   UNL A   1      31.271  26.887  26.370  1.00  0.00     0.026 A 
ATOM     29  C   UNL A   1      33.542  27.277  25.657  1.00  0.00     0.026 A 
ATOM     30  C   UNL A   1      31.403  27.858  27.366  1.00  0.00     0.002 A 
ATOM     31  C   UNL A   1      33.670  28.258  26.650  1.00  0.00     0.002 A 
ATOM     32  C   UNL A   1      32.613  28.531  27.519  1.00  0.00     0.000 A 
ENDBRANCH  24  27
ENDBRANCH   9  21
ENDBRANCH   6   8
ENDBRANCH   5   6
ENDBRANCH   4   5
ENDBRANCH   3   4
ENDBRANCH   2   3
ENDBRANCH   1   2
BRANCH   1  33
ATOM     33  C   UNL A   1      43.582  19.396  25.053  1.00  0.00     0.188 C 
BRANCH  33  34
ATOM     34  O   UNL A   1      44.259  20.362  24.248  1.00  0.00    -0.376 OA
BRANCH  34  35
ATOM     35  C   UNL A   1      44.605  21.574  24.926  1.00  0.00     0.202 C 
BRANCH  35  36
ATOM     36  C   UNL A   1      44.276  22.926  24.260  1.00  0.00     0.261 C 
BRANCH  36  37
ATOM     37  O   UNL A   1      43.579  23.869  25.077  1.00  0.00    -0.460 OA
BRANCH  37  38
ATOM     38  C   UNL A   1      44.261  25.002  25.363  1.00  0.00     0.338 C 
ATOM     39  O   UNL A   1      45.115  25.569  24.693  1.00  0.00    -0.246 OA
BRANCH  38  40
ATOM     40  C   UNL A   1      43.625  25.636  26.519  1.00  0.00     0.060 A 
ATOM     41  C   UNL A   1      44.080  26.914  26.881  1.00  0.00     0.016 A 
ATOM     42  C   UNL A   1      42.559  25.032  27.183  1.00  0.00     0.016 A 
ATOM     43  C   UNL A   1      43.441  27.615  27.893  1.00  0.00     0.010 A 
ATOM     44  C   UNL A   1      41.955  25.714  28.235  1.00  0.00     0.010 A 
ATOM     45  C   UNL A   1      42.397  27.003  28.591  1.00  0.00    -0.014 A 
BRANCH  45  46
ATOM     46  C   UNL A   1      41.867  27.618  29.821  1.00  0.00     0.031 A 
ATOM     47  C   UNL A   1      40.659  28.493  29.692  1.00  0.00     0.074 A 
ATOM     48  C   UNL A   1      42.487  27.445  30.998  1.00  0.00     0.049 A 
ATOM     49  N   UNL A   1      40.143  29.330  30.550  1.00  0.00    -0.248 NA
ATOM     50  C   UNL A   1      39.946  28.425  28.405  1.00  0.00     0.031 C 
ATOM     51  C   UNL A   1      43.623  26.557  31.235  1.00  0.00     0.029 A 
ATOM     52  N   UNL A   1      42.262  28.041  32.211  1.00  0.00    -0.354 N 
ATOM     53  C   UNL A   1      39.063  29.909  29.899  1.00  0.00     0.074 A 
ATOM     54  C   UNL A   1      39.002  29.337  28.573  1.00  0.00     0.031 C 
ATOM     55  C   UNL A   1      44.023  26.695  32.512  1.00  0.00     0.029 A 
ATOM     56  C   UNL A   1      43.203  27.716  33.158  1.00  0.00     0.049 A 
ATOM     57  H   UNL A   1      41.502  28.641  32.388  1.00  0.00     0.167 HD
ATOM     58  C   UNL A   1      38.207  30.844  30.372  1.00  0.00     0.037 A 
ATOM     59  C   UNL A   1      43.399  28.231  34.387  1.00  0.00     0.037 A 
ATOM     60  C   UNL A   1      38.299  31.402  31.694  1.00  0.00     0.049 A 
ATOM     61  C   UNL A   1      42.484  29.328  34.865  1.00  0.00     0.074 A 
ATOM     62  C   UNL A   1      37.496  32.358  32.287  1.00  0.00     0.029 A 
ATOM     63  N   UNL A   1      39.265  31.050  32.628  1.00  0.00    -0.354 N 
ATOM     64  N   UNL A   1      41.472  29.891  34.246  1.00  0.00    -0.248 NA
ATOM     65  C   UNL A   1      42.739  29.867  36.208  1.00  0.00     0.031 C 
ATOM     66  C   UNL A   1      38.004  32.618  33.564  1.00  0.00     0.029 A 
ATOM     67  C   UNL A   1      39.089  31.784  33.787  1.00  0.00     0.049 A 
ATOM     68  H   UNL A   1      39.970  30.378  32.486  1.00  0.00     0.167 HD
ATOM     69  C   UNL A   1      40.951  30.825  35.133  1.00  0.00     0.074 A 
ATOM     70  C   UNL A   1      41.755  30.747  36.335  1.00  0.00     0.031 C 
ATOM     71  C   UNL A   1      39.902  31.669  34.973  1.00  0.00     0.037 A 
BRANCH  58  72
ATOM     72  C   UNL A   1      37.146  31.342  29.437  1.00  0.00     0.057 A 
ATOM     73  C   UNL A   1      36.028  30.567  29.098  1.00  0.00     0.134 A 
ATOM     74  C   UNL A   1      37.245  32.616  28.863  1.00  0.00     0.134 A 
ATOM     75  F   UNL A   1      35.883  29.329  29.593  1.00  0.00    -0.206 F 
ATOM     76  C   UNL A   1      35.063  31.032  28.203  1.00  0.00     0.040 A 
ATOM     77  C   UNL A   1      36.271  33.102  27.989  1.00  0.00     0.040 A 
ATOM     78  F   UNL A   1      38.290  33.409  29.141  1.00  0.00    -0.206 F 
ATOM     79  C   UNL A   1      35.180  32.305  27.651  1.00  0.00     0.006 A 
ENDBRANCH  58  72
BRANCH  59  80
ATOM     80  C   UNL A   1      44.517  27.742  35.234  1.00  0.00     0.057 A 
ATOM     81  C   UNL A   1      44.337  26.679  36.125  1.00  0.00     0.134 A 
ATOM     82  C   UNL A   1      45.788  28.328  35.182  1.00  0.00     0.134 A 
ATOM     83  F   UNL A   1      43.137  26.091  36.240  1.00  0.00    -0.206 F 
ATOM     84  C   UNL A   1      45.373  26.224  36.944  1.00  0.00     0.040 A 
ATOM     85  C   UNL A   1      46.842  27.866  35.975  1.00  0.00     0.040 A 
ATOM     86  F   UNL A   1      46.031  29.351  34.349  1.00  0.00    -0.206 F 
ATOM     87  C   UNL A   1      46.633  26.815  36.865  1.00  0.00     0.006 A 
ENDBRANCH  59  80
BRANCH  71  88
ATOM     88  C   UNL A   1      39.532  32.532  36.144  1.00  0.00     0.057 A 
ATOM     89  C   UNL A   1      40.134  33.776  36.368  1.00  0.00     0.134 A 
ATOM     90  C   UNL A   1      38.523  32.129  37.028  1.00  0.00     0.134 A 
ATOM     91  F   UNL A   1      41.115  34.213  35.565  1.00  0.00    -0.206 F 
ATOM     92  C   UNL A   1      39.756  34.581  37.446  1.00  0.00     0.040 A 
ATOM     93  C   UNL A   1      38.118  32.936  38.090  1.00  0.00     0.040 A 
ATOM     94  F   UNL A   1      37.900  30.952  36.860  1.00  0.00    -0.206 F 
ATOM     95  C   UNL A   1      38.740  34.165  38.304  1.00  0.00     0.006 A 
ENDBRANCH  71  88
ENDBRANCH  45  46
ENDBRANCH  38  40
ENDBRANCH  37  38
ENDBRANCH  36  37
ENDBRANCH  35  36
ENDBRANCH  34  35
ENDBRANCH  33  34
ENDBRANCH   1  33
TORSDOF 19
ENDMDL
MODEL 3
REMARK VINA RESULT:     -11.0      2.096      7.121
REMARK SMILES O=C(Nc1ccccc1)N[C@H]1C[C@@H](C(=O)OCCOCCOCCOC(=O)c2ccc(-c3c4nc(c(-c5c(F)cccc5F)c5ccc([nH]5)c(-c5c(F)cccc5F)c5nc(c(-c6c(F)cccc6F)c6ccc3[nH]6)C=C5)C=C4)cc2)Nc2cc(Cl)cc(Cl)c21
REMARK SMILES IDX 20 1 19 2 18 3 17 4 16 5 14 6 15 7 13 8 11 9 12 10 90 11
REMARK SMILES IDX 83 12 88 13 82 14 84 15 87 16 89 17 85 19 86 20 10 21 1 22
REMARK SMILES IDX 2 23 3 24 4 27 5 28 9 29 6 30 8 31 7 32 21 33 22 34 23 35
REMARK SMILES IDX 24 36 25 37 26 38 27 39 28 40 29 41 81 42 30 43 80 44 31 45
REMARK SMILES IDX 32 46 33 47 74 48 34 49 79 50 73 51 75 52 35 53 78 54 72 55
REMARK SMILES IDX 71 56 36 58 62 59 45 60 61 61 46 62 49 63 60 64 76 65 47 66
REMARK SMILES IDX 48 67 59 69 77 70 50 71 37 72 38 73 43 74 39 75 40 76 42 77
REMARK SMILES IDX 44 78 41 79 63 80 64 81 69 82 65 83 66 84 68 85 70 86 67 87
REMARK SMILES IDX 51 88 52 89 57 90 53 91 54 92 56 93 58 94 55 95
REMARK H PARENT 82 18 3 25 10 26 75 57 49 68
REMARK Flexibility Score: inf
ROOT
ATOM      1  C   UNL A   1      41.762  21.056  27.578  1.00  0.00     0.188 C 
ENDROOT
BRANCH   1   2
ATOM      2  O   UNL A   1      40.441  21.465  27.857  1.00  0.00    -0.376 OA
BRANCH   2   3
ATOM      3  C   UNL A   1      39.945  22.661  27.268  1.00  0.00     0.202 C 
BRANCH   3   4
ATOM      4  C   UNL A   1      38.895  22.658  26.141  1.00  0.00     0.261 C 
BRANCH   4   5
ATOM      5  O   UNL A   1      37.978  23.771  26.132  1.00  0.00    -0.462 OA
BRANCH   5   6
ATOM      6  C   UNL A   1      37.114  23.757  25.063  1.00  0.00     0.328 C 
ATOM      7  O   UNL A   1      37.394  23.282  23.966  1.00  0.00    -0.250 OA
BRANCH   6   8
ATOM      8  C   UNL A   1      35.704  24.283  25.413  1.00  0.00     0.192 C 
ATOM      9  C   UNL A   1      33.405  23.235  26.076  1.00  0.00     0.120 C 
ATOM     10  C   UNL A   1      34.921  23.372  26.359  1.00  0.00     0.067 C 
ATOM     11  C   UNL A   1      32.824  24.380  25.260  1.00  0.00     0.016 A 
ATOM     12  C   UNL A   1      33.655  24.989  24.309  1.00  0.00     0.043 A 
ATOM     13  C   UNL A   1      31.480  24.798  25.331  1.00  0.00     0.049 A 
ATOM     14  N   UNL A   1      34.977  24.584  24.183  1.00  0.00    -0.372 N 
ATOM     15  C   UNL A   1      33.131  25.901  23.385  1.00  0.00     0.046 A 
ATOM     16  C   UNL A   1      30.967  25.731  24.423  1.00  0.00     0.041 A 
ATOM     17  Cl  UNL A   1      30.384  24.223  26.532  1.00  0.00    -0.084 Cl
ATOM     18  H   UNL A   1      35.406  24.502  23.300  1.00  0.00     0.161 HD
ATOM     19  C   UNL A   1      31.791  26.266  23.444  1.00  0.00     0.044 A 
ATOM     20  Cl  UNL A   1      31.154  27.375  22.295  1.00  0.00    -0.084 Cl
BRANCH   9  21
ATOM     21  N   UNL A   1      33.098  21.952  25.429  1.00  0.00    -0.331 N 
ATOM     22  O   UNL A   1      33.637  20.640  27.232  1.00  0.00    -0.248 OA
ATOM     23  C   UNL A   1      33.163  20.758  26.109  1.00  0.00     0.319 C 
ATOM     24  N   UNL A   1      32.447  19.749  25.528  1.00  0.00    -0.308 N 
ATOM     25  H   UNL A   1      31.526  19.624  25.853  1.00  0.00     0.171 HD
ATOM     26  H   UNL A   1      32.835  21.947  24.481  1.00  0.00     0.166 HD
BRANCH  24  27
ATOM     27  C   UNL A   1      32.876  18.868  24.522  1.00  0.00     0.042 A 
ATOM     28  C   UNL A   1      34.045  18.130  24.760  1.00  0.00     0.026 A 
ATOM     29  C   UNL A   1      32.184  18.680  23.327  1.00  0.00     0.026 A 
ATOM     30  C   UNL A   1      34.465  17.147  23.860  1.00  0.00     0.002 A 
ATOM     31  C   UNL A   1      32.611  17.701  22.420  1.00  0.00     0.002 A 
ATOM     32  C   UNL A   1      33.734  16.919  22.696  1.00  0.00     0.000 A 
ENDBRANCH  24  27
ENDBRANCH   9  21
ENDBRANCH   6   8
ENDBRANCH   5   6
ENDBRANCH   4   5
ENDBRANCH   3   4
ENDBRANCH   2   3
ENDBRANCH   1   2
BRANCH   1  33
ATOM     33  C   UNL A   1      41.943  20.653  26.117  1.00  0.00     0.188 C 
BRANCH  33  34
ATOM     34  O   UNL A   1      43.007  21.235  25.363  1.00  0.00    -0.376 OA
BRANCH  34  35
ATOM     35  C   UNL A   1      43.548  22.439  25.915  1.00  0.00     0.202 C 
BRANCH  35  36
ATOM     36  C   UNL A   1      43.204  23.789  25.252  1.00  0.00     0.261 C 
BRANCH  36  37
ATOM     37  O   UNL A   1      42.276  24.612  25.961  1.00  0.00    -0.460 OA
BRANCH  37  38
ATOM     38  C   UNL A   1      42.369  25.938  25.710  1.00  0.00     0.338 C 
ATOM     39  O   UNL A   1      42.554  26.501  24.638  1.00  0.00    -0.246 OA
BRANCH  38  40
ATOM     40  C   UNL A   1      41.936  26.660  26.908  1.00  0.00     0.060 A 
ATOM     41  C   UNL A   1      42.449  27.952  27.099  1.00  0.00     0.016 A 
ATOM     42  C   UNL A   1      40.993  26.119  27.780  1.00  0.00     0.016 A 
ATOM     43  C   UNL A   1      41.990  28.732  28.151  1.00  0.00     0.010 A 
ATOM     44  C   UNL A   1      40.575  26.881  28.867  1.00  0.00     0.010 A 
ATOM     45  C   UNL A   1      41.075  28.184  29.054  1.00  0.00    -0.014 A 
BRANCH  45  46
ATOM     46  C   UNL A   1      40.759  28.890  30.309  1.00  0.00     0.031 A 
ATOM     47  C   UNL A   1      39.635  29.878  30.282  1.00  0.00     0.074 A 
ATOM     48  C   UNL A   1      41.496  28.694  31.412  1.00  0.00     0.049 A 
ATOM     49  N   UNL A   1      39.311  30.792  31.156  1.00  0.00    -0.248 NA
ATOM     50  C   UNL A   1      38.769  29.841  29.091  1.00  0.00     0.031 C 
ATOM     51  C   UNL A   1      42.561  27.703  31.555  1.00  0.00     0.029 A 
ATOM     52  N   UNL A   1      41.478  29.349  32.615  1.00  0.00    -0.354 N 
ATOM     53  C   UNL A   1      38.221  31.456  30.610  1.00  0.00     0.074 A 
ATOM     54  C   UNL A   1      37.945  30.851  29.327  1.00  0.00     0.031 C 
ATOM     55  C   UNL A   1      43.123  27.841  32.769  1.00  0.00     0.029 A 
ATOM     56  C   UNL A   1      42.490  28.962  33.460  1.00  0.00     0.049 A 
ATOM     57  H   UNL A   1      40.807  30.029  32.852  1.00  0.00     0.167 HD
ATOM     58  C   UNL A   1      37.523  32.488  31.137  1.00  0.00     0.037 A 
ATOM     59  C   UNL A   1      42.882  29.493  34.633  1.00  0.00     0.037 A 
ATOM     60  C   UNL A   1      37.827  33.078  32.413  1.00  0.00     0.049 A 
ATOM     61  C   UNL A   1      42.142  30.693  35.165  1.00  0.00     0.074 A 
ATOM     62  C   UNL A   1      37.199  34.130  33.052  1.00  0.00     0.029 A 
ATOM     63  N   UNL A   1      38.860  32.660  33.243  1.00  0.00    -0.354 N 
ATOM     64  N   UNL A   1      41.123  31.336  34.643  1.00  0.00    -0.248 NA
ATOM     65  C   UNL A   1      42.608  31.248  36.443  1.00  0.00     0.031 C 
ATOM     66  C   UNL A   1      37.879  34.378  34.248  1.00  0.00     0.029 A 
ATOM     67  C   UNL A   1      38.897  33.446  34.381  1.00  0.00     0.049 A 
ATOM     68  H   UNL A   1      39.474  31.915  33.051  1.00  0.00     0.167 HD
ATOM     69  C   UNL A   1      40.805  32.347  35.542  1.00  0.00     0.074 A 
ATOM     70  C   UNL A   1      41.737  32.226  36.645  1.00  0.00     0.031 C 
ATOM     71  C   UNL A   1      39.832  33.287  35.468  1.00  0.00     0.037 A 
BRANCH  58  72
ATOM     72  C   UNL A   1      36.410  33.061  30.311  1.00  0.00     0.057 A 
ATOM     73  C   UNL A   1      35.064  32.779  30.577  1.00  0.00     0.134 A 
ATOM     74  C   UNL A   1      36.691  33.904  29.228  1.00  0.00     0.134 A 
ATOM     75  F   UNL A   1      34.726  31.960  31.584  1.00  0.00    -0.206 F 
ATOM     76  C   UNL A   1      34.039  33.296  29.781  1.00  0.00     0.040 A 
ATOM     77  C   UNL A   1      35.673  34.449  28.444  1.00  0.00     0.040 A 
ATOM     78  F   UNL A   1      37.958  34.213  28.915  1.00  0.00    -0.206 F 
ATOM     79  C   UNL A   1      34.343  34.138  28.715  1.00  0.00     0.006 A 
ENDBRANCH  58  72
BRANCH  59  80
ATOM     80  C   UNL A   1      44.041  28.922  35.365  1.00  0.00     0.057 A 
ATOM     81  C   UNL A   1      45.347  29.350  35.097  1.00  0.00     0.134 A 
ATOM     82  C   UNL A   1      43.878  27.931  36.341  1.00  0.00     0.134 A 
ATOM     83  F   UNL A   1      45.572  30.279  34.157  1.00  0.00    -0.206 F 
ATOM     84  C   UNL A   1      46.448  28.805  35.761  1.00  0.00     0.040 A 
ATOM     85  C   UNL A   1      44.968  27.396  37.032  1.00  0.00     0.040 A 
ATOM     86  F   UNL A   1      42.655  27.476  36.648  1.00  0.00    -0.206 F 
ATOM     87  C   UNL A   1      46.259  27.829  36.737  1.00  0.00     0.006 A 
ENDBRANCH  59  80
BRANCH  71  88
ATOM     88  C   UNL A   1      39.692  34.221  36.634  1.00  0.00     0.057 A 
ATOM     89  C   UNL A   1      40.239  35.510  36.623  1.00  0.00     0.134 A 
ATOM     90  C   UNL A   1      38.953  33.839  37.761  1.00  0.00     0.134 A 
ATOM     91  F   UNL A   1      40.968  35.931  35.579  1.00  0.00    -0.206 F 
ATOM     92  C   UNL A   1      40.074  36.378  37.705  1.00  0.00     0.040 A 
ATOM     93  C   UNL A   1      38.756  34.707  38.834  1.00  0.00     0.040 A 
ATOM     94  F   UNL A   1      38.393  32.621  37.827  1.00  0.00    -0.206 F 
ATOM     95  C   UNL A   1      39.323  35.979  38.810  1.00  0.00     0.006 A 
ENDBRANCH  71  88
ENDBRANCH  45  46
ENDBRANCH  38  40
ENDBRANCH  37  38
ENDBRANCH  36  37
ENDBRANCH  35  36
ENDBRANCH  34  35
ENDBRANCH  33  34
ENDBRANCH   1  33
TORSDOF 19
ENDMDL
