MODEL 1
REMARK VINA RESULT:     -10.3      0.000      0.000
REMARK SMILES CC(C)(C)OC(=O)N1CCC[C@]1(Cc1ccccc1)C(=O)OCCOCCOCCOC(=O)c1ccc(-c2c3nc(c(-c4c(F)cccc4F)c4ccc([nH]4)c(-c4c(F)cccc4F)c4nc(c(-c5c(F)cccc5F)c5ccc2[nH]5)C=C4)C=C3)cc1
REMARK SMILES IDX 26 1 25 2 24 3 23 4 22 5 20 6 21 7 12 8 8 9 9 10 10 11 11 12
REMARK SMILES IDX 6 13 7 14 5 15 2 16 1 17 3 18 4 19 13 20 14 21 15 22 19 23
REMARK SMILES IDX 16 24 18 25 17 26 27 27 28 28 29 29 30 30 31 31 32 32 33 33
REMARK SMILES IDX 34 34 35 35 87 36 36 37 86 38 37 39 38 40 39 41 80 42 40 43
REMARK SMILES IDX 85 44 79 45 81 46 41 47 84 48 78 49 77 50 42 52 68 53 51 54
REMARK SMILES IDX 67 55 52 56 55 57 66 58 82 59 53 60 54 61 65 63 83 64 56 65
REMARK SMILES IDX 43 66 44 67 49 68 45 69 46 70 48 71 50 72 47 73 69 74 70 75
REMARK SMILES IDX 75 76 71 77 72 78 74 79 76 80 73 81 57 82 58 83 63 84 59 85
REMARK SMILES IDX 60 86 62 87 64 88 61 89
REMARK H PARENT 81 51 55 62
REMARK Flexibility Score: inf
ROOT
ATOM      1  C   UNL A   1      39.749  20.939  26.126  1.00  0.00     0.188 C 
ENDROOT
BRANCH   1   2
ATOM      2  O   UNL A   1      38.870  22.053  26.141  1.00  0.00    -0.376 OA
BRANCH   2   3
ATOM      3  C   UNL A   1      37.720  21.956  25.306  1.00  0.00     0.202 C 
BRANCH   3   4
ATOM      4  C   UNL A   1      36.789  23.181  25.209  1.00  0.00     0.261 C 
BRANCH   4   5
ATOM      5  O   UNL A   1      35.427  22.996  25.679  1.00  0.00    -0.461 OA
BRANCH   5   6
ATOM      6  C   UNL A   1      34.639  22.271  24.833  1.00  0.00     0.332 C 
ATOM      7  O   UNL A   1      34.854  22.205  23.621  1.00  0.00    -0.249 OA
BRANCH   6   8
ATOM      8  C   UNL A   1      33.379  21.595  25.488  1.00  0.00     0.147 C 
ATOM      9  N   UNL A   1      32.525  22.755  25.831  1.00  0.00    -0.291 N 
ATOM     10  C   UNL A   1      32.553  23.047  27.251  1.00  0.00     0.124 C 
ATOM     11  C   UNL A   1      33.749  22.271  27.787  1.00  0.00     0.025 C 
ATOM     12  C   UNL A   1      33.847  21.061  26.861  1.00  0.00     0.043 C 
BRANCH   9  13
ATOM     13  C   UNL A   1      31.967  23.539  24.846  1.00  0.00     0.411 C 
ATOM     14  O   UNL A   1      30.959  23.209  24.231  1.00  0.00    -0.224 OA
BRANCH  13  15
ATOM     15  O   UNL A   1      32.675  24.665  24.601  1.00  0.00    -0.444 OA
BRANCH  15  16
ATOM     16  C   UNL A   1      32.102  25.963  24.915  1.00  0.00     0.106 C 
ATOM     17  C   UNL A   1      33.189  26.683  25.725  1.00  0.00     0.056 C 
ATOM     18  C   UNL A   1      30.861  25.763  25.787  1.00  0.00     0.056 C 
ATOM     19  C   UNL A   1      31.788  26.835  23.685  1.00  0.00     0.056 C 
ENDBRANCH  15  16
ENDBRANCH  13  15
ENDBRANCH   9  13
BRANCH   8  20
ATOM     20  C   UNL A   1      32.639  20.491  24.679  1.00  0.00     0.076 C 
BRANCH  20  21
ATOM     21  C   UNL A   1      33.168  19.061  24.834  1.00  0.00    -0.045 A 
ATOM     22  C   UNL A   1      32.493  18.133  25.641  1.00  0.00     0.004 A 
ATOM     23  C   UNL A   1      34.341  18.631  24.190  1.00  0.00     0.004 A 
ATOM     24  C   UNL A   1      32.946  16.812  25.751  1.00  0.00     0.000 A 
ATOM     25  C   UNL A   1      34.780  17.307  24.280  1.00  0.00     0.000 A 
ATOM     26  C   UNL A   1      34.078  16.394  25.056  1.00  0.00     0.000 A 
ENDBRANCH  20  21
ENDBRANCH   8  20
ENDBRANCH   6   8
ENDBRANCH   5   6
ENDBRANCH   4   5
ENDBRANCH   3   4
ENDBRANCH   2   3
ENDBRANCH   1   2
BRANCH   1  27
ATOM     27  C   UNL A   1      40.883  20.935  27.153  1.00  0.00     0.188 C 
BRANCH  27  28
ATOM     28  O   UNL A   1      42.011  21.753  26.880  1.00  0.00    -0.376 OA
BRANCH  28  29
ATOM     29  C   UNL A   1      42.868  21.284  25.833  1.00  0.00     0.202 C 
BRANCH  29  30
ATOM     30  C   UNL A   1      43.818  22.336  25.213  1.00  0.00     0.261 C 
BRANCH  30  31
ATOM     31  O   UNL A   1      43.245  23.638  24.949  1.00  0.00    -0.460 OA
BRANCH  31  32
ATOM     32  C   UNL A   1      43.991  24.729  25.249  1.00  0.00     0.338 C 
ATOM     33  O   UNL A   1      44.961  25.128  24.626  1.00  0.00    -0.246 OA
BRANCH  32  34
ATOM     34  C   UNL A   1      43.292  25.529  26.298  1.00  0.00     0.060 A 
ATOM     35  C   UNL A   1      43.721  26.847  26.520  1.00  0.00     0.016 A 
ATOM     36  C   UNL A   1      42.197  25.034  27.015  1.00  0.00     0.016 A 
ATOM     37  C   UNL A   1      43.103  27.647  27.490  1.00  0.00     0.010 A 
ATOM     38  C   UNL A   1      41.590  25.831  27.998  1.00  0.00     0.010 A 
ATOM     39  C   UNL A   1      42.064  27.128  28.271  1.00  0.00    -0.014 A 
BRANCH  39  40
ATOM     40  C   UNL A   1      41.630  27.841  29.508  1.00  0.00     0.031 A 
ATOM     41  C   UNL A   1      40.420  28.738  29.423  1.00  0.00     0.074 A 
ATOM     42  C   UNL A   1      42.259  27.700  30.689  1.00  0.00     0.049 A 
ATOM     43  N   UNL A   1      39.889  29.516  30.333  1.00  0.00    -0.248 NA
ATOM     44  C   UNL A   1      39.717  28.759  28.131  1.00  0.00     0.031 C 
ATOM     45  C   UNL A   1      43.405  26.834  30.947  1.00  0.00     0.029 A 
ATOM     46  N   UNL A   1      42.016  28.306  31.902  1.00  0.00    -0.354 N 
ATOM     47  C   UNL A   1      38.800  30.125  29.720  1.00  0.00     0.074 A 
ATOM     48  C   UNL A   1      38.762  29.647  28.354  1.00  0.00     0.031 C 
ATOM     49  C   UNL A   1      43.780  26.979  32.231  1.00  0.00     0.029 A 
ATOM     50  C   UNL A   1      42.916  27.964  32.883  1.00  0.00     0.049 A 
ATOM     51  H   UNL A   1      41.267  28.927  32.052  1.00  0.00     0.167 HD
ATOM     52  C   UNL A   1      37.905  30.996  30.242  1.00  0.00     0.037 A 
ATOM     53  C   UNL A   1      43.042  28.409  34.151  1.00  0.00     0.037 A 
ATOM     54  C   UNL A   1      37.926  31.479  31.597  1.00  0.00     0.049 A 
ATOM     55  C   UNL A   1      42.081  29.443  34.689  1.00  0.00     0.074 A 
ATOM     56  C   UNL A   1      37.050  32.358  32.212  1.00  0.00     0.029 A 
ATOM     57  N   UNL A   1      38.874  31.130  32.546  1.00  0.00    -0.354 N 
ATOM     58  N   UNL A   1      41.048  30.000  34.105  1.00  0.00    -0.248 NA
ATOM     59  C   UNL A   1      42.308  29.911  36.067  1.00  0.00     0.031 C 
ATOM     60  C   UNL A   1      37.497  32.580  33.518  1.00  0.00     0.029 A 
ATOM     61  C   UNL A   1      38.618  31.796  33.734  1.00  0.00     0.049 A 
ATOM     62  H   UNL A   1      39.617  30.503  32.398  1.00  0.00     0.167 HD
ATOM     63  C   UNL A   1      40.488  30.856  35.050  1.00  0.00     0.074 A 
ATOM     64  C   UNL A   1      41.287  30.736  36.250  1.00  0.00     0.031 C 
ATOM     65  C   UNL A   1      39.407  31.664  34.932  1.00  0.00     0.037 A 
BRANCH  52  66
ATOM     66  C   UNL A   1      36.835  31.513  29.326  1.00  0.00     0.057 A 
ATOM     67  C   UNL A   1      35.731  30.733  28.958  1.00  0.00     0.134 A 
ATOM     68  C   UNL A   1      36.897  32.821  28.827  1.00  0.00     0.134 A 
ATOM     69  F   UNL A   1      35.620  29.468  29.390  1.00  0.00    -0.206 F 
ATOM     70  C   UNL A   1      34.740  31.227  28.109  1.00  0.00     0.040 A 
ATOM     71  C   UNL A   1      35.899  33.336  28.000  1.00  0.00     0.040 A 
ATOM     72  F   UNL A   1      37.925  33.623  29.144  1.00  0.00    -0.206 F 
ATOM     73  C   UNL A   1      34.818  32.535  27.633  1.00  0.00     0.006 A 
ENDBRANCH  52  66
BRANCH  53  74
ATOM     74  C   UNL A   1      44.141  27.903  35.017  1.00  0.00     0.057 A 
ATOM     75  C   UNL A   1      45.401  28.515  35.027  1.00  0.00     0.134 A 
ATOM     76  C   UNL A   1      43.975  26.762  35.812  1.00  0.00     0.134 A 
ATOM     77  F   UNL A   1      45.635  29.589  34.260  1.00  0.00    -0.206 F 
ATOM     78  C   UNL A   1      46.459  28.002  35.780  1.00  0.00     0.040 A 
ATOM     79  C   UNL A   1      45.017  26.254  36.592  1.00  0.00     0.040 A 
ATOM     80  F   UNL A   1      42.798  26.120  35.840  1.00  0.00    -0.206 F 
ATOM     81  C   UNL A   1      46.267  26.870  36.569  1.00  0.00     0.006 A 
ENDBRANCH  53  74
BRANCH  65  82
ATOM     82  C   UNL A   1      38.988  32.456  36.140  1.00  0.00     0.057 A 
ATOM     83  C   UNL A   1      38.154  31.920  37.129  1.00  0.00     0.134 A 
ATOM     84  C   UNL A   1      39.469  33.757  36.340  1.00  0.00     0.134 A 
ATOM     85  F   UNL A   1      37.651  30.682  36.997  1.00  0.00    -0.206 F 
ATOM     86  C   UNL A   1      37.794  32.656  38.260  1.00  0.00     0.040 A 
ATOM     87  C   UNL A   1      39.138  34.494  37.479  1.00  0.00     0.040 A 
ATOM     88  F   UNL A   1      40.282  34.330  35.439  1.00  0.00    -0.206 F 
ATOM     89  C   UNL A   1      38.293  33.945  38.440  1.00  0.00     0.006 A 
ENDBRANCH  65  82
ENDBRANCH  39  40
ENDBRANCH  32  34
ENDBRANCH  31  32
ENDBRANCH  30  31
ENDBRANCH  29  30
ENDBRANCH  28  29
ENDBRANCH  27  28
ENDBRANCH   1  27
TORSDOF 22
ENDMDL
MODEL 2
REMARK VINA RESULT:     -10.1      3.440      9.672
REMARK SMILES CC(C)(C)OC(=O)N1CCC[C@]1(Cc1ccccc1)C(=O)OCCOCCOCCOC(=O)c1ccc(-c2c3nc(c(-c4c(F)cccc4F)c4ccc([nH]4)c(-c4c(F)cccc4F)c4nc(c(-c5c(F)cccc5F)c5ccc2[nH]5)C=C4)C=C3)cc1
REMARK SMILES IDX 26 1 25 2 24 3 23 4 22 5 20 6 21 7 12 8 8 9 9 10 10 11 11 12
REMARK SMILES IDX 6 13 7 14 5 15 2 16 1 17 3 18 4 19 13 20 14 21 15 22 19 23
REMARK SMILES IDX 16 24 18 25 17 26 27 27 28 28 29 29 30 30 31 31 32 32 33 33
REMARK SMILES IDX 34 34 35 35 87 36 36 37 86 38 37 39 38 40 39 41 80 42 40 43
REMARK SMILES IDX 85 44 79 45 81 46 41 47 84 48 78 49 77 50 42 52 68 53 51 54
REMARK SMILES IDX 67 55 52 56 55 57 66 58 82 59 53 60 54 61 65 63 83 64 56 65
REMARK SMILES IDX 43 66 44 67 49 68 45 69 46 70 48 71 50 72 47 73 69 74 70 75
REMARK SMILES IDX 75 76 71 77 72 78 74 79 76 80 73 81 57 82 58 83 63 84 59 85
REMARK SMILES IDX 60 86 62 87 64 88 61 89
REMARK H PARENT 81 51 55 62
REMARK Flexibility Score: inf
ROOT
ATOM      1  C   UNL A   1      34.604  31.577  28.761  1.00  0.00     0.188 C 
ENDROOT
BRANCH   1   2
ATOM      2  O   UNL A   1      33.727  31.182  27.718  1.00  0.00    -0.376 OA
BRANCH   2   3
ATOM      3  C   UNL A   1      34.035  29.952  27.069  1.00  0.00     0.202 C 
BRANCH   3   4
ATOM      4  C   UNL A   1      33.378  29.668  25.704  1.00  0.00     0.261 C 
BRANCH   4   5
ATOM      5  O   UNL A   1      32.777  28.357  25.537  1.00  0.00    -0.461 OA
BRANCH   5   6
ATOM      6  C   UNL A   1      32.985  27.800  24.308  1.00  0.00     0.332 C 
ATOM      7  O   UNL A   1      34.017  27.991  23.661  1.00  0.00    -0.249 OA
BRANCH   6   8
ATOM      8  C   UNL A   1      31.784  26.968  23.726  1.00  0.00     0.147 C 
ATOM      9  N   UNL A   1      32.266  25.573  23.836  1.00  0.00    -0.291 N 
ATOM     10  C   UNL A   1      32.676  25.039  22.552  1.00  0.00     0.124 C 
ATOM     11  C   UNL A   1      32.799  26.255  21.643  1.00  0.00     0.025 C 
ATOM     12  C   UNL A   1      31.774  27.238  22.205  1.00  0.00     0.043 C 
BRANCH   9  13
ATOM     13  C   UNL A   1      32.468  24.988  25.066  1.00  0.00     0.411 C 
ATOM     14  O   UNL A   1      31.552  24.768  25.851  1.00  0.00    -0.224 OA
BRANCH  13  15
ATOM     15  O   UNL A   1      33.771  24.741  25.327  1.00  0.00    -0.444 OA
BRANCH  15  16
ATOM     16  C   UNL A   1      34.184  23.417  25.763  1.00  0.00     0.106 C 
ATOM     17  C   UNL A   1      35.692  23.542  26.018  1.00  0.00     0.056 C 
ATOM     18  C   UNL A   1      33.936  22.419  24.630  1.00  0.00     0.056 C 
ATOM     19  C   UNL A   1      33.531  22.947  27.077  1.00  0.00     0.056 C 
ENDBRANCH  15  16
ENDBRANCH  13  15
ENDBRANCH   9  13
BRANCH   8  20
ATOM     20  C   UNL A   1      30.373  27.193  24.345  1.00  0.00     0.076 C 
BRANCH  20  21
ATOM     21  C   UNL A   1      29.559  28.363  23.781  1.00  0.00    -0.045 A 
ATOM     22  C   UNL A   1      28.336  28.134  23.133  1.00  0.00     0.004 A 
ATOM     23  C   UNL A   1      30.005  29.692  23.880  1.00  0.00     0.004 A 
ATOM     24  C   UNL A   1      27.565  29.202  22.656  1.00  0.00     0.000 A 
ATOM     25  C   UNL A   1      29.226  30.759  23.425  1.00  0.00     0.000 A 
ATOM     26  C   UNL A   1      28.001  30.515  22.818  1.00  0.00     0.000 A 
ENDBRANCH  20  21
ENDBRANCH   8  20
ENDBRANCH   6   8
ENDBRANCH   5   6
ENDBRANCH   4   5
ENDBRANCH   3   4
ENDBRANCH   2   3
ENDBRANCH   1   2
BRANCH   1  27
ATOM     27  C   UNL A   1      34.691  33.073  29.067  1.00  0.00     0.188 C 
BRANCH  27  28
ATOM     28  O   UNL A   1      33.703  33.913  28.489  1.00  0.00    -0.376 OA
BRANCH  28  29
ATOM     29  C   UNL A   1      33.856  35.312  28.755  1.00  0.00     0.202 C 
BRANCH  29  30
ATOM     30  C   UNL A   1      32.703  35.984  29.537  1.00  0.00     0.261 C 
BRANCH  30  31
ATOM     31  O   UNL A   1      33.025  36.464  30.864  1.00  0.00    -0.460 OA
BRANCH  31  32
ATOM     32  C   UNL A   1      32.616  35.720  31.921  1.00  0.00     0.338 C 
ATOM     33  O   UNL A   1      31.459  35.501  32.238  1.00  0.00    -0.246 OA
BRANCH  32  34
ATOM     34  C   UNL A   1      33.786  34.983  32.484  1.00  0.00     0.060 A 
ATOM     35  C   UNL A   1      35.048  35.593  32.415  1.00  0.00     0.016 A 
ATOM     36  C   UNL A   1      33.656  33.746  33.126  1.00  0.00     0.016 A 
ATOM     37  C   UNL A   1      36.183  34.950  32.927  1.00  0.00     0.010 A 
ATOM     38  C   UNL A   1      34.797  33.095  33.623  1.00  0.00     0.010 A 
ATOM     39  C   UNL A   1      36.073  33.673  33.491  1.00  0.00    -0.014 A 
BRANCH  39  40
ATOM     40  C   UNL A   1      37.296  32.854  33.732  1.00  0.00     0.031 A 
ATOM     41  C   UNL A   1      38.096  33.122  34.983  1.00  0.00     0.074 A 
ATOM     42  C   UNL A   1      37.699  31.881  32.894  1.00  0.00     0.049 A 
ATOM     43  N   UNL A   1      39.228  32.598  35.382  1.00  0.00    -0.248 NA
ATOM     44  C   UNL A   1      37.538  34.121  35.908  1.00  0.00     0.031 C 
ATOM     45  C   UNL A   1      37.010  31.466  31.675  1.00  0.00     0.029 A 
ATOM     46  N   UNL A   1      38.809  31.068  32.945  1.00  0.00    -0.354 N 
ATOM     47  C   UNL A   1      39.521  33.211  36.594  1.00  0.00     0.074 A 
ATOM     48  C   UNL A   1      38.464  34.165  36.852  1.00  0.00     0.031 C 
ATOM     49  C   UNL A   1      37.723  30.491  31.084  1.00  0.00     0.029 A 
ATOM     50  C   UNL A   1      38.931  30.225  31.867  1.00  0.00     0.049 A 
ATOM     51  H   UNL A   1      39.456  31.089  33.687  1.00  0.00     0.167 HD
ATOM     52  C   UNL A   1      40.569  33.000  37.425  1.00  0.00     0.037 A 
ATOM     53  C   UNL A   1      39.910  29.357  31.538  1.00  0.00     0.037 A 
ATOM     54  C   UNL A   1      41.627  32.054  37.185  1.00  0.00     0.049 A 
ATOM     55  C   UNL A   1      41.111  29.195  32.439  1.00  0.00     0.074 A 
ATOM     56  C   UNL A   1      42.723  31.769  37.981  1.00  0.00     0.029 A 
ATOM     57  N   UNL A   1      41.724  31.245  36.065  1.00  0.00    -0.354 N 
ATOM     58  N   UNL A   1      41.371  29.770  33.588  1.00  0.00    -0.248 NA
ATOM     59  C   UNL A   1      42.159  28.261  31.992  1.00  0.00     0.031 C 
ATOM     60  C   UNL A   1      43.512  30.824  37.319  1.00  0.00     0.029 A 
ATOM     61  C   UNL A   1      42.877  30.479  36.137  1.00  0.00     0.049 A 
ATOM     62  H   UNL A   1      41.073  31.218  35.328  1.00  0.00     0.167 HD
ATOM     63  C   UNL A   1      42.589  29.246  34.013  1.00  0.00     0.074 A 
ATOM     64  C   UNL A   1      43.012  28.298  33.006  1.00  0.00     0.031 C 
ATOM     65  C   UNL A   1      43.290  29.525  35.139  1.00  0.00     0.037 A 
BRANCH  52  66
ATOM     66  C   UNL A   1      40.639  33.836  38.669  1.00  0.00     0.057 A 
ATOM     67  C   UNL A   1      39.985  33.466  39.851  1.00  0.00     0.134 A 
ATOM     68  C   UNL A   1      41.396  35.015  38.691  1.00  0.00     0.134 A 
ATOM     69  F   UNL A   1      39.232  32.357  39.892  1.00  0.00    -0.206 F 
ATOM     70  C   UNL A   1      40.062  34.251  41.003  1.00  0.00     0.040 A 
ATOM     71  C   UNL A   1      41.503  35.793  39.843  1.00  0.00     0.040 A 
ATOM     72  F   UNL A   1      42.052  35.424  37.594  1.00  0.00    -0.206 F 
ATOM     73  C   UNL A   1      40.829  35.414  41.003  1.00  0.00     0.006 A 
ENDBRANCH  52  66
BRANCH  53  74
ATOM     74  C   UNL A   1      39.825  28.574  30.276  1.00  0.00     0.057 A 
ATOM     75  C   UNL A   1      39.137  27.356  30.219  1.00  0.00     0.134 A 
ATOM     76  C   UNL A   1      40.475  28.998  29.110  1.00  0.00     0.134 A 
ATOM     77  F   UNL A   1      38.523  26.876  31.310  1.00  0.00    -0.206 F 
ATOM     78  C   UNL A   1      39.114  26.579  29.058  1.00  0.00     0.040 A 
ATOM     79  C   UNL A   1      40.439  28.246  27.934  1.00  0.00     0.040 A 
ATOM     80  F   UNL A   1      41.162  30.151  29.098  1.00  0.00    -0.206 F 
ATOM     81  C   UNL A   1      39.763  27.027  27.910  1.00  0.00     0.006 A 
ENDBRANCH  53  74
BRANCH  65  82
ATOM     82  C   UNL A   1      44.568  28.770  35.374  1.00  0.00     0.057 A 
ATOM     83  C   UNL A   1      44.595  27.542  36.046  1.00  0.00     0.134 A 
ATOM     84  C   UNL A   1      45.785  29.257  34.877  1.00  0.00     0.134 A 
ATOM     85  F   UNL A   1      43.468  27.021  36.557  1.00  0.00    -0.206 F 
ATOM     86  C   UNL A   1      45.786  26.836  36.235  1.00  0.00     0.040 A 
ATOM     87  C   UNL A   1      46.978  28.549  35.035  1.00  0.00     0.040 A 
ATOM     88  F   UNL A   1      45.832  30.422  34.213  1.00  0.00    -0.206 F 
ATOM     89  C   UNL A   1      46.981  27.338  35.722  1.00  0.00     0.006 A 
ENDBRANCH  65  82
ENDBRANCH  39  40
ENDBRANCH  32  34
ENDBRANCH  31  32
ENDBRANCH  30  31
ENDBRANCH  29  30
ENDBRANCH  28  29
ENDBRANCH  27  28
ENDBRANCH   1  27
TORSDOF 22
ENDMDL
MODEL 3
REMARK VINA RESULT:     -10.1      4.879      9.881
REMARK SMILES CC(C)(C)OC(=O)N1CCC[C@]1(Cc1ccccc1)C(=O)OCCOCCOCCOC(=O)c1ccc(-c2c3nc(c(-c4c(F)cccc4F)c4ccc([nH]4)c(-c4c(F)cccc4F)c4nc(c(-c5c(F)cccc5F)c5ccc2[nH]5)C=C4)C=C3)cc1
REMARK SMILES IDX 26 1 25 2 24 3 23 4 22 5 20 6 21 7 12 8 8 9 9 10 10 11 11 12
REMARK SMILES IDX 6 13 7 14 5 15 2 16 1 17 3 18 4 19 13 20 14 21 15 22 19 23
REMARK SMILES IDX 16 24 18 25 17 26 27 27 28 28 29 29 30 30 31 31 32 32 33 33
REMARK SMILES IDX 34 34 35 35 87 36 36 37 86 38 37 39 38 40 39 41 80 42 40 43
REMARK SMILES IDX 85 44 79 45 81 46 41 47 84 48 78 49 77 50 42 52 68 53 51 54
REMARK SMILES IDX 67 55 52 56 55 57 66 58 82 59 53 60 54 61 65 63 83 64 56 65
REMARK SMILES IDX 43 66 44 67 49 68 45 69 46 70 48 71 50 72 47 73 69 74 70 75
REMARK SMILES IDX 75 76 71 77 72 78 74 79 76 80 73 81 57 82 58 83 63 84 59 85
REMARK SMILES IDX 60 86 62 87 64 88 61 89
REMARK H PARENT 81 51 55 62
REMARK Flexibility Score: inf
ROOT
ATOM      1  C   UNL A   1      34.040  33.512  28.014  1.00  0.00     0.188 C 
ENDROOT
BRANCH   1   2
ATOM      2  O   UNL A   1      33.494  32.246  28.350  1.00  0.00    -0.376 OA
BRANCH   2   3
ATOM      3  C   UNL A   1      33.773  31.181  27.446  1.00  0.00     0.202 C 
BRANCH   3   4
ATOM      4  C   UNL A   1      32.629  30.209  27.097  1.00  0.00     0.261 C 
BRANCH   4   5
ATOM      5  O   UNL A   1      32.597  29.714  25.732  1.00  0.00    -0.461 OA
BRANCH   5   6
ATOM      6  C   UNL A   1      33.489  28.713  25.479  1.00  0.00     0.332 C 
ATOM      7  O   UNL A   1      34.700  28.841  25.674  1.00  0.00    -0.249 OA
BRANCH   6   8
ATOM      8  C   UNL A   1      32.887  27.411  24.835  1.00  0.00     0.147 C 
ATOM      9  N   UNL A   1      31.504  27.820  24.498  1.00  0.00    -0.291 N 
ATOM     10  C   UNL A   1      30.536  27.272  25.427  1.00  0.00     0.124 C 
ATOM     11  C   UNL A   1      31.360  26.788  26.613  1.00  0.00     0.025 C 
ATOM     12  C   UNL A   1      32.703  26.406  25.994  1.00  0.00     0.043 C 
BRANCH   9  13
ATOM     13  C   UNL A   1      31.263  28.772  23.533  1.00  0.00     0.411 C 
ATOM     14  O   UNL A   1      31.869  28.801  22.468  1.00  0.00    -0.224 OA
BRANCH  13  15
ATOM     15  O   UNL A   1      30.341  29.686  23.910  1.00  0.00    -0.444 OA
BRANCH  15  16
ATOM     16  C   UNL A   1      29.197  29.958  23.054  1.00  0.00     0.106 C 
ATOM     17  C   UNL A   1      28.444  31.094  23.758  1.00  0.00     0.056 C 
ATOM     18  C   UNL A   1      28.311  28.712  22.997  1.00  0.00     0.056 C 
ATOM     19  C   UNL A   1      29.564  30.450  21.641  1.00  0.00     0.056 C 
ENDBRANCH  15  16
ENDBRANCH  13  15
ENDBRANCH   9  13
BRANCH   8  20
ATOM     20  C   UNL A   1      33.654  26.762  23.646  1.00  0.00     0.076 C 
BRANCH  20  21
ATOM     21  C   UNL A   1      33.435  25.260  23.430  1.00  0.00    -0.045 A 
ATOM     22  C   UNL A   1      34.488  24.352  23.613  1.00  0.00     0.004 A 
ATOM     23  C   UNL A   1      32.189  24.742  23.035  1.00  0.00     0.004 A 
ATOM     24  C   UNL A   1      34.283  22.975  23.463  1.00  0.00     0.000 A 
ATOM     25  C   UNL A   1      31.978  23.366  22.908  1.00  0.00     0.000 A 
ATOM     26  C   UNL A   1      33.025  22.480  23.128  1.00  0.00     0.000 A 
ENDBRANCH  20  21
ENDBRANCH   8  20
ENDBRANCH   6   8
ENDBRANCH   5   6
ENDBRANCH   4   5
ENDBRANCH   3   4
ENDBRANCH   2   3
ENDBRANCH   1   2
BRANCH   1  27
ATOM     27  C   UNL A   1      33.481  34.729  28.754  1.00  0.00     0.188 C 
BRANCH  27  28
ATOM     28  O   UNL A   1      33.092  34.544  30.107  1.00  0.00    -0.376 OA
BRANCH  28  29
ATOM     29  C   UNL A   1      33.637  35.488  31.036  1.00  0.00     0.202 C 
BRANCH  29  30
ATOM     30  C   UNL A   1      34.725  34.947  31.993  1.00  0.00     0.261 C 
BRANCH  30  31
ATOM     31  O   UNL A   1      35.638  33.971  31.437  1.00  0.00    -0.460 OA
BRANCH  31  32
ATOM     32  C   UNL A   1      35.412  32.664  31.717  1.00  0.00     0.338 C 
ATOM     33  O   UNL A   1      34.383  32.196  32.176  1.00  0.00    -0.246 OA
BRANCH  32  34
ATOM     34  C   UNL A   1      36.507  31.839  31.126  1.00  0.00     0.060 A 
ATOM     35  C   UNL A   1      37.319  31.097  31.998  1.00  0.00     0.016 A 
ATOM     36  C   UNL A   1      36.709  31.736  29.745  1.00  0.00     0.016 A 
ATOM     37  C   UNL A   1      38.363  30.304  31.503  1.00  0.00     0.010 A 
ATOM     38  C   UNL A   1      37.765  30.954  29.251  1.00  0.00     0.010 A 
ATOM     39  C   UNL A   1      38.625  30.265  30.128  1.00  0.00    -0.014 A 
BRANCH  39  40
ATOM     40  C   UNL A   1      39.912  29.701  29.627  1.00  0.00     0.031 A 
ATOM     41  C   UNL A   1      41.112  30.614  29.569  1.00  0.00     0.074 A 
ATOM     42  C   UNL A   1      40.047  28.418  29.247  1.00  0.00     0.049 A 
ATOM     43  N   UNL A   1      42.317  30.385  29.109  1.00  0.00    -0.248 NA
ATOM     44  C   UNL A   1      40.921  31.971  30.103  1.00  0.00     0.031 C 
ATOM     45  C   UNL A   1      39.001  27.400  29.292  1.00  0.00     0.029 A 
ATOM     46  N   UNL A   1      41.138  27.754  28.731  1.00  0.00    -0.354 N 
ATOM     47  C   UNL A   1      43.021  31.570  29.288  1.00  0.00     0.074 A 
ATOM     48  C   UNL A   1      42.102  32.523  29.873  1.00  0.00     0.031 C 
ATOM     49  C   UNL A   1      39.494  26.247  28.805  1.00  0.00     0.029 A 
ATOM     50  C   UNL A   1      40.884  26.447  28.391  1.00  0.00     0.049 A 
ATOM     51  H   UNL A   1      42.019  28.178  28.616  1.00  0.00     0.167 HD
ATOM     52  C   UNL A   1      44.315  31.845  29.001  1.00  0.00     0.037 A 
ATOM     53  C   UNL A   1      41.671  25.526  27.797  1.00  0.00     0.037 A 
ATOM     54  C   UNL A   1      45.242  30.909  28.422  1.00  0.00     0.049 A 
ATOM     55  C   UNL A   1      43.088  25.878  27.410  1.00  0.00     0.074 A 
ATOM     56  C   UNL A   1      46.577  31.102  28.107  1.00  0.00     0.029 A 
ATOM     57  N   UNL A   1      44.932  29.607  28.066  1.00  0.00    -0.354 N 
ATOM     58  N   UNL A   1      43.746  26.997  27.597  1.00  0.00    -0.248 NA
ATOM     59  C   UNL A   1      43.872  24.835  26.727  1.00  0.00     0.031 C 
ATOM     60  C   UNL A   1      47.061  29.933  27.513  1.00  0.00     0.029 A 
ATOM     61  C   UNL A   1      46.043  28.993  27.511  1.00  0.00     0.049 A 
ATOM     62  H   UNL A   1      44.054  29.180  28.189  1.00  0.00     0.167 HD
ATOM     63  C   UNL A   1      45.023  26.781  27.085  1.00  0.00     0.074 A 
ATOM     64  C   UNL A   1      45.052  25.422  26.591  1.00  0.00     0.031 C 
ATOM     65  C   UNL A   1      46.075  27.634  27.032  1.00  0.00     0.037 A 
BRANCH  52  66
ATOM     66  C   UNL A   1      44.801  33.236  29.282  1.00  0.00     0.057 A 
ATOM     67  C   UNL A   1      45.432  33.573  30.487  1.00  0.00     0.134 A 
ATOM     68  C   UNL A   1      44.660  34.247  28.322  1.00  0.00     0.134 A 
ATOM     69  F   UNL A   1      45.585  32.655  31.454  1.00  0.00    -0.206 F 
ATOM     70  C   UNL A   1      45.884  34.870  30.735  1.00  0.00     0.040 A 
ATOM     71  C   UNL A   1      45.131  35.540  28.547  1.00  0.00     0.040 A 
ATOM     72  F   UNL A   1      44.069  33.990  27.145  1.00  0.00    -0.206 F 
ATOM     73  C   UNL A   1      45.740  35.856  29.761  1.00  0.00     0.006 A 
ENDBRANCH  52  66
BRANCH  53  74
ATOM     74  C   UNL A   1      41.141  24.169  27.496  1.00  0.00     0.057 A 
ATOM     75  C   UNL A   1      40.187  23.966  26.491  1.00  0.00     0.134 A 
ATOM     76  C   UNL A   1      41.533  23.052  28.244  1.00  0.00     0.134 A 
ATOM     77  F   UNL A   1      39.743  25.000  25.763  1.00  0.00    -0.206 F 
ATOM     78  C   UNL A   1      39.630  22.707  26.252  1.00  0.00     0.040 A 
ATOM     79  C   UNL A   1      41.005  21.782  27.998  1.00  0.00     0.040 A 
ATOM     80  F   UNL A   1      42.434  23.178  29.229  1.00  0.00    -0.206 F 
ATOM     81  C   UNL A   1      40.042  21.610  27.004  1.00  0.00     0.006 A 
ENDBRANCH  53  74
BRANCH  65  82
ATOM     82  C   UNL A   1      47.367  27.119  26.462  1.00  0.00     0.057 A 
ATOM     83  C   UNL A   1      47.683  27.242  25.103  1.00  0.00     0.134 A 
ATOM     84  C   UNL A   1      48.331  26.537  27.296  1.00  0.00     0.134 A 
ATOM     85  F   UNL A   1      46.802  27.782  24.246  1.00  0.00    -0.206 F 
ATOM     86  C   UNL A   1      48.899  26.784  24.590  1.00  0.00     0.040 A 
ATOM     87  C   UNL A   1      49.561  26.099  26.801  1.00  0.00     0.040 A 
ATOM     88  F   UNL A   1      48.101  26.398  28.610  1.00  0.00    -0.206 F 
ATOM     89  C   UNL A   1      49.845  26.216  25.442  1.00  0.00     0.006 A 
ENDBRANCH  65  82
ENDBRANCH  39  40
ENDBRANCH  32  34
ENDBRANCH  31  32
ENDBRANCH  30  31
ENDBRANCH  29  30
ENDBRANCH  28  29
ENDBRANCH  27  28
ENDBRANCH   1  27
TORSDOF 22
ENDMDL
