MODEL 1
REMARK VINA RESULT:      -9.2      0.000      0.000
REMARK SMILES CN(C)S(=O)(=O)c1ccc(N(CC(=O)OCCOCCOCCOC(=O)c2ccc(-c3c4nc(c(-c5c(F)cccc5F)c5ccc([nH]5)c(-c5c(F)cccc5F)c5nc(c(-c6c(F)cccc6F)c6ccc3[nH]6)C=C5)C=C4)cc2)C(C)(C)C)cc1
REMARK SMILES IDX 19 1 18 2 17 3 16 4 15 5 13 6 14 7 12 8 11 9 10 10 7 11 8 12
REMARK SMILES IDX 86 13 9 14 85 15 4 16 5 17 6 18 2 19 1 20 3 21 81 22 82 23
REMARK SMILES IDX 83 24 84 25 20 26 21 27 22 28 23 29 24 30 25 31 26 32 27 33
REMARK SMILES IDX 28 34 80 35 29 36 79 37 30 38 31 39 32 40 73 41 33 42 78 43
REMARK SMILES IDX 72 44 74 45 34 46 77 47 71 48 70 49 35 51 61 52 44 53 60 54
REMARK SMILES IDX 45 55 48 56 59 57 75 58 46 59 47 60 58 62 76 63 49 64 36 65
REMARK SMILES IDX 37 66 42 67 38 68 39 69 41 70 43 71 40 72 62 73 63 74 68 75
REMARK SMILES IDX 64 76 65 77 67 78 69 79 66 80 50 81 51 82 56 83 52 84 53 85
REMARK SMILES IDX 55 86 57 87 54 88
REMARK H PARENT 74 50 48 61
REMARK Flexibility Score: inf
ROOT
ATOM      1  C   UNL A   1      33.230  23.082  24.643  1.00  0.00     0.188 C 
ENDROOT
BRANCH   1   2
ATOM      2  O   UNL A   1      31.950  22.727  25.149  1.00  0.00    -0.376 OA
BRANCH   2   3
ATOM      3  C   UNL A   1      31.574  23.171  26.446  1.00  0.00     0.202 C 
BRANCH   3   4
ATOM      4  C   UNL A   1      30.417  24.176  26.493  1.00  0.00     0.261 C 
BRANCH   4   5
ATOM      5  O   UNL A   1      30.539  25.206  25.490  1.00  0.00    -0.462 OA
BRANCH   5   6
ATOM      6  C   UNL A   1      30.744  26.468  25.945  1.00  0.00     0.325 C 
ATOM      7  O   UNL A   1      30.970  26.738  27.124  1.00  0.00    -0.250 OA
BRANCH   6   8
ATOM      8  C   UNL A   1      30.835  27.549  24.861  1.00  0.00     0.239 C 
BRANCH   8   9
ATOM      9  N   UNL A   1      32.170  28.175  24.572  1.00  0.00    -0.356 N 
BRANCH   9  10
ATOM     10  C   UNL A   1      32.776  28.909  25.620  1.00  0.00     0.038 A 
ATOM     11  C   UNL A   1      34.191  30.577  27.459  1.00  0.00     0.082 A 
ATOM     12  C   UNL A   1      34.664  29.305  27.161  1.00  0.00     0.024 A 
ATOM     13  C   UNL A   1      32.972  30.989  26.948  1.00  0.00     0.024 A 
ATOM     14  C   UNL A   1      33.946  28.478  26.277  1.00  0.00     0.027 A 
ATOM     15  C   UNL A   1      32.286  30.157  26.055  1.00  0.00     0.027 A 
BRANCH  11  16
ATOM     16  S   UNL A   1      35.176  31.666  28.451  1.00  0.00     0.242 S 
ATOM     17  O   UNL A   1      35.848  32.588  27.560  1.00  0.00    -0.207 OA
ATOM     18  O   UNL A   1      35.914  30.828  29.371  1.00  0.00    -0.207 OA
BRANCH  16  19
ATOM     19  N   UNL A   1      34.040  32.586  29.356  1.00  0.00    -0.204 NA
ATOM     20  C   UNL A   1      34.407  32.706  30.786  1.00  0.00     0.124 C 
ATOM     21  C   UNL A   1      33.691  33.908  28.782  1.00  0.00     0.124 C 
ENDBRANCH  16  19
ENDBRANCH  11  16
ENDBRANCH   9  10
BRANCH   9  22
ATOM     22  C   UNL A   1      33.031  27.590  23.459  1.00  0.00     0.032 C 
ATOM     23  C   UNL A   1      32.174  26.865  22.389  1.00  0.00     0.034 C 
ATOM     24  C   UNL A   1      33.916  28.670  22.795  1.00  0.00     0.034 C 
ATOM     25  C   UNL A   1      34.042  26.548  23.984  1.00  0.00     0.034 C 
ENDBRANCH   9  22
ENDBRANCH   8   9
ENDBRANCH   6   8
ENDBRANCH   5   6
ENDBRANCH   4   5
ENDBRANCH   3   4
ENDBRANCH   2   3
ENDBRANCH   1   2
BRANCH   1  26
ATOM     26  C   UNL A   1      34.449  22.207  24.966  1.00  0.00     0.188 C 
BRANCH  26  27
ATOM     27  O   UNL A   1      35.349  21.865  23.925  1.00  0.00    -0.376 OA
BRANCH  27  28
ATOM     28  C   UNL A   1      36.710  22.236  24.101  1.00  0.00     0.202 C 
BRANCH  28  29
ATOM     29  C   UNL A   1      37.574  21.175  24.785  1.00  0.00     0.261 C 
BRANCH  29  30
ATOM     30  O   UNL A   1      37.943  21.586  26.119  1.00  0.00    -0.460 OA
BRANCH  30  31
ATOM     31  C   UNL A   1      39.277  21.612  26.345  1.00  0.00     0.338 C 
ATOM     32  O   UNL A   1      40.089  20.735  26.103  1.00  0.00    -0.246 OA
BRANCH  31  33
ATOM     33  C   UNL A   1      39.688  22.919  26.884  1.00  0.00     0.060 A 
ATOM     34  C   UNL A   1      39.096  24.076  26.382  1.00  0.00     0.016 A 
ATOM     35  C   UNL A   1      40.804  23.013  27.708  1.00  0.00     0.016 A 
ATOM     36  C   UNL A   1      39.664  25.327  26.618  1.00  0.00     0.010 A 
ATOM     37  C   UNL A   1      41.335  24.273  28.005  1.00  0.00     0.010 A 
ATOM     38  C   UNL A   1      40.800  25.441  27.425  1.00  0.00    -0.014 A 
BRANCH  38  39
ATOM     39  C   UNL A   1      41.500  26.745  27.589  1.00  0.00     0.031 A 
ATOM     40  C   UNL A   1      42.863  26.932  26.973  1.00  0.00     0.074 A 
ATOM     41  C   UNL A   1      40.940  27.764  28.270  1.00  0.00     0.049 A 
ATOM     42  N   UNL A   1      43.768  27.846  27.217  1.00  0.00    -0.248 NA
ATOM     43  C   UNL A   1      43.261  25.948  25.955  1.00  0.00     0.031 C 
ATOM     44  C   UNL A   1      39.591  27.772  28.836  1.00  0.00     0.029 A 
ATOM     45  N   UNL A   1      41.451  28.994  28.612  1.00  0.00    -0.354 N 
ATOM     46  C   UNL A   1      44.867  27.504  26.439  1.00  0.00     0.074 A 
ATOM     47  C   UNL A   1      44.511  26.309  25.702  1.00  0.00     0.031 C 
ATOM     48  C   UNL A   1      39.378  28.949  29.446  1.00  0.00     0.029 A 
ATOM     49  C   UNL A   1      40.606  29.735  29.402  1.00  0.00     0.049 A 
ATOM     50  H   UNL A   1      42.335  29.312  28.319  1.00  0.00     0.167 HD
ATOM     51  C   UNL A   1      46.069  28.125  26.358  1.00  0.00     0.037 A 
ATOM     52  C   UNL A   1      40.815  30.884  30.073  1.00  0.00     0.037 A 
ATOM     53  C   UNL A   1      46.393  29.345  27.050  1.00  0.00     0.049 A 
ATOM     54  C   UNL A   1      42.173  31.528  30.019  1.00  0.00     0.074 A 
ATOM     55  C   UNL A   1      47.580  30.055  27.041  1.00  0.00     0.029 A 
ATOM     56  N   UNL A   1      45.514  30.045  27.862  1.00  0.00    -0.354 N 
ATOM     57  N   UNL A   1      43.241  31.152  29.359  1.00  0.00    -0.248 NA
ATOM     58  C   UNL A   1      42.362  32.742  30.826  1.00  0.00     0.031 C 
ATOM     59  C   UNL A   1      47.430  31.169  27.876  1.00  0.00     0.029 A 
ATOM     60  C   UNL A   1      46.136  31.173  28.370  1.00  0.00     0.049 A 
ATOM     61  H   UNL A   1      44.586  29.779  28.051  1.00  0.00     0.167 HD
ATOM     62  C   UNL A   1      44.224  32.086  29.660  1.00  0.00     0.074 A 
ATOM     63  C   UNL A   1      43.619  33.059  30.547  1.00  0.00     0.031 C 
ATOM     64  C   UNL A   1      45.514  32.132  29.245  1.00  0.00     0.037 A 
BRANCH  51  65
ATOM     65  C   UNL A   1      47.137  27.467  25.535  1.00  0.00     0.057 A 
ATOM     66  C   UNL A   1      48.043  26.546  26.075  1.00  0.00     0.134 A 
ATOM     67  C   UNL A   1      47.244  27.748  24.166  1.00  0.00     0.134 A 
ATOM     68  F   UNL A   1      48.006  26.245  27.382  1.00  0.00    -0.206 F 
ATOM     69  C   UNL A   1      49.030  25.947  25.290  1.00  0.00     0.040 A 
ATOM     70  C   UNL A   1      48.210  27.138  23.365  1.00  0.00     0.040 A 
ATOM     71  F   UNL A   1      46.405  28.618  23.582  1.00  0.00    -0.206 F 
ATOM     72  C   UNL A   1      49.112  26.238  23.929  1.00  0.00     0.006 A 
ENDBRANCH  51  65
BRANCH  52  73
ATOM     73  C   UNL A   1      39.735  31.461  30.914  1.00  0.00     0.057 A 
ATOM     74  C   UNL A   1      38.857  32.423  30.407  1.00  0.00     0.134 A 
ATOM     75  C   UNL A   1      39.559  31.067  32.247  1.00  0.00     0.134 A 
ATOM     76  F   UNL A   1      38.991  32.863  29.146  1.00  0.00    -0.206 F 
ATOM     77  C   UNL A   1      37.846  32.979  31.194  1.00  0.00     0.040 A 
ATOM     78  C   UNL A   1      38.536  31.591  33.037  1.00  0.00     0.040 A 
ATOM     79  F   UNL A   1      40.369  30.149  32.795  1.00  0.00    -0.206 F 
ATOM     80  C   UNL A   1      37.679  32.556  32.512  1.00  0.00     0.006 A 
ENDBRANCH  52  73
BRANCH  64  81
ATOM     81  C   UNL A   1      46.341  33.290  29.718  1.00  0.00     0.057 A 
ATOM     82  C   UNL A   1      46.388  34.499  29.013  1.00  0.00     0.134 A 
ATOM     83  C   UNL A   1      47.071  33.203  30.909  1.00  0.00     0.134 A 
ATOM     84  F   UNL A   1      45.722  34.639  27.857  1.00  0.00    -0.206 F 
ATOM     85  C   UNL A   1      47.151  35.576  29.468  1.00  0.00     0.040 A 
ATOM     86  C   UNL A   1      47.818  34.280  31.386  1.00  0.00     0.040 A 
ATOM     87  F   UNL A   1      47.061  32.075  31.634  1.00  0.00    -0.206 F 
ATOM     88  C   UNL A   1      47.864  35.470  30.661  1.00  0.00     0.006 A 
ENDBRANCH  64  81
ENDBRANCH  38  39
ENDBRANCH  31  33
ENDBRANCH  30  31
ENDBRANCH  29  30
ENDBRANCH  28  29
ENDBRANCH  27  28
ENDBRANCH  26  27
ENDBRANCH   1  26
TORSDOF 22
ENDMDL
MODEL 2
REMARK VINA RESULT:      -8.9      2.763      4.149
REMARK SMILES CN(C)S(=O)(=O)c1ccc(N(CC(=O)OCCOCCOCCOC(=O)c2ccc(-c3c4nc(c(-c5c(F)cccc5F)c5ccc([nH]5)c(-c5c(F)cccc5F)c5nc(c(-c6c(F)cccc6F)c6ccc3[nH]6)C=C5)C=C4)cc2)C(C)(C)C)cc1
REMARK SMILES IDX 19 1 18 2 17 3 16 4 15 5 13 6 14 7 12 8 11 9 10 10 7 11 8 12
REMARK SMILES IDX 86 13 9 14 85 15 4 16 5 17 6 18 2 19 1 20 3 21 81 22 82 23
REMARK SMILES IDX 83 24 84 25 20 26 21 27 22 28 23 29 24 30 25 31 26 32 27 33
REMARK SMILES IDX 28 34 80 35 29 36 79 37 30 38 31 39 32 40 73 41 33 42 78 43
REMARK SMILES IDX 72 44 74 45 34 46 77 47 71 48 70 49 35 51 61 52 44 53 60 54
REMARK SMILES IDX 45 55 48 56 59 57 75 58 46 59 47 60 58 62 76 63 49 64 36 65
REMARK SMILES IDX 37 66 42 67 38 68 39 69 41 70 43 71 40 72 62 73 63 74 68 75
REMARK SMILES IDX 64 76 65 77 67 78 69 79 66 80 50 81 51 82 56 83 52 84 53 85
REMARK SMILES IDX 55 86 57 87 54 88
REMARK H PARENT 74 50 48 61
REMARK Flexibility Score: inf
ROOT
ATOM      1  C   UNL A   1      34.458  23.229  22.928  1.00  0.00     0.188 C 
ENDROOT
BRANCH   1   2
ATOM      2  O   UNL A   1      33.078  23.511  22.739  1.00  0.00    -0.376 OA
BRANCH   2   3
ATOM      3  C   UNL A   1      32.230  23.596  23.877  1.00  0.00     0.202 C 
BRANCH   3   4
ATOM      4  C   UNL A   1      31.681  24.993  24.191  1.00  0.00     0.261 C 
BRANCH   4   5
ATOM      5  O   UNL A   1      32.624  26.040  23.883  1.00  0.00    -0.462 OA
BRANCH   5   6
ATOM      6  C   UNL A   1      33.194  26.668  24.943  1.00  0.00     0.325 C 
ATOM      7  O   UNL A   1      33.403  26.122  26.025  1.00  0.00    -0.250 OA
BRANCH   6   8
ATOM      8  C   UNL A   1      33.716  28.082  24.664  1.00  0.00     0.239 C 
BRANCH   8   9
ATOM      9  N   UNL A   1      33.152  29.232  25.452  1.00  0.00    -0.356 N 
BRANCH   9  10
ATOM     10  C   UNL A   1      31.905  29.750  25.027  1.00  0.00     0.038 A 
ATOM     11  C   UNL A   1      29.590  30.999  23.910  1.00  0.00     0.082 A 
ATOM     12  C   UNL A   1      30.194  31.529  25.044  1.00  0.00     0.024 A 
ATOM     13  C   UNL A   1      30.048  29.800  23.391  1.00  0.00     0.024 A 
ATOM     14  C   UNL A   1      31.315  30.892  25.605  1.00  0.00     0.027 A 
ATOM     15  C   UNL A   1      31.178  29.195  23.954  1.00  0.00     0.027 A 
BRANCH  11  16
ATOM     16  S   UNL A   1      28.274  31.887  23.122  1.00  0.00     0.242 S 
ATOM     17  O   UNL A   1      28.583  33.299  23.206  1.00  0.00    -0.207 OA
ATOM     18  O   UNL A   1      27.040  31.349  23.654  1.00  0.00    -0.207 OA
BRANCH  16  19
ATOM     19  N   UNL A   1      28.379  31.451  21.463  1.00  0.00    -0.204 NA
ATOM     20  C   UNL A   1      27.701  30.168  21.162  1.00  0.00     0.124 C 
ATOM     21  C   UNL A   1      27.976  32.506  20.502  1.00  0.00     0.124 C 
ENDBRANCH  16  19
ENDBRANCH  11  16
ENDBRANCH   9  10
BRANCH   9  22
ATOM     22  C   UNL A   1      33.604  29.427  26.894  1.00  0.00     0.032 C 
ATOM     23  C   UNL A   1      35.074  28.980  27.102  1.00  0.00     0.034 C 
ATOM     24  C   UNL A   1      33.417  30.890  27.356  1.00  0.00     0.034 C 
ATOM     25  C   UNL A   1      32.756  28.608  27.891  1.00  0.00     0.034 C 
ENDBRANCH   9  22
ENDBRANCH   8   9
ENDBRANCH   6   8
ENDBRANCH   5   6
ENDBRANCH   4   5
ENDBRANCH   3   4
ENDBRANCH   2   3
ENDBRANCH   1   2
BRANCH   1  26
ATOM     26  C   UNL A   1      34.984  22.887  24.328  1.00  0.00     0.188 C 
BRANCH  26  27
ATOM     27  O   UNL A   1      35.524  21.599  24.568  1.00  0.00    -0.376 OA
BRANCH  27  28
ATOM     28  C   UNL A   1      36.325  21.441  25.731  1.00  0.00     0.202 C 
BRANCH  28  29
ATOM     29  C   UNL A   1      37.832  21.532  25.482  1.00  0.00     0.261 C 
BRANCH  29  30
ATOM     30  O   UNL A   1      38.383  22.733  26.063  1.00  0.00    -0.460 OA
BRANCH  30  31
ATOM     31  C   UNL A   1      39.525  22.541  26.763  1.00  0.00     0.338 C 
ATOM     32  O   UNL A   1      39.990  21.482  27.148  1.00  0.00    -0.246 OA
BRANCH  31  33
ATOM     33  C   UNL A   1      40.231  23.817  26.967  1.00  0.00     0.060 A 
ATOM     34  C   UNL A   1      40.936  24.020  28.150  1.00  0.00     0.016 A 
ATOM     35  C   UNL A   1      40.007  24.882  26.101  1.00  0.00     0.016 A 
ATOM     36  C   UNL A   1      41.342  25.300  28.527  1.00  0.00     0.010 A 
ATOM     37  C   UNL A   1      40.477  26.156  26.443  1.00  0.00     0.010 A 
ATOM     38  C   UNL A   1      41.107  26.388  27.681  1.00  0.00    -0.014 A 
BRANCH  38  39
ATOM     39  C   UNL A   1      41.415  27.780  28.114  1.00  0.00     0.031 A 
ATOM     40  C   UNL A   1      42.846  28.252  28.113  1.00  0.00     0.074 A 
ATOM     41  C   UNL A   1      40.442  28.628  28.500  1.00  0.00     0.049 A 
ATOM     42  N   UNL A   1      43.380  29.290  28.704  1.00  0.00    -0.248 NA
ATOM     43  C   UNL A   1      43.804  27.434  27.352  1.00  0.00     0.031 C 
ATOM     44  C   UNL A   1      39.005  28.354  28.460  1.00  0.00     0.029 A 
ATOM     45  N   UNL A   1      40.523  29.899  29.016  1.00  0.00    -0.354 N 
ATOM     46  C   UNL A   1      44.743  29.209  28.449  1.00  0.00     0.074 A 
ATOM     47  C   UNL A   1      44.953  28.030  27.635  1.00  0.00     0.031 C 
ATOM     48  C   UNL A   1      38.341  29.424  28.924  1.00  0.00     0.029 A 
ATOM     49  C   UNL A   1      39.305  30.417  29.386  1.00  0.00     0.049 A 
ATOM     50  H   UNL A   1      41.371  30.391  29.113  1.00  0.00     0.167 HD
ATOM     51  C   UNL A   1      45.730  30.039  28.867  1.00  0.00     0.037 A 
ATOM     52  C   UNL A   1      38.998  31.531  30.078  1.00  0.00     0.037 A 
ATOM     53  C   UNL A   1      45.504  31.241  29.627  1.00  0.00     0.049 A 
ATOM     54  C   UNL A   1      40.109  32.407  30.586  1.00  0.00     0.074 A 
ATOM     55  C   UNL A   1      46.432  32.149  30.104  1.00  0.00     0.029 A 
ATOM     56  N   UNL A   1      44.255  31.710  30.002  1.00  0.00    -0.354 N 
ATOM     57  N   UNL A   1      41.404  32.278  30.426  1.00  0.00    -0.248 NA
ATOM     58  C   UNL A   1      39.718  33.571  31.395  1.00  0.00     0.031 C 
ATOM     59  C   UNL A   1      45.745  33.152  30.799  1.00  0.00     0.029 A 
ATOM     60  C   UNL A   1      44.388  32.889  30.716  1.00  0.00     0.049 A 
ATOM     61  H   UNL A   1      43.400  31.270  29.793  1.00  0.00     0.167 HD
ATOM     62  C   UNL A   1      41.980  33.347  31.100  1.00  0.00     0.074 A 
ATOM     63  C   UNL A   1      40.893  34.126  31.657  1.00  0.00     0.031 C 
ATOM     64  C   UNL A   1      43.292  33.653  31.254  1.00  0.00     0.037 A 
BRANCH  51  65
ATOM     65  C   UNL A   1      47.145  29.645  28.559  1.00  0.00     0.057 A 
ATOM     66  C   UNL A   1      47.919  28.873  29.435  1.00  0.00     0.134 A 
ATOM     67  C   UNL A   1      47.736  30.031  27.348  1.00  0.00     0.134 A 
ATOM     68  F   UNL A   1      47.421  28.484  30.618  1.00  0.00    -0.206 F 
ATOM     69  C   UNL A   1      49.234  28.521  29.128  1.00  0.00     0.040 A 
ATOM     70  C   UNL A   1      49.041  29.664  27.018  1.00  0.00     0.040 A 
ATOM     71  F   UNL A   1      47.050  30.768  26.461  1.00  0.00    -0.206 F 
ATOM     72  C   UNL A   1      49.797  28.911  27.914  1.00  0.00     0.006 A 
ENDBRANCH  51  65
BRANCH  52  73
ATOM     73  C   UNL A   1      37.581  31.841  30.398  1.00  0.00     0.057 A 
ATOM     74  C   UNL A   1      36.985  31.378  31.575  1.00  0.00     0.134 A 
ATOM     75  C   UNL A   1      36.788  32.605  29.531  1.00  0.00     0.134 A 
ATOM     76  F   UNL A   1      37.683  30.619  32.432  1.00  0.00    -0.206 F 
ATOM     77  C   UNL A   1      35.650  31.656  31.876  1.00  0.00     0.040 A 
ATOM     78  C   UNL A   1      35.462  32.915  29.833  1.00  0.00     0.040 A 
ATOM     79  F   UNL A   1      37.299  33.077  28.384  1.00  0.00    -0.206 F 
ATOM     80  C   UNL A   1      34.887  32.434  31.007  1.00  0.00     0.006 A 
ENDBRANCH  52  73
BRANCH  64  81
ATOM     81  C   UNL A   1      43.616  34.900  32.021  1.00  0.00     0.057 A 
ATOM     82  C   UNL A   1      43.633  36.158  31.408  1.00  0.00     0.134 A 
ATOM     83  C   UNL A   1      43.882  34.841  33.394  1.00  0.00     0.134 A 
ATOM     84  F   UNL A   1      43.402  36.278  30.092  1.00  0.00    -0.206 F 
ATOM     85  C   UNL A   1      43.924  37.316  32.132  1.00  0.00     0.040 A 
ATOM     86  C   UNL A   1      44.151  35.993  34.133  1.00  0.00     0.040 A 
ATOM     87  F   UNL A   1      43.874  33.666  34.040  1.00  0.00    -0.206 F 
ATOM     88  C   UNL A   1      44.178  37.235  33.501  1.00  0.00     0.006 A 
ENDBRANCH  64  81
ENDBRANCH  38  39
ENDBRANCH  31  33
ENDBRANCH  30  31
ENDBRANCH  29  30
ENDBRANCH  28  29
ENDBRANCH  27  28
ENDBRANCH  26  27
ENDBRANCH   1  26
TORSDOF 22
ENDMDL
MODEL 3
REMARK VINA RESULT:      -8.3      3.468      6.472
REMARK SMILES CN(C)S(=O)(=O)c1ccc(N(CC(=O)OCCOCCOCCOC(=O)c2ccc(-c3c4nc(c(-c5c(F)cccc5F)c5ccc([nH]5)c(-c5c(F)cccc5F)c5nc(c(-c6c(F)cccc6F)c6ccc3[nH]6)C=C5)C=C4)cc2)C(C)(C)C)cc1
REMARK SMILES IDX 19 1 18 2 17 3 16 4 15 5 13 6 14 7 12 8 11 9 10 10 7 11 8 12
REMARK SMILES IDX 86 13 9 14 85 15 4 16 5 17 6 18 2 19 1 20 3 21 81 22 82 23
REMARK SMILES IDX 83 24 84 25 20 26 21 27 22 28 23 29 24 30 25 31 26 32 27 33
REMARK SMILES IDX 28 34 80 35 29 36 79 37 30 38 31 39 32 40 73 41 33 42 78 43
REMARK SMILES IDX 72 44 74 45 34 46 77 47 71 48 70 49 35 51 61 52 44 53 60 54
REMARK SMILES IDX 45 55 48 56 59 57 75 58 46 59 47 60 58 62 76 63 49 64 36 65
REMARK SMILES IDX 37 66 42 67 38 68 39 69 41 70 43 71 40 72 62 73 63 74 68 75
REMARK SMILES IDX 64 76 65 77 67 78 69 79 66 80 50 81 51 82 56 83 52 84 53 85
REMARK SMILES IDX 55 86 57 87 54 88
REMARK H PARENT 74 50 48 61
REMARK Flexibility Score: inf
ROOT
ATOM      1  C   UNL A   1      39.040  28.666  30.478  1.00  0.00     0.188 C 
ENDROOT
BRANCH   1   2
ATOM      2  O   UNL A   1      38.000  29.458  29.917  1.00  0.00    -0.376 OA
BRANCH   2   3
ATOM      3  C   UNL A   1      37.394  29.038  28.702  1.00  0.00     0.202 C 
BRANCH   3   4
ATOM      4  C   UNL A   1      36.063  29.717  28.358  1.00  0.00     0.261 C 
BRANCH   4   5
ATOM      5  O   UNL A   1      35.263  28.935  27.446  1.00  0.00    -0.462 OA
BRANCH   5   6
ATOM      6  C   UNL A   1      34.259  29.591  26.811  1.00  0.00     0.325 C 
ATOM      7  O   UNL A   1      33.634  30.525  27.310  1.00  0.00    -0.250 OA
BRANCH   6   8
ATOM      8  C   UNL A   1      34.043  29.196  25.345  1.00  0.00     0.239 C 
BRANCH   8   9
ATOM      9  N   UNL A   1      33.091  28.077  25.029  1.00  0.00    -0.356 N 
BRANCH   9  10
ATOM     10  C   UNL A   1      33.632  26.771  24.970  1.00  0.00     0.038 A 
ATOM     11  C   UNL A   1      34.361  24.010  24.852  1.00  0.00     0.082 A 
ATOM     12  C   UNL A   1      34.313  24.670  26.074  1.00  0.00     0.024 A 
ATOM     13  C   UNL A   1      34.164  24.725  23.683  1.00  0.00     0.024 A 
ATOM     14  C   UNL A   1      33.982  26.036  26.121  1.00  0.00     0.027 A 
ATOM     15  C   UNL A   1      33.816  26.079  23.756  1.00  0.00     0.027 A 
BRANCH  11  16
ATOM     16  S   UNL A   1      34.629  22.259  24.813  1.00  0.00     0.242 S 
ATOM     17  O   UNL A   1      34.844  21.815  26.173  1.00  0.00    -0.207 OA
ATOM     18  O   UNL A   1      35.608  22.017  23.774  1.00  0.00    -0.207 OA
BRANCH  16  19
ATOM     19  N   UNL A   1      33.129  21.594  24.302  1.00  0.00    -0.204 NA
ATOM     20  C   UNL A   1      33.120  20.113  24.322  1.00  0.00     0.124 C 
ATOM     21  C   UNL A   1      31.928  22.144  24.975  1.00  0.00     0.124 C 
ENDBRANCH  16  19
ENDBRANCH  11  16
ENDBRANCH   9  10
BRANCH   9  22
ATOM     22  C   UNL A   1      31.606  28.271  25.314  1.00  0.00     0.032 C 
ATOM     23  C   UNL A   1      30.727  27.319  24.462  1.00  0.00     0.034 C 
ATOM     24  C   UNL A   1      31.287  28.094  26.816  1.00  0.00     0.034 C 
ATOM     25  C   UNL A   1      31.129  29.704  24.996  1.00  0.00     0.034 C 
ENDBRANCH   9  22
ENDBRANCH   8   9
ENDBRANCH   6   8
ENDBRANCH   5   6
ENDBRANCH   4   5
ENDBRANCH   3   4
ENDBRANCH   2   3
ENDBRANCH   1   2
BRANCH   1  26
ATOM     26  C   UNL A   1      40.388  28.552  29.755  1.00  0.00     0.188 C 
BRANCH  26  27
ATOM     27  O   UNL A   1      40.680  27.377  29.018  1.00  0.00    -0.376 OA
BRANCH  27  28
ATOM     28  C   UNL A   1      39.668  26.381  28.962  1.00  0.00     0.202 C 
BRANCH  28  29
ATOM     29  C   UNL A   1      39.948  25.246  27.975  1.00  0.00     0.261 C 
BRANCH  29  30
ATOM     30  O   UNL A   1      41.054  24.432  28.419  1.00  0.00    -0.460 OA
BRANCH  30  31
ATOM     31  C   UNL A   1      41.763  23.859  27.418  1.00  0.00     0.338 C 
ATOM     32  O   UNL A   1      41.473  22.860  26.782  1.00  0.00    -0.246 OA
BRANCH  31  33
ATOM     33  C   UNL A   1      42.961  24.655  27.107  1.00  0.00     0.060 A 
ATOM     34  C   UNL A   1      43.736  25.151  28.152  1.00  0.00     0.016 A 
ATOM     35  C   UNL A   1      43.185  25.097  25.807  1.00  0.00     0.016 A 
ATOM     36  C   UNL A   1      44.674  26.159  27.928  1.00  0.00     0.010 A 
ATOM     37  C   UNL A   1      44.176  26.056  25.569  1.00  0.00     0.010 A 
ATOM     38  C   UNL A   1      44.898  26.633  26.633  1.00  0.00    -0.014 A 
BRANCH  38  39
ATOM     39  C   UNL A   1      45.799  27.793  26.382  1.00  0.00     0.031 A 
ATOM     40  C   UNL A   1      47.250  27.542  26.063  1.00  0.00     0.074 A 
ATOM     41  C   UNL A   1      45.345  29.060  26.429  1.00  0.00     0.049 A 
ATOM     42  N   UNL A   1      48.264  28.370  26.093  1.00  0.00    -0.248 NA
ATOM     43  C   UNL A   1      47.606  26.169  25.669  1.00  0.00     0.031 C 
ATOM     44  C   UNL A   1      43.951  29.459  26.625  1.00  0.00     0.029 A 
ATOM     45  N   UNL A   1      46.020  30.252  26.324  1.00  0.00    -0.354 N 
ATOM     46  C   UNL A   1      49.384  27.604  25.795  1.00  0.00     0.074 A 
ATOM     47  C   UNL A   1      48.925  26.249  25.572  1.00  0.00     0.031 C 
ATOM     48  C   UNL A   1      43.873  30.799  26.620  1.00  0.00     0.029 A 
ATOM     49  C   UNL A   1      45.220  31.352  26.521  1.00  0.00     0.049 A 
ATOM     50  H   UNL A   1      46.983  30.312  26.129  1.00  0.00     0.167 HD
ATOM     51  C   UNL A   1      50.680  27.997  25.728  1.00  0.00     0.037 A 
ATOM     52  C   UNL A   1      45.538  32.652  26.673  1.00  0.00     0.037 A 
ATOM     53  C   UNL A   1      51.119  29.357  25.895  1.00  0.00     0.049 A 
ATOM     54  C   UNL A   1      46.984  33.060  26.655  1.00  0.00     0.074 A 
ATOM     55  C   UNL A   1      52.407  29.862  25.850  1.00  0.00     0.029 A 
ATOM     56  N   UNL A   1      50.275  30.434  26.120  1.00  0.00    -0.354 N 
ATOM     57  N   UNL A   1      48.051  32.320  26.469  1.00  0.00    -0.248 NA
ATOM     58  C   UNL A   1      47.274  34.481  26.896  1.00  0.00     0.031 C 
ATOM     59  C   UNL A   1      52.344  31.241  26.083  1.00  0.00     0.029 A 
ATOM     60  C   UNL A   1      51.014  31.599  26.229  1.00  0.00     0.049 A 
ATOM     61  H   UNL A   1      49.295  30.377  26.193  1.00  0.00     0.167 HD
ATOM     62  C   UNL A   1      49.134  33.185  26.557  1.00  0.00     0.074 A 
ATOM     63  C   UNL A   1      48.596  34.509  26.795  1.00  0.00     0.031 C 
ATOM     64  C   UNL A   1      50.458  32.908  26.458  1.00  0.00     0.037 A 
BRANCH  51  65
ATOM     65  C   UNL A   1      51.718  26.933  25.517  1.00  0.00     0.057 A 
ATOM     66  C   UNL A   1      52.235  26.167  26.569  1.00  0.00     0.134 A 
ATOM     67  C   UNL A   1      52.191  26.657  24.227  1.00  0.00     0.134 A 
ATOM     68  F   UNL A   1      51.838  26.391  27.831  1.00  0.00    -0.206 F 
ATOM     69  C   UNL A   1      53.201  25.184  26.349  1.00  0.00     0.040 A 
ATOM     70  C   UNL A   1      53.138  25.661  23.990  1.00  0.00     0.040 A 
ATOM     71  F   UNL A   1      51.735  27.351  23.172  1.00  0.00    -0.206 F 
ATOM     72  C   UNL A   1      53.652  24.925  25.056  1.00  0.00     0.006 A 
ENDBRANCH  51  65
BRANCH  52  73
ATOM     73  C   UNL A   1      44.470  33.653  26.932  1.00  0.00     0.057 A 
ATOM     74  C   UNL A   1      44.051  33.947  28.232  1.00  0.00     0.134 A 
ATOM     75  C   UNL A   1      43.841  34.335  25.882  1.00  0.00     0.134 A 
ATOM     76  F   UNL A   1      44.595  33.306  29.278  1.00  0.00    -0.206 F 
ATOM     77  C   UNL A   1      43.040  34.877  28.483  1.00  0.00     0.040 A 
ATOM     78  C   UNL A   1      42.851  35.289  26.118  1.00  0.00     0.040 A 
ATOM     79  F   UNL A   1      44.195  34.098  24.610  1.00  0.00    -0.206 F 
ATOM     80  C   UNL A   1      42.443  35.558  27.423  1.00  0.00     0.006 A 
ENDBRANCH  52  73
BRANCH  64  81
ATOM     81  C   UNL A   1      51.407  34.063  26.570  1.00  0.00     0.057 A 
ATOM     82  C   UNL A   1      51.973  34.436  27.795  1.00  0.00     0.134 A 
ATOM     83  C   UNL A   1      51.780  34.789  25.433  1.00  0.00     0.134 A 
ATOM     84  F   UNL A   1      51.643  33.789  28.922  1.00  0.00    -0.206 F 
ATOM     85  C   UNL A   1      52.866  35.505  27.887  1.00  0.00     0.040 A 
ATOM     86  C   UNL A   1      52.689  35.845  25.509  1.00  0.00     0.040 A 
ATOM     87  F   UNL A   1      51.278  34.477  24.229  1.00  0.00    -0.206 F 
ATOM     88  C   UNL A   1      53.230  36.210  26.741  1.00  0.00     0.006 A 
ENDBRANCH  64  81
ENDBRANCH  38  39
ENDBRANCH  31  33
ENDBRANCH  30  31
ENDBRANCH  29  30
ENDBRANCH  28  29
ENDBRANCH  27  28
ENDBRANCH  26  27
ENDBRANCH   1  26
TORSDOF 22
ENDMDL
