MODEL 1
REMARK VINA RESULT:     -12.9      0.000      0.000
REMARK SMILES Cc1ccc(-c2nc(NC(=O)[C@H]3[C@@H](C(=O)OCCOCCOCCOC(=O)c4ccc(-c5c6nc(c(-c7c(F)cccc7F)c7ccc([nH]7)c(-c7c(F)cccc7F)c7nc(c(-c8c(F)cccc8F)c8ccc5[nH]8)C=C7)C=C6)cc4)[C@@H]4CC[C@H]3O4)sc2C)cc1
REMARK SMILES IDX 20 1 19 2 18 3 17 4 16 5 14 6 15 7 13 8 12 9 85 10 82 11
REMARK SMILES IDX 84 12 86 13 83 14 10 15 9 16 11 18 8 19 6 20 7 21 88 22
REMARK SMILES IDX 87 23 89 24 5 25 1 26 2 27 3 28 91 29 4 30 90 31 21 32 22 33
REMARK SMILES IDX 23 34 24 35 25 36 26 37 27 38 28 39 29 40 81 41 30 42 80 43
REMARK SMILES IDX 31 44 32 45 33 46 74 47 34 48 79 49 73 50 75 51 35 52 78 53
REMARK SMILES IDX 72 54 71 55 36 57 62 58 45 59 61 60 46 61 49 62 60 63 76 64
REMARK SMILES IDX 47 65 48 66 59 68 77 69 50 70 37 71 38 72 43 73 39 74 40 75
REMARK SMILES IDX 42 76 44 77 41 78 63 79 64 80 69 81 65 82 66 83 68 84 70 85
REMARK SMILES IDX 67 86 51 87 52 88 57 89 53 90 54 91 56 92 58 93 55 94
REMARK H PARENT 9 17 75 56 49 67
REMARK Flexibility Score: inf
ROOT
ATOM      1  C   UNL A   1      34.016  32.985  28.265  1.00  0.00     0.188 C 
ENDROOT
BRANCH   1   2
ATOM      2  O   UNL A   1      34.541  31.802  27.656  1.00  0.00    -0.376 OA
BRANCH   2   3
ATOM      3  C   UNL A   1      33.654  30.771  27.217  1.00  0.00     0.202 C 
BRANCH   3   4
ATOM      4  C   UNL A   1      34.284  29.422  26.810  1.00  0.00     0.261 C 
BRANCH   4   5
ATOM      5  O   UNL A   1      33.614  28.544  25.823  1.00  0.00    -0.463 OA
BRANCH   5   6
ATOM      6  C   UNL A   1      33.191  28.840  24.572  1.00  0.00     0.312 C 
ATOM      7  O   UNL A   1      33.774  29.161  23.546  1.00  0.00    -0.252 OA
BRANCH   6   8
ATOM      8  C   UNL A   1      31.764  28.861  24.374  1.00  0.00     0.143 C 
ATOM      9  C   UNL A   1      30.955  27.784  25.077  1.00  0.00     0.124 C 
ATOM     10  C   UNL A   1      30.405  27.242  23.678  1.00  0.00     0.132 C 
ATOM     11  C   UNL A   1      31.771  28.695  22.851  1.00  0.00     0.133 C 
ATOM     12  C   UNL A   1      29.519  28.290  22.880  1.00  0.00     0.035 C 
ATOM     13  O   UNL A   1      31.555  27.282  22.783  1.00  0.00    -0.373 OA
ATOM     14  C   UNL A   1      30.513  29.298  22.296  1.00  0.00     0.036 C 
BRANCH   9  15
ATOM     15  C   UNL A   1      31.707  26.710  26.174  1.00  0.00     0.232 C 
ATOM     16  N   UNL A   1      32.853  25.848  25.957  1.00  0.00    -0.302 N 
ATOM     17  H   UNL A   1      33.720  26.314  26.001  1.00  0.00     0.172 HD
ATOM     18  O   UNL A   1      31.380  26.828  27.367  1.00  0.00    -0.274 OA
BRANCH  16  19
ATOM     19  C   UNL A   1      32.960  24.394  25.681  1.00  0.00     0.190 A 
ATOM     20  C   UNL A   1      32.794  22.110  25.090  1.00  0.00     0.086 A 
ATOM     21  N   UNL A   1      32.090  23.400  25.325  1.00  0.00    -0.220 NA
ATOM     22  C   UNL A   1      34.148  22.342  25.142  1.00  0.00     0.031 A 
ATOM     23  S   UNL A   1      34.451  23.730  26.063  1.00  0.00    -0.101 S 
ATOM     24  C   UNL A   1      35.223  21.502  24.587  1.00  0.00     0.059 C 
BRANCH  20  25
ATOM     25  C   UNL A   1      32.446  20.656  24.664  1.00  0.00     0.001 A 
ATOM     26  C   UNL A   1      33.671  16.578  23.373  1.00  0.00     0.044 C 
ATOM     27  C   UNL A   1      33.108  17.907  23.837  1.00  0.00    -0.051 A 
ATOM     28  C   UNL A   1      32.566  18.856  22.950  1.00  0.00     0.004 A 
ATOM     29  C   UNL A   1      33.196  18.291  25.168  1.00  0.00     0.004 A 
ATOM     30  C   UNL A   1      32.272  20.215  23.344  1.00  0.00     0.010 A 
ATOM     31  C   UNL A   1      32.800  19.597  25.577  1.00  0.00     0.010 A 
ENDBRANCH  20  25
ENDBRANCH  16  19
ENDBRANCH   9  15
ENDBRANCH   6   8
ENDBRANCH   5   6
ENDBRANCH   4   5
ENDBRANCH   3   4
ENDBRANCH   2   3
ENDBRANCH   1   2
BRANCH   1  32
ATOM     32  C   UNL A   1      32.669  33.487  27.738  1.00  0.00     0.188 C 
BRANCH  32  33
ATOM     33  O   UNL A   1      32.485  34.809  28.211  1.00  0.00    -0.376 OA
BRANCH  33  34
ATOM     34  C   UNL A   1      33.631  35.483  28.695  1.00  0.00     0.202 C 
BRANCH  34  35
ATOM     35  C   UNL A   1      33.231  36.543  29.730  1.00  0.00     0.261 C 
BRANCH  35  36
ATOM     36  O   UNL A   1      32.457  35.921  30.797  1.00  0.00    -0.460 OA
BRANCH  36  37
ATOM     37  C   UNL A   1      32.753  36.254  32.101  1.00  0.00     0.338 C 
ATOM     38  O   UNL A   1      32.502  37.326  32.617  1.00  0.00    -0.246 OA
BRANCH  37  39
ATOM     39  C   UNL A   1      33.668  35.220  32.737  1.00  0.00     0.060 A 
ATOM     40  C   UNL A   1      34.671  35.442  33.710  1.00  0.00     0.016 A 
ATOM     41  C   UNL A   1      33.819  34.080  32.029  1.00  0.00     0.016 A 
ATOM     42  C   UNL A   1      35.835  34.543  33.887  1.00  0.00     0.010 A 
ATOM     43  C   UNL A   1      35.120  33.572  32.020  1.00  0.00     0.010 A 
ATOM     44  C   UNL A   1      36.140  33.522  32.986  1.00  0.00    -0.014 A 
BRANCH  44  45
ATOM     45  C   UNL A   1      37.586  32.722  32.685  1.00  0.00     0.031 A 
ATOM     46  C   UNL A   1      38.038  31.135  32.032  1.00  0.00     0.074 A 
ATOM     47  C   UNL A   1      38.467  33.748  32.632  1.00  0.00     0.049 A 
ATOM     48  N   UNL A   1      39.083  30.308  32.251  1.00  0.00    -0.248 NA
ATOM     49  C   UNL A   1      37.256  30.388  31.035  1.00  0.00     0.031 C 
ATOM     50  C   UNL A   1      39.635  34.007  31.837  1.00  0.00     0.029 A 
ATOM     51  N   UNL A   1      38.707  34.532  33.750  1.00  0.00    -0.354 N 
ATOM     52  C   UNL A   1      39.017  29.176  31.296  1.00  0.00     0.074 A 
ATOM     53  C   UNL A   1      37.634  29.112  31.009  1.00  0.00     0.031 C 
ATOM     54  C   UNL A   1      40.642  34.429  32.608  1.00  0.00     0.029 A 
ATOM     55  C   UNL A   1      40.103  34.588  33.916  1.00  0.00     0.049 A 
ATOM     56  H   UNL A   1      38.031  34.966  34.319  1.00  0.00     0.167 HD
ATOM     57  C   UNL A   1      40.040  28.560  30.539  1.00  0.00     0.037 A 
ATOM     58  C   UNL A   1      40.663  34.281  35.101  1.00  0.00     0.037 A 
ATOM     59  C   UNL A   1      41.377  28.925  31.006  1.00  0.00     0.049 A 
ATOM     60  C   UNL A   1      41.398  32.939  35.130  1.00  0.00     0.074 A 
ATOM     61  C   UNL A   1      42.638  29.193  30.462  1.00  0.00     0.029 A 
ATOM     62  N   UNL A   1      41.485  29.268  32.330  1.00  0.00    -0.354 N 
ATOM     63  N   UNL A   1      41.892  32.210  34.144  1.00  0.00    -0.248 NA
ATOM     64  C   UNL A   1      41.551  32.292  36.431  1.00  0.00     0.031 C 
ATOM     65  C   UNL A   1      43.463  29.772  31.485  1.00  0.00     0.029 A 
ATOM     66  C   UNL A   1      42.707  29.799  32.637  1.00  0.00     0.049 A 
ATOM     67  H   UNL A   1      40.762  29.146  32.986  1.00  0.00     0.167 HD
ATOM     68  C   UNL A   1      42.388  31.014  34.692  1.00  0.00     0.074 A 
ATOM     69  C   UNL A   1      42.119  31.129  36.110  1.00  0.00     0.031 C 
ATOM     70  C   UNL A   1      42.917  29.918  34.046  1.00  0.00     0.037 A 
BRANCH  57  71
ATOM     71  C   UNL A   1      39.924  27.774  29.090  1.00  0.00     0.057 A 
ATOM     72  C   UNL A   1      39.438  26.434  29.027  1.00  0.00     0.134 A 
ATOM     73  C   UNL A   1      40.484  28.150  27.835  1.00  0.00     0.134 A 
ATOM     74  F   UNL A   1      38.693  25.913  30.010  1.00  0.00    -0.206 F 
ATOM     75  C   UNL A   1      39.657  25.536  27.947  1.00  0.00     0.040 A 
ATOM     76  C   UNL A   1      40.639  27.282  26.719  1.00  0.00     0.040 A 
ATOM     77  F   UNL A   1      41.020  29.349  27.597  1.00  0.00    -0.206 F 
ATOM     78  C   UNL A   1      40.276  25.953  26.787  1.00  0.00     0.006 A 
ENDBRANCH  57  71
BRANCH  58  79
ATOM     79  C   UNL A   1      39.821  34.970  36.144  1.00  0.00     0.057 A 
ATOM     80  C   UNL A   1      38.924  34.115  36.842  1.00  0.00     0.134 A 
ATOM     81  C   UNL A   1      40.282  36.091  36.843  1.00  0.00     0.134 A 
ATOM     82  F   UNL A   1      38.468  32.997  36.249  1.00  0.00    -0.206 F 
ATOM     83  C   UNL A   1      38.693  34.243  38.215  1.00  0.00     0.040 A 
ATOM     84  C   UNL A   1      40.001  36.258  38.209  1.00  0.00     0.040 A 
ATOM     85  F   UNL A   1      41.167  36.928  36.283  1.00  0.00    -0.206 F 
ATOM     86  C   UNL A   1      39.267  35.298  38.910  1.00  0.00     0.006 A 
ENDBRANCH  58  79
BRANCH  70  87
ATOM     87  C   UNL A   1      43.426  28.631  34.706  1.00  0.00     0.057 A 
ATOM     88  C   UNL A   1      42.588  27.588  35.093  1.00  0.00     0.134 A 
ATOM     89  C   UNL A   1      44.801  28.428  35.029  1.00  0.00     0.134 A 
ATOM     90  F   UNL A   1      41.255  27.713  35.028  1.00  0.00    -0.206 F 
ATOM     91  C   UNL A   1      43.085  26.374  35.592  1.00  0.00     0.040 A 
ATOM     92  C   UNL A   1      45.305  27.240  35.556  1.00  0.00     0.040 A 
ATOM     93  F   UNL A   1      45.739  29.369  34.867  1.00  0.00    -0.206 F 
ATOM     94  C   UNL A   1      44.448  26.189  35.803  1.00  0.00     0.006 A 
ENDBRANCH  70  87
ENDBRANCH  44  45
ENDBRANCH  37  39
ENDBRANCH  36  37
ENDBRANCH  35  36
ENDBRANCH  34  35
ENDBRANCH  33  34
ENDBRANCH  32  33
ENDBRANCH   1  32
TORSDOF 20
ENDMDL
MODEL 2
REMARK VINA RESULT:     -12.2      1.595      2.305
REMARK SMILES Cc1ccc(-c2nc(NC(=O)[C@H]3[C@@H](C(=O)OCCOCCOCCOC(=O)c4ccc(-c5c6nc(c(-c7c(F)cccc7F)c7ccc([nH]7)c(-c7c(F)cccc7F)c7nc(c(-c8c(F)cccc8F)c8ccc5[nH]8)C=C7)C=C6)cc4)[C@@H]4CC[C@H]3O4)sc2C)cc1
REMARK SMILES IDX 20 1 19 2 18 3 17 4 16 5 14 6 15 7 13 8 12 9 85 10 82 11
REMARK SMILES IDX 84 12 86 13 83 14 10 15 9 16 11 18 8 19 6 20 7 21 88 22
REMARK SMILES IDX 87 23 89 24 5 25 1 26 2 27 3 28 91 29 4 30 90 31 21 32 22 33
REMARK SMILES IDX 23 34 24 35 25 36 26 37 27 38 28 39 29 40 81 41 30 42 80 43
REMARK SMILES IDX 31 44 32 45 33 46 74 47 34 48 79 49 73 50 75 51 35 52 78 53
REMARK SMILES IDX 72 54 71 55 36 57 62 58 45 59 61 60 46 61 49 62 60 63 76 64
REMARK SMILES IDX 47 65 48 66 59 68 77 69 50 70 37 71 38 72 43 73 39 74 40 75
REMARK SMILES IDX 42 76 44 77 41 78 63 79 64 80 69 81 65 82 66 83 68 84 70 85
REMARK SMILES IDX 67 86 51 87 52 88 57 89 53 90 54 91 56 92 58 93 55 94
REMARK H PARENT 9 17 75 56 49 67
REMARK Flexibility Score: inf
ROOT
ATOM      1  C   UNL A   1      33.315  31.459  27.727  1.00  0.00     0.188 C 
ENDROOT
BRANCH   1   2
ATOM      2  O   UNL A   1      34.030  30.528  26.910  1.00  0.00    -0.376 OA
BRANCH   2   3
ATOM      3  C   UNL A   1      33.329  29.737  25.949  1.00  0.00     0.202 C 
BRANCH   3   4
ATOM      4  C   UNL A   1      33.695  28.240  25.863  1.00  0.00     0.261 C 
BRANCH   4   5
ATOM      5  O   UNL A   1      32.964  27.337  24.945  1.00  0.00    -0.463 OA
BRANCH   5   6
ATOM      6  C   UNL A   1      32.195  27.651  23.876  1.00  0.00     0.312 C 
ATOM      7  O   UNL A   1      32.412  27.696  22.674  1.00  0.00    -0.252 OA
BRANCH   6   8
ATOM      8  C   UNL A   1      30.856  28.096  24.169  1.00  0.00     0.143 C 
ATOM      9  C   UNL A   1      29.753  27.054  24.107  1.00  0.00     0.124 C 
ATOM     10  C   UNL A   1      28.995  27.880  22.969  1.00  0.00     0.132 C 
ATOM     11  C   UNL A   1      30.744  29.142  23.055  1.00  0.00     0.133 C 
ATOM     12  C   UNL A   1      28.495  29.314  23.434  1.00  0.00     0.035 C 
ATOM     13  O   UNL A   1      30.051  28.353  22.082  1.00  0.00    -0.373 OA
ATOM     14  C   UNL A   1      29.751  30.187  23.474  1.00  0.00     0.036 C 
BRANCH   9  15
ATOM     15  C   UNL A   1      30.131  25.404  23.857  1.00  0.00     0.232 C 
ATOM     16  N   UNL A   1      30.675  24.447  24.801  1.00  0.00    -0.302 N 
ATOM     17  H   UNL A   1      30.011  24.078  25.428  1.00  0.00     0.172 HD
ATOM     18  O   UNL A   1      29.693  24.894  22.812  1.00  0.00    -0.274 OA
BRANCH  16  19
ATOM     19  C   UNL A   1      32.049  23.920  24.996  1.00  0.00     0.190 A 
ATOM     20  C   UNL A   1      34.345  23.362  25.091  1.00  0.00     0.086 A 
ATOM     21  N   UNL A   1      33.263  24.112  24.396  1.00  0.00    -0.220 NA
ATOM     22  C   UNL A   1      33.823  22.821  26.243  1.00  0.00     0.031 A 
ATOM     23  S   UNL A   1      32.148  22.644  26.078  1.00  0.00    -0.101 S 
ATOM     24  C   UNL A   1      34.563  22.359  27.430  1.00  0.00     0.059 C 
BRANCH  20  25
ATOM     25  C   UNL A   1      35.881  23.154  24.967  1.00  0.00     0.001 A 
ATOM     26  C   UNL A   1      39.662  21.201  26.264  1.00  0.00     0.044 C 
ATOM     27  C   UNL A   1      38.454  21.918  25.694  1.00  0.00    -0.051 A 
ATOM     28  C   UNL A   1      38.131  23.248  26.025  1.00  0.00     0.004 A 
ATOM     29  C   UNL A   1      37.545  21.248  24.887  1.00  0.00     0.004 A 
ATOM     30  C   UNL A   1      36.857  23.846  25.699  1.00  0.00     0.010 A 
ATOM     31  C   UNL A   1      36.337  21.879  24.472  1.00  0.00     0.010 A 
ENDBRANCH  20  25
ENDBRANCH  16  19
ENDBRANCH   9  15
ENDBRANCH   6   8
ENDBRANCH   5   6
ENDBRANCH   4   5
ENDBRANCH   3   4
ENDBRANCH   2   3
ENDBRANCH   1   2
BRANCH   1  32
ATOM     32  C   UNL A   1      32.095  32.132  27.093  1.00  0.00     0.188 C 
BRANCH  32  33
ATOM     33  O   UNL A   1      32.203  33.526  27.317  1.00  0.00    -0.376 OA
BRANCH  33  34
ATOM     34  C   UNL A   1      33.301  33.968  28.093  1.00  0.00     0.202 C 
BRANCH  34  35
ATOM     35  C   UNL A   1      32.970  35.300  28.780  1.00  0.00     0.261 C 
BRANCH  35  36
ATOM     36  O   UNL A   1      32.394  35.046  30.094  1.00  0.00    -0.460 OA
BRANCH  36  37
ATOM     37  C   UNL A   1      32.794  35.838  31.149  1.00  0.00     0.338 C 
ATOM     38  O   UNL A   1      32.507  37.012  31.282  1.00  0.00    -0.246 OA
BRANCH  37  39
ATOM     39  C   UNL A   1      33.857  35.142  31.984  1.00  0.00     0.060 A 
ATOM     40  C   UNL A   1      34.989  35.729  32.598  1.00  0.00     0.016 A 
ATOM     41  C   UNL A   1      33.958  33.810  31.784  1.00  0.00     0.016 A 
ATOM     42  C   UNL A   1      36.216  34.965  32.924  1.00  0.00     0.010 A 
ATOM     43  C   UNL A   1      35.267  33.326  31.762  1.00  0.00     0.010 A 
ATOM     44  C   UNL A   1      36.430  33.661  32.476  1.00  0.00    -0.014 A 
BRANCH  44  45
ATOM     45  C   UNL A   1      37.853  32.789  32.286  1.00  0.00     0.031 A 
ATOM     46  C   UNL A   1      38.280  31.202  31.617  1.00  0.00     0.074 A 
ATOM     47  C   UNL A   1      38.789  33.764  32.360  1.00  0.00     0.049 A 
ATOM     48  N   UNL A   1      39.251  30.308  31.903  1.00  0.00    -0.248 NA
ATOM     49  C   UNL A   1      37.561  30.536  30.520  1.00  0.00     0.031 C 
ATOM     50  C   UNL A   1      40.044  33.981  31.693  1.00  0.00     0.029 A 
ATOM     51  N   UNL A   1      38.960  34.493  33.526  1.00  0.00    -0.354 N 
ATOM     52  C   UNL A   1      39.218  29.215  30.902  1.00  0.00     0.074 A 
ATOM     53  C   UNL A   1      37.869  29.242  30.479  1.00  0.00     0.031 C 
ATOM     54  C   UNL A   1      40.990  34.316  32.575  1.00  0.00     0.029 A 
ATOM     55  C   UNL A   1      40.334  34.461  33.829  1.00  0.00     0.049 A 
ATOM     56  H   UNL A   1      38.255  34.945  34.044  1.00  0.00     0.167 HD
ATOM     57  C   UNL A   1      40.276  28.567  30.223  1.00  0.00     0.037 A 
ATOM     58  C   UNL A   1      40.755  34.082  35.050  1.00  0.00     0.037 A 
ATOM     59  C   UNL A   1      41.578  28.837  30.832  1.00  0.00     0.049 A 
ATOM     60  C   UNL A   1      41.410  32.699  35.096  1.00  0.00     0.074 A 
ATOM     61  C   UNL A   1      42.899  29.050  30.425  1.00  0.00     0.029 A 
ATOM     62  N   UNL A   1      41.573  29.128  32.173  1.00  0.00    -0.354 N 
ATOM     63  N   UNL A   1      41.958  31.976  34.135  1.00  0.00    -0.248 NA
ATOM     64  C   UNL A   1      41.397  31.999  36.379  1.00  0.00     0.031 C 
ATOM     65  C   UNL A   1      43.650  29.544  31.545  1.00  0.00     0.029 A 
ATOM     66  C   UNL A   1      42.786  29.575  32.619  1.00  0.00     0.049 A 
ATOM     67  H   UNL A   1      40.782  29.026  32.751  1.00  0.00     0.167 HD
ATOM     68  C   UNL A   1      42.331  30.736  34.680  1.00  0.00     0.074 A 
ATOM     69  C   UNL A   1      41.930  30.817  36.068  1.00  0.00     0.031 C 
ATOM     70  C   UNL A   1      42.861  29.633  34.045  1.00  0.00     0.037 A 
BRANCH  57  71
ATOM     71  C   UNL A   1      40.262  27.840  28.740  1.00  0.00     0.057 A 
ATOM     72  C   UNL A   1      39.792  26.501  28.592  1.00  0.00     0.134 A 
ATOM     73  C   UNL A   1      40.899  28.270  27.540  1.00  0.00     0.134 A 
ATOM     74  F   UNL A   1      38.989  25.936  29.503  1.00  0.00    -0.206 F 
ATOM     75  C   UNL A   1      40.089  25.648  27.493  1.00  0.00     0.040 A 
ATOM     76  C   UNL A   1      41.134  27.448  26.403  1.00  0.00     0.040 A 
ATOM     77  F   UNL A   1      41.440  29.480  27.387  1.00  0.00    -0.206 F 
ATOM     78  C   UNL A   1      40.778  26.115  26.394  1.00  0.00     0.006 A 
ENDBRANCH  57  71
BRANCH  58  79
ATOM     79  C   UNL A   1      39.853  34.782  36.032  1.00  0.00     0.057 A 
ATOM     80  C   UNL A   1      38.872  33.948  36.636  1.00  0.00     0.134 A 
ATOM     81  C   UNL A   1      40.292  35.873  36.791  1.00  0.00     0.134 A 
ATOM     82  F   UNL A   1      38.429  32.858  35.984  1.00  0.00    -0.206 F 
ATOM     83  C   UNL A   1      38.530  34.060  37.987  1.00  0.00     0.040 A 
ATOM     84  C   UNL A   1      39.903  36.027  38.131  1.00  0.00     0.040 A 
ATOM     85  F   UNL A   1      41.249  36.688  36.323  1.00  0.00    -0.206 F 
ATOM     86  C   UNL A   1      39.080  35.082  38.750  1.00  0.00     0.006 A 
ENDBRANCH  58  79
BRANCH  70  87
ATOM     87  C   UNL A   1      43.231  28.297  34.699  1.00  0.00     0.057 A 
ATOM     88  C   UNL A   1      44.522  27.980  35.115  1.00  0.00     0.134 A 
ATOM     89  C   UNL A   1      42.283  27.246  34.880  1.00  0.00     0.134 A 
ATOM     90  F   UNL A   1      45.554  28.789  34.838  1.00  0.00    -0.206 F 
ATOM     91  C   UNL A   1      44.815  26.798  35.812  1.00  0.00     0.040 A 
ATOM     92  C   UNL A   1      42.568  26.052  35.541  1.00  0.00     0.040 A 
ATOM     93  F   UNL A   1      41.027  27.302  34.419  1.00  0.00    -0.206 F 
ATOM     94  C   UNL A   1      43.833  25.841  36.048  1.00  0.00     0.006 A 
ENDBRANCH  70  87
ENDBRANCH  44  45
ENDBRANCH  37  39
ENDBRANCH  36  37
ENDBRANCH  35  36
ENDBRANCH  34  35
ENDBRANCH  33  34
ENDBRANCH  32  33
ENDBRANCH   1  32
TORSDOF 20
ENDMDL
MODEL 3
REMARK VINA RESULT:     -11.9      3.267      6.782
REMARK SMILES Cc1ccc(-c2nc(NC(=O)[C@H]3[C@@H](C(=O)OCCOCCOCCOC(=O)c4ccc(-c5c6nc(c(-c7c(F)cccc7F)c7ccc([nH]7)c(-c7c(F)cccc7F)c7nc(c(-c8c(F)cccc8F)c8ccc5[nH]8)C=C7)C=C6)cc4)[C@@H]4CC[C@H]3O4)sc2C)cc1
REMARK SMILES IDX 20 1 19 2 18 3 17 4 16 5 14 6 15 7 13 8 12 9 85 10 82 11
REMARK SMILES IDX 84 12 86 13 83 14 10 15 9 16 11 18 8 19 6 20 7 21 88 22
REMARK SMILES IDX 87 23 89 24 5 25 1 26 2 27 3 28 91 29 4 30 90 31 21 32 22 33
REMARK SMILES IDX 23 34 24 35 25 36 26 37 27 38 28 39 29 40 81 41 30 42 80 43
REMARK SMILES IDX 31 44 32 45 33 46 74 47 34 48 79 49 73 50 75 51 35 52 78 53
REMARK SMILES IDX 72 54 71 55 36 57 62 58 45 59 61 60 46 61 49 62 60 63 76 64
REMARK SMILES IDX 47 65 48 66 59 68 77 69 50 70 37 71 38 72 43 73 39 74 40 75
REMARK SMILES IDX 42 76 44 77 41 78 63 79 64 80 69 81 65 82 66 83 68 84 70 85
REMARK SMILES IDX 67 86 51 87 52 88 57 89 53 90 54 91 56 92 58 93 55 94
REMARK H PARENT 9 17 75 56 49 67
REMARK Flexibility Score: inf
ROOT
ATOM      1  C   UNL A   1      31.761  27.654  27.329  1.00  0.00     0.188 C 
ENDROOT
BRANCH   1   2
ATOM      2  O   UNL A   1      32.986  27.121  26.821  1.00  0.00    -0.376 OA
BRANCH   2   3
ATOM      3  C   UNL A   1      32.961  26.046  25.879  1.00  0.00     0.202 C 
BRANCH   3   4
ATOM      4  C   UNL A   1      33.084  24.613  26.439  1.00  0.00     0.261 C 
BRANCH   4   5
ATOM      5  O   UNL A   1      34.179  23.721  25.994  1.00  0.00    -0.463 OA
BRANCH   5   6
ATOM      6  C   UNL A   1      34.656  23.520  24.743  1.00  0.00     0.312 C 
ATOM      7  O   UNL A   1      35.082  24.273  23.880  1.00  0.00    -0.252 OA
BRANCH   6   8
ATOM      8  C   UNL A   1      34.610  22.163  24.259  1.00  0.00     0.143 C 
ATOM      9  C   UNL A   1      33.239  21.582  23.962  1.00  0.00     0.124 C 
ATOM     10  C   UNL A   1      33.468  20.418  25.033  1.00  0.00     0.132 C 
ATOM     11  C   UNL A   1      35.287  21.499  25.462  1.00  0.00     0.133 C 
ATOM     12  C   UNL A   1      34.667  19.440  24.679  1.00  0.00     0.035 C 
ATOM     13  O   UNL A   1      34.115  21.071  26.164  1.00  0.00    -0.373 OA
ATOM     14  C   UNL A   1      35.940  20.227  25.004  1.00  0.00     0.036 C 
BRANCH   9  15
ATOM     15  C   UNL A   1      31.841  22.564  24.053  1.00  0.00     0.232 C 
ATOM     16  N   UNL A   1      31.249  23.395  23.022  1.00  0.00    -0.302 N 
ATOM     17  H   UNL A   1      30.713  22.897  22.363  1.00  0.00     0.172 HD
ATOM     18  O   UNL A   1      31.113  22.390  25.045  1.00  0.00    -0.274 OA
BRANCH  16  19
ATOM     19  C   UNL A   1      31.303  24.858  22.777  1.00  0.00     0.190 A 
ATOM     20  C   UNL A   1      31.094  27.207  22.608  1.00  0.00     0.086 A 
ATOM     21  N   UNL A   1      30.452  25.912  22.964  1.00  0.00    -0.220 NA
ATOM     22  C   UNL A   1      32.423  26.973  22.348  1.00  0.00     0.031 A 
ATOM     23  S   UNL A   1      32.635  25.357  21.890  1.00  0.00    -0.101 S 
ATOM     24  C   UNL A   1      33.524  27.952  22.355  1.00  0.00     0.059 C 
BRANCH  20  25
ATOM     25  C   UNL A   1      30.733  28.719  22.598  1.00  0.00     0.001 A 
ATOM     26  C   UNL A   1      27.841  32.037  23.252  1.00  0.00     0.044 C 
ATOM     27  C   UNL A   1      28.940  31.018  23.020  1.00  0.00    -0.051 A 
ATOM     28  C   UNL A   1      29.291  30.556  21.737  1.00  0.00     0.004 A 
ATOM     29  C   UNL A   1      29.588  30.416  24.088  1.00  0.00     0.004 A 
ATOM     30  C   UNL A   1      30.143  29.407  21.528  1.00  0.00     0.010 A 
ATOM     31  C   UNL A   1      30.515  29.355  23.874  1.00  0.00     0.010 A 
ENDBRANCH  20  25
ENDBRANCH  16  19
ENDBRANCH   9  15
ENDBRANCH   6   8
ENDBRANCH   5   6
ENDBRANCH   4   5
ENDBRANCH   3   4
ENDBRANCH   2   3
ENDBRANCH   1   2
BRANCH   1  32
ATOM     32  C   UNL A   1      31.671  29.178  27.444  1.00  0.00     0.188 C 
BRANCH  32  33
ATOM     33  O   UNL A   1      32.089  29.731  26.208  1.00  0.00    -0.376 OA
BRANCH  33  34
ATOM     34  C   UNL A   1      33.217  30.584  26.235  1.00  0.00     0.202 C 
BRANCH  34  35
ATOM     35  C   UNL A   1      33.777  30.685  27.660  1.00  0.00     0.261 C 
BRANCH  35  36
ATOM     36  O   UNL A   1      34.309  32.023  27.886  1.00  0.00    -0.460 OA
BRANCH  36  37
ATOM     37  C   UNL A   1      35.631  32.150  28.253  1.00  0.00     0.338 C 
ATOM     38  O   UNL A   1      36.262  33.188  28.224  1.00  0.00    -0.246 OA
BRANCH  37  39
ATOM     39  C   UNL A   1      36.279  30.788  28.443  1.00  0.00     0.060 A 
ATOM     40  C   UNL A   1      36.450  30.080  29.657  1.00  0.00     0.016 A 
ATOM     41  C   UNL A   1      37.118  30.413  27.455  1.00  0.00     0.016 A 
ATOM     42  C   UNL A   1      37.511  29.064  29.855  1.00  0.00     0.010 A 
ATOM     43  C   UNL A   1      38.279  29.771  27.892  1.00  0.00     0.010 A 
ATOM     44  C   UNL A   1      38.544  28.869  28.937  1.00  0.00    -0.014 A 
BRANCH  44  45
ATOM     45  C   UNL A   1      40.064  28.180  29.130  1.00  0.00     0.031 A 
ATOM     46  C   UNL A   1      40.818  26.640  28.674  1.00  0.00     0.074 A 
ATOM     47  C   UNL A   1      40.836  29.269  29.355  1.00  0.00     0.049 A 
ATOM     48  N   UNL A   1      41.794  25.889  29.228  1.00  0.00    -0.248 NA
ATOM     49  C   UNL A   1      40.459  25.853  27.485  1.00  0.00     0.031 C 
ATOM     50  C   UNL A   1      42.177  29.624  28.978  1.00  0.00     0.029 A 
ATOM     51  N   UNL A   1      40.643  30.051  30.482  1.00  0.00    -0.354 N 
ATOM     52  C   UNL A   1      42.125  24.769  28.314  1.00  0.00     0.074 A 
ATOM     53  C   UNL A   1      40.918  24.608  27.595  1.00  0.00     0.031 C 
ATOM     54  C   UNL A   1      42.846  30.106  30.030  1.00  0.00     0.029 A 
ATOM     55  C   UNL A   1      41.903  30.207  31.091  1.00  0.00     0.049 A 
ATOM     56  H   UNL A   1      39.789  30.427  30.797  1.00  0.00     0.167 HD
ATOM     57  C   UNL A   1      43.380  24.240  27.934  1.00  0.00     0.037 A 
ATOM     58  C   UNL A   1      42.069  29.924  32.397  1.00  0.00     0.037 A 
ATOM     59  C   UNL A   1      44.463  24.695  28.806  1.00  0.00     0.049 A 
ATOM     60  C   UNL A   1      42.853  28.639  32.675  1.00  0.00     0.074 A 
ATOM     61  C   UNL A   1      45.809  25.061  28.698  1.00  0.00     0.029 A 
ATOM     62  N   UNL A   1      44.111  25.026  30.090  1.00  0.00    -0.354 N 
ATOM     63  N   UNL A   1      43.691  27.962  31.910  1.00  0.00    -0.248 NA
ATOM     64  C   UNL A   1      42.623  27.985  33.962  1.00  0.00     0.031 C 
ATOM     65  C   UNL A   1      46.213  25.684  29.927  1.00  0.00     0.029 A 
ATOM     66  C   UNL A   1      45.126  25.639  30.772  1.00  0.00     0.049 A 
ATOM     67  H   UNL A   1      43.225  24.842  30.478  1.00  0.00     0.167 HD
ATOM     68  C   UNL A   1      44.069  26.798  32.601  1.00  0.00     0.074 A 
ATOM     69  C   UNL A   1      43.349  26.872  33.854  1.00  0.00     0.031 C 
ATOM     70  C   UNL A   1      44.859  25.753  32.171  1.00  0.00     0.037 A 
BRANCH  57  71
ATOM     71  C   UNL A   1      43.798  23.469  26.535  1.00  0.00     0.057 A 
ATOM     72  C   UNL A   1      43.580  22.067  26.385  1.00  0.00     0.134 A 
ATOM     73  C   UNL A   1      44.606  23.955  25.467  1.00  0.00     0.134 A 
ATOM     74  F   UNL A   1      42.695  21.410  27.145  1.00  0.00    -0.206 F 
ATOM     75  C   UNL A   1      44.234  21.236  25.433  1.00  0.00     0.040 A 
ATOM     76  C   UNL A   1      45.204  23.144  24.463  1.00  0.00     0.040 A 
ATOM     77  F   UNL A   1      44.977  25.232  25.346  1.00  0.00    -0.206 F 
ATOM     78  C   UNL A   1      45.066  21.771  24.471  1.00  0.00     0.006 A 
ENDBRANCH  57  71
BRANCH  58  79
ATOM     79  C   UNL A   1      40.887  30.535  33.103  1.00  0.00     0.057 A 
ATOM     80  C   UNL A   1      40.888  31.956  33.140  1.00  0.00     0.134 A 
ATOM     81  C   UNL A   1      39.634  29.913  33.119  1.00  0.00     0.134 A 
ATOM     82  F   UNL A   1      42.053  32.626  33.089  1.00  0.00    -0.206 F 
ATOM     83  C   UNL A   1      39.719  32.705  32.965  1.00  0.00     0.040 A 
ATOM     84  C   UNL A   1      38.452  30.664  33.007  1.00  0.00     0.040 A 
ATOM     85  F   UNL A   1      39.533  28.578  33.040  1.00  0.00    -0.206 F 
ATOM     86  C   UNL A   1      38.498  32.053  32.859  1.00  0.00     0.006 A 
ENDBRANCH  58  79
BRANCH  70  87
ATOM     87  C   UNL A   1      45.219  24.497  32.973  1.00  0.00     0.057 A 
ATOM     88  C   UNL A   1      46.397  24.370  33.707  1.00  0.00     0.134 A 
ATOM     89  C   UNL A   1      44.396  23.331  32.981  1.00  0.00     0.134 A 
ATOM     90  F   UNL A   1      47.355  25.304  33.641  1.00  0.00    -0.206 F 
ATOM     91  C   UNL A   1      46.654  23.257  34.522  1.00  0.00     0.040 A 
ATOM     92  C   UNL A   1      44.656  22.205  33.761  1.00  0.00     0.040 A 
ATOM     93  F   UNL A   1      43.297  23.204  32.228  1.00  0.00    -0.206 F 
ATOM     94  C   UNL A   1      45.772  22.182  34.570  1.00  0.00     0.006 A 
ENDBRANCH  70  87
ENDBRANCH  44  45
ENDBRANCH  37  39
ENDBRANCH  36  37
ENDBRANCH  35  36
ENDBRANCH  34  35
ENDBRANCH  33  34
ENDBRANCH  32  33
ENDBRANCH   1  32
TORSDOF 20
ENDMDL
