MODEL 1
REMARK VINA RESULT:     -10.4      0.000      0.000
REMARK SMILES C[C@@H]1C[N@@H+](Cc2cccc(C(=O)OCCOCCOCCOC(=O)c3ccc(-c4c5nc(c(-c6c(F)cccc6F)c6ccc([nH]6)c(-c6c(F)cccc6F)c6nc(c(-c7c(F)cccc7F)c7ccc4[nH]7)C=C6)C=C5)cc3)c2)CCN1C(=O)OC(C)(C)C
REMARK SMILES IDX 16 1 15 2 14 3 13 4 11 5 12 6 10 7 6 8 7 9 79 10 8 11 9 12
REMARK SMILES IDX 5 13 4 14 1 15 2 16 3 17 82 18 81 19 80 20 83 22 84 23 85 24
REMARK SMILES IDX 86 25 87 26 88 27 89 28 17 29 18 30 19 31 20 32 21 33 22 34
REMARK SMILES IDX 23 35 24 36 25 37 26 38 78 39 27 40 77 41 28 42 29 43 30 44
REMARK SMILES IDX 71 45 31 46 76 47 70 48 72 49 32 50 75 51 69 52 68 53 33 55
REMARK SMILES IDX 59 56 42 57 58 58 43 59 46 60 57 61 73 62 44 63 45 64 56 66
REMARK SMILES IDX 74 67 47 68 34 69 35 70 40 71 36 72 37 73 39 74 41 75 38 76
REMARK SMILES IDX 60 77 61 78 66 79 62 80 63 81 65 82 67 83 64 84 48 85 49 86
REMARK SMILES IDX 54 87 50 88 51 89 53 90 55 91 52 92
REMARK H PARENT 4 21 72 54 46 65
REMARK Flexibility Score: inf
ROOT
ATOM      1  O   UNL A   1      38.734  21.932  25.949  1.00  0.00    -0.376 OA
ENDROOT
BRANCH   1   2
ATOM      2  C   UNL A   1      37.853  23.037  25.816  1.00  0.00     0.202 C 
BRANCH   2   3
ATOM      3  C   UNL A   1      36.329  22.917  25.962  1.00  0.00     0.261 C 
BRANCH   3   4
ATOM      4  O   UNL A   1      35.828  21.580  26.008  1.00  0.00    -0.460 OA
BRANCH   4   5
ATOM      5  C   UNL A   1      34.561  21.432  26.468  1.00  0.00     0.338 C 
ATOM      6  O   UNL A   1      34.183  21.543  27.625  1.00  0.00    -0.246 OA
BRANCH   5   7
ATOM      7  C   UNL A   1      33.634  21.238  25.326  1.00  0.00     0.060 A 
ATOM      8  C   UNL A   1      32.451  22.214  23.454  1.00  0.00     0.007 A 
ATOM      9  C   UNL A   1      32.172  20.928  22.975  1.00  0.00     0.009 A 
ATOM     10  C   UNL A   1      33.030  22.334  24.716  1.00  0.00     0.025 A 
ATOM     11  C   UNL A   1      32.597  19.803  23.690  1.00  0.00     0.001 A 
ATOM     12  C   UNL A   1      33.387  19.959  24.831  1.00  0.00     0.016 A 
BRANCH   8  13
ATOM     13  C   UNL A   1      32.329  23.452  22.579  1.00  0.00     0.299 C 
BRANCH  13  14
ATOM     14  N   UNL A   1      32.028  24.716  23.312  1.00  0.00    -0.328 N 
ATOM     15  C   UNL A   1      30.234  26.342  25.408  1.00  0.00     0.037 C 
ATOM     16  C   UNL A   1      30.243  26.460  23.882  1.00  0.00     0.140 C 
ATOM     17  C   UNL A   1      30.601  25.108  23.195  1.00  0.00     0.287 C 
ATOM     18  N   UNL A   1      31.181  27.500  23.420  1.00  0.00    -0.294 N 
ATOM     19  C   UNL A   1      32.593  27.176  23.624  1.00  0.00     0.185 C 
ATOM     20  C   UNL A   1      32.915  25.844  22.935  1.00  0.00     0.284 C 
ATOM     21  H   UNL A   1      32.219  24.506  24.291  1.00  0.00     0.348 HD
BRANCH  18  22
ATOM     22  C   UNL A   1      30.851  28.517  22.540  1.00  0.00     0.410 C 
ATOM     23  O   UNL A   1      31.661  29.366  22.169  1.00  0.00    -0.224 OA
BRANCH  22  24
ATOM     24  O   UNL A   1      29.549  28.495  22.153  1.00  0.00    -0.444 OA
BRANCH  24  25
ATOM     25  C   UNL A   1      28.633  29.532  22.607  1.00  0.00     0.106 C 
ATOM     26  C   UNL A   1      27.320  28.928  23.127  1.00  0.00     0.056 C 
ATOM     27  C   UNL A   1      29.283  30.458  23.643  1.00  0.00     0.056 C 
ATOM     28  C   UNL A   1      28.309  30.362  21.355  1.00  0.00     0.056 C 
ENDBRANCH  24  25
ENDBRANCH  22  24
ENDBRANCH  18  22
ENDBRANCH  13  14
ENDBRANCH   8  13
ENDBRANCH   5   7
ENDBRANCH   4   5
ENDBRANCH   3   4
ENDBRANCH   2   3
ENDBRANCH   1   2
BRANCH   1  29
ATOM     29  C   UNL A   1      39.897  22.014  26.749  1.00  0.00     0.188 C 
BRANCH  29  30
ATOM     30  C   UNL A   1      41.295  21.822  26.126  1.00  0.00     0.188 C 
BRANCH  30  31
ATOM     31  O   UNL A   1      42.172  20.897  26.715  1.00  0.00    -0.376 OA
BRANCH  31  32
ATOM     32  C   UNL A   1      41.970  19.511  26.508  1.00  0.00     0.202 C 
BRANCH  32  33
ATOM     33  C   UNL A   1      42.926  18.558  25.754  1.00  0.00     0.261 C 
BRANCH  33  34
ATOM     34  O   UNL A   1      44.302  18.930  25.614  1.00  0.00    -0.460 OA
BRANCH  34  35
ATOM     35  C   UNL A   1      44.626  19.585  24.469  1.00  0.00     0.338 C 
ATOM     36  O   UNL A   1      44.510  19.180  23.328  1.00  0.00    -0.246 OA
BRANCH  35  37
ATOM     37  C   UNL A   1      44.971  20.985  24.801  1.00  0.00     0.060 A 
ATOM     38  C   UNL A   1      45.430  21.286  26.091  1.00  0.00     0.016 A 
ATOM     39  C   UNL A   1      44.815  21.994  23.852  1.00  0.00     0.016 A 
ATOM     40  C   UNL A   1      45.717  22.606  26.444  1.00  0.00     0.010 A 
ATOM     41  C   UNL A   1      45.077  23.318  24.214  1.00  0.00     0.010 A 
ATOM     42  C   UNL A   1      45.502  23.635  25.520  1.00  0.00    -0.014 A 
BRANCH  42  43
ATOM     43  C   UNL A   1      45.536  25.053  25.957  1.00  0.00     0.031 A 
ATOM     44  C   UNL A   1      46.851  25.782  25.919  1.00  0.00     0.074 A 
ATOM     45  C   UNL A   1      44.430  25.684  26.386  1.00  0.00     0.049 A 
ATOM     46  N   UNL A   1      47.147  26.991  26.324  1.00  0.00    -0.248 NA
ATOM     47  C   UNL A   1      47.988  25.041  25.351  1.00  0.00     0.031 C 
ATOM     48  C   UNL A   1      43.088  25.109  26.426  1.00  0.00     0.029 A 
ATOM     49  N   UNL A   1      44.271  26.954  26.885  1.00  0.00    -0.354 N 
ATOM     50  C   UNL A   1      48.507  27.146  26.082  1.00  0.00     0.074 A 
ATOM     51  C   UNL A   1      48.981  25.901  25.516  1.00  0.00     0.031 C 
ATOM     52  C   UNL A   1      42.240  26.022  26.933  1.00  0.00     0.029 A 
ATOM     53  C   UNL A   1      42.987  27.228  27.288  1.00  0.00     0.049 A 
ATOM     54  H   UNL A   1      45.006  27.604  26.949  1.00  0.00     0.167 HD
ATOM     55  C   UNL A   1      49.290  28.227  26.310  1.00  0.00     0.037 A 
ATOM     56  C   UNL A   1      42.482  28.320  27.897  1.00  0.00     0.037 A 
ATOM     57  C   UNL A   1      48.815  29.464  26.874  1.00  0.00     0.049 A 
ATOM     58  C   UNL A   1      43.390  29.479  28.219  1.00  0.00     0.074 A 
ATOM     59  C   UNL A   1      49.522  30.631  27.109  1.00  0.00     0.029 A 
ATOM     60  N   UNL A   1      47.517  29.689  27.308  1.00  0.00    -0.354 N 
ATOM     61  N   UNL A   1      44.666  29.634  27.957  1.00  0.00    -0.248 NA
ATOM     62  C   UNL A   1      42.785  30.617  28.928  1.00  0.00     0.031 C 
ATOM     63  C   UNL A   1      48.670  31.536  27.748  1.00  0.00     0.029 A 
ATOM     64  C   UNL A   1      47.412  30.961  27.846  1.00  0.00     0.049 A 
ATOM     65  H   UNL A   1      46.780  29.040  27.243  1.00  0.00     0.167 HD
ATOM     66  C   UNL A   1      45.005  30.897  28.430  1.00  0.00     0.074 A 
ATOM     67  C   UNL A   1      43.799  31.469  28.991  1.00  0.00     0.031 C 
ATOM     68  C   UNL A   1      46.205  31.527  28.396  1.00  0.00     0.037 A 
BRANCH  55  69
ATOM     69  C   UNL A   1      50.752  28.099  25.994  1.00  0.00     0.057 A 
ATOM     70  C   UNL A   1      51.253  28.248  24.693  1.00  0.00     0.134 A 
ATOM     71  C   UNL A   1      51.676  27.833  27.013  1.00  0.00     0.134 A 
ATOM     72  F   UNL A   1      50.423  28.490  23.668  1.00  0.00    -0.206 F 
ATOM     73  C   UNL A   1      52.614  28.102  24.414  1.00  0.00     0.040 A 
ATOM     74  C   UNL A   1      53.042  27.717  26.752  1.00  0.00     0.040 A 
ATOM     75  F   UNL A   1      51.267  27.684  28.282  1.00  0.00    -0.206 F 
ATOM     76  C   UNL A   1      53.513  27.842  25.446  1.00  0.00     0.006 A 
ENDBRANCH  55  69
BRANCH  56  77
ATOM     77  C   UNL A   1      41.038  28.379  28.244  1.00  0.00     0.057 A 
ATOM     78  C   UNL A   1      40.099  28.881  27.335  1.00  0.00     0.134 A 
ATOM     79  C   UNL A   1      40.564  27.961  29.493  1.00  0.00     0.134 A 
ATOM     80  F   UNL A   1      40.494  29.324  26.133  1.00  0.00    -0.206 F 
ATOM     81  C   UNL A   1      38.745  28.979  27.660  1.00  0.00     0.040 A 
ATOM     82  C   UNL A   1      39.210  28.026  29.822  1.00  0.00     0.040 A 
ATOM     83  F   UNL A   1      41.413  27.475  30.412  1.00  0.00    -0.206 F 
ATOM     84  C   UNL A   1      38.296  28.544  28.905  1.00  0.00     0.006 A 
ENDBRANCH  56  77
BRANCH  68  85
ATOM     85  C   UNL A   1      46.270  32.930  28.932  1.00  0.00     0.057 A 
ATOM     86  C   UNL A   1      46.616  33.207  30.261  1.00  0.00     0.134 A 
ATOM     87  C   UNL A   1      46.027  34.024  28.091  1.00  0.00     0.134 A 
ATOM     88  F   UNL A   1      46.852  32.208  31.126  1.00  0.00    -0.206 F 
ATOM     89  C   UNL A   1      46.693  34.518  30.739  1.00  0.00     0.040 A 
ATOM     90  C   UNL A   1      46.131  35.338  28.548  1.00  0.00     0.040 A 
ATOM     91  F   UNL A   1      45.702  33.834  26.802  1.00  0.00    -0.206 F 
ATOM     92  C   UNL A   1      46.458  35.588  29.878  1.00  0.00     0.006 A 
ENDBRANCH  68  85
ENDBRANCH  42  43
ENDBRANCH  35  37
ENDBRANCH  34  35
ENDBRANCH  33  34
ENDBRANCH  32  33
ENDBRANCH  31  32
ENDBRANCH  30  31
ENDBRANCH  29  30
ENDBRANCH   1  29
TORSDOF 22
ENDMDL
MODEL 2
REMARK VINA RESULT:     -10.1      1.589      2.772
REMARK SMILES C[C@@H]1C[N@@H+](Cc2cccc(C(=O)OCCOCCOCCOC(=O)c3ccc(-c4c5nc(c(-c6c(F)cccc6F)c6ccc([nH]6)c(-c6c(F)cccc6F)c6nc(c(-c7c(F)cccc7F)c7ccc4[nH]7)C=C6)C=C5)cc3)c2)CCN1C(=O)OC(C)(C)C
REMARK SMILES IDX 16 1 15 2 14 3 13 4 11 5 12 6 10 7 6 8 7 9 79 10 8 11 9 12
REMARK SMILES IDX 5 13 4 14 1 15 2 16 3 17 82 18 81 19 80 20 83 22 84 23 85 24
REMARK SMILES IDX 86 25 87 26 88 27 89 28 17 29 18 30 19 31 20 32 21 33 22 34
REMARK SMILES IDX 23 35 24 36 25 37 26 38 78 39 27 40 77 41 28 42 29 43 30 44
REMARK SMILES IDX 71 45 31 46 76 47 70 48 72 49 32 50 75 51 69 52 68 53 33 55
REMARK SMILES IDX 59 56 42 57 58 58 43 59 46 60 57 61 73 62 44 63 45 64 56 66
REMARK SMILES IDX 74 67 47 68 34 69 35 70 40 71 36 72 37 73 39 74 41 75 38 76
REMARK SMILES IDX 60 77 61 78 66 79 62 80 63 81 65 82 67 83 64 84 48 85 49 86
REMARK SMILES IDX 54 87 50 88 51 89 53 90 55 91 52 92
REMARK H PARENT 4 21 72 54 46 65
REMARK Flexibility Score: inf
ROOT
ATOM      1  O   UNL A   1      36.146  23.858  25.514  1.00  0.00    -0.376 OA
ENDROOT
BRANCH   1   2
ATOM      2  C   UNL A   1      35.289  22.824  25.972  1.00  0.00     0.202 C 
BRANCH   2   3
ATOM      3  C   UNL A   1      34.405  22.958  27.222  1.00  0.00     0.261 C 
BRANCH   3   4
ATOM      4  O   UNL A   1      33.276  22.085  27.260  1.00  0.00    -0.460 OA
BRANCH   4   5
ATOM      5  C   UNL A   1      32.112  22.591  26.785  1.00  0.00     0.338 C 
ATOM      6  O   UNL A   1      31.278  23.229  27.412  1.00  0.00    -0.246 OA
BRANCH   5   7
ATOM      7  C   UNL A   1      32.036  22.380  25.318  1.00  0.00     0.060 A 
ATOM      8  C   UNL A   1      32.044  23.350  23.101  1.00  0.00     0.007 A 
ATOM      9  C   UNL A   1      32.232  22.074  22.556  1.00  0.00     0.009 A 
ATOM     10  C   UNL A   1      31.776  23.449  24.465  1.00  0.00     0.025 A 
ATOM     11  C   UNL A   1      32.290  20.953  23.392  1.00  0.00     0.001 A 
ATOM     12  C   UNL A   1      32.260  21.115  24.779  1.00  0.00     0.016 A 
BRANCH   8  13
ATOM     13  C   UNL A   1      32.312  24.621  22.309  1.00  0.00     0.299 C 
BRANCH  13  14
ATOM     14  N   UNL A   1      32.059  25.891  23.049  1.00  0.00    -0.328 N 
ATOM     15  C   UNL A   1      30.691  27.450  25.489  1.00  0.00     0.037 C 
ATOM     16  C   UNL A   1      30.285  27.463  24.013  1.00  0.00     0.140 C 
ATOM     17  C   UNL A   1      30.614  26.115  23.305  1.00  0.00     0.287 C 
ATOM     18  N   UNL A   1      30.932  28.566  23.278  1.00  0.00    -0.294 N 
ATOM     19  C   UNL A   1      32.377  28.413  23.107  1.00  0.00     0.185 C 
ATOM     20  C   UNL A   1      32.669  27.081  22.406  1.00  0.00     0.284 C 
ATOM     21  H   UNL A   1      32.525  25.771  23.948  1.00  0.00     0.348 HD
BRANCH  18  22
ATOM     22  C   UNL A   1      30.259  29.478  22.482  1.00  0.00     0.410 C 
ATOM     23  O   UNL A   1      30.338  29.476  21.254  1.00  0.00    -0.224 OA
BRANCH  22  24
ATOM     24  O   UNL A   1      29.532  30.380  23.191  1.00  0.00    -0.444 OA
BRANCH  24  25
ATOM     25  C   UNL A   1      28.123  30.586  22.886  1.00  0.00     0.106 C 
ATOM     26  C   UNL A   1      27.943  31.308  21.543  1.00  0.00     0.056 C 
ATOM     27  C   UNL A   1      27.327  29.275  22.938  1.00  0.00     0.056 C 
ATOM     28  C   UNL A   1      27.599  31.511  23.996  1.00  0.00     0.056 C 
ENDBRANCH  24  25
ENDBRANCH  22  24
ENDBRANCH  18  22
ENDBRANCH  13  14
ENDBRANCH   8  13
ENDBRANCH   5   7
ENDBRANCH   4   5
ENDBRANCH   3   4
ENDBRANCH   2   3
ENDBRANCH   1   2
BRANCH   1  29
ATOM     29  C   UNL A   1      37.345  24.171  26.195  1.00  0.00     0.188 C 
BRANCH  29  30
ATOM     30  C   UNL A   1      38.621  23.335  25.964  1.00  0.00     0.188 C 
BRANCH  30  31
ATOM     31  O   UNL A   1      38.645  22.006  26.419  1.00  0.00    -0.376 OA
BRANCH  31  32
ATOM     32  C   UNL A   1      38.539  20.946  25.486  1.00  0.00     0.202 C 
BRANCH  32  33
ATOM     33  C   UNL A   1      39.403  19.665  25.469  1.00  0.00     0.261 C 
BRANCH  33  34
ATOM     34  O   UNL A   1      40.365  19.467  26.512  1.00  0.00    -0.460 OA
BRANCH  34  35
ATOM     35  C   UNL A   1      41.668  19.515  26.134  1.00  0.00     0.338 C 
ATOM     36  O   UNL A   1      42.286  18.680  25.501  1.00  0.00    -0.246 OA
BRANCH  35  37
ATOM     37  C   UNL A   1      42.205  20.859  26.440  1.00  0.00     0.060 A 
ATOM     38  C   UNL A   1      42.327  21.256  27.780  1.00  0.00     0.016 A 
ATOM     39  C   UNL A   1      42.558  21.730  25.411  1.00  0.00     0.016 A 
ATOM     40  C   UNL A   1      42.786  22.536  28.095  1.00  0.00     0.010 A 
ATOM     41  C   UNL A   1      42.992  23.020  25.725  1.00  0.00     0.010 A 
ATOM     42  C   UNL A   1      43.080  23.440  27.067  1.00  0.00    -0.014 A 
BRANCH  42  43
ATOM     43  C   UNL A   1      43.301  24.876  27.375  1.00  0.00     0.031 A 
ATOM     44  C   UNL A   1      44.695  25.427  27.254  1.00  0.00     0.074 A 
ATOM     45  C   UNL A   1      42.292  25.676  27.760  1.00  0.00     0.049 A 
ATOM     46  N   UNL A   1      45.149  26.620  27.544  1.00  0.00    -0.248 NA
ATOM     47  C   UNL A   1      45.718  24.502  26.741  1.00  0.00     0.031 C 
ATOM     48  C   UNL A   1      40.891  25.280  27.868  1.00  0.00     0.029 A 
ATOM     49  N   UNL A   1      42.305  26.994  28.144  1.00  0.00    -0.354 N 
ATOM     50  C   UNL A   1      46.511  26.581  27.272  1.00  0.00     0.074 A 
ATOM     51  C   UNL A   1      46.813  25.242  26.815  1.00  0.00     0.031 C 
ATOM     52  C   UNL A   1      40.175  26.334  28.302  1.00  0.00     0.029 A 
ATOM     53  C   UNL A   1      41.074  27.463  28.537  1.00  0.00     0.049 A 
ATOM     54  H   UNL A   1      43.116  27.550  28.139  1.00  0.00     0.167 HD
ATOM     55  C   UNL A   1      47.427  27.571  27.391  1.00  0.00     0.037 A 
ATOM     56  C   UNL A   1      40.724  28.658  29.052  1.00  0.00     0.037 A 
ATOM     57  C   UNL A   1      47.123  28.902  27.848  1.00  0.00     0.049 A 
ATOM     58  C   UNL A   1      41.777  29.718  29.256  1.00  0.00     0.074 A 
ATOM     59  C   UNL A   1      47.975  29.987  27.967  1.00  0.00     0.029 A 
ATOM     60  N   UNL A   1      45.875  29.326  28.276  1.00  0.00    -0.354 N 
ATOM     61  N   UNL A   1      43.055  29.687  28.965  1.00  0.00    -0.248 NA
ATOM     62  C   UNL A   1      41.335  30.981  29.868  1.00  0.00     0.031 C 
ATOM     63  C   UNL A   1      47.258  31.045  28.534  1.00  0.00     0.029 A 
ATOM     64  C   UNL A   1      45.941  30.644  28.699  1.00  0.00     0.049 A 
ATOM     65  H   UNL A   1      45.061  28.772  28.280  1.00  0.00     0.167 HD
ATOM     66  C   UNL A   1      43.560  30.934  29.317  1.00  0.00     0.074 A 
ATOM     67  C   UNL A   1      42.448  31.700  29.841  1.00  0.00     0.031 C 
ATOM     68  C   UNL A   1      44.828  31.403  29.211  1.00  0.00     0.037 A 
BRANCH  55  69
ATOM     69  C   UNL A   1      48.854  27.233  27.069  1.00  0.00     0.057 A 
ATOM     70  C   UNL A   1      49.765  26.814  28.049  1.00  0.00     0.134 A 
ATOM     71  C   UNL A   1      49.322  27.317  25.750  1.00  0.00     0.134 A 
ATOM     72  F   UNL A   1      49.388  26.724  29.333  1.00  0.00    -0.206 F 
ATOM     73  C   UNL A   1      51.095  26.526  27.735  1.00  0.00     0.040 A 
ATOM     74  C   UNL A   1      50.640  27.001  25.419  1.00  0.00     0.040 A 
ATOM     75  F   UNL A   1      48.504  27.706  24.761  1.00  0.00    -0.206 F 
ATOM     76  C   UNL A   1      51.534  26.614  26.416  1.00  0.00     0.006 A 
ENDBRANCH  55  69
BRANCH  56  77
ATOM     77  C   UNL A   1      39.307  28.929  29.411  1.00  0.00     0.057 A 
ATOM     78  C   UNL A   1      38.814  28.611  30.681  1.00  0.00     0.134 A 
ATOM     79  C   UNL A   1      38.410  29.486  28.493  1.00  0.00     0.134 A 
ATOM     80  F   UNL A   1      39.617  28.049  31.596  1.00  0.00    -0.206 F 
ATOM     81  C   UNL A   1      37.477  28.824  31.023  1.00  0.00     0.040 A 
ATOM     82  C   UNL A   1      37.077  29.731  28.828  1.00  0.00     0.040 A 
ATOM     83  F   UNL A   1      38.818  29.809  27.256  1.00  0.00    -0.206 F 
ATOM     84  C   UNL A   1      36.606  29.392  30.096  1.00  0.00     0.006 A 
ENDBRANCH  56  77
BRANCH  68  85
ATOM     85  C   UNL A   1      45.079  32.828  29.618  1.00  0.00     0.057 A 
ATOM     86  C   UNL A   1      44.971  33.894  28.715  1.00  0.00     0.134 A 
ATOM     87  C   UNL A   1      45.391  33.142  30.947  1.00  0.00     0.134 A 
ATOM     88  F   UNL A   1      44.686  33.665  27.424  1.00  0.00    -0.206 F 
ATOM     89  C   UNL A   1      45.187  35.215  29.114  1.00  0.00     0.040 A 
ATOM     90  C   UNL A   1      45.579  34.461  31.365  1.00  0.00     0.040 A 
ATOM     91  F   UNL A   1      45.500  32.173  31.870  1.00  0.00    -0.206 F 
ATOM     92  C   UNL A   1      45.485  35.502  30.445  1.00  0.00     0.006 A 
ENDBRANCH  68  85
ENDBRANCH  42  43
ENDBRANCH  35  37
ENDBRANCH  34  35
ENDBRANCH  33  34
ENDBRANCH  32  33
ENDBRANCH  31  32
ENDBRANCH  30  31
ENDBRANCH  29  30
ENDBRANCH   1  29
TORSDOF 22
ENDMDL
MODEL 3
REMARK VINA RESULT:      -9.8      2.233      7.399
REMARK SMILES C[C@@H]1C[N@@H+](Cc2cccc(C(=O)OCCOCCOCCOC(=O)c3ccc(-c4c5nc(c(-c6c(F)cccc6F)c6ccc([nH]6)c(-c6c(F)cccc6F)c6nc(c(-c7c(F)cccc7F)c7ccc4[nH]7)C=C6)C=C5)cc3)c2)CCN1C(=O)OC(C)(C)C
REMARK SMILES IDX 16 1 15 2 14 3 13 4 11 5 12 6 10 7 6 8 7 9 79 10 8 11 9 12
REMARK SMILES IDX 5 13 4 14 1 15 2 16 3 17 82 18 81 19 80 20 83 22 84 23 85 24
REMARK SMILES IDX 86 25 87 26 88 27 89 28 17 29 18 30 19 31 20 32 21 33 22 34
REMARK SMILES IDX 23 35 24 36 25 37 26 38 78 39 27 40 77 41 28 42 29 43 30 44
REMARK SMILES IDX 71 45 31 46 76 47 70 48 72 49 32 50 75 51 69 52 68 53 33 55
REMARK SMILES IDX 59 56 42 57 58 58 43 59 46 60 57 61 73 62 44 63 45 64 56 66
REMARK SMILES IDX 74 67 47 68 34 69 35 70 40 71 36 72 37 73 39 74 41 75 38 76
REMARK SMILES IDX 60 77 61 78 66 79 62 80 63 81 65 82 67 83 64 84 48 85 49 86
REMARK SMILES IDX 54 87 50 88 51 89 53 90 55 91 52 92
REMARK H PARENT 4 21 72 54 46 65
REMARK Flexibility Score: inf
ROOT
ATOM      1  O   UNL A   1      37.265  23.474  24.912  1.00  0.00    -0.376 OA
ENDROOT
BRANCH   1   2
ATOM      2  C   UNL A   1      35.871  23.706  24.789  1.00  0.00     0.202 C 
BRANCH   2   3
ATOM      3  C   UNL A   1      35.109  23.559  23.463  1.00  0.00     0.261 C 
BRANCH   3   4
ATOM      4  O   UNL A   1      34.881  24.779  22.757  1.00  0.00    -0.460 OA
BRANCH   4   5
ATOM      5  C   UNL A   1      33.612  24.995  22.332  1.00  0.00     0.338 C 
ATOM      6  O   UNL A   1      32.977  24.314  21.539  1.00  0.00    -0.246 OA
BRANCH   5   7
ATOM      7  C   UNL A   1      33.022  26.134  23.077  1.00  0.00     0.060 A 
ATOM      8  C   UNL A   1      31.787  26.901  25.013  1.00  0.00     0.007 A 
ATOM      9  C   UNL A   1      32.165  28.217  24.717  1.00  0.00     0.009 A 
ATOM     10  C   UNL A   1      32.085  25.907  24.082  1.00  0.00     0.025 A 
ATOM     11  C   UNL A   1      32.941  28.489  23.586  1.00  0.00     0.001 A 
ATOM     12  C   UNL A   1      33.427  27.439  22.804  1.00  0.00     0.016 A 
BRANCH   8  13
ATOM     13  C   UNL A   1      31.251  26.496  26.377  1.00  0.00     0.299 C 
BRANCH  13  14
ATOM     14  N   UNL A   1      31.414  25.051  26.716  1.00  0.00    -0.328 N 
ATOM     15  C   UNL A   1      33.114  22.698  28.066  1.00  0.00     0.037 C 
ATOM     16  C   UNL A   1      32.941  23.003  26.576  1.00  0.00     0.140 C 
ATOM     17  C   UNL A   1      32.742  24.525  26.311  1.00  0.00     0.287 C 
ATOM     18  N   UNL A   1      31.809  22.259  25.993  1.00  0.00    -0.294 N 
ATOM     19  C   UNL A   1      30.493  22.695  26.461  1.00  0.00     0.185 C 
ATOM     20  C   UNL A   1      30.326  24.194  26.185  1.00  0.00     0.284 C 
ATOM     21  H   UNL A   1      31.352  25.010  27.733  1.00  0.00     0.348 HD
BRANCH  18  22
ATOM     22  C   UNL A   1      31.887  21.487  24.847  1.00  0.00     0.410 C 
ATOM     23  O   UNL A   1      32.028  21.972  23.725  1.00  0.00    -0.224 OA
BRANCH  22  24
ATOM     24  O   UNL A   1      31.767  20.154  25.084  1.00  0.00    -0.444 OA
BRANCH  24  25
ATOM     25  C   UNL A   1      32.808  19.236  24.641  1.00  0.00     0.106 C 
ATOM     26  C   UNL A   1      32.537  18.731  23.216  1.00  0.00     0.056 C 
ATOM     27  C   UNL A   1      34.208  19.851  24.770  1.00  0.00     0.056 C 
ATOM     28  C   UNL A   1      32.720  18.035  25.595  1.00  0.00     0.056 C 
ENDBRANCH  24  25
ENDBRANCH  22  24
ENDBRANCH  18  22
ENDBRANCH  13  14
ENDBRANCH   8  13
ENDBRANCH   5   7
ENDBRANCH   4   5
ENDBRANCH   3   4
ENDBRANCH   2   3
ENDBRANCH   1   2
BRANCH   1  29
ATOM     29  C   UNL A   1      37.922  23.600  26.158  1.00  0.00     0.188 C 
BRANCH  29  30
ATOM     30  C   UNL A   1      39.265  22.884  26.414  1.00  0.00     0.188 C 
BRANCH  30  31
ATOM     31  O   UNL A   1      39.247  21.518  26.741  1.00  0.00    -0.376 OA
BRANCH  31  32
ATOM     32  C   UNL A   1      39.288  20.552  25.706  1.00  0.00     0.202 C 
BRANCH  32  33
ATOM     33  C   UNL A   1      40.154  19.272  25.695  1.00  0.00     0.261 C 
BRANCH  33  34
ATOM     34  O   UNL A   1      41.365  19.252  26.460  1.00  0.00    -0.460 OA
BRANCH  34  35
ATOM     35  C   UNL A   1      42.441  19.844  25.881  1.00  0.00     0.338 C 
ATOM     36  O   UNL A   1      43.138  19.400  24.988  1.00  0.00    -0.246 OA
BRANCH  35  37
ATOM     37  C   UNL A   1      42.539  21.237  26.368  1.00  0.00     0.060 A 
ATOM     38  C   UNL A   1      42.703  22.275  25.438  1.00  0.00     0.016 A 
ATOM     39  C   UNL A   1      42.496  21.513  27.733  1.00  0.00     0.016 A 
ATOM     40  C   UNL A   1      42.845  23.593  25.873  1.00  0.00     0.010 A 
ATOM     41  C   UNL A   1      42.665  22.830  28.170  1.00  0.00     0.010 A 
ATOM     42  C   UNL A   1      42.869  23.873  27.245  1.00  0.00    -0.014 A 
BRANCH  42  43
ATOM     43  C   UNL A   1      43.290  25.211  27.728  1.00  0.00     0.031 A 
ATOM     44  C   UNL A   1      42.229  26.173  28.187  1.00  0.00     0.074 A 
ATOM     45  C   UNL A   1      44.584  25.575  27.756  1.00  0.00     0.049 A 
ATOM     46  N   UNL A   1      42.342  27.418  28.572  1.00  0.00    -0.248 NA
ATOM     47  C   UNL A   1      40.850  25.658  28.206  1.00  0.00     0.031 C 
ATOM     48  C   UNL A   1      45.711  24.723  27.387  1.00  0.00     0.029 A 
ATOM     49  N   UNL A   1      45.161  26.772  28.102  1.00  0.00    -0.354 N 
ATOM     50  C   UNL A   1      41.049  27.843  28.857  1.00  0.00     0.074 A 
ATOM     51  C   UNL A   1      40.168  26.730  28.579  1.00  0.00     0.031 C 
ATOM     52  C   UNL A   1      46.849  25.428  27.518  1.00  0.00     0.029 A 
ATOM     53  C   UNL A   1      46.525  26.790  27.941  1.00  0.00     0.049 A 
ATOM     54  H   UNL A   1      44.647  27.542  28.434  1.00  0.00     0.167 HD
ATOM     55  C   UNL A   1      40.634  29.050  29.310  1.00  0.00     0.037 A 
ATOM     56  C   UNL A   1      47.405  27.800  28.094  1.00  0.00     0.037 A 
ATOM     57  C   UNL A   1      41.514  30.156  29.584  1.00  0.00     0.049 A 
ATOM     58  C   UNL A   1      46.909  29.160  28.517  1.00  0.00     0.074 A 
ATOM     59  C   UNL A   1      41.195  31.407  30.082  1.00  0.00     0.029 A 
ATOM     60  N   UNL A   1      42.884  30.149  29.369  1.00  0.00    -0.354 N 
ATOM     61  N   UNL A   1      45.692  29.545  28.817  1.00  0.00    -0.248 NA
ATOM     62  C   UNL A   1      47.915  30.229  28.616  1.00  0.00     0.031 C 
ATOM     63  C   UNL A   1      42.360  32.180  30.101  1.00  0.00     0.029 A 
ATOM     64  C   UNL A   1      43.418  31.388  29.685  1.00  0.00     0.049 A 
ATOM     65  H   UNL A   1      43.400  29.379  29.040  1.00  0.00     0.167 HD
ATOM     66  C   UNL A   1      45.792  30.884  29.180  1.00  0.00     0.074 A 
ATOM     67  C   UNL A   1      47.190  31.244  29.066  1.00  0.00     0.031 C 
ATOM     68  C   UNL A   1      44.814  31.736  29.577  1.00  0.00     0.037 A 
BRANCH  55  69
ATOM     69  C   UNL A   1      39.156  29.250  29.487  1.00  0.00     0.057 A 
ATOM     70  C   UNL A   1      38.526  29.113  30.731  1.00  0.00     0.134 A 
ATOM     71  C   UNL A   1      38.352  29.596  28.392  1.00  0.00     0.134 A 
ATOM     72  F   UNL A   1      39.233  28.769  31.818  1.00  0.00    -0.206 F 
ATOM     73  C   UNL A   1      37.146  29.279  30.873  1.00  0.00     0.040 A 
ATOM     74  C   UNL A   1      36.978  29.797  28.528  1.00  0.00     0.040 A 
ATOM     75  F   UNL A   1      38.890  29.749  27.173  1.00  0.00    -0.206 F 
ATOM     76  C   UNL A   1      36.370  29.628  29.770  1.00  0.00     0.006 A 
ENDBRANCH  55  69
BRANCH  56  77
ATOM     77  C   UNL A   1      48.853  27.571  27.852  1.00  0.00     0.057 A 
ATOM     78  C   UNL A   1      49.714  27.236  28.902  1.00  0.00     0.134 A 
ATOM     79  C   UNL A   1      49.414  27.705  26.577  1.00  0.00     0.134 A 
ATOM     80  F   UNL A   1      49.242  27.121  30.152  1.00  0.00    -0.206 F 
ATOM     81  C   UNL A   1      51.084  27.054  28.698  1.00  0.00     0.040 A 
ATOM     82  C   UNL A   1      50.776  27.499  26.351  1.00  0.00     0.040 A 
ATOM     83  F   UNL A   1      48.644  28.030  25.527  1.00  0.00    -0.206 F 
ATOM     84  C   UNL A   1      51.616  27.180  27.417  1.00  0.00     0.006 A 
ENDBRANCH  56  77
BRANCH  68  85
ATOM     85  C   UNL A   1      45.221  33.128  29.972  1.00  0.00     0.057 A 
ATOM     86  C   UNL A   1      45.623  33.448  31.275  1.00  0.00     0.134 A 
ATOM     87  C   UNL A   1      45.254  34.155  29.019  1.00  0.00     0.134 A 
ATOM     88  F   UNL A   1      45.605  32.518  32.241  1.00  0.00    -0.206 F 
ATOM     89  C   UNL A   1      46.019  34.743  31.620  1.00  0.00     0.040 A 
ATOM     90  C   UNL A   1      45.678  35.444  29.344  1.00  0.00     0.040 A 
ATOM     91  F   UNL A   1      44.893  33.917  27.748  1.00  0.00    -0.206 F 
ATOM     92  C   UNL A   1      46.054  35.743  30.651  1.00  0.00     0.006 A 
ENDBRANCH  68  85
ENDBRANCH  42  43
ENDBRANCH  35  37
ENDBRANCH  34  35
ENDBRANCH  33  34
ENDBRANCH  32  33
ENDBRANCH  31  32
ENDBRANCH  30  31
ENDBRANCH  29  30
ENDBRANCH   1  29
TORSDOF 22
ENDMDL
