MODEL 1
REMARK VINA RESULT:     -11.6      0.000      0.000
REMARK SMILES C[NH+]1CCC([NH+]2CCC(Oc3ccc4ccccc4c3)(C(=O)OCCOCCOCCOC(=O)c3ccc(-c4c5nc(c(-c6c(F)cccc6F)c6ccc([nH]6)c(-c6c(F)cccc6F)c6nc(c(-c7c(F)cccc7F)c7ccc4[nH]7)C=C6)C=C5)cc3)CC2)CC1
REMARK SMILES IDX 27 1 26 2 25 3 24 4 23 5 21 6 22 7 9 8 6 9 7 10 90 11 8 13
REMARK SMILES IDX 89 14 5 15 1 16 2 17 3 18 92 19 4 21 91 22 10 23 11 24 12 25
REMARK SMILES IDX 20 26 13 27 19 28 14 29 18 30 15 31 17 32 16 33 28 34 29 35
REMARK SMILES IDX 30 36 31 37 32 38 33 39 34 40 35 41 36 42 88 43 37 44 87 45
REMARK SMILES IDX 38 46 39 47 40 48 81 49 41 50 86 51 80 52 82 53 42 54 85 55
REMARK SMILES IDX 79 56 78 57 43 59 69 60 52 61 68 62 53 63 56 64 67 65 83 66
REMARK SMILES IDX 54 67 55 68 66 70 84 71 57 72 44 73 45 74 50 75 46 76 47 77
REMARK SMILES IDX 49 78 51 79 48 80 70 81 71 82 76 83 72 84 73 85 75 86 77 87
REMARK SMILES IDX 74 88 58 89 59 90 64 91 60 92 61 93 63 94 65 95 62 96
REMARK H PARENT 6 12 2 20 82 58 56 69
REMARK Flexibility Score: inf
ROOT
ATOM      1  C   UNL A   1      32.043  30.715  26.353  1.00  0.00     0.188 C 
ENDROOT
BRANCH   1   2
ATOM      2  O   UNL A   1      32.539  29.879  25.318  1.00  0.00    -0.376 OA
BRANCH   2   3
ATOM      3  C   UNL A   1      33.503  28.886  25.657  1.00  0.00     0.202 C 
BRANCH   3   4
ATOM      4  C   UNL A   1      33.029  27.805  26.632  1.00  0.00     0.261 C 
BRANCH   4   5
ATOM      5  O   UNL A   1      32.566  26.614  25.954  1.00  0.00    -0.460 OA
BRANCH   5   6
ATOM      6  C   UNL A   1      33.511  25.792  25.405  1.00  0.00     0.351 C 
ATOM      7  O   UNL A   1      34.574  25.527  25.959  1.00  0.00    -0.247 OA
BRANCH   6   8
ATOM      8  C   UNL A   1      33.128  25.293  23.990  1.00  0.00     0.216 C 
ATOM      9  N   UNL A   1      31.022  26.899  22.610  1.00  0.00    -0.332 N 
ATOM     10  C   UNL A   1      32.420  27.332  22.511  1.00  0.00     0.267 C 
ATOM     11  C   UNL A   1      30.767  26.216  23.887  1.00  0.00     0.267 C 
ATOM     12  H   UNL A   1      30.885  26.228  21.854  1.00  0.00     0.348 HD
ATOM     13  C   UNL A   1      33.465  26.259  22.838  1.00  0.00     0.122 C 
ATOM     14  C   UNL A   1      31.626  24.952  23.988  1.00  0.00     0.122 C 
BRANCH   9  15
ATOM     15  C   UNL A   1      30.027  27.985  22.354  1.00  0.00     0.195 C 
ATOM     16  C   UNL A   1      27.499  31.466  22.729  1.00  0.00     0.332 C 
ATOM     17  N   UNL A   1      28.486  30.415  22.977  1.00  0.00    -0.337 N 
ATOM     18  C   UNL A   1      29.591  30.464  22.007  1.00  0.00     0.268 C 
ATOM     19  C   UNL A   1      27.841  29.103  22.965  1.00  0.00     0.268 C 
ATOM     20  H   UNL A   1      28.889  30.576  23.900  1.00  0.00     0.347 HD
ATOM     21  C   UNL A   1      30.658  29.388  22.298  1.00  0.00     0.126 C 
ATOM     22  C   UNL A   1      28.852  28.026  23.337  1.00  0.00     0.126 C 
ENDBRANCH   9  15
BRANCH   8  23
ATOM     23  O   UNL A   1      34.043  24.154  23.967  1.00  0.00    -0.475 OA
BRANCH  23  24
ATOM     24  C   UNL A   1      33.503  22.923  23.761  1.00  0.00     0.121 A 
ATOM     25  C   UNL A   1      32.905  22.595  22.551  1.00  0.00     0.047 A 
ATOM     26  C   UNL A   1      33.681  21.955  24.748  1.00  0.00     0.055 A 
ATOM     27  C   UNL A   1      32.387  21.317  22.356  1.00  0.00     0.012 A 
ATOM     28  C   UNL A   1      33.195  20.654  24.554  1.00  0.00    -0.015 A 
ATOM     29  C   UNL A   1      32.522  20.338  23.349  1.00  0.00    -0.018 A 
ATOM     30  C   UNL A   1      33.370  19.652  25.521  1.00  0.00     0.009 A 
ATOM     31  C   UNL A   1      32.020  19.045  23.156  1.00  0.00     0.009 A 
ATOM     32  C   UNL A   1      32.878  18.364  25.307  1.00  0.00     0.001 A 
ATOM     33  C   UNL A   1      32.198  18.063  24.130  1.00  0.00     0.001 A 
ENDBRANCH  23  24
ENDBRANCH   8  23
ENDBRANCH   6   8
ENDBRANCH   5   6
ENDBRANCH   4   5
ENDBRANCH   3   4
ENDBRANCH   2   3
ENDBRANCH   1   2
BRANCH   1  34
ATOM     34  C   UNL A   1      33.054  31.611  27.076  1.00  0.00     0.188 C 
BRANCH  34  35
ATOM     35  O   UNL A   1      32.612  32.849  27.609  1.00  0.00    -0.376 OA
BRANCH  35  36
ATOM     36  C   UNL A   1      33.631  33.778  27.958  1.00  0.00     0.202 C 
BRANCH  36  37
ATOM     37  C   UNL A   1      33.970  33.806  29.449  1.00  0.00     0.261 C 
BRANCH  37  38
ATOM     38  O   UNL A   1      34.233  32.478  29.942  1.00  0.00    -0.460 OA
BRANCH  38  39
ATOM     39  C   UNL A   1      35.115  32.414  30.962  1.00  0.00     0.338 C 
ATOM     40  O   UNL A   1      34.957  32.913  32.073  1.00  0.00    -0.246 OA
BRANCH  39  41
ATOM     41  C   UNL A   1      36.263  31.528  30.628  1.00  0.00     0.060 A 
ATOM     42  C   UNL A   1      36.876  30.711  31.582  1.00  0.00     0.016 A 
ATOM     43  C   UNL A   1      36.852  31.637  29.368  1.00  0.00     0.016 A 
ATOM     44  C   UNL A   1      38.136  30.154  31.345  1.00  0.00     0.010 A 
ATOM     45  C   UNL A   1      38.055  30.975  29.090  1.00  0.00     0.010 A 
ATOM     46  C   UNL A   1      38.740  30.262  30.089  1.00  0.00    -0.014 A 
BRANCH  46  47
ATOM     47  C   UNL A   1      40.078  29.669  29.799  1.00  0.00     0.031 A 
ATOM     48  C   UNL A   1      41.306  30.544  29.817  1.00  0.00     0.074 A 
ATOM     49  C   UNL A   1      40.221  28.364  29.488  1.00  0.00     0.049 A 
ATOM     50  N   UNL A   1      42.468  30.357  29.243  1.00  0.00    -0.248 NA
ATOM     51  C   UNL A   1      41.210  31.797  30.582  1.00  0.00     0.031 C 
ATOM     52  C   UNL A   1      39.171  27.348  29.537  1.00  0.00     0.029 A 
ATOM     53  N   UNL A   1      41.323  27.676  29.036  1.00  0.00    -0.354 N 
ATOM     54  C   UNL A   1      43.214  31.496  29.520  1.00  0.00     0.074 A 
ATOM     55  C   UNL A   1      42.387  32.358  30.336  1.00  0.00     0.031 C 
ATOM     56  C   UNL A   1      39.674  26.171  29.141  1.00  0.00     0.029 A 
ATOM     57  C   UNL A   1      41.042  26.377  28.681  1.00  0.00     0.049 A 
ATOM     58  H   UNL A   1      42.223  28.072  28.973  1.00  0.00     0.167 HD
ATOM     59  C   UNL A   1      44.469  31.800  29.107  1.00  0.00     0.037 A 
ATOM     60  C   UNL A   1      41.753  25.479  27.975  1.00  0.00     0.037 A 
ATOM     61  C   UNL A   1      45.298  30.921  28.324  1.00  0.00     0.049 A 
ATOM     62  C   UNL A   1      43.090  25.871  27.419  1.00  0.00     0.074 A 
ATOM     63  C   UNL A   1      46.573  31.144  27.829  1.00  0.00     0.029 A 
ATOM     64  N   UNL A   1      44.938  29.641  27.935  1.00  0.00    -0.354 N 
ATOM     65  N   UNL A   1      43.743  26.998  27.556  1.00  0.00    -0.248 NA
ATOM     66  C   UNL A   1      43.769  24.880  26.571  1.00  0.00     0.031 C 
ATOM     67  C   UNL A   1      46.968  30.010  27.111  1.00  0.00     0.029 A 
ATOM     68  C   UNL A   1      45.956  29.068  27.193  1.00  0.00     0.049 A 
ATOM     69  H   UNL A   1      44.083  29.204  28.154  1.00  0.00     0.167 HD
ATOM     70  C   UNL A   1      44.911  26.851  26.821  1.00  0.00     0.074 A 
ATOM     71  C   UNL A   1      44.884  25.520  26.252  1.00  0.00     0.031 C 
ATOM     72  C   UNL A   1      45.913  27.743  26.630  1.00  0.00     0.037 A 
BRANCH  59  73
ATOM     73  C   UNL A   1      45.001  33.162  29.440  1.00  0.00     0.057 A 
ATOM     74  C   UNL A   1      45.785  33.403  30.574  1.00  0.00     0.134 A 
ATOM     75  C   UNL A   1      44.762  34.240  28.577  1.00  0.00     0.134 A 
ATOM     76  F   UNL A   1      46.037  32.419  31.448  1.00  0.00    -0.206 F 
ATOM     77  C   UNL A   1      46.304  34.672  30.843  1.00  0.00     0.040 A 
ATOM     78  C   UNL A   1      45.290  35.508  28.825  1.00  0.00     0.040 A 
ATOM     79  F   UNL A   1      44.020  34.075  27.471  1.00  0.00    -0.206 F 
ATOM     80  C   UNL A   1      46.062  35.727  29.963  1.00  0.00     0.006 A 
ENDBRANCH  59  73
BRANCH  60  81
ATOM     81  C   UNL A   1      41.154  24.157  27.658  1.00  0.00     0.057 A 
ATOM     82  C   UNL A   1      40.170  24.025  26.674  1.00  0.00     0.134 A 
ATOM     83  C   UNL A   1      41.570  22.993  28.319  1.00  0.00     0.134 A 
ATOM     84  F   UNL A   1      39.711  25.108  26.029  1.00  0.00    -0.206 F 
ATOM     85  C   UNL A   1      39.623  22.781  26.354  1.00  0.00     0.040 A 
ATOM     86  C   UNL A   1      41.054  21.740  27.989  1.00  0.00     0.040 A 
ATOM     87  F   UNL A   1      42.508  23.054  29.275  1.00  0.00    -0.206 F 
ATOM     88  C   UNL A   1      40.073  21.632  27.004  1.00  0.00     0.006 A 
ENDBRANCH  60  81
BRANCH  72  89
ATOM     89  C   UNL A   1      47.072  27.294  25.796  1.00  0.00     0.057 A 
ATOM     90  C   UNL A   1      48.138  26.572  26.348  1.00  0.00     0.134 A 
ATOM     91  C   UNL A   1      47.113  27.567  24.424  1.00  0.00     0.134 A 
ATOM     92  F   UNL A   1      48.164  26.295  27.660  1.00  0.00    -0.206 F 
ATOM     93  C   UNL A   1      49.215  26.155  25.566  1.00  0.00     0.040 A 
ATOM     94  C   UNL A   1      48.175  27.137  23.627  1.00  0.00     0.040 A 
ATOM     95  F   UNL A   1      46.119  28.250  23.836  1.00  0.00    -0.206 F 
ATOM     96  C   UNL A   1      49.233  26.433  24.199  1.00  0.00     0.006 A 
ENDBRANCH  72  89
ENDBRANCH  46  47
ENDBRANCH  39  41
ENDBRANCH  38  39
ENDBRANCH  37  38
ENDBRANCH  36  37
ENDBRANCH  35  36
ENDBRANCH  34  35
ENDBRANCH   1  34
TORSDOF 20
ENDMDL
MODEL 2
REMARK VINA RESULT:     -11.5      4.607     10.113
REMARK SMILES C[NH+]1CCC([NH+]2CCC(Oc3ccc4ccccc4c3)(C(=O)OCCOCCOCCOC(=O)c3ccc(-c4c5nc(c(-c6c(F)cccc6F)c6ccc([nH]6)c(-c6c(F)cccc6F)c6nc(c(-c7c(F)cccc7F)c7ccc4[nH]7)C=C6)C=C5)cc3)CC2)CC1
REMARK SMILES IDX 27 1 26 2 25 3 24 4 23 5 21 6 22 7 9 8 6 9 7 10 90 11 8 13
REMARK SMILES IDX 89 14 5 15 1 16 2 17 3 18 92 19 4 21 91 22 10 23 11 24 12 25
REMARK SMILES IDX 20 26 13 27 19 28 14 29 18 30 15 31 17 32 16 33 28 34 29 35
REMARK SMILES IDX 30 36 31 37 32 38 33 39 34 40 35 41 36 42 88 43 37 44 87 45
REMARK SMILES IDX 38 46 39 47 40 48 81 49 41 50 86 51 80 52 82 53 42 54 85 55
REMARK SMILES IDX 79 56 78 57 43 59 69 60 52 61 68 62 53 63 56 64 67 65 83 66
REMARK SMILES IDX 54 67 55 68 66 70 84 71 57 72 44 73 45 74 50 75 46 76 47 77
REMARK SMILES IDX 49 78 51 79 48 80 70 81 71 82 76 83 72 84 73 85 75 86 77 87
REMARK SMILES IDX 74 88 58 89 59 90 64 91 60 92 61 93 63 94 65 95 62 96
REMARK H PARENT 6 12 2 20 82 58 56 69
REMARK Flexibility Score: inf
ROOT
ATOM      1  C   UNL A   1      39.068  21.518  25.841  1.00  0.00     0.188 C 
ENDROOT
BRANCH   1   2
ATOM      2  O   UNL A   1      38.222  22.653  25.742  1.00  0.00    -0.376 OA
BRANCH   2   3
ATOM      3  C   UNL A   1      36.884  22.459  25.291  1.00  0.00     0.202 C 
BRANCH   3   4
ATOM      4  C   UNL A   1      36.430  23.371  24.148  1.00  0.00     0.261 C 
BRANCH   4   5
ATOM      5  O   UNL A   1      35.487  24.379  24.586  1.00  0.00    -0.460 OA
BRANCH   5   6
ATOM      6  C   UNL A   1      34.367  24.569  23.825  1.00  0.00     0.351 C 
ATOM      7  O   UNL A   1      34.406  24.914  22.648  1.00  0.00    -0.247 OA
BRANCH   6   8
ATOM      8  C   UNL A   1      33.056  24.372  24.623  1.00  0.00     0.216 C 
ATOM      9  N   UNL A   1      32.152  21.539  24.891  1.00  0.00    -0.332 N 
ATOM     10  C   UNL A   1      33.124  22.064  25.855  1.00  0.00     0.267 C 
ATOM     11  C   UNL A   1      32.300  22.186  23.580  1.00  0.00     0.267 C 
ATOM     12  H   UNL A   1      31.233  21.776  25.266  1.00  0.00     0.348 HD
ATOM     13  C   UNL A   1      33.200  23.593  25.945  1.00  0.00     0.122 C 
ATOM     14  C   UNL A   1      32.027  23.688  23.703  1.00  0.00     0.122 C 
BRANCH   9  15
ATOM     15  C   UNL A   1      32.151  20.048  24.777  1.00  0.00     0.195 C 
ATOM     16  C   UNL A   1      33.342  15.928  24.273  1.00  0.00     0.332 C 
ATOM     17  N   UNL A   1      33.349  17.385  24.402  1.00  0.00    -0.337 N 
ATOM     18  C   UNL A   1      32.901  17.817  25.734  1.00  0.00     0.268 C 
ATOM     19  C   UNL A   1      32.527  17.989  23.355  1.00  0.00     0.268 C 
ATOM     20  H   UNL A   1      34.311  17.703  24.290  1.00  0.00     0.347 HD
ATOM     21  C   UNL A   1      32.956  19.351  25.888  1.00  0.00     0.126 C 
ATOM     22  C   UNL A   1      32.632  19.506  23.426  1.00  0.00     0.126 C 
ENDBRANCH   9  15
BRANCH   8  23
ATOM     23  O   UNL A   1      32.822  25.787  24.904  1.00  0.00    -0.475 OA
BRANCH  23  24
ATOM     24  C   UNL A   1      31.663  26.332  24.448  1.00  0.00     0.121 A 
ATOM     25  C   UNL A   1      30.430  25.846  24.864  1.00  0.00     0.047 A 
ATOM     26  C   UNL A   1      31.741  27.474  23.655  1.00  0.00     0.055 A 
ATOM     27  C   UNL A   1      29.258  26.441  24.406  1.00  0.00     0.012 A 
ATOM     28  C   UNL A   1      30.570  28.107  23.212  1.00  0.00    -0.015 A 
ATOM     29  C   UNL A   1      29.313  27.570  23.577  1.00  0.00    -0.018 A 
ATOM     30  C   UNL A   1      30.615  29.267  22.424  1.00  0.00     0.009 A 
ATOM     31  C   UNL A   1      28.140  28.186  23.125  1.00  0.00     0.009 A 
ATOM     32  C   UNL A   1      29.437  29.880  21.995  1.00  0.00     0.001 A 
ATOM     33  C   UNL A   1      28.202  29.337  22.338  1.00  0.00     0.001 A 
ENDBRANCH  23  24
ENDBRANCH   8  23
ENDBRANCH   6   8
ENDBRANCH   5   6
ENDBRANCH   4   5
ENDBRANCH   3   4
ENDBRANCH   2   3
ENDBRANCH   1   2
BRANCH   1  34
ATOM     34  C   UNL A   1      40.402  21.699  26.573  1.00  0.00     0.188 C 
BRANCH  34  35
ATOM     35  O   UNL A   1      41.606  21.650  25.824  1.00  0.00    -0.376 OA
BRANCH  35  36
ATOM     36  C   UNL A   1      42.609  22.587  26.193  1.00  0.00     0.202 C 
BRANCH  36  37
ATOM     37  C   UNL A   1      43.065  23.500  25.053  1.00  0.00     0.261 C 
BRANCH  37  38
ATOM     38  O   UNL A   1      42.535  24.829  25.216  1.00  0.00    -0.460 OA
BRANCH  38  39
ATOM     39  C   UNL A   1      43.368  25.704  25.819  1.00  0.00     0.338 C 
ATOM     40  O   UNL A   1      44.542  25.898  25.512  1.00  0.00    -0.246 OA
BRANCH  39  41
ATOM     41  C   UNL A   1      42.647  26.529  26.826  1.00  0.00     0.060 A 
ATOM     42  C   UNL A   1      42.984  27.862  27.076  1.00  0.00     0.016 A 
ATOM     43  C   UNL A   1      41.719  25.909  27.663  1.00  0.00     0.016 A 
ATOM     44  C   UNL A   1      42.539  28.508  28.232  1.00  0.00     0.010 A 
ATOM     45  C   UNL A   1      41.177  26.601  28.753  1.00  0.00     0.010 A 
ATOM     46  C   UNL A   1      41.615  27.896  29.082  1.00  0.00    -0.014 A 
BRANCH  46  47
ATOM     47  C   UNL A   1      41.110  28.563  30.318  1.00  0.00     0.031 A 
ATOM     48  C   UNL A   1      39.936  29.505  30.238  1.00  0.00     0.074 A 
ATOM     49  C   UNL A   1      41.700  28.370  31.516  1.00  0.00     0.049 A 
ATOM     50  N   UNL A   1      39.578  30.460  31.059  1.00  0.00    -0.248 NA
ATOM     51  C   UNL A   1      39.049  29.351  29.073  1.00  0.00     0.031 C 
ATOM     52  C   UNL A   1      42.765  27.411  31.807  1.00  0.00     0.029 A 
ATOM     53  N   UNL A   1      41.494  29.006  32.719  1.00  0.00    -0.354 N 
ATOM     54  C   UNL A   1      38.469  31.062  30.478  1.00  0.00     0.074 A 
ATOM     55  C   UNL A   1      38.193  30.350  29.249  1.00  0.00     0.031 C 
ATOM     56  C   UNL A   1      43.114  27.514  33.097  1.00  0.00     0.029 A 
ATOM     57  C   UNL A   1      42.397  28.636  33.688  1.00  0.00     0.049 A 
ATOM     58  H   UNL A   1      40.773  29.660  32.871  1.00  0.00     0.167 HD
ATOM     59  C   UNL A   1      37.762  32.129  30.923  1.00  0.00     0.037 A 
ATOM     60  C   UNL A   1      42.695  29.191  34.877  1.00  0.00     0.037 A 
ATOM     61  C   UNL A   1      38.021  32.810  32.165  1.00  0.00     0.049 A 
ATOM     62  C   UNL A   1      41.991  30.444  35.304  1.00  0.00     0.074 A 
ATOM     63  C   UNL A   1      37.383  33.920  32.695  1.00  0.00     0.029 A 
ATOM     64  N   UNL A   1      38.992  32.434  33.079  1.00  0.00    -0.354 N 
ATOM     65  N   UNL A   1      41.036  31.103  34.693  1.00  0.00    -0.248 NA
ATOM     66  C   UNL A   1      42.435  31.056  36.564  1.00  0.00     0.031 C 
ATOM     67  C   UNL A   1      37.993  34.235  33.915  1.00  0.00     0.029 A 
ATOM     68  C   UNL A   1      38.984  33.297  34.161  1.00  0.00     0.049 A 
ATOM     69  H   UNL A   1      39.600  31.666  32.974  1.00  0.00     0.167 HD
ATOM     70  C   UNL A   1      40.761  32.201  35.496  1.00  0.00     0.074 A 
ATOM     71  C   UNL A   1      41.638  32.112  36.645  1.00  0.00     0.031 C 
ATOM     72  C   UNL A   1      39.865  33.198  35.295  1.00  0.00     0.037 A 
BRANCH  59  73
ATOM     73  C   UNL A   1      36.678  32.667  30.037  1.00  0.00     0.057 A 
ATOM     74  C   UNL A   1      36.952  33.463  28.918  1.00  0.00     0.134 A 
ATOM     75  C   UNL A   1      35.339  32.337  30.284  1.00  0.00     0.134 A 
ATOM     76  F   UNL A   1      38.210  33.829  28.636  1.00  0.00    -0.206 F 
ATOM     77  C   UNL A   1      35.929  33.921  28.084  1.00  0.00     0.040 A 
ATOM     78  C   UNL A   1      34.310  32.772  29.448  1.00  0.00     0.040 A 
ATOM     79  F   UNL A   1      35.010  31.575  31.339  1.00  0.00    -0.206 F 
ATOM     80  C   UNL A   1      34.605  33.569  28.344  1.00  0.00     0.006 A 
ENDBRANCH  59  73
BRANCH  60  81
ATOM     81  C   UNL A   1      43.799  28.623  35.693  1.00  0.00     0.057 A 
ATOM     82  C   UNL A   1      43.559  27.629  36.646  1.00  0.00     0.134 A 
ATOM     83  C   UNL A   1      45.124  29.048  35.522  1.00  0.00     0.134 A 
ATOM     84  F   UNL A   1      42.308  27.204  36.876  1.00  0.00    -0.206 F 
ATOM     85  C   UNL A   1      44.597  27.073  37.396  1.00  0.00     0.040 A 
ATOM     86  C   UNL A   1      46.174  28.481  36.243  1.00  0.00     0.040 A 
ATOM     87  F   UNL A   1      45.420  30.001  34.626  1.00  0.00    -0.206 F 
ATOM     88  C   UNL A   1      45.910  27.490  37.187  1.00  0.00     0.006 A 
ENDBRANCH  60  81
BRANCH  72  89
ATOM     89  C   UNL A   1      39.771  34.251  36.356  1.00  0.00     0.057 A 
ATOM     90  C   UNL A   1      38.985  34.072  37.500  1.00  0.00     0.134 A 
ATOM     91  C   UNL A   1      40.491  35.446  36.241  1.00  0.00     0.134 A 
ATOM     92  F   UNL A   1      38.260  32.955  37.660  1.00  0.00    -0.206 F 
ATOM     93  C   UNL A   1      38.903  35.056  38.487  1.00  0.00     0.040 A 
ATOM     94  C   UNL A   1      40.432  36.428  37.229  1.00  0.00     0.040 A 
ATOM     95  F   UNL A   1      41.266  35.673  35.169  1.00  0.00    -0.206 F 
ATOM     96  C   UNL A   1      39.633  36.237  38.354  1.00  0.00     0.006 A 
ENDBRANCH  72  89
ENDBRANCH  46  47
ENDBRANCH  39  41
ENDBRANCH  38  39
ENDBRANCH  37  38
ENDBRANCH  36  37
ENDBRANCH  35  36
ENDBRANCH  34  35
ENDBRANCH   1  34
TORSDOF 20
ENDMDL
MODEL 3
REMARK VINA RESULT:     -11.5      4.565      9.108
REMARK SMILES C[NH+]1CCC([NH+]2CCC(Oc3ccc4ccccc4c3)(C(=O)OCCOCCOCCOC(=O)c3ccc(-c4c5nc(c(-c6c(F)cccc6F)c6ccc([nH]6)c(-c6c(F)cccc6F)c6nc(c(-c7c(F)cccc7F)c7ccc4[nH]7)C=C6)C=C5)cc3)CC2)CC1
REMARK SMILES IDX 27 1 26 2 25 3 24 4 23 5 21 6 22 7 9 8 6 9 7 10 90 11 8 13
REMARK SMILES IDX 89 14 5 15 1 16 2 17 3 18 92 19 4 21 91 22 10 23 11 24 12 25
REMARK SMILES IDX 20 26 13 27 19 28 14 29 18 30 15 31 17 32 16 33 28 34 29 35
REMARK SMILES IDX 30 36 31 37 32 38 33 39 34 40 35 41 36 42 88 43 37 44 87 45
REMARK SMILES IDX 38 46 39 47 40 48 81 49 41 50 86 51 80 52 82 53 42 54 85 55
REMARK SMILES IDX 79 56 78 57 43 59 69 60 52 61 68 62 53 63 56 64 67 65 83 66
REMARK SMILES IDX 54 67 55 68 66 70 84 71 57 72 44 73 45 74 50 75 46 76 47 77
REMARK SMILES IDX 49 78 51 79 48 80 70 81 71 82 76 83 72 84 73 85 75 86 77 87
REMARK SMILES IDX 74 88 58 89 59 90 64 91 60 92 61 93 63 94 65 95 62 96
REMARK H PARENT 6 12 2 20 82 58 56 69
REMARK Flexibility Score: inf
ROOT
ATOM      1  C   UNL A   1      40.093  23.009  27.019  1.00  0.00     0.188 C 
ENDROOT
BRANCH   1   2
ATOM      2  O   UNL A   1      39.038  23.598  26.274  1.00  0.00    -0.376 OA
BRANCH   2   3
ATOM      3  C   UNL A   1      37.974  22.759  25.834  1.00  0.00     0.202 C 
BRANCH   3   4
ATOM      4  C   UNL A   1      37.145  23.297  24.665  1.00  0.00     0.261 C 
BRANCH   4   5
ATOM      5  O   UNL A   1      35.935  23.960  25.103  1.00  0.00    -0.460 OA
BRANCH   5   6
ATOM      6  C   UNL A   1      34.851  23.910  24.272  1.00  0.00     0.351 C 
ATOM      7  O   UNL A   1      34.941  23.937  23.048  1.00  0.00    -0.247 OA
BRANCH   6   8
ATOM      8  C   UNL A   1      33.505  23.889  25.036  1.00  0.00     0.216 C 
ATOM      9  N   UNL A   1      31.699  26.202  24.482  1.00  0.00    -0.332 N 
ATOM     10  C   UNL A   1      31.660  25.044  23.583  1.00  0.00     0.267 C 
ATOM     11  C   UNL A   1      33.040  26.383  25.057  1.00  0.00     0.267 C 
ATOM     12  H   UNL A   1      31.050  25.988  25.239  1.00  0.00     0.348 HD
ATOM     13  C   UNL A   1      32.249  23.748  24.155  1.00  0.00     0.122 C 
ATOM     14  C   UNL A   1      33.419  25.162  25.900  1.00  0.00     0.122 C 
BRANCH   9  15
ATOM     15  C   UNL A   1      31.183  27.466  23.872  1.00  0.00     0.195 C 
ATOM     16  C   UNL A   1      28.866  31.002  22.996  1.00  0.00     0.332 C 
ATOM     17  N   UNL A   1      29.378  29.776  23.607  1.00  0.00    -0.337 N 
ATOM     18  C   UNL A   1      30.741  29.954  24.128  1.00  0.00     0.268 C 
ATOM     19  C   UNL A   1      29.328  28.674  22.647  1.00  0.00     0.268 C 
ATOM     20  H   UNL A   1      28.779  29.549  24.400  1.00  0.00     0.347 HD
ATOM     21  C   UNL A   1      31.263  28.677  24.818  1.00  0.00     0.126 C 
ATOM     22  C   UNL A   1      29.754  27.379  23.325  1.00  0.00     0.126 C 
ENDBRANCH   9  15
BRANCH   8  23
ATOM     23  O   UNL A   1      33.747  22.642  25.758  1.00  0.00    -0.475 OA
BRANCH  23  24
ATOM     24  C   UNL A   1      33.459  21.480  25.112  1.00  0.00     0.121 A 
ATOM     25  C   UNL A   1      32.373  21.389  24.251  1.00  0.00     0.047 A 
ATOM     26  C   UNL A   1      34.357  20.421  25.234  1.00  0.00     0.055 A 
ATOM     27  C   UNL A   1      32.118  20.196  23.579  1.00  0.00     0.012 A 
ATOM     28  C   UNL A   1      34.134  19.225  24.537  1.00  0.00    -0.015 A 
ATOM     29  C   UNL A   1      32.988  19.106  23.715  1.00  0.00    -0.018 A 
ATOM     30  C   UNL A   1      35.025  18.145  24.627  1.00  0.00     0.009 A 
ATOM     31  C   UNL A   1      32.749  17.908  23.030  1.00  0.00     0.009 A 
ATOM     32  C   UNL A   1      34.783  16.963  23.925  1.00  0.00     0.001 A 
ATOM     33  C   UNL A   1      33.644  16.842  23.134  1.00  0.00     0.001 A 
ENDBRANCH  23  24
ENDBRANCH   8  23
ENDBRANCH   6   8
ENDBRANCH   5   6
ENDBRANCH   4   5
ENDBRANCH   3   4
ENDBRANCH   2   3
ENDBRANCH   1   2
BRANCH   1  34
ATOM     34  C   UNL A   1      40.981  21.992  26.295  1.00  0.00     0.188 C 
BRANCH  34  35
ATOM     35  O   UNL A   1      42.098  22.461  25.557  1.00  0.00    -0.376 OA
BRANCH  35  36
ATOM     36  C   UNL A   1      42.768  23.595  26.093  1.00  0.00     0.202 C 
BRANCH  36  37
ATOM     37  C   UNL A   1      43.055  24.695  25.070  1.00  0.00     0.261 C 
BRANCH  37  38
ATOM     38  O   UNL A   1      41.964  25.635  25.009  1.00  0.00    -0.460 OA
BRANCH  38  39
ATOM     39  C   UNL A   1      42.304  26.917  25.261  1.00  0.00     0.338 C 
ATOM     40  O   UNL A   1      42.675  27.735  24.422  1.00  0.00    -0.246 OA
BRANCH  39  41
ATOM     41  C   UNL A   1      42.035  27.278  26.679  1.00  0.00     0.060 A 
ATOM     42  C   UNL A   1      41.049  26.639  27.436  1.00  0.00     0.016 A 
ATOM     43  C   UNL A   1      42.669  28.397  27.221  1.00  0.00     0.016 A 
ATOM     44  C   UNL A   1      40.585  27.202  28.628  1.00  0.00     0.010 A 
ATOM     45  C   UNL A   1      42.288  28.888  28.475  1.00  0.00     0.010 A 
ATOM     46  C   UNL A   1      41.207  28.326  29.178  1.00  0.00    -0.014 A 
BRANCH  46  47
ATOM     47  C   UNL A   1      40.744  28.944  30.455  1.00  0.00     0.031 A 
ATOM     48  C   UNL A   1      39.584  29.907  30.446  1.00  0.00     0.074 A 
ATOM     49  C   UNL A   1      41.359  28.688  31.628  1.00  0.00     0.049 A 
ATOM     50  N   UNL A   1      39.263  30.829  31.317  1.00  0.00    -0.248 NA
ATOM     51  C   UNL A   1      38.667  29.820  29.298  1.00  0.00     0.031 C 
ATOM     52  C   UNL A   1      42.414  27.700  31.849  1.00  0.00     0.029 A 
ATOM     53  N   UNL A   1      41.193  29.272  32.863  1.00  0.00    -0.354 N 
ATOM     54  C   UNL A   1      38.150  31.475  30.792  1.00  0.00     0.074 A 
ATOM     55  C   UNL A   1      37.833  30.823  29.540  1.00  0.00     0.031 C 
ATOM     56  C   UNL A   1      42.796  27.739  33.132  1.00  0.00     0.029 A 
ATOM     57  C   UNL A   1      42.113  28.844  33.791  1.00  0.00     0.049 A 
ATOM     58  H   UNL A   1      40.488  29.930  33.062  1.00  0.00     0.167 HD
ATOM     59  C   UNL A   1      37.472  32.532  31.302  1.00  0.00     0.037 A 
ATOM     60  C   UNL A   1      42.450  29.341  34.996  1.00  0.00     0.037 A 
ATOM     61  C   UNL A   1      37.773  33.152  32.566  1.00  0.00     0.049 A 
ATOM     62  C   UNL A   1      41.777  30.584  35.496  1.00  0.00     0.074 A 
ATOM     63  C   UNL A   1      37.167  34.247  33.161  1.00  0.00     0.029 A 
ATOM     64  N   UNL A   1      38.760  32.720  33.438  1.00  0.00    -0.354 N 
ATOM     65  N   UNL A   1      40.819  31.285  34.939  1.00  0.00    -0.248 NA
ATOM     66  C   UNL A   1      42.262  31.132  36.771  1.00  0.00     0.031 C 
ATOM     67  C   UNL A   1      37.812  34.496  34.378  1.00  0.00     0.029 A 
ATOM     68  C   UNL A   1      38.792  33.533  34.557  1.00  0.00     0.049 A 
ATOM     69  H   UNL A   1      39.351  31.948  33.283  1.00  0.00     0.167 HD
ATOM     70  C   UNL A   1      40.582  32.350  35.797  1.00  0.00     0.074 A 
ATOM     71  C   UNL A   1      41.485  32.195  36.919  1.00  0.00     0.031 C 
ATOM     72  C   UNL A   1      39.699  33.369  35.663  1.00  0.00     0.037 A 
BRANCH  59  73
ATOM     73  C   UNL A   1      36.377  33.127  30.468  1.00  0.00     0.057 A 
ATOM     74  C   UNL A   1      35.023  32.897  30.735  1.00  0.00     0.134 A 
ATOM     75  C   UNL A   1      36.690  33.986  29.406  1.00  0.00     0.134 A 
ATOM     76  F   UNL A   1      34.656  32.071  31.726  1.00  0.00    -0.206 F 
ATOM     77  C   UNL A   1      34.018  33.493  29.968  1.00  0.00     0.040 A 
ATOM     78  C   UNL A   1      35.696  34.603  28.645  1.00  0.00     0.040 A 
ATOM     79  F   UNL A   1      37.969  34.250  29.099  1.00  0.00    -0.206 F 
ATOM     80  C   UNL A   1      34.355  34.354  28.924  1.00  0.00     0.006 A 
ENDBRANCH  59  73
BRANCH  60  81
ATOM     81  C   UNL A   1      43.563  28.719  35.758  1.00  0.00     0.057 A 
ATOM     82  C   UNL A   1      43.334  27.659  36.641  1.00  0.00     0.134 A 
ATOM     83  C   UNL A   1      44.885  29.158  35.603  1.00  0.00     0.134 A 
ATOM     84  F   UNL A   1      42.087  27.216  36.853  1.00  0.00    -0.206 F 
ATOM     85  C   UNL A   1      44.381  27.054  37.339  1.00  0.00     0.040 A 
ATOM     86  C   UNL A   1      45.944  28.544  36.271  1.00  0.00     0.040 A 
ATOM     87  F   UNL A   1      45.170  30.173  34.774  1.00  0.00    -0.206 F 
ATOM     88  C   UNL A   1      45.692  27.488  37.146  1.00  0.00     0.006 A 
ENDBRANCH  60  81
BRANCH  72  89
ATOM     89  C   UNL A   1      39.649  34.374  36.772  1.00  0.00     0.057 A 
ATOM     90  C   UNL A   1      40.337  35.591  36.691  1.00  0.00     0.134 A 
ATOM     91  C   UNL A   1      38.889  34.131  37.922  1.00  0.00     0.134 A 
ATOM     92  F   UNL A   1      41.095  35.874  35.622  1.00  0.00    -0.206 F 
ATOM     93  C   UNL A   1      40.286  36.524  37.727  1.00  0.00     0.040 A 
ATOM     94  C   UNL A   1      38.814  35.065  38.955  1.00  0.00     0.040 A 
ATOM     95  F   UNL A   1      38.204  32.985  38.056  1.00  0.00    -0.206 F 
ATOM     96  C   UNL A   1      39.518  36.265  38.862  1.00  0.00     0.006 A 
ENDBRANCH  72  89
ENDBRANCH  46  47
ENDBRANCH  39  41
ENDBRANCH  38  39
ENDBRANCH  37  38
ENDBRANCH  36  37
ENDBRANCH  35  36
ENDBRANCH  34  35
ENDBRANCH   1  34
TORSDOF 20
ENDMDL
