MODEL 1
REMARK VINA RESULT:      -9.9      0.000      0.000
REMARK SMILES C[C@H](c1ccc(Br)s1)[NH+]1CCC(CC(=O)OCCOCCOCCOC(=O)c2ccc(-c3c4nc(c(-c5c(F)cccc5F)c5ccc([nH]5)c(-c5c(F)cccc5F)c5nc(c(-c6c(F)cccc6F)c6ccc3[nH]6)C=C5)C=C4)cc2)CC1
REMARK SMILES IDX 20 1 19 2 18 3 17 4 16 5 14 6 15 7 13 8 12 9 9 10 10 11
REMARK SMILES IDX 83 12 11 14 82 15 2 16 1 17 3 18 4 19 8 20 5 21 6 22 7 23
REMARK SMILES IDX 21 24 22 25 23 26 24 27 25 28 26 29 27 30 28 31 29 32 81 33
REMARK SMILES IDX 30 34 80 35 31 36 32 37 33 38 74 39 34 40 79 41 73 42 75 43
REMARK SMILES IDX 35 44 78 45 72 46 71 47 36 49 62 50 45 51 61 52 46 53 49 54
REMARK SMILES IDX 60 55 76 56 47 57 48 58 59 60 77 61 50 62 37 63 38 64 43 65
REMARK SMILES IDX 39 66 40 67 42 68 44 69 41 70 63 71 64 72 69 73 65 74 66 75
REMARK SMILES IDX 68 76 70 77 67 78 51 79 52 80 57 81 53 82 54 83 56 84 58 85
REMARK SMILES IDX 55 86
REMARK H PARENT 9 13 75 48 49 59
REMARK Flexibility Score: inf
ROOT
ATOM      1  C   UNL A   1      39.772  21.385  26.053  1.00  0.00     0.188 C 
ENDROOT
BRANCH   1   2
ATOM      2  O   UNL A   1      38.423  21.836  26.119  1.00  0.00    -0.376 OA
BRANCH   2   3
ATOM      3  C   UNL A   1      37.604  21.553  24.985  1.00  0.00     0.202 C 
BRANCH   3   4
ATOM      4  C   UNL A   1      36.258  20.875  25.280  1.00  0.00     0.261 C 
BRANCH   4   5
ATOM      5  O   UNL A   1      35.177  21.339  24.443  1.00  0.00    -0.463 OA
BRANCH   5   6
ATOM      6  C   UNL A   1      33.933  20.900  24.759  1.00  0.00     0.306 C 
ATOM      7  O   UNL A   1      33.678  20.162  25.706  1.00  0.00    -0.252 OA
BRANCH   6   8
ATOM      8  C   UNL A   1      32.822  21.476  23.897  1.00  0.00     0.126 C 
BRANCH   8   9
ATOM      9  C   UNL A   1      32.543  22.988  23.879  1.00  0.00     0.011 C 
ATOM     10  N   UNL A   1      30.842  25.256  24.688  1.00  0.00    -0.328 N 
ATOM     11  C   UNL A   1      30.961  24.856  23.287  1.00  0.00     0.263 C 
ATOM     12  C   UNL A   1      32.084  24.990  25.425  1.00  0.00     0.263 C 
ATOM     13  H   UNL A   1      30.107  24.659  25.069  1.00  0.00     0.348 HD
ATOM     14  C   UNL A   1      31.231  23.355  23.181  1.00  0.00     0.066 C 
ATOM     15  C   UNL A   1      32.489  23.514  25.331  1.00  0.00     0.066 C 
BRANCH  10  16
ATOM     16  C   UNL A   1      30.321  26.624  24.923  1.00  0.00     0.222 C 
ATOM     17  C   UNL A   1      29.324  27.057  23.834  1.00  0.00     0.082 C 
BRANCH  16  18
ATOM     18  C   UNL A   1      31.382  27.691  25.125  1.00  0.00     0.063 A 
ATOM     19  C   UNL A   1      32.159  28.360  24.192  1.00  0.00     0.023 A 
ATOM     20  S   UNL A   1      31.730  28.254  26.718  1.00  0.00    -0.127 S 
ATOM     21  C   UNL A   1      33.072  29.280  24.788  1.00  0.00     0.028 A 
ATOM     22  C   UNL A   1      32.920  29.312  26.149  1.00  0.00     0.070 A 
ATOM     23  Br  UNL A   1      33.928  30.421  27.274  1.00  0.00    -0.039 Br
ENDBRANCH  16  18
ENDBRANCH  10  16
ENDBRANCH   8   9
ENDBRANCH   6   8
ENDBRANCH   5   6
ENDBRANCH   4   5
ENDBRANCH   3   4
ENDBRANCH   2   3
ENDBRANCH   1   2
BRANCH   1  24
ATOM     24  C   UNL A   1      40.553  21.443  27.364  1.00  0.00     0.188 C 
BRANCH  24  25
ATOM     25  O   UNL A   1      41.961  21.294  27.268  1.00  0.00    -0.376 OA
BRANCH  25  26
ATOM     26  C   UNL A   1      42.584  21.790  26.081  1.00  0.00     0.202 C 
BRANCH  26  27
ATOM     27  C   UNL A   1      42.986  23.283  26.012  1.00  0.00     0.261 C 
BRANCH  27  28
ATOM     28  O   UNL A   1      41.922  24.260  26.039  1.00  0.00    -0.460 OA
BRANCH  28  29
ATOM     29  C   UNL A   1      42.209  25.547  25.738  1.00  0.00     0.338 C 
ATOM     30  O   UNL A   1      42.597  25.966  24.661  1.00  0.00    -0.246 OA
BRANCH  29  31
ATOM     31  C   UNL A   1      41.703  26.408  26.850  1.00  0.00     0.060 A 
ATOM     32  C   UNL A   1      42.110  27.753  26.898  1.00  0.00     0.016 A 
ATOM     33  C   UNL A   1      40.774  25.940  27.785  1.00  0.00     0.016 A 
ATOM     34  C   UNL A   1      41.628  28.611  27.894  1.00  0.00     0.010 A 
ATOM     35  C   UNL A   1      40.310  26.792  28.795  1.00  0.00     0.010 A 
ATOM     36  C   UNL A   1      40.763  28.122  28.880  1.00  0.00    -0.014 A 
BRANCH  36  37
ATOM     37  C   UNL A   1      40.540  28.883  30.140  1.00  0.00     0.031 A 
ATOM     38  C   UNL A   1      39.433  29.907  30.141  1.00  0.00     0.074 A 
ATOM     39  C   UNL A   1      41.284  28.710  31.248  1.00  0.00     0.049 A 
ATOM     40  N   UNL A   1      39.130  30.813  31.034  1.00  0.00    -0.248 NA
ATOM     41  C   UNL A   1      38.554  29.908  28.959  1.00  0.00     0.031 C 
ATOM     42  C   UNL A   1      42.338  27.716  31.421  1.00  0.00     0.029 A 
ATOM     43  N   UNL A   1      41.270  29.397  32.441  1.00  0.00    -0.354 N 
ATOM     44  C   UNL A   1      38.045  31.506  30.511  1.00  0.00     0.074 A 
ATOM     45  C   UNL A   1      37.757  30.930  29.216  1.00  0.00     0.031 C 
ATOM     46  C   UNL A   1      42.889  27.872  32.638  1.00  0.00     0.029 A 
ATOM     47  C   UNL A   1      42.259  29.008  33.315  1.00  0.00     0.049 A 
ATOM     48  H   UNL A   1      40.615  30.101  32.649  1.00  0.00     0.167 HD
ATOM     49  C   UNL A   1      37.350  32.530  31.057  1.00  0.00     0.037 A 
ATOM     50  C   UNL A   1      42.633  29.533  34.500  1.00  0.00     0.037 A 
ATOM     51  C   UNL A   1      37.632  33.103  32.344  1.00  0.00     0.049 A 
ATOM     52  C   UNL A   1      41.904  30.735  35.052  1.00  0.00     0.074 A 
ATOM     53  C   UNL A   1      36.980  34.141  32.984  1.00  0.00     0.029 A 
ATOM     54  N   UNL A   1      38.655  32.691  33.184  1.00  0.00    -0.354 N 
ATOM     55  N   UNL A   1      40.883  31.388  34.551  1.00  0.00    -0.248 NA
ATOM     56  C   UNL A   1      42.384  31.281  36.333  1.00  0.00     0.031 C 
ATOM     57  C   UNL A   1      37.643  34.396  34.187  1.00  0.00     0.029 A 
ATOM     58  C   UNL A   1      38.664  33.470  34.328  1.00  0.00     0.049 A 
ATOM     59  H   UNL A   1      39.280  31.954  32.995  1.00  0.00     0.167 HD
ATOM     60  C   UNL A   1      40.570  32.381  35.474  1.00  0.00     0.074 A 
ATOM     61  C   UNL A   1      41.513  32.253  36.562  1.00  0.00     0.031 C 
ATOM     62  C   UNL A   1      39.584  33.310  35.425  1.00  0.00     0.037 A 
BRANCH  49  63
ATOM     63  C   UNL A   1      36.238  33.122  30.241  1.00  0.00     0.057 A 
ATOM     64  C   UNL A   1      34.890  32.869  30.525  1.00  0.00     0.134 A 
ATOM     65  C   UNL A   1      36.523  33.980  29.172  1.00  0.00     0.134 A 
ATOM     66  F   UNL A   1      34.549  32.041  31.525  1.00  0.00    -0.206 F 
ATOM     67  C   UNL A   1      33.866  33.427  29.758  1.00  0.00     0.040 A 
ATOM     68  C   UNL A   1      35.508  34.570  28.418  1.00  0.00     0.040 A 
ATOM     69  F   UNL A   1      37.793  34.268  28.849  1.00  0.00    -0.206 F 
ATOM     70  C   UNL A   1      34.174  34.287  28.705  1.00  0.00     0.006 A 
ENDBRANCH  49  63
BRANCH  50  71
ATOM     71  C   UNL A   1      43.780  28.951  35.250  1.00  0.00     0.057 A 
ATOM     72  C   UNL A   1      43.585  27.971  36.231  1.00  0.00     0.134 A 
ATOM     73  C   UNL A   1      45.092  29.395  35.039  1.00  0.00     0.134 A 
ATOM     74  F   UNL A   1      42.350  27.527  36.506  1.00  0.00    -0.206 F 
ATOM     75  C   UNL A   1      44.647  27.467  36.987  1.00  0.00     0.040 A 
ATOM     76  C   UNL A   1      46.167  28.879  35.766  1.00  0.00     0.040 A 
ATOM     77  F   UNL A   1      45.348  30.337  34.120  1.00  0.00    -0.206 F 
ATOM     78  C   UNL A   1      45.944  27.919  36.751  1.00  0.00     0.006 A 
ENDBRANCH  50  71
BRANCH  62  79
ATOM     79  C   UNL A   1      39.403  34.217  36.608  1.00  0.00     0.057 A 
ATOM     80  C   UNL A   1      38.734  33.812  37.769  1.00  0.00     0.134 A 
ATOM     81  C   UNL A   1      40.001  35.486  36.618  1.00  0.00     0.134 A 
ATOM     82  F   UNL A   1      38.133  32.614  37.825  1.00  0.00    -0.206 F 
ATOM     83  C   UNL A   1      38.659  34.639  38.892  1.00  0.00     0.040 A 
ATOM     84  C   UNL A   1      39.957  36.309  37.743  1.00  0.00     0.040 A 
ATOM     85  F   UNL A   1      40.669  35.932  35.542  1.00  0.00    -0.206 F 
ATOM     86  C   UNL A   1      39.283  35.886  38.886  1.00  0.00     0.006 A 
ENDBRANCH  62  79
ENDBRANCH  36  37
ENDBRANCH  29  31
ENDBRANCH  28  29
ENDBRANCH  27  28
ENDBRANCH  26  27
ENDBRANCH  25  26
ENDBRANCH  24  25
ENDBRANCH   1  24
TORSDOF 20
ENDMDL
MODEL 2
REMARK VINA RESULT:      -9.7      5.844     11.208
REMARK SMILES C[C@H](c1ccc(Br)s1)[NH+]1CCC(CC(=O)OCCOCCOCCOC(=O)c2ccc(-c3c4nc(c(-c5c(F)cccc5F)c5ccc([nH]5)c(-c5c(F)cccc5F)c5nc(c(-c6c(F)cccc6F)c6ccc3[nH]6)C=C5)C=C4)cc2)CC1
REMARK SMILES IDX 20 1 19 2 18 3 17 4 16 5 14 6 15 7 13 8 12 9 9 10 10 11
REMARK SMILES IDX 83 12 11 14 82 15 2 16 1 17 3 18 4 19 8 20 5 21 6 22 7 23
REMARK SMILES IDX 21 24 22 25 23 26 24 27 25 28 26 29 27 30 28 31 29 32 81 33
REMARK SMILES IDX 30 34 80 35 31 36 32 37 33 38 74 39 34 40 79 41 73 42 75 43
REMARK SMILES IDX 35 44 78 45 72 46 71 47 36 49 62 50 45 51 61 52 46 53 49 54
REMARK SMILES IDX 60 55 76 56 47 57 48 58 59 60 77 61 50 62 37 63 38 64 43 65
REMARK SMILES IDX 39 66 40 67 42 68 44 69 41 70 63 71 64 72 69 73 65 74 66 75
REMARK SMILES IDX 68 76 70 77 67 78 51 79 52 80 57 81 53 82 54 83 56 84 58 85
REMARK SMILES IDX 55 86
REMARK H PARENT 9 13 75 48 49 59
REMARK Flexibility Score: inf
ROOT
ATOM      1  C   UNL A   1      32.564  36.731  32.119  1.00  0.00     0.188 C 
ENDROOT
BRANCH   1   2
ATOM      2  O   UNL A   1      32.506  36.927  30.709  1.00  0.00    -0.376 OA
BRANCH   2   3
ATOM      3  C   UNL A   1      33.562  36.343  29.946  1.00  0.00     0.202 C 
BRANCH   3   4
ATOM      4  C   UNL A   1      33.436  34.839  29.664  1.00  0.00     0.261 C 
BRANCH   4   5
ATOM      5  O   UNL A   1      34.701  34.145  29.632  1.00  0.00    -0.463 OA
BRANCH   5   6
ATOM      6  C   UNL A   1      34.874  33.244  28.632  1.00  0.00     0.306 C 
ATOM      7  O   UNL A   1      35.880  33.168  27.933  1.00  0.00    -0.252 OA
BRANCH   6   8
ATOM      8  C   UNL A   1      33.745  32.237  28.489  1.00  0.00     0.126 C 
BRANCH   8   9
ATOM      9  C   UNL A   1      33.634  31.352  27.237  1.00  0.00     0.011 C 
ATOM     10  N   UNL A   1      32.604  28.907  25.951  1.00  0.00    -0.328 N 
ATOM     11  C   UNL A   1      34.034  29.104  26.173  1.00  0.00     0.263 C 
ATOM     12  C   UNL A   1      31.920  30.185  25.716  1.00  0.00     0.263 C 
ATOM     13  H   UNL A   1      32.254  28.511  26.824  1.00  0.00     0.348 HD
ATOM     14  C   UNL A   1      34.268  29.969  27.412  1.00  0.00     0.066 C 
ATOM     15  C   UNL A   1      32.142  31.165  26.876  1.00  0.00     0.066 C 
BRANCH  10  16
ATOM     16  C   UNL A   1      32.246  27.876  24.947  1.00  0.00     0.222 C 
ATOM     17  C   UNL A   1      30.983  28.256  24.154  1.00  0.00     0.082 C 
BRANCH  16  18
ATOM     18  C   UNL A   1      32.127  26.463  25.489  1.00  0.00     0.063 A 
ATOM     19  C   UNL A   1      33.119  25.558  25.836  1.00  0.00     0.023 A 
ATOM     20  S   UNL A   1      30.566  25.793  25.786  1.00  0.00    -0.127 S 
ATOM     21  C   UNL A   1      32.596  24.308  26.283  1.00  0.00     0.028 A 
ATOM     22  C   UNL A   1      31.227  24.326  26.306  1.00  0.00     0.070 A 
ATOM     23  Br  UNL A   1      30.185  22.872  26.861  1.00  0.00    -0.039 Br
ENDBRANCH  16  18
ENDBRANCH  10  16
ENDBRANCH   8   9
ENDBRANCH   6   8
ENDBRANCH   5   6
ENDBRANCH   4   5
ENDBRANCH   3   4
ENDBRANCH   2   3
ENDBRANCH   1   2
BRANCH   1  24
ATOM     24  C   UNL A   1      33.876  37.135  32.788  1.00  0.00     0.188 C 
BRANCH  24  25
ATOM     25  O   UNL A   1      34.519  36.141  33.569  1.00  0.00    -0.376 OA
BRANCH  25  26
ATOM     26  C   UNL A   1      35.459  35.299  32.896  1.00  0.00     0.202 C 
BRANCH  26  27
ATOM     27  C   UNL A   1      35.875  33.962  33.554  1.00  0.00     0.261 C 
BRANCH  27  28
ATOM     28  O   UNL A   1      36.701  33.067  32.778  1.00  0.00    -0.460 OA
BRANCH  28  29
ATOM     29  C   UNL A   1      37.352  32.064  33.411  1.00  0.00     0.338 C 
ATOM     30  O   UNL A   1      37.052  31.576  34.488  1.00  0.00    -0.246 OA
BRANCH  29  31
ATOM     31  C   UNL A   1      38.323  31.460  32.448  1.00  0.00     0.060 A 
ATOM     32  C   UNL A   1      39.459  30.808  32.959  1.00  0.00     0.016 A 
ATOM     33  C   UNL A   1      38.089  31.449  31.069  1.00  0.00     0.016 A 
ATOM     34  C   UNL A   1      40.375  30.189  32.099  1.00  0.00     0.010 A 
ATOM     35  C   UNL A   1      39.017  30.850  30.208  1.00  0.00     0.010 A 
ATOM     36  C   UNL A   1      40.186  30.249  30.714  1.00  0.00    -0.014 A 
BRANCH  36  37
ATOM     37  C   UNL A   1      41.305  29.944  29.780  1.00  0.00     0.031 A 
ATOM     38  C   UNL A   1      41.362  28.553  29.203  1.00  0.00     0.074 A 
ATOM     39  C   UNL A   1      42.256  30.838  29.454  1.00  0.00     0.049 A 
ATOM     40  N   UNL A   1      42.304  27.974  28.504  1.00  0.00    -0.248 NA
ATOM     41  C   UNL A   1      40.192  27.698  29.464  1.00  0.00     0.031 C 
ATOM     42  C   UNL A   1      42.296  32.235  29.875  1.00  0.00     0.029 A 
ATOM     43  N   UNL A   1      43.396  30.682  28.697  1.00  0.00    -0.354 N 
ATOM     44  C   UNL A   1      41.851  26.682  28.265  1.00  0.00     0.074 A 
ATOM     45  C   UNL A   1      40.563  26.556  28.910  1.00  0.00     0.031 C 
ATOM     46  C   UNL A   1      43.417  32.803  29.393  1.00  0.00     0.029 A 
ATOM     47  C   UNL A   1      44.198  31.799  28.668  1.00  0.00     0.049 A 
ATOM     48  H   UNL A   1      43.616  29.849  28.221  1.00  0.00     0.167 HD
ATOM     49  C   UNL A   1      42.452  25.688  27.571  1.00  0.00     0.037 A 
ATOM     50  C   UNL A   1      45.432  31.975  28.152  1.00  0.00     0.037 A 
ATOM     51  C   UNL A   1      43.730  25.810  26.927  1.00  0.00     0.049 A 
ATOM     52  C   UNL A   1      46.128  30.826  27.461  1.00  0.00     0.074 A 
ATOM     53  C   UNL A   1      44.420  24.858  26.198  1.00  0.00     0.029 A 
ATOM     54  N   UNL A   1      44.515  26.952  26.943  1.00  0.00    -0.354 N 
ATOM     55  N   UNL A   1      45.696  29.607  27.242  1.00  0.00    -0.248 NA
ATOM     56  C   UNL A   1      47.487  31.073  26.950  1.00  0.00     0.031 C 
ATOM     57  C   UNL A   1      45.648  25.405  25.818  1.00  0.00     0.029 A 
ATOM     58  C   UNL A   1      45.692  26.721  26.251  1.00  0.00     0.049 A 
ATOM     59  H   UNL A   1      44.272  27.801  27.378  1.00  0.00     0.167 HD
ATOM     60  C   UNL A   1      46.705  28.964  26.529  1.00  0.00     0.074 A 
ATOM     61  C   UNL A   1      47.773  29.922  26.358  1.00  0.00     0.031 C 
ATOM     62  C   UNL A   1      46.735  27.695  26.054  1.00  0.00     0.037 A 
BRANCH  49  63
ATOM     63  C   UNL A   1      41.745  24.365  27.509  1.00  0.00     0.057 A 
ATOM     64  C   UNL A   1      42.100  23.292  28.337  1.00  0.00     0.134 A 
ATOM     65  C   UNL A   1      40.678  24.173  26.623  1.00  0.00     0.134 A 
ATOM     66  F   UNL A   1      43.126  23.405  29.195  1.00  0.00    -0.206 F 
ATOM     67  C   UNL A   1      41.434  22.067  28.268  1.00  0.00     0.040 A 
ATOM     68  C   UNL A   1      39.983  22.964  26.567  1.00  0.00     0.040 A 
ATOM     69  F   UNL A   1      40.284  25.161  25.804  1.00  0.00    -0.206 F 
ATOM     70  C   UNL A   1      40.367  21.904  27.386  1.00  0.00     0.006 A 
ENDBRANCH  49  63
BRANCH  50  71
ATOM     71  C   UNL A   1      46.123  33.287  28.287  1.00  0.00     0.057 A 
ATOM     72  C   UNL A   1      46.939  33.569  29.389  1.00  0.00     0.134 A 
ATOM     73  C   UNL A   1      45.947  34.307  27.343  1.00  0.00     0.134 A 
ATOM     74  F   UNL A   1      47.123  32.647  30.346  1.00  0.00    -0.206 F 
ATOM     75  C   UNL A   1      47.539  34.819  29.559  1.00  0.00     0.040 A 
ATOM     76  C   UNL A   1      46.563  35.552  27.484  1.00  0.00     0.040 A 
ATOM     77  F   UNL A   1      45.172  34.107  26.267  1.00  0.00    -0.206 F 
ATOM     78  C   UNL A   1      47.355  35.814  28.600  1.00  0.00     0.006 A 
ENDBRANCH  50  71
BRANCH  62  79
ATOM     79  C   UNL A   1      47.917  27.274  25.228  1.00  0.00     0.057 A 
ATOM     80  C   UNL A   1      47.967  27.457  23.841  1.00  0.00     0.134 A 
ATOM     81  C   UNL A   1      49.067  26.769  25.853  1.00  0.00     0.134 A 
ATOM     82  F   UNL A   1      46.899  27.928  23.178  1.00  0.00    -0.206 F 
ATOM     83  C   UNL A   1      49.113  27.145  23.106  1.00  0.00     0.040 A 
ATOM     84  C   UNL A   1      50.226  26.480  25.134  1.00  0.00     0.040 A 
ATOM     85  F   UNL A   1      49.092  26.582  27.182  1.00  0.00    -0.206 F 
ATOM     86  C   UNL A   1      50.251  26.667  23.754  1.00  0.00     0.006 A 
ENDBRANCH  62  79
ENDBRANCH  36  37
ENDBRANCH  29  31
ENDBRANCH  28  29
ENDBRANCH  27  28
ENDBRANCH  26  27
ENDBRANCH  25  26
ENDBRANCH  24  25
ENDBRANCH   1  24
TORSDOF 20
ENDMDL
MODEL 3
REMARK VINA RESULT:      -9.7      5.495     10.610
REMARK SMILES C[C@H](c1ccc(Br)s1)[NH+]1CCC(CC(=O)OCCOCCOCCOC(=O)c2ccc(-c3c4nc(c(-c5c(F)cccc5F)c5ccc([nH]5)c(-c5c(F)cccc5F)c5nc(c(-c6c(F)cccc6F)c6ccc3[nH]6)C=C5)C=C4)cc2)CC1
REMARK SMILES IDX 20 1 19 2 18 3 17 4 16 5 14 6 15 7 13 8 12 9 9 10 10 11
REMARK SMILES IDX 83 12 11 14 82 15 2 16 1 17 3 18 4 19 8 20 5 21 6 22 7 23
REMARK SMILES IDX 21 24 22 25 23 26 24 27 25 28 26 29 27 30 28 31 29 32 81 33
REMARK SMILES IDX 30 34 80 35 31 36 32 37 33 38 74 39 34 40 79 41 73 42 75 43
REMARK SMILES IDX 35 44 78 45 72 46 71 47 36 49 62 50 45 51 61 52 46 53 49 54
REMARK SMILES IDX 60 55 76 56 47 57 48 58 59 60 77 61 50 62 37 63 38 64 43 65
REMARK SMILES IDX 39 66 40 67 42 68 44 69 41 70 63 71 64 72 69 73 65 74 66 75
REMARK SMILES IDX 68 76 70 77 67 78 51 79 52 80 57 81 53 82 54 83 56 84 58 85
REMARK SMILES IDX 55 86
REMARK H PARENT 9 13 75 48 49 59
REMARK Flexibility Score: inf
ROOT
ATOM      1  C   UNL A   1      33.398  34.946  28.752  1.00  0.00     0.188 C 
ENDROOT
BRANCH   1   2
ATOM      2  O   UNL A   1      34.546  34.687  27.949  1.00  0.00    -0.376 OA
BRANCH   2   3
ATOM      3  C   UNL A   1      35.541  33.839  28.522  1.00  0.00     0.202 C 
BRANCH   3   4
ATOM      4  C   UNL A   1      35.148  32.364  28.696  1.00  0.00     0.261 C 
BRANCH   4   5
ATOM      5  O   UNL A   1      35.218  31.596  27.476  1.00  0.00    -0.463 OA
BRANCH   5   6
ATOM      6  C   UNL A   1      35.648  30.314  27.590  1.00  0.00     0.306 C 
ATOM      7  O   UNL A   1      36.794  29.942  27.354  1.00  0.00    -0.252 OA
BRANCH   6   8
ATOM      8  C   UNL A   1      34.612  29.349  28.142  1.00  0.00     0.126 C 
BRANCH   8   9
ATOM      9  C   UNL A   1      33.773  28.470  27.200  1.00  0.00     0.011 C 
ATOM     10  N   UNL A   1      31.587  28.237  25.235  1.00  0.00    -0.328 N 
ATOM     11  C   UNL A   1      31.497  27.608  26.551  1.00  0.00     0.263 C 
ATOM     12  C   UNL A   1      32.977  28.285  24.762  1.00  0.00     0.263 C 
ATOM     13  H   UNL A   1      31.263  29.193  25.378  1.00  0.00     0.348 HD
ATOM     14  C   UNL A   1      32.292  28.410  27.582  1.00  0.00     0.066 C 
ATOM     15  C   UNL A   1      33.886  29.016  25.758  1.00  0.00     0.066 C 
BRANCH  10  16
ATOM     16  C   UNL A   1      30.654  27.714  24.209  1.00  0.00     0.222 C 
ATOM     17  C   UNL A   1      31.354  26.766  23.220  1.00  0.00     0.082 C 
BRANCH  16  18
ATOM     18  C   UNL A   1      29.862  28.772  23.459  1.00  0.00     0.063 A 
ATOM     19  C   UNL A   1      29.008  28.640  22.376  1.00  0.00     0.023 A 
ATOM     20  S   UNL A   1      29.940  30.416  23.973  1.00  0.00    -0.127 S 
ATOM     21  C   UNL A   1      28.474  29.888  21.937  1.00  0.00     0.028 A 
ATOM     22  C   UNL A   1      28.902  30.916  22.735  1.00  0.00     0.070 A 
ATOM     23  Br  UNL A   1      28.389  32.700  22.484  1.00  0.00    -0.039 Br
ENDBRANCH  16  18
ENDBRANCH  10  16
ENDBRANCH   8   9
ENDBRANCH   6   8
ENDBRANCH   5   6
ENDBRANCH   4   5
ENDBRANCH   3   4
ENDBRANCH   2   3
ENDBRANCH   1   2
BRANCH   1  24
ATOM     24  C   UNL A   1      33.681  35.456  30.163  1.00  0.00     0.188 C 
BRANCH  24  25
ATOM     25  O   UNL A   1      33.099  34.722  31.229  1.00  0.00    -0.376 OA
BRANCH  25  26
ATOM     26  C   UNL A   1      33.933  34.451  32.358  1.00  0.00     0.202 C 
BRANCH  26  27
ATOM     27  C   UNL A   1      34.691  33.103  32.424  1.00  0.00     0.261 C 
BRANCH  27  28
ATOM     28  O   UNL A   1      36.128  33.141  32.278  1.00  0.00    -0.460 OA
BRANCH  28  29
ATOM     29  C   UNL A   1      36.883  32.310  33.032  1.00  0.00     0.338 C 
ATOM     30  O   UNL A   1      36.644  31.954  34.174  1.00  0.00    -0.246 OA
BRANCH  29  31
ATOM     31  C   UNL A   1      37.903  31.673  32.143  1.00  0.00     0.060 A 
ATOM     32  C   UNL A   1      38.980  30.992  32.736  1.00  0.00     0.016 A 
ATOM     33  C   UNL A   1      37.769  31.664  30.751  1.00  0.00     0.016 A 
ATOM     34  C   UNL A   1      39.938  30.343  31.946  1.00  0.00     0.010 A 
ATOM     35  C   UNL A   1      38.739  31.034  29.961  1.00  0.00     0.010 A 
ATOM     36  C   UNL A   1      39.850  30.403  30.551  1.00  0.00    -0.014 A 
BRANCH  36  37
ATOM     37  C   UNL A   1      41.024  30.061  29.700  1.00  0.00     0.031 A 
ATOM     38  C   UNL A   1      41.081  28.668  29.130  1.00  0.00     0.074 A 
ATOM     39  C   UNL A   1      42.023  30.925  29.444  1.00  0.00     0.049 A 
ATOM     40  N   UNL A   1      42.053  28.058  28.502  1.00  0.00    -0.248 NA
ATOM     41  C   UNL A   1      39.870  27.849  29.306  1.00  0.00     0.031 C 
ATOM     42  C   UNL A   1      42.075  32.321  29.866  1.00  0.00     0.029 A 
ATOM     43  N   UNL A   1      43.210  30.733  28.772  1.00  0.00    -0.354 N 
ATOM     44  C   UNL A   1      41.579  26.780  28.231  1.00  0.00     0.074 A 
ATOM     45  C   UNL A   1      40.245  26.695  28.781  1.00  0.00     0.031 C 
ATOM     46  C   UNL A   1      43.244  32.854  29.467  1.00  0.00     0.029 A 
ATOM     47  C   UNL A   1      44.045  31.825  28.801  1.00  0.00     0.049 A 
ATOM     48  H   UNL A   1      43.438  29.892  28.314  1.00  0.00     0.167 HD
ATOM     49  C   UNL A   1      42.199  25.766  27.583  1.00  0.00     0.037 A 
ATOM     50  C   UNL A   1      45.318  31.963  28.375  1.00  0.00     0.037 A 
ATOM     51  C   UNL A   1      43.524  25.848  27.033  1.00  0.00     0.049 A 
ATOM     52  C   UNL A   1      46.027  30.791  27.737  1.00  0.00     0.074 A 
ATOM     53  C   UNL A   1      44.235  24.874  26.356  1.00  0.00     0.029 A 
ATOM     54  N   UNL A   1      44.339  26.966  27.105  1.00  0.00    -0.354 N 
ATOM     55  N   UNL A   1      45.576  29.584  27.488  1.00  0.00    -0.248 NA
ATOM     56  C   UNL A   1      47.426  30.996  27.325  1.00  0.00     0.031 C 
ATOM     57  C   UNL A   1      45.503  25.383  26.067  1.00  0.00     0.029 A 
ATOM     58  C   UNL A   1      45.556  26.698  26.501  1.00  0.00     0.049 A 
ATOM     59  H   UNL A   1      44.091  27.823  27.522  1.00  0.00     0.167 HD
ATOM     60  C   UNL A   1      46.613  28.910  26.850  1.00  0.00     0.074 A 
ATOM     61  C   UNL A   1      47.719  29.835  26.757  1.00  0.00     0.031 C 
ATOM     62  C   UNL A   1      46.639  27.639  26.379  1.00  0.00     0.037 A 
BRANCH  49  63
ATOM     63  C   UNL A   1      41.459  24.465  27.470  1.00  0.00     0.057 A 
ATOM     64  C   UNL A   1      40.421  24.277  26.549  1.00  0.00     0.134 A 
ATOM     65  C   UNL A   1      41.811  23.377  28.279  1.00  0.00     0.134 A 
ATOM     66  F   UNL A   1      40.023  25.284  25.756  1.00  0.00    -0.206 F 
ATOM     67  C   UNL A   1      39.742  23.060  26.455  1.00  0.00     0.040 A 
ATOM     68  C   UNL A   1      41.161  22.147  28.172  1.00  0.00     0.040 A 
ATOM     69  F   UNL A   1      42.799  23.489  29.180  1.00  0.00    -0.206 F 
ATOM     70  C   UNL A   1      40.117  21.989  27.263  1.00  0.00     0.006 A 
ENDBRANCH  49  63
BRANCH  50  71
ATOM     71  C   UNL A   1      46.037  33.253  28.559  1.00  0.00     0.057 A 
ATOM     72  C   UNL A   1      45.982  34.261  27.588  1.00  0.00     0.134 A 
ATOM     73  C   UNL A   1      46.833  33.492  29.686  1.00  0.00     0.134 A 
ATOM     74  F   UNL A   1      45.264  34.082  26.470  1.00  0.00    -0.206 F 
ATOM     75  C   UNL A   1      46.706  35.449  27.721  1.00  0.00     0.040 A 
ATOM     76  C   UNL A   1      47.539  34.686  29.847  1.00  0.00     0.040 A 
ATOM     77  F   UNL A   1      46.936  32.566  30.651  1.00  0.00    -0.206 F 
ATOM     78  C   UNL A   1      47.483  35.666  28.857  1.00  0.00     0.006 A 
ENDBRANCH  50  71
BRANCH  62  79
ATOM     79  C   UNL A   1      47.865  27.181  25.641  1.00  0.00     0.057 A 
ATOM     80  C   UNL A   1      48.021  27.359  24.261  1.00  0.00     0.134 A 
ATOM     81  C   UNL A   1      48.950  26.642  26.349  1.00  0.00     0.134 A 
ATOM     82  F   UNL A   1      47.019  27.862  23.523  1.00  0.00    -0.206 F 
ATOM     83  C   UNL A   1      49.207  27.011  23.612  1.00  0.00     0.040 A 
ATOM     84  C   UNL A   1      50.149  26.317  25.716  1.00  0.00     0.040 A 
ATOM     85  F   UNL A   1      48.872  26.457  27.676  1.00  0.00    -0.206 F 
ATOM     86  C   UNL A   1      50.280  26.500  24.341  1.00  0.00     0.006 A 
ENDBRANCH  62  79
ENDBRANCH  36  37
ENDBRANCH  29  31
ENDBRANCH  28  29
ENDBRANCH  27  28
ENDBRANCH  26  27
ENDBRANCH  25  26
ENDBRANCH  24  25
ENDBRANCH   1  24
TORSDOF 20
ENDMDL
