MODEL 1
REMARK VINA RESULT:      -9.7      0.000      0.000
REMARK SMILES C/C(=N\Nc1ccncc1[N+](=O)[O-])C(=O)OCCOCCOCCOC(=O)c1ccc(-c2c3nc(c(-c4c(F)cccc4F)c4ccc([nH]4)c(-c4c(F)cccc4F)c4nc(c(-c5c(F)cccc5F)c5ccc2[nH]5)C=C4)C=C3)cc1
REMARK SMILES IDX 20 1 19 2 18 3 17 4 16 5 14 6 15 7 2 8 1 9 3 10 4 11 5 13
REMARK SMILES IDX 6 14 10 15 7 16 9 17 8 18 11 19 12 20 13 21 21 22 22 23
REMARK SMILES IDX 23 24 24 25 25 26 26 27 27 28 28 29 29 30 81 31 30 32 80 33
REMARK SMILES IDX 31 34 32 35 33 36 74 37 34 38 79 39 73 40 75 41 35 42 78 43
REMARK SMILES IDX 72 44 71 45 36 47 62 48 45 49 61 50 46 51 49 52 60 53 76 54
REMARK SMILES IDX 47 55 48 56 59 58 77 59 50 60 37 61 38 62 43 63 39 64 40 65
REMARK SMILES IDX 42 66 44 67 41 68 63 69 64 70 69 71 65 72 66 73 68 74 70 75
REMARK SMILES IDX 67 76 51 77 52 78 57 79 53 80 54 81 56 82 58 83 55 84
REMARK H PARENT 4 12 75 46 49 57
REMARK Flexibility Score: inf
ROOT
ATOM      1  C   UNL A   1      31.835  29.471  25.367  1.00  0.00     0.188 C 
ENDROOT
BRANCH   1   2
ATOM      2  O   UNL A   1      32.935  29.253  24.489  1.00  0.00    -0.376 OA
BRANCH   2   3
ATOM      3  C   UNL A   1      32.695  28.953  23.116  1.00  0.00     0.202 C 
BRANCH   3   4
ATOM      4  C   UNL A   1      33.296  27.671  22.515  1.00  0.00     0.261 C 
BRANCH   4   5
ATOM      5  O   UNL A   1      32.349  26.604  22.388  1.00  0.00    -0.459 OA
BRANCH   5   6
ATOM      6  C   UNL A   1      32.710  25.561  21.618  1.00  0.00     0.354 C 
ATOM      7  O   UNL A   1      33.274  25.577  20.539  1.00  0.00    -0.245 OA
BRANCH   6   8
ATOM      8  C   UNL A   1      32.527  24.265  22.406  1.00  0.00     0.142 C 
ATOM      9  C   UNL A   1      33.491  23.182  22.013  1.00  0.00     0.077 C 
ATOM     10  N   UNL A   1      31.614  24.261  23.332  1.00  0.00    -0.173 NA
BRANCH  10  11
ATOM     11  N   UNL A   1      31.302  23.246  24.187  1.00  0.00    -0.271 N 
ATOM     12  H   UNL A   1      30.402  22.857  24.098  1.00  0.00     0.190 HD
BRANCH  11  13
ATOM     13  C   UNL A   1      32.128  22.694  25.181  1.00  0.00     0.137 A 
ATOM     14  C   UNL A   1      32.550  21.364  25.060  1.00  0.00     0.055 A 
ATOM     15  C   UNL A   1      32.560  23.408  26.306  1.00  0.00     0.312 A 
ATOM     16  C   UNL A   1      33.290  20.793  26.086  1.00  0.00     0.113 A 
ATOM     17  C   UNL A   1      33.289  22.759  27.291  1.00  0.00     0.198 A 
ATOM     18  N   UNL A   1      33.648  21.456  27.205  1.00  0.00    -0.257 NA
BRANCH  15  19
ATOM     19  N   UNL A   1      32.300  24.825  26.462  1.00  0.00     0.066 N 
ATOM     20  O   UNL A   1      33.198  25.611  26.127  1.00  0.00    -0.258 OA
ATOM     21  O   UNL A   1      31.180  25.162  26.874  1.00  0.00    -0.258 OA
ENDBRANCH  15  19
ENDBRANCH  11  13
ENDBRANCH  10  11
ENDBRANCH   6   8
ENDBRANCH   5   6
ENDBRANCH   4   5
ENDBRANCH   3   4
ENDBRANCH   2   3
ENDBRANCH   1   2
BRANCH   1  22
ATOM     22  C   UNL A   1      31.120  30.839  25.408  1.00  0.00     0.188 C 
BRANCH  22  23
ATOM     23  O   UNL A   1      31.308  31.529  26.625  1.00  0.00    -0.376 OA
BRANCH  23  24
ATOM     24  C   UNL A   1      32.593  31.465  27.219  1.00  0.00     0.202 C 
BRANCH  24  25
ATOM     25  C   UNL A   1      33.305  32.769  27.625  1.00  0.00     0.261 C 
BRANCH  25  26
ATOM     26  O   UNL A   1      32.477  33.921  27.862  1.00  0.00    -0.460 OA
BRANCH  26  27
ATOM     27  C   UNL A   1      33.004  34.928  28.588  1.00  0.00     0.338 C 
ATOM     28  O   UNL A   1      32.533  36.045  28.751  1.00  0.00    -0.246 OA
BRANCH  27  29
ATOM     29  C   UNL A   1      34.178  34.411  29.322  1.00  0.00     0.060 A 
ATOM     30  C   UNL A   1      35.451  34.579  28.761  1.00  0.00     0.016 A 
ATOM     31  C   UNL A   1      34.032  33.748  30.545  1.00  0.00     0.016 A 
ATOM     32  C   UNL A   1      36.573  34.058  29.407  1.00  0.00     0.010 A 
ATOM     33  C   UNL A   1      35.160  33.214  31.184  1.00  0.00     0.010 A 
ATOM     34  C   UNL A   1      36.434  33.341  30.604  1.00  0.00    -0.014 A 
BRANCH  34  35
ATOM     35  C   UNL A   1      37.611  32.626  31.164  1.00  0.00     0.031 A 
ATOM     36  C   UNL A   1      38.191  33.075  32.479  1.00  0.00     0.074 A 
ATOM     37  C   UNL A   1      38.126  31.550  30.541  1.00  0.00     0.049 A 
ATOM     38  N   UNL A   1      39.171  32.558  33.175  1.00  0.00    -0.248 NA
ATOM     39  C   UNL A   1      37.578  34.263  33.093  1.00  0.00     0.031 C 
ATOM     40  C   UNL A   1      37.649  30.999  29.274  1.00  0.00     0.029 A 
ATOM     41  N   UNL A   1      39.162  30.724  30.898  1.00  0.00    -0.354 N 
ATOM     42  C   UNL A   1      39.291  33.352  34.309  1.00  0.00     0.074 A 
ATOM     43  C   UNL A   1      38.308  34.407  34.189  1.00  0.00     0.031 C 
ATOM     44  C   UNL A   1      38.390  29.922  28.961  1.00  0.00     0.029 A 
ATOM     45  C   UNL A   1      39.408  29.723  29.991  1.00  0.00     0.049 A 
ATOM     46  H   UNL A   1      39.682  30.839  31.728  1.00  0.00     0.167 HD
ATOM     47  C   UNL A   1      40.132  33.209  35.362  1.00  0.00     0.037 A 
ATOM     48  C   UNL A   1      40.352  28.760  29.986  1.00  0.00     0.037 A 
ATOM     49  C   UNL A   1      41.120  32.167  35.479  1.00  0.00     0.049 A 
ATOM     50  C   UNL A   1      41.319  28.663  31.137  1.00  0.00     0.074 A 
ATOM     51  C   UNL A   1      42.002  31.928  36.519  1.00  0.00     0.029 A 
ATOM     52  N   UNL A   1      41.367  31.198  34.518  1.00  0.00    -0.354 N 
ATOM     53  N   UNL A   1      41.391  29.390  32.225  1.00  0.00    -0.248 NA
ATOM     54  C   UNL A   1      42.333  27.600  31.061  1.00  0.00     0.031 C 
ATOM     55  C   UNL A   1      42.820  30.850  36.163  1.00  0.00     0.029 A 
ATOM     56  C   UNL A   1      42.409  30.380  34.927  1.00  0.00     0.049 A 
ATOM     57  H   UNL A   1      40.876  31.106  33.670  1.00  0.00     0.167 HD
ATOM     58  C   UNL A   1      42.437  28.859  32.972  1.00  0.00     0.074 A 
ATOM     59  C   UNL A   1      42.956  27.735  32.222  1.00  0.00     0.031 C 
ATOM     60  C   UNL A   1      42.924  29.267  34.170  1.00  0.00     0.037 A 
BRANCH  47  61
ATOM     61  C   UNL A   1      40.037  34.225  36.464  1.00  0.00     0.057 A 
ATOM     62  C   UNL A   1      40.748  35.431  36.424  1.00  0.00     0.134 A 
ATOM     63  C   UNL A   1      39.196  34.008  37.564  1.00  0.00     0.134 A 
ATOM     64  F   UNL A   1      41.581  35.697  35.408  1.00  0.00    -0.206 F 
ATOM     65  C   UNL A   1      40.645  36.373  37.451  1.00  0.00     0.040 A 
ATOM     66  C   UNL A   1      39.065  34.953  38.581  1.00  0.00     0.040 A 
ATOM     67  F   UNL A   1      38.482  32.876  37.663  1.00  0.00    -0.206 F 
ATOM     68  C   UNL A   1      39.796  36.138  38.530  1.00  0.00     0.006 A 
ENDBRANCH  47  61
BRANCH  48  69
ATOM     69  C   UNL A   1      40.438  27.807  28.850  1.00  0.00     0.057 A 
ATOM     70  C   UNL A   1      41.241  28.072  27.735  1.00  0.00     0.134 A 
ATOM     71  C   UNL A   1      39.695  26.619  28.840  1.00  0.00     0.134 A 
ATOM     72  F   UNL A   1      41.955  29.206  27.672  1.00  0.00    -0.206 F 
ATOM     73  C   UNL A   1      41.289  27.202  26.644  1.00  0.00     0.040 A 
ATOM     74  C   UNL A   1      39.755  25.727  27.769  1.00  0.00     0.040 A 
ATOM     75  F   UNL A   1      38.905  26.307  29.878  1.00  0.00    -0.206 F 
ATOM     76  C   UNL A   1      40.548  26.022  26.662  1.00  0.00     0.006 A 
ENDBRANCH  48  69
BRANCH  60  77
ATOM     77  C   UNL A   1      44.060  28.474  34.756  1.00  0.00     0.057 A 
ATOM     78  C   UNL A   1      45.400  28.818  34.530  1.00  0.00     0.134 A 
ATOM     79  C   UNL A   1      43.811  27.360  35.569  1.00  0.00     0.134 A 
ATOM     80  F   UNL A   1      45.710  29.867  33.753  1.00  0.00    -0.206 F 
ATOM     81  C   UNL A   1      46.448  28.063  35.060  1.00  0.00     0.040 A 
ATOM     82  C   UNL A   1      44.850  26.616  36.130  1.00  0.00     0.040 A 
ATOM     83  F   UNL A   1      42.552  26.981  35.838  1.00  0.00    -0.206 F 
ATOM     84  C   UNL A   1      46.174  26.961  35.867  1.00  0.00     0.006 A 
ENDBRANCH  60  77
ENDBRANCH  34  35
ENDBRANCH  27  29
ENDBRANCH  26  27
ENDBRANCH  25  26
ENDBRANCH  24  25
ENDBRANCH  23  24
ENDBRANCH  22  23
ENDBRANCH   1  22
TORSDOF 20
ENDMDL
MODEL 2
REMARK VINA RESULT:      -9.6      3.204      8.207
REMARK SMILES C/C(=N\Nc1ccncc1[N+](=O)[O-])C(=O)OCCOCCOCCOC(=O)c1ccc(-c2c3nc(c(-c4c(F)cccc4F)c4ccc([nH]4)c(-c4c(F)cccc4F)c4nc(c(-c5c(F)cccc5F)c5ccc2[nH]5)C=C4)C=C3)cc1
REMARK SMILES IDX 20 1 19 2 18 3 17 4 16 5 14 6 15 7 2 8 1 9 3 10 4 11 5 13
REMARK SMILES IDX 6 14 10 15 7 16 9 17 8 18 11 19 12 20 13 21 21 22 22 23
REMARK SMILES IDX 23 24 24 25 25 26 26 27 27 28 28 29 29 30 81 31 30 32 80 33
REMARK SMILES IDX 31 34 32 35 33 36 74 37 34 38 79 39 73 40 75 41 35 42 78 43
REMARK SMILES IDX 72 44 71 45 36 47 62 48 45 49 61 50 46 51 49 52 60 53 76 54
REMARK SMILES IDX 47 55 48 56 59 58 77 59 50 60 37 61 38 62 43 63 39 64 40 65
REMARK SMILES IDX 42 66 44 67 41 68 63 69 64 70 69 71 65 72 66 73 68 74 70 75
REMARK SMILES IDX 67 76 51 77 52 78 57 79 53 80 54 81 56 82 58 83 55 84
REMARK H PARENT 4 12 75 46 49 57
REMARK Flexibility Score: inf
ROOT
ATOM      1  C   UNL A   1      39.551  22.006  26.425  1.00  0.00     0.188 C 
ENDROOT
BRANCH   1   2
ATOM      2  O   UNL A   1      38.589  21.230  25.719  1.00  0.00    -0.376 OA
BRANCH   2   3
ATOM      3  C   UNL A   1      37.581  21.881  24.949  1.00  0.00     0.202 C 
BRANCH   3   4
ATOM      4  C   UNL A   1      36.161  22.000  25.527  1.00  0.00     0.261 C 
BRANCH   4   5
ATOM      5  O   UNL A   1      35.148  22.147  24.524  1.00  0.00    -0.459 OA
BRANCH   5   6
ATOM      6  C   UNL A   1      35.410  23.002  23.518  1.00  0.00     0.354 C 
ATOM      7  O   UNL A   1      36.355  22.996  22.748  1.00  0.00    -0.245 OA
BRANCH   6   8
ATOM      8  C   UNL A   1      34.195  23.898  23.287  1.00  0.00     0.142 C 
ATOM      9  C   UNL A   1      33.398  23.528  22.069  1.00  0.00     0.077 C 
ATOM     10  N   UNL A   1      33.969  24.825  24.171  1.00  0.00    -0.173 NA
BRANCH  10  11
ATOM     11  N   UNL A   1      32.931  25.708  24.203  1.00  0.00    -0.271 N 
ATOM     12  H   UNL A   1      32.222  25.575  23.534  1.00  0.00     0.190 HD
BRANCH  11  13
ATOM     13  C   UNL A   1      32.764  26.786  25.089  1.00  0.00     0.137 A 
ATOM     14  C   UNL A   1      33.577  27.918  24.951  1.00  0.00     0.055 A 
ATOM     15  C   UNL A   1      31.818  26.794  26.121  1.00  0.00     0.312 A 
ATOM     16  C   UNL A   1      33.474  28.943  25.880  1.00  0.00     0.113 A 
ATOM     17  C   UNL A   1      31.788  27.854  27.015  1.00  0.00     0.198 A 
ATOM     18  N   UNL A   1      32.613  28.924  26.919  1.00  0.00    -0.257 NA
BRANCH  15  19
ATOM     19  N   UNL A   1      30.835  25.740  26.270  1.00  0.00     0.066 N 
ATOM     20  O   UNL A   1      31.171  24.734  26.912  1.00  0.00    -0.258 OA
ATOM     21  O   UNL A   1      29.709  25.931  25.790  1.00  0.00    -0.258 OA
ENDBRANCH  15  19
ENDBRANCH  11  13
ENDBRANCH  10  11
ENDBRANCH   6   8
ENDBRANCH   5   6
ENDBRANCH   4   5
ENDBRANCH   3   4
ENDBRANCH   2   3
ENDBRANCH   1   2
BRANCH   1  22
ATOM     22  C   UNL A   1      40.890  21.380  26.876  1.00  0.00     0.188 C 
BRANCH  22  23
ATOM     23  O   UNL A   1      41.642  20.847  25.807  1.00  0.00    -0.376 OA
BRANCH  23  24
ATOM     24  C   UNL A   1      43.048  20.779  25.969  1.00  0.00     0.202 C 
BRANCH  24  25
ATOM     25  C   UNL A   1      43.921  21.961  25.505  1.00  0.00     0.261 C 
BRANCH  25  26
ATOM     26  O   UNL A   1      43.270  23.234  25.346  1.00  0.00    -0.460 OA
BRANCH  26  27
ATOM     27  C   UNL A   1      44.044  24.337  25.378  1.00  0.00     0.338 C 
ATOM     28  O   UNL A   1      44.804  24.730  24.503  1.00  0.00    -0.246 OA
BRANCH  27  29
ATOM     29  C   UNL A   1      43.696  25.120  26.583  1.00  0.00     0.060 A 
ATOM     30  C   UNL A   1      42.758  24.592  27.480  1.00  0.00     0.016 A 
ATOM     31  C   UNL A   1      44.270  26.372  26.823  1.00  0.00     0.016 A 
ATOM     32  C   UNL A   1      42.371  25.329  28.600  1.00  0.00     0.010 A 
ATOM     33  C   UNL A   1      43.869  27.116  27.942  1.00  0.00     0.010 A 
ATOM     34  C   UNL A   1      42.897  26.610  28.822  1.00  0.00    -0.014 A 
BRANCH  34  35
ATOM     35  C   UNL A   1      42.323  27.454  29.904  1.00  0.00     0.031 A 
ATOM     36  C   UNL A   1      42.969  27.451  31.263  1.00  0.00     0.074 A 
ATOM     37  C   UNL A   1      41.272  28.261  29.666  1.00  0.00     0.049 A 
ATOM     38  N   UNL A   1      42.671  28.155  32.326  1.00  0.00    -0.248 NA
ATOM     39  C   UNL A   1      44.107  26.538  31.445  1.00  0.00     0.031 C 
ATOM     40  C   UNL A   1      40.565  28.374  28.391  1.00  0.00     0.029 A 
ATOM     41  N   UNL A   1      40.622  29.144  30.491  1.00  0.00    -0.354 N 
ATOM     42  C   UNL A   1      43.585  27.774  33.301  1.00  0.00     0.074 A 
ATOM     43  C   UNL A   1      44.423  26.750  32.714  1.00  0.00     0.031 C 
ATOM     44  C   UNL A   1      39.580  29.280  28.519  1.00  0.00     0.029 A 
ATOM     45  C   UNL A   1      39.571  29.791  29.888  1.00  0.00     0.049 A 
ATOM     46  H   UNL A   1      40.884  29.300  31.428  1.00  0.00     0.167 HD
ATOM     47  C   UNL A   1      43.724  28.242  34.566  1.00  0.00     0.037 A 
ATOM     48  C   UNL A   1      38.696  30.687  30.386  1.00  0.00     0.037 A 
ATOM     49  C   UNL A   1      42.884  29.251  35.157  1.00  0.00     0.049 A 
ATOM     50  C   UNL A   1      38.830  31.143  31.816  1.00  0.00     0.074 A 
ATOM     51  C   UNL A   1      42.963  29.806  36.423  1.00  0.00     0.029 A 
ATOM     52  N   UNL A   1      41.803  29.850  34.528  1.00  0.00    -0.354 N 
ATOM     53  N   UNL A   1      39.727  30.810  32.712  1.00  0.00    -0.248 NA
ATOM     54  C   UNL A   1      37.832  32.109  32.299  1.00  0.00     0.031 C 
ATOM     55  C   UNL A   1      41.897  30.697  36.580  1.00  0.00     0.029 A 
ATOM     56  C   UNL A   1      41.188  30.743  35.391  1.00  0.00     0.049 A 
ATOM     57  H   UNL A   1      41.514  29.667  33.605  1.00  0.00     0.167 HD
ATOM     58  C   UNL A   1      39.418  31.542  33.853  1.00  0.00     0.074 A 
ATOM     59  C   UNL A   1      38.264  32.353  33.528  1.00  0.00     0.031 C 
ATOM     60  C   UNL A   1      40.034  31.542  35.062  1.00  0.00     0.037 A 
BRANCH  47  61
ATOM     61  C   UNL A   1      44.815  27.643  35.407  1.00  0.00     0.057 A 
ATOM     62  C   UNL A   1      44.603  26.506  36.197  1.00  0.00     0.134 A 
ATOM     63  C   UNL A   1      46.105  28.192  35.400  1.00  0.00     0.134 A 
ATOM     64  F   UNL A   1      43.389  25.939  36.261  1.00  0.00    -0.206 F 
ATOM     65  C   UNL A   1      45.626  25.952  36.969  1.00  0.00     0.040 A 
ATOM     66  C   UNL A   1      47.142  27.630  36.145  1.00  0.00     0.040 A 
ATOM     67  F   UNL A   1      46.379  29.277  34.660  1.00  0.00    -0.206 F 
ATOM     68  C   UNL A   1      46.902  26.510  36.939  1.00  0.00     0.006 A 
ENDBRANCH  47  61
BRANCH  48  69
ATOM     69  C   UNL A   1      37.603  31.216  29.530  1.00  0.00     0.057 A 
ATOM     70  C   UNL A   1      37.670  32.496  28.968  1.00  0.00     0.134 A 
ATOM     71  C   UNL A   1      36.450  30.462  29.274  1.00  0.00     0.134 A 
ATOM     72  F   UNL A   1      38.736  33.278  29.198  1.00  0.00    -0.206 F 
ATOM     73  C   UNL A   1      36.626  33.016  28.201  1.00  0.00     0.040 A 
ATOM     74  C   UNL A   1      35.411  30.957  28.487  1.00  0.00     0.040 A 
ATOM     75  F   UNL A   1      36.323  29.228  29.785  1.00  0.00    -0.206 F 
ATOM     76  C   UNL A   1      35.493  32.242  27.954  1.00  0.00     0.006 A 
ENDBRANCH  48  69
BRANCH  60  77
ATOM     77  C   UNL A   1      39.486  32.467  36.112  1.00  0.00     0.057 A 
ATOM     78  C   UNL A   1      39.987  33.763  36.295  1.00  0.00     0.134 A 
ATOM     79  C   UNL A   1      38.433  32.063  36.943  1.00  0.00     0.134 A 
ATOM     80  F   UNL A   1      41.002  34.212  35.540  1.00  0.00    -0.206 F 
ATOM     81  C   UNL A   1      39.486  34.608  37.287  1.00  0.00     0.040 A 
ATOM     82  C   UNL A   1      37.903  32.909  37.918  1.00  0.00     0.040 A 
ATOM     83  F   UNL A   1      37.896  30.840  36.817  1.00  0.00    -0.206 F 
ATOM     84  C   UNL A   1      38.437  34.183  38.100  1.00  0.00     0.006 A 
ENDBRANCH  60  77
ENDBRANCH  34  35
ENDBRANCH  27  29
ENDBRANCH  26  27
ENDBRANCH  25  26
ENDBRANCH  24  25
ENDBRANCH  23  24
ENDBRANCH  22  23
ENDBRANCH   1  22
TORSDOF 20
ENDMDL
MODEL 3
REMARK VINA RESULT:      -9.4      7.651     10.844
REMARK SMILES C/C(=N\Nc1ccncc1[N+](=O)[O-])C(=O)OCCOCCOCCOC(=O)c1ccc(-c2c3nc(c(-c4c(F)cccc4F)c4ccc([nH]4)c(-c4c(F)cccc4F)c4nc(c(-c5c(F)cccc5F)c5ccc2[nH]5)C=C4)C=C3)cc1
REMARK SMILES IDX 20 1 19 2 18 3 17 4 16 5 14 6 15 7 2 8 1 9 3 10 4 11 5 13
REMARK SMILES IDX 6 14 10 15 7 16 9 17 8 18 11 19 12 20 13 21 21 22 22 23
REMARK SMILES IDX 23 24 24 25 25 26 26 27 27 28 28 29 29 30 81 31 30 32 80 33
REMARK SMILES IDX 31 34 32 35 33 36 74 37 34 38 79 39 73 40 75 41 35 42 78 43
REMARK SMILES IDX 72 44 71 45 36 47 62 48 45 49 61 50 46 51 49 52 60 53 76 54
REMARK SMILES IDX 47 55 48 56 59 58 77 59 50 60 37 61 38 62 43 63 39 64 40 65
REMARK SMILES IDX 42 66 44 67 41 68 63 69 64 70 69 71 65 72 66 73 68 74 70 75
REMARK SMILES IDX 67 76 51 77 52 78 57 79 53 80 54 81 56 82 58 83 55 84
REMARK H PARENT 4 12 75 46 49 57
REMARK Flexibility Score: inf
ROOT
ATOM      1  C   UNL A   1      37.281  21.446  24.638  1.00  0.00     0.188 C 
ENDROOT
BRANCH   1   2
ATOM      2  O   UNL A   1      36.234  20.548  24.994  1.00  0.00    -0.376 OA
BRANCH   2   3
ATOM      3  C   UNL A   1      35.047  21.051  25.603  1.00  0.00     0.202 C 
BRANCH   3   4
ATOM      4  C   UNL A   1      33.730  21.020  24.810  1.00  0.00     0.261 C 
BRANCH   4   5
ATOM      5  O   UNL A   1      33.405  22.274  24.197  1.00  0.00    -0.459 OA
BRANCH   5   6
ATOM      6  C   UNL A   1      32.217  22.354  23.570  1.00  0.00     0.354 C 
ATOM      7  O   UNL A   1      31.824  21.711  22.612  1.00  0.00    -0.245 OA
BRANCH   6   8
ATOM      8  C   UNL A   1      31.272  23.233  24.387  1.00  0.00     0.142 C 
ATOM      9  C   UNL A   1      31.009  22.708  25.769  1.00  0.00     0.077 C 
ATOM     10  N   UNL A   1      30.851  24.327  23.825  1.00  0.00    -0.173 NA
BRANCH  10  11
ATOM     11  N   UNL A   1      30.046  25.283  24.369  1.00  0.00    -0.271 N 
ATOM     12  H   UNL A   1      29.277  24.964  24.894  1.00  0.00     0.190 HD
BRANCH  11  13
ATOM     13  C   UNL A   1      30.197  26.677  24.263  1.00  0.00     0.137 A 
ATOM     14  C   UNL A   1      29.523  27.362  23.243  1.00  0.00     0.055 A 
ATOM     15  C   UNL A   1      30.995  27.433  25.130  1.00  0.00     0.312 A 
ATOM     16  C   UNL A   1      29.742  28.722  23.083  1.00  0.00     0.113 A 
ATOM     17  C   UNL A   1      31.170  28.788  24.892  1.00  0.00     0.198 A 
ATOM     18  N   UNL A   1      30.567  29.443  23.872  1.00  0.00    -0.257 NA
BRANCH  15  19
ATOM     19  N   UNL A   1      31.624  26.851  26.298  1.00  0.00     0.066 N 
ATOM     20  O   UNL A   1      31.202  27.203  27.408  1.00  0.00    -0.258 OA
ATOM     21  O   UNL A   1      32.508  26.002  26.113  1.00  0.00    -0.258 OA
ENDBRANCH  15  19
ENDBRANCH  11  13
ENDBRANCH  10  11
ENDBRANCH   6   8
ENDBRANCH   5   6
ENDBRANCH   4   5
ENDBRANCH   3   4
ENDBRANCH   2   3
ENDBRANCH   1   2
BRANCH   1  22
ATOM     22  C   UNL A   1      38.290  21.939  25.699  1.00  0.00     0.188 C 
BRANCH  22  23
ATOM     23  O   UNL A   1      38.212  23.328  25.937  1.00  0.00    -0.376 OA
BRANCH  23  24
ATOM     24  C   UNL A   1      39.109  23.878  26.886  1.00  0.00     0.202 C 
BRANCH  24  25
ATOM     25  C   UNL A   1      40.137  22.962  27.575  1.00  0.00     0.261 C 
BRANCH  25  26
ATOM     26  O   UNL A   1      41.479  23.462  27.703  1.00  0.00    -0.460 OA
BRANCH  26  27
ATOM     27  C   UNL A   1      42.269  23.411  26.611  1.00  0.00     0.338 C 
ATOM     28  O   UNL A   1      42.200  22.612  25.688  1.00  0.00    -0.246 OA
BRANCH  27  29
ATOM     29  C   UNL A   1      43.140  24.606  26.607  1.00  0.00     0.060 A 
ATOM     30  C   UNL A   1      43.428  25.225  25.384  1.00  0.00     0.016 A 
ATOM     31  C   UNL A   1      43.688  25.105  27.793  1.00  0.00     0.016 A 
ATOM     32  C   UNL A   1      44.288  26.323  25.342  1.00  0.00     0.010 A 
ATOM     33  C   UNL A   1      44.561  26.201  27.747  1.00  0.00     0.010 A 
ATOM     34  C   UNL A   1      44.889  26.799  26.517  1.00  0.00    -0.014 A 
BRANCH  34  35
ATOM     35  C   UNL A   1      45.951  27.835  26.422  1.00  0.00     0.031 A 
ATOM     36  C   UNL A   1      45.578  29.288  26.552  1.00  0.00     0.074 A 
ATOM     37  C   UNL A   1      47.243  27.488  26.280  1.00  0.00     0.049 A 
ATOM     38  N   UNL A   1      46.349  30.346  26.561  1.00  0.00    -0.248 NA
ATOM     39  C   UNL A   1      44.146  29.586  26.697  1.00  0.00     0.031 C 
ATOM     40  C   UNL A   1      47.742  26.119  26.161  1.00  0.00     0.029 A 
ATOM     41  N   UNL A   1      48.373  28.265  26.219  1.00  0.00    -0.354 N 
ATOM     42  C   UNL A   1      45.499  31.434  26.718  1.00  0.00     0.074 A 
ATOM     43  C   UNL A   1      44.150  30.909  26.760  1.00  0.00     0.031 C 
ATOM     44  C   UNL A   1      49.081  26.152  26.045  1.00  0.00     0.029 A 
ATOM     45  C   UNL A   1      49.531  27.543  26.056  1.00  0.00     0.049 A 
ATOM     46  H   UNL A   1      48.357  29.248  26.285  1.00  0.00     0.167 HD
ATOM     47  C   UNL A   1      45.810  32.748  26.829  1.00  0.00     0.037 A 
ATOM     48  C   UNL A   1      50.807  27.957  25.923  1.00  0.00     0.037 A 
ATOM     49  C   UNL A   1      47.150  33.274  26.775  1.00  0.00     0.049 A 
ATOM     50  C   UNL A   1      51.121  29.429  25.983  1.00  0.00     0.074 A 
ATOM     51  C   UNL A   1      47.566  34.589  26.901  1.00  0.00     0.029 A 
ATOM     52  N   UNL A   1      48.291  32.515  26.565  1.00  0.00    -0.354 N 
ATOM     53  N   UNL A   1      50.313  30.443  26.178  1.00  0.00    -0.248 NA
ATOM     54  C   UNL A   1      52.531  29.812  25.814  1.00  0.00     0.031 C 
ATOM     55  C   UNL A   1      48.951  34.631  26.711  1.00  0.00     0.029 A 
ATOM     56  C   UNL A   1      49.407  33.337  26.526  1.00  0.00     0.049 A 
ATOM     57  H   UNL A   1      48.307  31.537  26.458  1.00  0.00     0.167 HD
ATOM     58  C   UNL A   1      51.117  31.577  26.180  1.00  0.00     0.074 A 
ATOM     59  C   UNL A   1      52.478  31.124  25.990  1.00  0.00     0.031 C 
ATOM     60  C   UNL A   1      50.759  32.878  26.327  1.00  0.00     0.037 A 
BRANCH  47  61
ATOM     61  C   UNL A   1      44.673  33.715  26.996  1.00  0.00     0.057 A 
ATOM     62  C   UNL A   1      44.018  34.285  25.896  1.00  0.00     0.134 A 
ATOM     63  C   UNL A   1      44.206  34.055  28.272  1.00  0.00     0.134 A 
ATOM     64  F   UNL A   1      44.423  34.014  24.647  1.00  0.00    -0.206 F 
ATOM     65  C   UNL A   1      42.956  35.177  26.062  1.00  0.00     0.040 A 
ATOM     66  C   UNL A   1      43.128  34.922  28.449  1.00  0.00     0.040 A 
ATOM     67  F   UNL A   1      44.785  33.540  29.368  1.00  0.00    -0.206 F 
ATOM     68  C   UNL A   1      42.504  35.492  27.341  1.00  0.00     0.006 A 
ENDBRANCH  47  61
BRANCH  48  69
ATOM     69  C   UNL A   1      51.893  26.966  25.712  1.00  0.00     0.057 A 
ATOM     70  C   UNL A   1      52.561  26.374  26.790  1.00  0.00     0.134 A 
ATOM     71  C   UNL A   1      52.309  26.607  24.423  1.00  0.00     0.134 A 
ATOM     72  F   UNL A   1      52.227  26.697  28.049  1.00  0.00    -0.206 F 
ATOM     73  C   UNL A   1      53.613  25.477  26.598  1.00  0.00     0.040 A 
ATOM     74  C   UNL A   1      53.341  25.691  24.215  1.00  0.00     0.040 A 
ATOM     75  F   UNL A   1      51.711  27.139  23.347  1.00  0.00    -0.206 F 
ATOM     76  C   UNL A   1      54.002  25.129  25.305  1.00  0.00     0.006 A 
ENDBRANCH  48  69
BRANCH  60  77
ATOM     77  C   UNL A   1      51.862  33.900  26.313  1.00  0.00     0.057 A 
ATOM     78  C   UNL A   1      52.239  34.568  25.140  1.00  0.00     0.134 A 
ATOM     79  C   UNL A   1      52.547  34.230  27.490  1.00  0.00     0.134 A 
ATOM     80  F   UNL A   1      51.632  34.294  23.976  1.00  0.00    -0.206 F 
ATOM     81  C   UNL A   1      53.279  35.501  25.132  1.00  0.00     0.040 A 
ATOM     82  C   UNL A   1      53.567  35.182  27.501  1.00  0.00     0.040 A 
ATOM     83  F   UNL A   1      52.230  33.638  28.651  1.00  0.00    -0.206 F 
ATOM     84  C   UNL A   1      53.943  35.813  26.317  1.00  0.00     0.006 A 
ENDBRANCH  60  77
ENDBRANCH  34  35
ENDBRANCH  27  29
ENDBRANCH  26  27
ENDBRANCH  25  26
ENDBRANCH  24  25
ENDBRANCH  23  24
ENDBRANCH  22  23
ENDBRANCH   1  22
TORSDOF 20
ENDMDL
