MODEL 1
REMARK VINA RESULT:     -10.2      0.000      0.000
REMARK SMILES CCC([NH3+])(CC)C(=O)N1CCC(CC(=O)OCCOCCOCCOC(=O)c2ccc(-c3c4nc(c(-c5c(F)cccc5F)c5ccc([nH]5)c(-c5c(F)cccc5F)c5nc(c(-c6c(F)cccc6F)c6ccc3[nH]6)C=C5)C=C4)cc2)CC1
REMARK SMILES IDX 20 1 19 2 18 3 17 4 16 5 14 6 15 7 13 8 12 9 7 10 8 11 9 12
REMARK SMILES IDX 10 13 83 14 11 15 82 16 3 17 2 18 1 19 4 20 5 24 6 25 21 26
REMARK SMILES IDX 22 27 23 28 24 29 25 30 26 31 27 32 28 33 29 34 81 35 30 36
REMARK SMILES IDX 80 37 31 38 32 39 33 40 74 41 34 42 79 43 73 44 75 45 35 46
REMARK SMILES IDX 78 47 72 48 71 49 36 51 62 52 45 53 61 54 46 55 49 56 60 57
REMARK SMILES IDX 76 58 47 59 48 60 59 62 77 63 50 64 37 65 38 66 43 67 39 68
REMARK SMILES IDX 40 69 42 70 44 71 41 72 63 73 64 74 69 75 65 76 66 77 68 78
REMARK SMILES IDX 70 79 67 80 51 81 52 82 57 83 53 84 54 85 56 86 58 87 55 88
REMARK H PARENT 4 21 4 22 4 23 75 50 49 61
REMARK Flexibility Score: inf
ROOT
ATOM      1  C   UNL A   1      39.369  21.838  26.116  1.00  0.00     0.188 C 
ENDROOT
BRANCH   1   2
ATOM      2  O   UNL A   1      38.347  21.251  25.317  1.00  0.00    -0.376 OA
BRANCH   2   3
ATOM      3  C   UNL A   1      37.039  21.807  25.452  1.00  0.00     0.202 C 
BRANCH   3   4
ATOM      4  C   UNL A   1      35.870  20.818  25.333  1.00  0.00     0.261 C 
BRANCH   4   5
ATOM      5  O   UNL A   1      34.577  21.415  25.569  1.00  0.00    -0.463 OA
BRANCH   5   6
ATOM      6  C   UNL A   1      33.629  21.182  24.626  1.00  0.00     0.306 C 
ATOM      7  O   UNL A   1      33.304  20.069  24.226  1.00  0.00    -0.252 OA
BRANCH   6   8
ATOM      8  C   UNL A   1      32.893  22.424  24.152  1.00  0.00     0.126 C 
BRANCH   8   9
ATOM      9  C   UNL A   1      33.618  23.773  23.999  1.00  0.00     0.003 C 
ATOM     10  C   UNL A   1      32.423  27.493  24.626  1.00  0.00     0.283 C 
ATOM     11  O   UNL A   1      31.337  27.280  24.080  1.00  0.00    -0.268 OA
ATOM     12  N   UNL A   1      33.524  26.682  24.332  1.00  0.00    -0.337 N 
ATOM     13  C   UNL A   1      33.577  26.094  23.001  1.00  0.00     0.120 C 
ATOM     14  C   UNL A   1      34.226  25.895  25.338  1.00  0.00     0.120 C 
ATOM     15  C   UNL A   1      32.943  24.705  22.980  1.00  0.00     0.026 C 
ATOM     16  C   UNL A   1      33.667  24.467  25.388  1.00  0.00     0.026 C 
BRANCH  10  17
ATOM     17  C   UNL A   1      32.650  28.769  25.532  1.00  0.00     0.173 C 
BRANCH  17  18
ATOM     18  C   UNL A   1      31.476  29.781  25.333  1.00  0.00     0.075 C 
ATOM     19  C   UNL A   1      31.568  31.103  26.098  1.00  0.00     0.011 C 
ENDBRANCH  17  18
BRANCH  17  20
ATOM     20  N   UNL A   1      33.925  29.418  25.118  1.00  0.00    -0.345 N 
ATOM     21  H   UNL A   1      34.129  29.178  24.147  1.00  0.00     0.345 HD
ATOM     22  H   UNL A   1      34.684  29.089  25.716  1.00  0.00     0.345 HD
ATOM     23  H   UNL A   1      33.836  30.430  25.207  1.00  0.00     0.345 HD
ENDBRANCH  17  20
BRANCH  17  24
ATOM     24  C   UNL A   1      32.771  28.471  27.045  1.00  0.00     0.075 C 
ATOM     25  C   UNL A   1      31.487  27.981  27.703  1.00  0.00     0.011 C 
ENDBRANCH  17  24
ENDBRANCH  10  17
ENDBRANCH   8   9
ENDBRANCH   6   8
ENDBRANCH   5   6
ENDBRANCH   4   5
ENDBRANCH   3   4
ENDBRANCH   2   3
ENDBRANCH   1   2
BRANCH   1  26
ATOM     26  C   UNL A   1      40.419  20.870  26.664  1.00  0.00     0.188 C 
BRANCH  26  27
ATOM     27  O   UNL A   1      41.375  20.398  25.728  1.00  0.00    -0.376 OA
BRANCH  27  28
ATOM     28  C   UNL A   1      42.750  20.471  26.112  1.00  0.00     0.202 C 
BRANCH  28  29
ATOM     29  C   UNL A   1      43.685  21.418  25.324  1.00  0.00     0.261 C 
BRANCH  29  30
ATOM     30  O   UNL A   1      43.125  22.682  24.903  1.00  0.00    -0.460 OA
BRANCH  30  31
ATOM     31  C   UNL A   1      43.888  23.794  25.011  1.00  0.00     0.338 C 
ATOM     32  O   UNL A   1      44.813  24.111  24.282  1.00  0.00    -0.246 OA
BRANCH  31  33
ATOM     33  C   UNL A   1      43.237  24.722  25.983  1.00  0.00     0.060 A 
ATOM     34  C   UNL A   1      43.709  26.043  26.050  1.00  0.00     0.016 A 
ATOM     35  C   UNL A   1      42.131  24.349  26.754  1.00  0.00     0.016 A 
ATOM     36  C   UNL A   1      43.108  26.973  26.904  1.00  0.00     0.010 A 
ATOM     37  C   UNL A   1      41.539  25.277  27.624  1.00  0.00     0.010 A 
ATOM     38  C   UNL A   1      42.044  26.587  27.729  1.00  0.00    -0.014 A 
BRANCH  38  39
ATOM     39  C   UNL A   1      41.606  27.474  28.840  1.00  0.00     0.031 A 
ATOM     40  C   UNL A   1      42.363  27.407  30.142  1.00  0.00     0.074 A 
ATOM     41  C   UNL A   1      40.588  28.346  28.711  1.00  0.00     0.049 A 
ATOM     42  N   UNL A   1      42.146  28.036  31.268  1.00  0.00    -0.248 NA
ATOM     43  C   UNL A   1      43.524  26.503  30.171  1.00  0.00     0.031 C 
ATOM     44  C   UNL A   1      39.802  28.561  27.501  1.00  0.00     0.029 A 
ATOM     45  N   UNL A   1      40.041  29.213  29.628  1.00  0.00    -0.354 N 
ATOM     46  C   UNL A   1      43.136  27.600  32.140  1.00  0.00     0.074 A 
ATOM     47  C   UNL A   1      43.935  26.631  31.422  1.00  0.00     0.031 C 
ATOM     48  C   UNL A   1      38.862  29.491  27.752  1.00  0.00     0.029 A 
ATOM     49  C   UNL A   1      38.957  29.911  29.150  1.00  0.00     0.049 A 
ATOM     50  H   UNL A   1      40.392  29.323  30.542  1.00  0.00     0.167 HD
ATOM     51  C   UNL A   1      43.369  27.976  33.420  1.00  0.00     0.037 A 
ATOM     52  C   UNL A   1      38.125  30.769  29.776  1.00  0.00     0.037 A 
ATOM     53  C   UNL A   1      42.579  28.937  34.143  1.00  0.00     0.049 A 
ATOM     54  C   UNL A   1      38.345  31.102  31.233  1.00  0.00     0.074 A 
ATOM     55  C   UNL A   1      42.747  29.387  35.441  1.00  0.00     0.029 A 
ATOM     56  N   UNL A   1      41.464  29.586  33.636  1.00  0.00    -0.354 N 
ATOM     57  N   UNL A   1      39.295  30.698  32.041  1.00  0.00    -0.248 NA
ATOM     58  C   UNL A   1      37.374  32.011  31.862  1.00  0.00     0.031 C 
ATOM     59  C   UNL A   1      41.700  30.264  35.739  1.00  0.00     0.029 A 
ATOM     60  C   UNL A   1      40.917  30.411  34.606  1.00  0.00     0.049 A 
ATOM     61  H   UNL A   1      41.113  29.478  32.722  1.00  0.00     0.167 HD
ATOM     62  C   UNL A   1      39.055  31.329  33.260  1.00  0.00     0.074 A 
ATOM     63  C   UNL A   1      37.877  32.149  33.081  1.00  0.00     0.031 C 
ATOM     64  C   UNL A   1      39.752  31.237  34.419  1.00  0.00     0.037 A 
BRANCH  51  65
ATOM     65  C   UNL A   1      44.514  27.318  34.133  1.00  0.00     0.057 A 
ATOM     66  C   UNL A   1      45.785  27.901  34.197  1.00  0.00     0.134 A 
ATOM     67  C   UNL A   1      44.332  26.092  34.788  1.00  0.00     0.134 A 
ATOM     68  F   UNL A   1      46.031  29.065  33.575  1.00  0.00    -0.206 F 
ATOM     69  C   UNL A   1      46.841  27.279  34.865  1.00  0.00     0.040 A 
ATOM     70  C   UNL A   1      45.371  25.475  35.485  1.00  0.00     0.040 A 
ATOM     71  F   UNL A   1      43.137  25.481  34.769  1.00  0.00    -0.206 F 
ATOM     72  C   UNL A   1      46.632  26.066  35.518  1.00  0.00     0.006 A 
ENDBRANCH  51  65
BRANCH  52  73
ATOM     73  C   UNL A   1      36.976  31.369  29.045  1.00  0.00     0.057 A 
ATOM     74  C   UNL A   1      37.008  32.695  28.598  1.00  0.00     0.134 A 
ATOM     75  C   UNL A   1      35.799  30.644  28.819  1.00  0.00     0.134 A 
ATOM     76  F   UNL A   1      38.094  33.453  28.812  1.00  0.00    -0.206 F 
ATOM     77  C   UNL A   1      35.909  33.284  27.970  1.00  0.00     0.040 A 
ATOM     78  C   UNL A   1      34.703  31.211  28.167  1.00  0.00     0.040 A 
ATOM     79  F   UNL A   1      35.698  29.371  29.231  1.00  0.00    -0.206 F 
ATOM     80  C   UNL A   1      34.753  32.539  27.748  1.00  0.00     0.006 A 
ENDBRANCH  52  73
BRANCH  64  81
ATOM     81  C   UNL A   1      39.294  32.077  35.580  1.00  0.00     0.057 A 
ATOM     82  C   UNL A   1      38.436  31.579  36.569  1.00  0.00     0.134 A 
ATOM     83  C   UNL A   1      39.763  33.389  35.735  1.00  0.00     0.134 A 
ATOM     84  F   UNL A   1      37.942  30.335  36.477  1.00  0.00    -0.206 F 
ATOM     85  C   UNL A   1      38.043  32.362  37.656  1.00  0.00     0.040 A 
ATOM     86  C   UNL A   1      39.402  34.171  36.834  1.00  0.00     0.040 A 
ATOM     87  F   UNL A   1      40.599  33.925  34.832  1.00  0.00    -0.206 F 
ATOM     88  C   UNL A   1      38.533  33.659  37.795  1.00  0.00     0.006 A 
ENDBRANCH  64  81
ENDBRANCH  38  39
ENDBRANCH  31  33
ENDBRANCH  30  31
ENDBRANCH  29  30
ENDBRANCH  28  29
ENDBRANCH  27  28
ENDBRANCH  26  27
ENDBRANCH   1  26
TORSDOF 22
ENDMDL
MODEL 2
REMARK VINA RESULT:      -9.5      0.894      1.900
REMARK SMILES CCC([NH3+])(CC)C(=O)N1CCC(CC(=O)OCCOCCOCCOC(=O)c2ccc(-c3c4nc(c(-c5c(F)cccc5F)c5ccc([nH]5)c(-c5c(F)cccc5F)c5nc(c(-c6c(F)cccc6F)c6ccc3[nH]6)C=C5)C=C4)cc2)CC1
REMARK SMILES IDX 20 1 19 2 18 3 17 4 16 5 14 6 15 7 13 8 12 9 7 10 8 11 9 12
REMARK SMILES IDX 10 13 83 14 11 15 82 16 3 17 2 18 1 19 4 20 5 24 6 25 21 26
REMARK SMILES IDX 22 27 23 28 24 29 25 30 26 31 27 32 28 33 29 34 81 35 30 36
REMARK SMILES IDX 80 37 31 38 32 39 33 40 74 41 34 42 79 43 73 44 75 45 35 46
REMARK SMILES IDX 78 47 72 48 71 49 36 51 62 52 45 53 61 54 46 55 49 56 60 57
REMARK SMILES IDX 76 58 47 59 48 60 59 62 77 63 50 64 37 65 38 66 43 67 39 68
REMARK SMILES IDX 40 69 42 70 44 71 41 72 63 73 64 74 69 75 65 76 66 77 68 78
REMARK SMILES IDX 70 79 67 80 51 81 52 82 57 83 53 84 54 85 56 86 58 87 55 88
REMARK H PARENT 4 21 4 22 4 23 75 50 49 61
REMARK Flexibility Score: inf
ROOT
ATOM      1  C   UNL A   1      38.749  22.860  25.807  1.00  0.00     0.188 C 
ENDROOT
BRANCH   1   2
ATOM      2  O   UNL A   1      37.549  22.503  25.130  1.00  0.00    -0.376 OA
BRANCH   2   3
ATOM      3  C   UNL A   1      36.325  22.818  25.797  1.00  0.00     0.202 C 
BRANCH   3   4
ATOM      4  C   UNL A   1      35.475  21.621  26.247  1.00  0.00     0.261 C 
BRANCH   4   5
ATOM      5  O   UNL A   1      34.066  21.915  26.348  1.00  0.00    -0.463 OA
BRANCH   5   6
ATOM      6  C   UNL A   1      33.312  21.612  25.260  1.00  0.00     0.306 C 
ATOM      7  O   UNL A   1      33.416  20.579  24.606  1.00  0.00    -0.252 OA
BRANCH   6   8
ATOM      8  C   UNL A   1      32.219  22.621  24.950  1.00  0.00     0.126 C 
BRANCH   8   9
ATOM      9  C   UNL A   1      32.467  23.798  23.989  1.00  0.00     0.003 C 
ATOM     10  C   UNL A   1      30.854  27.405  23.768  1.00  0.00     0.283 C 
ATOM     11  O   UNL A   1      29.720  26.954  23.956  1.00  0.00    -0.268 OA
ATOM     12  N   UNL A   1      31.863  26.573  23.271  1.00  0.00    -0.337 N 
ATOM     13  C   UNL A   1      31.452  25.480  22.400  1.00  0.00     0.120 C 
ATOM     14  C   UNL A   1      33.099  26.301  23.992  1.00  0.00     0.120 C 
ATOM     15  C   UNL A   1      31.214  24.196  23.193  1.00  0.00     0.026 C 
ATOM     16  C   UNL A   1      32.967  25.014  24.817  1.00  0.00     0.026 C 
BRANCH  10  17
ATOM     17  C   UNL A   1      31.159  28.949  23.920  1.00  0.00     0.173 C 
BRANCH  17  18
ATOM     18  C   UNL A   1      29.909  29.785  23.497  1.00  0.00     0.075 C 
ATOM     19  C   UNL A   1      29.618  29.883  21.999  1.00  0.00     0.011 C 
ENDBRANCH  17  18
BRANCH  17  20
ATOM     20  N   UNL A   1      32.297  29.292  23.022  1.00  0.00    -0.345 N 
ATOM     21  H   UNL A   1      33.082  29.628  23.581  1.00  0.00     0.345 HD
ATOM     22  H   UNL A   1      32.008  30.022  22.369  1.00  0.00     0.345 HD
ATOM     23  H   UNL A   1      32.582  28.463  22.500  1.00  0.00     0.345 HD
ENDBRANCH  17  20
BRANCH  17  24
ATOM     24  C   UNL A   1      31.567  29.388  25.345  1.00  0.00     0.075 C 
ATOM     25  C   UNL A   1      33.071  29.493  25.573  1.00  0.00     0.011 C 
ENDBRANCH  17  24
ENDBRANCH  10  17
ENDBRANCH   8   9
ENDBRANCH   6   8
ENDBRANCH   5   6
ENDBRANCH   4   5
ENDBRANCH   3   4
ENDBRANCH   2   3
ENDBRANCH   1   2
BRANCH   1  26
ATOM     26  C   UNL A   1      39.487  21.712  26.495  1.00  0.00     0.188 C 
BRANCH  26  27
ATOM     27  O   UNL A   1      40.507  21.087  25.732  1.00  0.00    -0.376 OA
BRANCH  27  28
ATOM     28  C   UNL A   1      41.787  20.942  26.354  1.00  0.00     0.202 C 
BRANCH  28  29
ATOM     29  C   UNL A   1      43.021  21.553  25.651  1.00  0.00     0.261 C 
BRANCH  29  30
ATOM     30  O   UNL A   1      42.805  22.769  24.899  1.00  0.00    -0.460 OA
BRANCH  30  31
ATOM     31  C   UNL A   1      43.662  23.800  25.079  1.00  0.00     0.338 C 
ATOM     32  O   UNL A   1      44.647  24.048  24.404  1.00  0.00    -0.246 OA
BRANCH  31  33
ATOM     33  C   UNL A   1      43.054  24.757  26.051  1.00  0.00     0.060 A 
ATOM     34  C   UNL A   1      43.663  26.012  26.207  1.00  0.00     0.016 A 
ATOM     35  C   UNL A   1      41.864  24.481  26.733  1.00  0.00     0.016 A 
ATOM     36  C   UNL A   1      43.112  26.970  27.064  1.00  0.00     0.010 A 
ATOM     37  C   UNL A   1      41.322  25.436  27.607  1.00  0.00     0.010 A 
ATOM     38  C   UNL A   1      41.959  26.675  27.803  1.00  0.00    -0.014 A 
BRANCH  38  39
ATOM     39  C   UNL A   1      41.549  27.562  28.925  1.00  0.00     0.031 A 
ATOM     40  C   UNL A   1      42.323  27.479  30.216  1.00  0.00     0.074 A 
ATOM     41  C   UNL A   1      40.540  28.447  28.815  1.00  0.00     0.049 A 
ATOM     42  N   UNL A   1      42.131  28.105  31.347  1.00  0.00    -0.248 NA
ATOM     43  C   UNL A   1      43.473  26.560  30.223  1.00  0.00     0.031 C 
ATOM     44  C   UNL A   1      39.739  28.678  27.617  1.00  0.00     0.029 A 
ATOM     45  N   UNL A   1      40.017  29.316  29.744  1.00  0.00    -0.354 N 
ATOM     46  C   UNL A   1      43.128  27.652  32.203  1.00  0.00     0.074 A 
ATOM     47  C   UNL A   1      43.904  26.677  31.469  1.00  0.00     0.031 C 
ATOM     48  C   UNL A   1      38.814  29.618  27.887  1.00  0.00     0.029 A 
ATOM     49  C   UNL A   1      38.935  30.031  29.285  1.00  0.00     0.049 A 
ATOM     50  H   UNL A   1      40.382  29.417  30.653  1.00  0.00     0.167 HD
ATOM     51  C   UNL A   1      43.383  28.020  33.481  1.00  0.00     0.037 A 
ATOM     52  C   UNL A   1      38.123  30.895  29.927  1.00  0.00     0.037 A 
ATOM     53  C   UNL A   1      42.616  28.986  34.220  1.00  0.00     0.049 A 
ATOM     54  C   UNL A   1      38.368  31.218  31.382  1.00  0.00     0.074 A 
ATOM     55  C   UNL A   1      42.808  29.427  35.518  1.00  0.00     0.029 A 
ATOM     56  N   UNL A   1      41.503  29.652  33.732  1.00  0.00    -0.354 N 
ATOM     57  N   UNL A   1      39.325  30.799  32.175  1.00  0.00    -0.248 NA
ATOM     58  C   UNL A   1      37.417  32.136  32.030  1.00  0.00     0.031 C 
ATOM     59  C   UNL A   1      41.777  30.316  35.835  1.00  0.00     0.029 A 
ATOM     60  C   UNL A   1      40.980  30.479  34.714  1.00  0.00     0.049 A 
ATOM     61  H   UNL A   1      41.137  29.552  32.823  1.00  0.00     0.167 HD
ATOM     62  C   UNL A   1      39.110  31.426  33.399  1.00  0.00     0.074 A 
ATOM     63  C   UNL A   1      37.940  32.262  33.242  1.00  0.00     0.031 C 
ATOM     64  C   UNL A   1      39.823  31.319  34.548  1.00  0.00     0.037 A 
BRANCH  51  65
ATOM     65  C   UNL A   1      44.530  27.343  34.174  1.00  0.00     0.057 A 
ATOM     66  C   UNL A   1      44.375  26.131  34.858  1.00  0.00     0.134 A 
ATOM     67  C   UNL A   1      45.815  27.902  34.134  1.00  0.00     0.134 A 
ATOM     68  F   UNL A   1      43.168  25.552  34.950  1.00  0.00    -0.206 F 
ATOM     69  C   UNL A   1      45.450  25.511  35.498  1.00  0.00     0.040 A 
ATOM     70  C   UNL A   1      46.903  27.277  34.743  1.00  0.00     0.040 A 
ATOM     71  F   UNL A   1      46.033  29.060  33.492  1.00  0.00    -0.206 F 
ATOM     72  C   UNL A   1      46.720  26.081  35.434  1.00  0.00     0.006 A 
ENDBRANCH  51  65
BRANCH  52  73
ATOM     73  C   UNL A   1      36.971  31.513  29.216  1.00  0.00     0.057 A 
ATOM     74  C   UNL A   1      35.796  30.794  28.969  1.00  0.00     0.134 A 
ATOM     75  C   UNL A   1      37.039  32.822  28.722  1.00  0.00     0.134 A 
ATOM     76  F   UNL A   1      35.680  29.525  29.387  1.00  0.00    -0.206 F 
ATOM     77  C   UNL A   1      34.737  31.346  28.244  1.00  0.00     0.040 A 
ATOM     78  C   UNL A   1      35.978  33.396  28.020  1.00  0.00     0.040 A 
ATOM     79  F   UNL A   1      38.141  33.563  28.914  1.00  0.00    -0.206 F 
ATOM     80  C   UNL A   1      34.825  32.654  27.772  1.00  0.00     0.006 A 
ENDBRANCH  52  73
BRANCH  64  81
ATOM     81  C   UNL A   1      39.392  32.159  35.719  1.00  0.00     0.057 A 
ATOM     82  C   UNL A   1      39.867  33.462  35.918  1.00  0.00     0.134 A 
ATOM     83  C   UNL A   1      38.447  31.672  36.633  1.00  0.00     0.134 A 
ATOM     84  F   UNL A   1      40.781  33.987  35.088  1.00  0.00    -0.206 F 
ATOM     85  C   UNL A   1      39.436  34.240  36.995  1.00  0.00     0.040 A 
ATOM     86  C   UNL A   1      37.985  32.452  37.695  1.00  0.00     0.040 A 
ATOM     87  F   UNL A   1      37.939  30.437  36.496  1.00  0.00    -0.206 F 
ATOM     88  C   UNL A   1      38.486  33.738  37.882  1.00  0.00     0.006 A 
ENDBRANCH  64  81
ENDBRANCH  38  39
ENDBRANCH  31  33
ENDBRANCH  30  31
ENDBRANCH  29  30
ENDBRANCH  28  29
ENDBRANCH  27  28
ENDBRANCH  26  27
ENDBRANCH   1  26
TORSDOF 22
ENDMDL
MODEL 3
REMARK VINA RESULT:      -9.4      2.589      8.434
REMARK SMILES CCC([NH3+])(CC)C(=O)N1CCC(CC(=O)OCCOCCOCCOC(=O)c2ccc(-c3c4nc(c(-c5c(F)cccc5F)c5ccc([nH]5)c(-c5c(F)cccc5F)c5nc(c(-c6c(F)cccc6F)c6ccc3[nH]6)C=C5)C=C4)cc2)CC1
REMARK SMILES IDX 20 1 19 2 18 3 17 4 16 5 14 6 15 7 13 8 12 9 7 10 8 11 9 12
REMARK SMILES IDX 10 13 83 14 11 15 82 16 3 17 2 18 1 19 4 20 5 24 6 25 21 26
REMARK SMILES IDX 22 27 23 28 24 29 25 30 26 31 27 32 28 33 29 34 81 35 30 36
REMARK SMILES IDX 80 37 31 38 32 39 33 40 74 41 34 42 79 43 73 44 75 45 35 46
REMARK SMILES IDX 78 47 72 48 71 49 36 51 62 52 45 53 61 54 46 55 49 56 60 57
REMARK SMILES IDX 76 58 47 59 48 60 59 62 77 63 50 64 37 65 38 66 43 67 39 68
REMARK SMILES IDX 40 69 42 70 44 71 41 72 63 73 64 74 69 75 65 76 66 77 68 78
REMARK SMILES IDX 70 79 67 80 51 81 52 82 57 83 53 84 54 85 56 86 58 87 55 88
REMARK H PARENT 4 21 4 22 4 23 75 50 49 61
REMARK Flexibility Score: inf
ROOT
ATOM      1  C   UNL A   1      32.154  29.322  26.738  1.00  0.00     0.188 C 
ENDROOT
BRANCH   1   2
ATOM      2  O   UNL A   1      31.989  28.403  25.663  1.00  0.00    -0.376 OA
BRANCH   2   3
ATOM      3  C   UNL A   1      30.880  28.636  24.794  1.00  0.00     0.202 C 
BRANCH   3   4
ATOM      4  C   UNL A   1      31.215  28.802  23.304  1.00  0.00     0.261 C 
BRANCH   4   5
ATOM      5  O   UNL A   1      32.625  28.700  23.011  1.00  0.00    -0.463 OA
BRANCH   5   6
ATOM      6  C   UNL A   1      33.000  27.653  22.233  1.00  0.00     0.306 C 
ATOM      7  O   UNL A   1      34.139  27.472  21.812  1.00  0.00    -0.252 OA
BRANCH   6   8
ATOM      8  C   UNL A   1      31.910  26.624  21.990  1.00  0.00     0.126 C 
BRANCH   8   9
ATOM      9  C   UNL A   1      32.001  25.207  22.586  1.00  0.00     0.003 C 
ATOM     10  C   UNL A   1      35.096  23.011  23.704  1.00  0.00     0.283 C 
ATOM     11  O   UNL A   1      35.738  23.330  22.699  1.00  0.00    -0.268 OA
ATOM     12  N   UNL A   1      33.700  23.097  23.698  1.00  0.00    -0.337 N 
ATOM     13  C   UNL A   1      33.029  22.906  22.419  1.00  0.00     0.120 C 
ATOM     14  C   UNL A   1      32.949  23.937  24.622  1.00  0.00     0.120 C 
ATOM     15  C   UNL A   1      32.803  24.237  21.705  1.00  0.00     0.026 C 
ATOM     16  C   UNL A   1      32.658  25.304  23.990  1.00  0.00     0.026 C 
BRANCH  10  17
ATOM     17  C   UNL A   1      35.804  22.348  24.953  1.00  0.00     0.173 C 
BRANCH  17  18
ATOM     18  C   UNL A   1      36.160  23.442  26.010  1.00  0.00     0.075 C 
ATOM     19  C   UNL A   1      37.627  23.865  26.098  1.00  0.00     0.011 C 
ENDBRANCH  17  18
BRANCH  17  20
ATOM     20  N   UNL A   1      37.061  21.696  24.488  1.00  0.00    -0.345 N 
ATOM     21  H   UNL A   1      36.895  20.700  24.347  1.00  0.00     0.345 HD
ATOM     22  H   UNL A   1      37.789  21.824  25.191  1.00  0.00     0.345 HD
ATOM     23  H   UNL A   1      37.358  22.119  23.610  1.00  0.00     0.345 HD
ENDBRANCH  17  20
BRANCH  17  24
ATOM     24  C   UNL A   1      34.969  21.255  25.660  1.00  0.00     0.075 C 
ATOM     25  C   UNL A   1      34.467  21.637  27.048  1.00  0.00     0.011 C 
ENDBRANCH  17  24
ENDBRANCH  10  17
ENDBRANCH   8   9
ENDBRANCH   6   8
ENDBRANCH   5   6
ENDBRANCH   4   5
ENDBRANCH   3   4
ENDBRANCH   2   3
ENDBRANCH   1   2
BRANCH   1  26
ATOM     26  C   UNL A   1      33.489  30.065  26.775  1.00  0.00     0.188 C 
BRANCH  26  27
ATOM     27  O   UNL A   1      33.492  31.301  27.473  1.00  0.00    -0.376 OA
BRANCH  27  28
ATOM     28  C   UNL A   1      32.351  32.146  27.302  1.00  0.00     0.202 C 
BRANCH  28  29
ATOM     29  C   UNL A   1      32.568  33.676  27.255  1.00  0.00     0.261 C 
BRANCH  29  30
ATOM     30  O   UNL A   1      32.402  34.394  28.499  1.00  0.00    -0.460 OA
BRANCH  30  31
ATOM     31  C   UNL A   1      33.438  35.132  28.962  1.00  0.00     0.338 C 
ATOM     32  O   UNL A   1      33.404  36.310  29.276  1.00  0.00    -0.246 OA
BRANCH  31  33
ATOM     33  C   UNL A   1      34.559  34.208  29.307  1.00  0.00     0.060 A 
ATOM     34  C   UNL A   1      34.304  33.178  30.226  1.00  0.00     0.016 A 
ATOM     35  C   UNL A   1      35.811  34.281  28.688  1.00  0.00     0.016 A 
ATOM     36  C   UNL A   1      35.299  32.251  30.553  1.00  0.00     0.010 A 
ATOM     37  C   UNL A   1      36.815  33.361  29.029  1.00  0.00     0.010 A 
ATOM     38  C   UNL A   1      36.576  32.360  29.988  1.00  0.00    -0.014 A 
BRANCH  38  39
ATOM     39  C   UNL A   1      37.707  31.574  30.552  1.00  0.00     0.031 A 
ATOM     40  C   UNL A   1      38.110  31.836  31.981  1.00  0.00     0.074 A 
ATOM     41  C   UNL A   1      38.353  30.627  29.846  1.00  0.00     0.049 A 
ATOM     42  N   UNL A   1      39.088  31.322  32.680  1.00  0.00    -0.248 NA
ATOM     43  C   UNL A   1      37.292  32.812  32.716  1.00  0.00     0.031 C 
ATOM     44  C   UNL A   1      38.040  30.227  28.477  1.00  0.00     0.029 A 
ATOM     45  N   UNL A   1      39.420  29.832  30.195  1.00  0.00    -0.354 N 
ATOM     46  C   UNL A   1      39.008  31.917  33.933  1.00  0.00     0.074 A 
ATOM     47  C   UNL A   1      37.906  32.852  33.888  1.00  0.00     0.031 C 
ATOM     48  C   UNL A   1      38.907  29.270  28.095  1.00  0.00     0.029 A 
ATOM     49  C   UNL A   1      39.856  29.015  29.179  1.00  0.00     0.049 A 
ATOM     50  H   UNL A   1      39.833  29.848  31.088  1.00  0.00     0.167 HD
ATOM     51  C   UNL A   1      39.776  31.701  35.028  1.00  0.00     0.037 A 
ATOM     52  C   UNL A   1      40.913  28.178  29.123  1.00  0.00     0.037 A 
ATOM     53  C   UNL A   1      40.877  30.777  35.082  1.00  0.00     0.049 A 
ATOM     54  C   UNL A   1      41.814  28.024  30.326  1.00  0.00     0.074 A 
ATOM     55  C   UNL A   1      41.704  30.485  36.152  1.00  0.00     0.029 A 
ATOM     56  N   UNL A   1      41.311  30.002  34.018  1.00  0.00    -0.354 N 
ATOM     57  N   UNL A   1      41.717  28.577  31.510  1.00  0.00    -0.248 NA
ATOM     58  C   UNL A   1      42.972  27.128  30.179  1.00  0.00     0.031 C 
ATOM     59  C   UNL A   1      42.676  29.578  35.720  1.00  0.00     0.029 A 
ATOM     60  C   UNL A   1      42.415  29.255  34.399  1.00  0.00     0.049 A 
ATOM     61  H   UNL A   1      40.898  29.985  33.125  1.00  0.00     0.167 HD
ATOM     62  C   UNL A   1      42.778  28.071  32.257  1.00  0.00     0.074 A 
ATOM     63  C   UNL A   1      43.499  27.159  31.395  1.00  0.00     0.031 C 
ATOM     64  C   UNL A   1      43.120  28.338  33.541  1.00  0.00     0.037 A 
BRANCH  51  65
ATOM     65  C   UNL A   1      39.467  32.510  36.254  1.00  0.00     0.057 A 
ATOM     66  C   UNL A   1      38.498  32.112  37.184  1.00  0.00     0.134 A 
ATOM     67  C   UNL A   1      40.171  33.692  36.521  1.00  0.00     0.134 A 
ATOM     68  F   UNL A   1      37.776  30.999  36.979  1.00  0.00    -0.206 F 
ATOM     69  C   UNL A   1      38.222  32.872  38.321  1.00  0.00     0.040 A 
ATOM     70  C   UNL A   1      39.925  34.445  37.670  1.00  0.00     0.040 A 
ATOM     71  F   UNL A   1      41.115  34.128  35.674  1.00  0.00    -0.206 F 
ATOM     72  C   UNL A   1      38.943  34.039  38.570  1.00  0.00     0.006 A 
ENDBRANCH  51  65
BRANCH  52  73
ATOM     73  C   UNL A   1      41.209  27.425  27.874  1.00  0.00     0.057 A 
ATOM     74  C   UNL A   1      41.948  28.001  26.834  1.00  0.00     0.134 A 
ATOM     75  C   UNL A   1      40.718  26.129  27.672  1.00  0.00     0.134 A 
ATOM     76  F   UNL A   1      42.419  29.251  26.952  1.00  0.00    -0.206 F 
ATOM     77  C   UNL A   1      42.173  27.324  25.633  1.00  0.00     0.040 A 
ATOM     78  C   UNL A   1      40.960  25.430  26.488  1.00  0.00     0.040 A 
ATOM     79  F   UNL A   1      39.994  25.523  28.625  1.00  0.00    -0.206 F 
ATOM     80  C   UNL A   1      41.682  26.032  25.460  1.00  0.00     0.006 A 
ENDBRANCH  52  73
BRANCH  64  81
ATOM     81  C   UNL A   1      44.299  27.603  34.119  1.00  0.00     0.057 A 
ATOM     82  C   UNL A   1      45.587  28.154  34.136  1.00  0.00     0.134 A 
ATOM     83  C   UNL A   1      44.128  26.345  34.714  1.00  0.00     0.134 A 
ATOM     84  F   UNL A   1      45.822  29.349  33.576  1.00  0.00    -0.206 F 
ATOM     85  C   UNL A   1      46.665  27.471  34.703  1.00  0.00     0.040 A 
ATOM     86  C   UNL A   1      45.193  25.666  35.311  1.00  0.00     0.040 A 
ATOM     87  F   UNL A   1      42.920  25.763  34.745  1.00  0.00    -0.206 F 
ATOM     88  C   UNL A   1      46.468  26.228  35.300  1.00  0.00     0.006 A 
ENDBRANCH  64  81
ENDBRANCH  38  39
ENDBRANCH  31  33
ENDBRANCH  30  31
ENDBRANCH  29  30
ENDBRANCH  28  29
ENDBRANCH  27  28
ENDBRANCH  26  27
ENDBRANCH   1  26
TORSDOF 22
ENDMDL
