MODEL 1
REMARK VINA RESULT:     -10.7      0.000      0.000
REMARK SMILES O=C(OCCOCCOCCOC(=O)c1cc(Br)ccc1OCc1ccccc1F)c1ccc(-c2c3nc(c(-c4c(F)cccc4F)c4ccc([nH]4)c(-c4c(F)cccc4F)c4nc(c(-c5c(F)cccc5F)c5ccc2[nH]5)C=C4)C=C3)cc1
REMARK SMILES IDX 8 1 7 2 6 3 5 4 4 5 3 6 2 7 1 8 31 9 32 10 84 11 33 12 83 13
REMARK SMILES IDX 34 14 35 15 36 16 77 17 37 18 82 19 76 20 78 21 38 22 81 23
REMARK SMILES IDX 75 24 74 25 39 27 65 28 48 29 64 30 49 31 52 32 63 33 79 34
REMARK SMILES IDX 50 35 51 36 62 38 80 39 53 40 40 41 41 42 46 43 42 44 43 45
REMARK SMILES IDX 45 46 47 47 44 48 66 49 67 50 72 51 68 52 69 53 71 54 73 55
REMARK SMILES IDX 70 56 54 57 55 58 60 59 56 60 57 61 59 62 61 63 58 64 9 65
REMARK SMILES IDX 10 66 11 67 12 68 13 69 14 70 15 71 16 72 21 73 17 74 20 75
REMARK SMILES IDX 18 76 19 77 22 78 23 79 24 80 25 81 29 82 26 83 28 84 30 85
REMARK SMILES IDX 27 86
REMARK H PARENT 78 26 52 37
REMARK Flexibility Score: inf
ROOT
ATOM      1  C   UNL A   1      34.992  21.664  25.777  1.00  0.00     0.188 C 
ENDROOT
BRANCH   1   2
ATOM      2  C   UNL A   1      36.395  22.163  25.436  1.00  0.00     0.188 C 
BRANCH   2   3
ATOM      3  O   UNL A   1      36.996  21.424  24.374  1.00  0.00    -0.376 OA
BRANCH   3   4
ATOM      4  C   UNL A   1      37.618  20.213  24.805  1.00  0.00     0.202 C 
BRANCH   4   5
ATOM      5  C   UNL A   1      38.802  20.442  25.755  1.00  0.00     0.261 C 
BRANCH   5   6
ATOM      6  O   UNL A   1      39.773  19.380  25.676  1.00  0.00    -0.460 OA
BRANCH   6   7
ATOM      7  C   UNL A   1      41.101  19.429  25.955  1.00  0.00     0.338 C 
ATOM      8  O   UNL A   1      41.782  18.424  25.753  1.00  0.00    -0.246 OA
BRANCH   7   9
ATOM      9  C   UNL A   1      41.802  20.654  26.450  1.00  0.00     0.060 A 
ATOM     10  C   UNL A   1      42.080  20.930  27.788  1.00  0.00     0.016 A 
ATOM     11  C   UNL A   1      42.255  21.573  25.483  1.00  0.00     0.016 A 
ATOM     12  C   UNL A   1      42.650  22.138  28.174  1.00  0.00     0.010 A 
ATOM     13  C   UNL A   1      42.879  22.770  25.859  1.00  0.00     0.010 A 
ATOM     14  C   UNL A   1      43.022  23.079  27.215  1.00  0.00    -0.014 A 
BRANCH  14  15
ATOM     15  C   UNL A   1      43.384  24.430  27.687  1.00  0.00     0.031 A 
ATOM     16  C   UNL A   1      44.813  24.870  27.555  1.00  0.00     0.074 A 
ATOM     17  C   UNL A   1      42.423  25.303  28.038  1.00  0.00     0.049 A 
ATOM     18  N   UNL A   1      45.341  26.045  27.774  1.00  0.00    -0.248 NA
ATOM     19  C   UNL A   1      45.771  23.857  27.080  1.00  0.00     0.031 C 
ATOM     20  C   UNL A   1      40.993  25.003  28.082  1.00  0.00     0.029 A 
ATOM     21  N   UNL A   1      42.500  26.630  28.371  1.00  0.00    -0.354 N 
ATOM     22  C   UNL A   1      46.685  25.915  27.451  1.00  0.00     0.074 A 
ATOM     23  C   UNL A   1      46.901  24.543  27.053  1.00  0.00     0.031 C 
ATOM     24  C   UNL A   1      40.322  26.126  28.387  1.00  0.00     0.029 A 
ATOM     25  C   UNL A   1      41.277  27.211  28.595  1.00  0.00     0.049 A 
ATOM     26  H   UNL A   1      43.351  27.120  28.440  1.00  0.00     0.167 HD
ATOM     27  C   UNL A   1      47.652  26.860  27.475  1.00  0.00     0.037 A 
ATOM     28  C   UNL A   1      40.964  28.477  28.927  1.00  0.00     0.037 A 
ATOM     29  C   UNL A   1      47.433  28.216  27.896  1.00  0.00     0.049 A 
ATOM     30  C   UNL A   1      42.071  29.486  29.052  1.00  0.00     0.074 A 
ATOM     31  C   UNL A   1      48.357  29.230  28.062  1.00  0.00     0.029 A 
ATOM     32  N   UNL A   1      46.191  28.743  28.218  1.00  0.00    -0.354 N 
ATOM     33  N   UNL A   1      43.352  29.335  28.812  1.00  0.00    -0.248 NA
ATOM     34  C   UNL A   1      41.695  30.835  29.493  1.00  0.00     0.031 C 
ATOM     35  C   UNL A   1      47.676  30.366  28.514  1.00  0.00     0.029 A 
ATOM     36  C   UNL A   1      46.323  30.068  28.591  1.00  0.00     0.049 A 
ATOM     37  H   UNL A   1      45.340  28.246  28.186  1.00  0.00     0.167 HD
ATOM     38  C   UNL A   1      43.934  30.570  29.061  1.00  0.00     0.074 A 
ATOM     39  C   UNL A   1      42.863  31.464  29.456  1.00  0.00     0.031 C 
ATOM     40  C   UNL A   1      45.237  30.932  28.973  1.00  0.00     0.037 A 
BRANCH  27  41
ATOM     41  C   UNL A   1      49.028  26.428  27.077  1.00  0.00     0.057 A 
ATOM     42  C   UNL A   1      49.458  26.552  25.751  1.00  0.00     0.134 A 
ATOM     43  C   UNL A   1      49.942  25.924  28.012  1.00  0.00     0.134 A 
ATOM     44  F   UNL A   1      48.635  27.038  24.811  1.00  0.00    -0.206 F 
ATOM     45  C   UNL A   1      50.750  26.191  25.368  1.00  0.00     0.040 A 
ATOM     46  C   UNL A   1      51.242  25.576  27.644  1.00  0.00     0.040 A 
ATOM     47  F   UNL A   1      49.599  25.810  29.305  1.00  0.00    -0.206 F 
ATOM     48  C   UNL A   1      51.649  25.708  26.318  1.00  0.00     0.006 A 
ENDBRANCH  27  41
BRANCH  28  49
ATOM     49  C   UNL A   1      39.549  28.852  29.165  1.00  0.00     0.057 A 
ATOM     50  C   UNL A   1      38.743  29.335  28.125  1.00  0.00     0.134 A 
ATOM     51  C   UNL A   1      38.971  28.755  30.434  1.00  0.00     0.134 A 
ATOM     52  F   UNL A   1      39.239  29.449  26.884  1.00  0.00    -0.206 F 
ATOM     53  C   UNL A   1      37.421  29.723  28.342  1.00  0.00     0.040 A 
ATOM     54  C   UNL A   1      37.643  29.122  30.663  1.00  0.00     0.040 A 
ATOM     55  F   UNL A   1      39.685  28.282  31.466  1.00  0.00    -0.206 F 
ATOM     56  C   UNL A   1      36.867  29.615  29.615  1.00  0.00     0.006 A 
ENDBRANCH  28  49
BRANCH  40  57
ATOM     57  C   UNL A   1      45.577  32.353  29.295  1.00  0.00     0.057 A 
ATOM     58  C   UNL A   1      45.588  33.328  28.291  1.00  0.00     0.134 A 
ATOM     59  C   UNL A   1      45.974  32.737  30.582  1.00  0.00     0.134 A 
ATOM     60  F   UNL A   1      45.227  33.018  27.036  1.00  0.00    -0.206 F 
ATOM     61  C   UNL A   1      45.996  34.636  28.552  1.00  0.00     0.040 A 
ATOM     62  C   UNL A   1      46.365  34.046  30.860  1.00  0.00     0.040 A 
ATOM     63  F   UNL A   1      45.975  31.847  31.587  1.00  0.00    -0.206 F 
ATOM     64  C   UNL A   1      46.385  34.998  29.842  1.00  0.00     0.006 A 
ENDBRANCH  40  57
ENDBRANCH  14  15
ENDBRANCH   7   9
ENDBRANCH   6   7
ENDBRANCH   5   6
ENDBRANCH   4   5
ENDBRANCH   3   4
ENDBRANCH   2   3
ENDBRANCH   1   2
BRANCH   1  65
ATOM     65  O   UNL A   1      34.740  21.454  27.162  1.00  0.00    -0.376 OA
BRANCH  65  66
ATOM     66  C   UNL A   1      33.541  22.057  27.668  1.00  0.00     0.202 C 
BRANCH  66  67
ATOM     67  C   UNL A   1      33.102  23.340  26.953  1.00  0.00     0.261 C 
BRANCH  67  68
ATOM     68  O   UNL A   1      31.724  23.682  27.222  1.00  0.00    -0.460 OA
BRANCH  68  69
ATOM     69  C   UNL A   1      30.869  23.186  26.293  1.00  0.00     0.342 C 
ATOM     70  O   UNL A   1      29.908  22.459  26.523  1.00  0.00    -0.246 OA
BRANCH  69  71
ATOM     71  C   UNL A   1      31.301  23.453  24.907  1.00  0.00     0.103 A 
ATOM     72  C   UNL A   1      31.315  24.809  24.539  1.00  0.00     0.035 A 
ATOM     73  C   UNL A   1      31.849  22.494  24.045  1.00  0.00     0.134 A 
ATOM     74  C   UNL A   1      31.856  25.195  23.316  1.00  0.00     0.019 A 
ATOM     75  C   UNL A   1      32.326  22.890  22.786  1.00  0.00     0.048 A 
ATOM     76  Br  UNL A   1      31.960  27.030  22.879  1.00  0.00    -0.051 Br
ATOM     77  C   UNL A   1      32.348  24.241  22.431  1.00  0.00     0.019 A 
BRANCH  73  78
ATOM     78  O   UNL A   1      31.946  21.180  24.423  1.00  0.00    -0.488 OA
BRANCH  78  79
ATOM     79  C   UNL A   1      32.282  20.295  23.332  1.00  0.00     0.268 C 
BRANCH  79  80
ATOM     80  C   UNL A   1      32.539  18.917  23.876  1.00  0.00     0.025 A 
ATOM     81  C   UNL A   1      32.527  18.668  25.253  1.00  0.00     0.010 A 
ATOM     82  C   UNL A   1      32.910  17.882  23.014  1.00  0.00     0.129 A 
ATOM     83  C   UNL A   1      32.964  17.437  25.751  1.00  0.00     0.001 A 
ATOM     84  C   UNL A   1      33.352  16.658  23.501  1.00  0.00     0.039 A 
ATOM     85  F   UNL A   1      32.878  18.074  21.687  1.00  0.00    -0.207 F 
ATOM     86  C   UNL A   1      33.398  16.441  24.876  1.00  0.00     0.003 A 
ENDBRANCH  79  80
ENDBRANCH  78  79
ENDBRANCH  73  78
ENDBRANCH  69  71
ENDBRANCH  68  69
ENDBRANCH  67  68
ENDBRANCH  66  67
ENDBRANCH  65  66
ENDBRANCH   1  65
TORSDOF 20
ENDMDL
MODEL 2
REMARK VINA RESULT:     -10.7      4.180      6.380
REMARK SMILES O=C(OCCOCCOCCOC(=O)c1cc(Br)ccc1OCc1ccccc1F)c1ccc(-c2c3nc(c(-c4c(F)cccc4F)c4ccc([nH]4)c(-c4c(F)cccc4F)c4nc(c(-c5c(F)cccc5F)c5ccc2[nH]5)C=C4)C=C3)cc1
REMARK SMILES IDX 8 1 7 2 6 3 5 4 4 5 3 6 2 7 1 8 31 9 32 10 84 11 33 12 83 13
REMARK SMILES IDX 34 14 35 15 36 16 77 17 37 18 82 19 76 20 78 21 38 22 81 23
REMARK SMILES IDX 75 24 74 25 39 27 65 28 48 29 64 30 49 31 52 32 63 33 79 34
REMARK SMILES IDX 50 35 51 36 62 38 80 39 53 40 40 41 41 42 46 43 42 44 43 45
REMARK SMILES IDX 45 46 47 47 44 48 66 49 67 50 72 51 68 52 69 53 71 54 73 55
REMARK SMILES IDX 70 56 54 57 55 58 60 59 56 60 57 61 59 62 61 63 58 64 9 65
REMARK SMILES IDX 10 66 11 67 12 68 13 69 14 70 15 71 16 72 21 73 17 74 20 75
REMARK SMILES IDX 18 76 19 77 22 78 23 79 24 80 25 81 29 82 26 83 28 84 30 85
REMARK SMILES IDX 27 86
REMARK H PARENT 78 26 52 37
REMARK Flexibility Score: inf
ROOT
ATOM      1  C   UNL A   1      40.949  20.755  26.374  1.00  0.00     0.188 C 
ENDROOT
BRANCH   1   2
ATOM      2  C   UNL A   1      42.472  20.711  26.482  1.00  0.00     0.188 C 
BRANCH   2   3
ATOM      3  O   UNL A   1      43.082  20.054  25.372  1.00  0.00    -0.376 OA
BRANCH   3   4
ATOM      4  C   UNL A   1      44.123  20.817  24.761  1.00  0.00     0.202 C 
BRANCH   4   5
ATOM      5  C   UNL A   1      44.513  22.066  25.565  1.00  0.00     0.261 C 
BRANCH   5   6
ATOM      6  O   UNL A   1      44.165  23.283  24.876  1.00  0.00    -0.460 OA
BRANCH   6   7
ATOM      7  C   UNL A   1      44.496  24.560  25.201  1.00  0.00     0.338 C 
ATOM      8  O   UNL A   1      45.474  25.071  24.656  1.00  0.00    -0.246 OA
BRANCH   7   9
ATOM      9  C   UNL A   1      43.709  25.407  26.150  1.00  0.00     0.060 A 
ATOM     10  C   UNL A   1      43.969  26.748  26.427  1.00  0.00     0.016 A 
ATOM     11  C   UNL A   1      42.593  24.813  26.772  1.00  0.00     0.016 A 
ATOM     12  C   UNL A   1      43.249  27.440  27.395  1.00  0.00     0.010 A 
ATOM     13  C   UNL A   1      41.829  25.518  27.712  1.00  0.00     0.010 A 
ATOM     14  C   UNL A   1      42.197  26.818  28.067  1.00  0.00    -0.014 A 
BRANCH  14  15
ATOM     15  C   UNL A   1      41.639  27.507  29.249  1.00  0.00     0.031 A 
ATOM     16  C   UNL A   1      42.420  27.465  30.529  1.00  0.00     0.074 A 
ATOM     17  C   UNL A   1      40.567  28.309  29.119  1.00  0.00     0.049 A 
ATOM     18  N   UNL A   1      42.204  28.098  31.651  1.00  0.00    -0.248 NA
ATOM     19  C   UNL A   1      43.627  26.621  30.536  1.00  0.00     0.031 C 
ATOM     20  C   UNL A   1      39.812  28.508  27.884  1.00  0.00     0.029 A 
ATOM     21  N   UNL A   1      39.964  29.145  30.022  1.00  0.00    -0.354 N 
ATOM     22  C   UNL A   1      43.252  27.741  32.489  1.00  0.00     0.074 A 
ATOM     23  C   UNL A   1      44.086  26.811  31.761  1.00  0.00     0.031 C 
ATOM     24  C   UNL A   1      38.867  29.437  28.096  1.00  0.00     0.029 A 
ATOM     25  C   UNL A   1      38.927  29.869  29.489  1.00  0.00     0.049 A 
ATOM     26  H   UNL A   1      40.247  29.219  30.962  1.00  0.00     0.167 HD
ATOM     27  C   UNL A   1      43.501  28.158  33.751  1.00  0.00     0.037 A 
ATOM     28  C   UNL A   1      38.120  30.782  30.063  1.00  0.00     0.037 A 
ATOM     29  C   UNL A   1      42.654  29.062  34.475  1.00  0.00     0.049 A 
ATOM     30  C   UNL A   1      38.353  31.151  31.501  1.00  0.00     0.074 A 
ATOM     31  C   UNL A   1      42.750  29.472  35.792  1.00  0.00     0.029 A 
ATOM     32  N   UNL A   1      41.547  29.700  33.933  1.00  0.00    -0.354 N 
ATOM     33  N   UNL A   1      39.308  30.752  32.308  1.00  0.00    -0.248 NA
ATOM     34  C   UNL A   1      37.403  32.090  32.109  1.00  0.00     0.031 C 
ATOM     35  C   UNL A   1      41.681  30.337  36.055  1.00  0.00     0.029 A 
ATOM     36  C   UNL A   1      40.944  30.495  34.890  1.00  0.00     0.049 A 
ATOM     37  H   UNL A   1      41.237  29.600  33.003  1.00  0.00     0.167 HD
ATOM     38  C   UNL A   1      39.081  31.399  33.514  1.00  0.00     0.074 A 
ATOM     39  C   UNL A   1      37.907  32.229  33.328  1.00  0.00     0.031 C 
ATOM     40  C   UNL A   1      39.780  31.312  34.672  1.00  0.00     0.037 A 
BRANCH  27  41
ATOM     41  C   UNL A   1      44.715  27.593  34.421  1.00  0.00     0.057 A 
ATOM     42  C   UNL A   1      45.952  28.239  34.316  1.00  0.00     0.134 A 
ATOM     43  C   UNL A   1      44.653  26.431  35.200  1.00  0.00     0.134 A 
ATOM     44  F   UNL A   1      46.075  29.362  33.594  1.00  0.00    -0.206 F 
ATOM     45  C   UNL A   1      47.086  27.750  34.966  1.00  0.00     0.040 A 
ATOM     46  C   UNL A   1      45.776  25.941  35.869  1.00  0.00     0.040 A 
ATOM     47  F   UNL A   1      43.489  25.783  35.365  1.00  0.00    -0.206 F 
ATOM     48  C   UNL A   1      46.997  26.601  35.750  1.00  0.00     0.006 A 
ENDBRANCH  27  41
BRANCH  28  49
ATOM     49  C   UNL A   1      37.026  31.401  29.275  1.00  0.00     0.057 A 
ATOM     50  C   UNL A   1      35.860  30.686  28.970  1.00  0.00     0.134 A 
ATOM     51  C   UNL A   1      37.122  32.710  28.795  1.00  0.00     0.134 A 
ATOM     52  F   UNL A   1      35.708  29.425  29.404  1.00  0.00    -0.206 F 
ATOM     53  C   UNL A   1      34.838  31.244  28.201  1.00  0.00     0.040 A 
ATOM     54  C   UNL A   1      36.099  33.288  28.040  1.00  0.00     0.040 A 
ATOM     55  F   UNL A   1      38.205  33.452  29.070  1.00  0.00    -0.206 F 
ATOM     56  C   UNL A   1      34.956  32.551  27.735  1.00  0.00     0.006 A 
ENDBRANCH  28  49
BRANCH  40  57
ATOM     57  C   UNL A   1      39.305  32.143  35.823  1.00  0.00     0.057 A 
ATOM     58  C   UNL A   1      38.337  31.651  36.706  1.00  0.00     0.134 A 
ATOM     59  C   UNL A   1      39.744  33.461  36.004  1.00  0.00     0.134 A 
ATOM     60  F   UNL A   1      37.871  30.399  36.576  1.00  0.00    -0.206 F 
ATOM     61  C   UNL A   1      37.811  32.444  37.725  1.00  0.00     0.040 A 
ATOM     62  C   UNL A   1      39.240  34.258  37.031  1.00  0.00     0.040 A 
ATOM     63  F   UNL A   1      40.676  33.984  35.193  1.00  0.00    -0.206 F 
ATOM     64  C   UNL A   1      38.264  33.753  37.890  1.00  0.00     0.006 A 
ENDBRANCH  40  57
ENDBRANCH  14  15
ENDBRANCH   7   9
ENDBRANCH   6   7
ENDBRANCH   5   6
ENDBRANCH   4   5
ENDBRANCH   3   4
ENDBRANCH   2   3
ENDBRANCH   1   2
BRANCH   1  65
ATOM     65  O   UNL A   1      40.353  22.013  26.667  1.00  0.00    -0.376 OA
BRANCH  65  66
ATOM     66  C   UNL A   1      39.018  22.192  26.176  1.00  0.00     0.202 C 
BRANCH  66  67
ATOM     67  C   UNL A   1      38.480  23.625  26.250  1.00  0.00     0.261 C 
BRANCH  67  68
ATOM     68  O   UNL A   1      37.040  23.672  26.365  1.00  0.00    -0.460 OA
BRANCH  68  69
ATOM     69  C   UNL A   1      36.416  23.654  25.160  1.00  0.00     0.342 C 
ATOM     70  O   UNL A   1      36.973  23.631  24.067  1.00  0.00    -0.246 OA
BRANCH  69  71
ATOM     71  C   UNL A   1      34.956  23.848  25.261  1.00  0.00     0.103 A 
ATOM     72  C   UNL A   1      34.553  25.139  25.640  1.00  0.00     0.035 A 
ATOM     73  C   UNL A   1      33.998  22.917  24.838  1.00  0.00     0.134 A 
ATOM     74  C   UNL A   1      33.205  25.487  25.610  1.00  0.00     0.019 A 
ATOM     75  C   UNL A   1      32.637  23.259  24.882  1.00  0.00     0.048 A 
ATOM     76  Br  UNL A   1      32.688  27.256  26.025  1.00  0.00    -0.051 Br
ATOM     77  C   UNL A   1      32.244  24.549  25.248  1.00  0.00     0.019 A 
BRANCH  73  78
ATOM     78  O   UNL A   1      34.371  21.688  24.361  1.00  0.00    -0.488 OA
BRANCH  78  79
ATOM     79  C   UNL A   1      34.238  20.632  25.337  1.00  0.00     0.268 C 
BRANCH  79  80
ATOM     80  C   UNL A   1      33.900  19.348  24.631  1.00  0.00     0.025 A 
ATOM     81  C   UNL A   1      34.813  18.288  24.578  1.00  0.00     0.010 A 
ATOM     82  C   UNL A   1      32.706  19.236  23.914  1.00  0.00     0.129 A 
ATOM     83  C   UNL A   1      34.568  17.187  23.753  1.00  0.00     0.001 A 
ATOM     84  C   UNL A   1      32.458  18.147  23.087  1.00  0.00     0.039 A 
ATOM     85  F   UNL A   1      31.787  20.210  23.991  1.00  0.00    -0.207 F 
ATOM     86  C   UNL A   1      33.401  17.127  22.991  1.00  0.00     0.003 A 
ENDBRANCH  79  80
ENDBRANCH  78  79
ENDBRANCH  73  78
ENDBRANCH  69  71
ENDBRANCH  68  69
ENDBRANCH  67  68
ENDBRANCH  66  67
ENDBRANCH  65  66
ENDBRANCH   1  65
TORSDOF 20
ENDMDL
MODEL 3
REMARK VINA RESULT:     -10.5      1.883      6.743
REMARK SMILES O=C(OCCOCCOCCOC(=O)c1cc(Br)ccc1OCc1ccccc1F)c1ccc(-c2c3nc(c(-c4c(F)cccc4F)c4ccc([nH]4)c(-c4c(F)cccc4F)c4nc(c(-c5c(F)cccc5F)c5ccc2[nH]5)C=C4)C=C3)cc1
REMARK SMILES IDX 8 1 7 2 6 3 5 4 4 5 3 6 2 7 1 8 31 9 32 10 84 11 33 12 83 13
REMARK SMILES IDX 34 14 35 15 36 16 77 17 37 18 82 19 76 20 78 21 38 22 81 23
REMARK SMILES IDX 75 24 74 25 39 27 65 28 48 29 64 30 49 31 52 32 63 33 79 34
REMARK SMILES IDX 50 35 51 36 62 38 80 39 53 40 40 41 41 42 46 43 42 44 43 45
REMARK SMILES IDX 45 46 47 47 44 48 66 49 67 50 72 51 68 52 69 53 71 54 73 55
REMARK SMILES IDX 70 56 54 57 55 58 60 59 56 60 57 61 59 62 61 63 58 64 9 65
REMARK SMILES IDX 10 66 11 67 12 68 13 69 14 70 15 71 16 72 21 73 17 74 20 75
REMARK SMILES IDX 18 76 19 77 22 78 23 79 24 80 25 81 29 82 26 83 28 84 30 85
REMARK SMILES IDX 27 86
REMARK H PARENT 78 26 52 37
REMARK Flexibility Score: inf
ROOT
ATOM      1  C   UNL A   1      41.061  21.939  26.449  1.00  0.00     0.188 C 
ENDROOT
BRANCH   1   2
ATOM      2  C   UNL A   1      41.549  21.053  27.594  1.00  0.00     0.188 C 
BRANCH   2   3
ATOM      3  O   UNL A   1      41.534  19.667  27.259  1.00  0.00    -0.376 OA
BRANCH   3   4
ATOM      4  C   UNL A   1      41.960  19.400  25.923  1.00  0.00     0.202 C 
BRANCH   4   5
ATOM      5  C   UNL A   1      43.156  18.441  25.846  1.00  0.00     0.261 C 
BRANCH   5   6
ATOM      6  O   UNL A   1      43.946  18.653  24.660  1.00  0.00    -0.460 OA
BRANCH   6   7
ATOM      7  C   UNL A   1      44.970  19.526  24.473  1.00  0.00     0.338 C 
ATOM      8  O   UNL A   1      46.005  19.115  23.949  1.00  0.00    -0.246 OA
BRANCH   7   9
ATOM      9  C   UNL A   1      44.899  20.979  24.823  1.00  0.00     0.060 A 
ATOM     10  C   UNL A   1      44.588  22.001  23.927  1.00  0.00     0.016 A 
ATOM     11  C   UNL A   1      45.117  21.330  26.169  1.00  0.00     0.016 A 
ATOM     12  C   UNL A   1      44.637  23.337  24.309  1.00  0.00     0.010 A 
ATOM     13  C   UNL A   1      45.118  22.671  26.576  1.00  0.00     0.010 A 
ATOM     14  C   UNL A   1      44.935  23.681  25.627  1.00  0.00    -0.014 A 
BRANCH  14  15
ATOM     15  C   UNL A   1      45.220  25.102  25.915  1.00  0.00     0.031 A 
ATOM     16  C   UNL A   1      44.132  25.934  26.527  1.00  0.00     0.074 A 
ATOM     17  C   UNL A   1      46.476  25.572  25.814  1.00  0.00     0.049 A 
ATOM     18  N   UNL A   1      44.184  27.156  26.987  1.00  0.00    -0.248 NA
ATOM     19  C   UNL A   1      42.814  25.292  26.670  1.00  0.00     0.031 C 
ATOM     20  C   UNL A   1      47.625  24.802  25.342  1.00  0.00     0.029 A 
ATOM     21  N   UNL A   1      47.002  26.792  26.153  1.00  0.00    -0.354 N 
ATOM     22  C   UNL A   1      42.916  27.421  27.485  1.00  0.00     0.074 A 
ATOM     23  C   UNL A   1      42.105  26.249  27.243  1.00  0.00     0.031 C 
ATOM     24  C   UNL A   1      48.730  25.557  25.456  1.00  0.00     0.029 A 
ATOM     25  C   UNL A   1      48.360  26.871  25.972  1.00  0.00     0.049 A 
ATOM     26  H   UNL A   1      46.458  27.538  26.494  1.00  0.00     0.167 HD
ATOM     27  C   UNL A   1      42.469  28.541  28.098  1.00  0.00     0.037 A 
ATOM     28  C   UNL A   1      49.209  27.890  26.203  1.00  0.00     0.037 A 
ATOM     29  C   UNL A   1      43.275  29.710  28.312  1.00  0.00     0.049 A 
ATOM     30  C   UNL A   1      48.667  29.164  26.787  1.00  0.00     0.074 A 
ATOM     31  C   UNL A   1      42.900  30.937  28.826  1.00  0.00     0.029 A 
ATOM     32  N   UNL A   1      44.628  29.790  28.019  1.00  0.00    -0.354 N 
ATOM     33  N   UNL A   1      47.447  29.430  27.191  1.00  0.00    -0.248 NA
ATOM     34  C   UNL A   1      49.612  30.276  26.948  1.00  0.00     0.031 C 
ATOM     35  C   UNL A   1      44.024  31.771  28.817  1.00  0.00     0.029 A 
ATOM     36  C   UNL A   1      45.105  31.049  28.334  1.00  0.00     0.049 A 
ATOM     37  H   UNL A   1      45.170  29.057  27.643  1.00  0.00     0.167 HD
ATOM     38  C   UNL A   1      47.479  30.734  27.664  1.00  0.00     0.074 A 
ATOM     39  C   UNL A   1      48.843  31.201  27.511  1.00  0.00     0.031 C 
ATOM     40  C   UNL A   1      46.470  31.480  28.175  1.00  0.00     0.037 A 
BRANCH  27  41
ATOM     41  C   UNL A   1      41.036  28.548  28.529  1.00  0.00     0.057 A 
ATOM     42  C   UNL A   1      40.027  28.947  27.644  1.00  0.00     0.134 A 
ATOM     43  C   UNL A   1      40.648  28.124  29.807  1.00  0.00     0.134 A 
ATOM     44  F   UNL A   1      40.333  29.352  26.403  1.00  0.00    -0.206 F 
ATOM     45  C   UNL A   1      38.682  28.922  28.013  1.00  0.00     0.040 A 
ATOM     46  C   UNL A   1      39.304  28.079  30.182  1.00  0.00     0.040 A 
ATOM     47  F   UNL A   1      41.565  27.700  30.690  1.00  0.00    -0.206 F 
ATOM     48  C   UNL A   1      38.318  28.481  29.285  1.00  0.00     0.006 A 
ENDBRANCH  27  41
BRANCH  28  49
ATOM     49  C   UNL A   1      50.649  27.742  25.877  1.00  0.00     0.057 A 
ATOM     50  C   UNL A   1      51.115  27.908  24.567  1.00  0.00     0.134 A 
ATOM     51  C   UNL A   1      51.589  27.416  26.859  1.00  0.00     0.134 A 
ATOM     52  F   UNL A   1      50.262  28.224  23.580  1.00  0.00    -0.206 F 
ATOM     53  C   UNL A   1      52.461  27.738  24.241  1.00  0.00     0.040 A 
ATOM     54  C   UNL A   1      52.942  27.261  26.551  1.00  0.00     0.040 A 
ATOM     55  F   UNL A   1      51.208  27.263  28.135  1.00  0.00    -0.206 F 
ATOM     56  C   UNL A   1      53.380  27.415  25.236  1.00  0.00     0.006 A 
ENDBRANCH  28  49
BRANCH  40  57
ATOM     57  C   UNL A   1      46.802  32.870  28.621  1.00  0.00     0.057 A 
ATOM     58  C   UNL A   1      47.178  33.122  29.945  1.00  0.00     0.134 A 
ATOM     59  C   UNL A   1      46.668  33.966  27.759  1.00  0.00     0.134 A 
ATOM     60  F   UNL A   1      47.314  32.113  30.819  1.00  0.00    -0.206 F 
ATOM     61  C   UNL A   1      47.397  34.421  30.403  1.00  0.00     0.040 A 
ATOM     62  C   UNL A   1      46.903  35.267  28.201  1.00  0.00     0.040 A 
ATOM     63  F   UNL A   1      46.317  33.783  26.477  1.00  0.00    -0.206 F 
ATOM     64  C   UNL A   1      47.261  35.499  29.528  1.00  0.00     0.006 A 
ENDBRANCH  40  57
ENDBRANCH  14  15
ENDBRANCH   7   9
ENDBRANCH   6   7
ENDBRANCH   5   6
ENDBRANCH   4   5
ENDBRANCH   3   4
ENDBRANCH   2   3
ENDBRANCH   1   2
BRANCH   1  65
ATOM     65  O   UNL A   1      39.734  22.435  26.586  1.00  0.00    -0.376 OA
BRANCH  65  66
ATOM     66  C   UNL A   1      38.747  21.788  25.772  1.00  0.00     0.202 C 
BRANCH  66  67
ATOM     67  C   UNL A   1      37.351  22.418  25.811  1.00  0.00     0.261 C 
BRANCH  67  68
ATOM     68  O   UNL A   1      37.252  23.600  24.984  1.00  0.00    -0.460 OA
BRANCH  68  69
ATOM     69  C   UNL A   1      36.198  23.557  24.131  1.00  0.00     0.342 C 
ATOM     70  O   UNL A   1      36.271  23.547  22.906  1.00  0.00    -0.246 OA
BRANCH  69  71
ATOM     71  C   UNL A   1      34.896  23.706  24.810  1.00  0.00     0.103 A 
ATOM     72  C   UNL A   1      34.585  25.013  25.220  1.00  0.00     0.035 A 
ATOM     73  C   UNL A   1      33.922  22.702  24.895  1.00  0.00     0.134 A 
ATOM     74  C   UNL A   1      33.321  25.306  25.723  1.00  0.00     0.019 A 
ATOM     75  C   UNL A   1      32.676  22.995  25.470  1.00  0.00     0.048 A 
ATOM     76  Br  UNL A   1      32.885  27.088  26.176  1.00  0.00    -0.051 Br
ATOM     77  C   UNL A   1      32.369  24.300  25.865  1.00  0.00     0.019 A 
BRANCH  73  78
ATOM     78  O   UNL A   1      34.161  21.445  24.403  1.00  0.00    -0.488 OA
BRANCH  78  79
ATOM     79  C   UNL A   1      33.749  20.393  25.302  1.00  0.00     0.268 C 
BRANCH  79  80
ATOM     80  C   UNL A   1      33.576  19.118  24.522  1.00  0.00     0.025 A 
ATOM     81  C   UNL A   1      34.416  18.019  24.736  1.00  0.00     0.010 A 
ATOM     82  C   UNL A   1      32.642  19.053  23.485  1.00  0.00     0.129 A 
ATOM     83  C   UNL A   1      34.375  16.922  23.871  1.00  0.00     0.001 A 
ATOM     84  C   UNL A   1      32.600  17.968  22.617  1.00  0.00     0.039 A 
ATOM     85  F   UNL A   1      31.787  20.067  23.291  1.00  0.00    -0.207 F 
ATOM     86  C   UNL A   1      33.483  16.907  22.798  1.00  0.00     0.003 A 
ENDBRANCH  79  80
ENDBRANCH  78  79
ENDBRANCH  73  78
ENDBRANCH  69  71
ENDBRANCH  68  69
ENDBRANCH  67  68
ENDBRANCH  66  67
ENDBRANCH  65  66
ENDBRANCH   1  65
TORSDOF 20
ENDMDL
