MODEL 1
REMARK VINA RESULT:     -10.0      0.000      0.000
REMARK SMILES COc1cc(/C=C/C(=O)OCCOCCOCCOC(=O)c2ccc(-c3c4nc(c(-c5c(F)cccc5F)c5ccc([nH]5)c(-c5c(F)cccc5F)c5nc(c(-c6c(F)cccc6F)c6ccc3[nH]6)C=C5)C=C4)cc2)cc(OC)c1O
REMARK SMILES IDX 14 1 13 2 12 3 11 4 10 5 8 6 9 7 7 8 6 9 5 10 3 11 4 12
REMARK SMILES IDX 80 13 77 14 76 15 2 16 1 17 81 18 78 20 79 21 15 22 16 23
REMARK SMILES IDX 17 24 18 25 19 26 20 27 21 28 22 29 23 30 75 31 24 32 74 33
REMARK SMILES IDX 25 34 26 35 27 36 68 37 28 38 73 39 67 40 69 41 29 42 72 43
REMARK SMILES IDX 66 44 65 45 30 47 56 48 39 49 55 50 40 51 43 52 54 53 70 54
REMARK SMILES IDX 41 55 42 56 53 58 71 59 44 60 31 61 32 62 37 63 33 64 34 65
REMARK SMILES IDX 36 66 38 67 35 68 57 69 58 70 63 71 59 72 60 73 62 74 64 75
REMARK SMILES IDX 61 76 45 77 46 78 51 79 47 80 48 81 50 82 52 83 49 84
REMARK H PARENT 81 19 69 46 43 57
REMARK Flexibility Score: inf
ROOT
ATOM      1  C   UNL A   1      35.092  20.437  25.229  1.00  0.00     0.188 C 
ENDROOT
BRANCH   1   2
ATOM      2  O   UNL A   1      33.998  21.216  25.700  1.00  0.00    -0.376 OA
BRANCH   2   3
ATOM      3  C   UNL A   1      33.580  22.362  24.970  1.00  0.00     0.202 C 
BRANCH   3   4
ATOM      4  C   UNL A   1      32.083  22.695  24.841  1.00  0.00     0.261 C 
BRANCH   4   5
ATOM      5  O   UNL A   1      31.313  22.581  26.050  1.00  0.00    -0.460 OA
BRANCH   5   6
ATOM      6  C   UNL A   1      30.459  23.605  26.291  1.00  0.00     0.330 C 
ATOM      7  O   UNL A   1      29.702  23.707  27.245  1.00  0.00    -0.247 OA
BRANCH   6   8
ATOM      8  C   UNL A   1      30.596  24.714  25.321  1.00  0.00     0.094 C 
ATOM      9  C   UNL A   1      30.135  25.968  25.459  1.00  0.00     0.016 C 
BRANCH   9  10
ATOM     10  C   UNL A   1      30.343  27.010  24.434  1.00  0.00    -0.018 A 
ATOM     11  C   UNL A   1      29.528  28.503  22.679  1.00  0.00     0.165 A 
ATOM     12  C   UNL A   1      29.297  27.521  23.653  1.00  0.00     0.058 A 
ATOM     13  C   UNL A   1      30.821  29.020  22.508  1.00  0.00     0.200 A 
ATOM     14  C   UNL A   1      31.881  28.531  23.284  1.00  0.00     0.165 A 
ATOM     15  C   UNL A   1      31.623  27.544  24.250  1.00  0.00     0.058 A 
BRANCH  11  16
ATOM     16  O   UNL A   1      28.398  28.929  22.029  1.00  0.00    -0.493 OA
ATOM     17  C   UNL A   1      27.653  29.979  22.643  1.00  0.00     0.278 C 
ENDBRANCH  11  16
BRANCH  13  18
ATOM     18  O   UNL A   1      31.027  30.063  21.648  1.00  0.00    -0.502 OA
ATOM     19  H   UNL A   1      31.620  30.751  21.878  1.00  0.00     0.293 HD
ENDBRANCH  13  18
BRANCH  14  20
ATOM     20  O   UNL A   1      33.190  28.933  23.276  1.00  0.00    -0.493 OA
ATOM     21  C   UNL A   1      34.125  28.203  24.059  1.00  0.00     0.278 C 
ENDBRANCH  14  20
ENDBRANCH   9  10
ENDBRANCH   6   8
ENDBRANCH   5   6
ENDBRANCH   4   5
ENDBRANCH   3   4
ENDBRANCH   2   3
ENDBRANCH   1   2
BRANCH   1  22
ATOM     22  C   UNL A   1      36.468  21.097  24.993  1.00  0.00     0.188 C 
BRANCH  22  23
ATOM     23  O   UNL A   1      37.511  20.184  24.749  1.00  0.00    -0.376 OA
BRANCH  23  24
ATOM     24  C   UNL A   1      38.768  20.371  25.377  1.00  0.00     0.202 C 
BRANCH  24  25
ATOM     25  C   UNL A   1      39.631  19.227  25.948  1.00  0.00     0.261 C 
BRANCH  25  26
ATOM     26  O   UNL A   1      41.000  19.142  25.539  1.00  0.00    -0.460 OA
BRANCH  26  27
ATOM     27  C   UNL A   1      41.940  19.329  26.488  1.00  0.00     0.338 C 
ATOM     28  O   UNL A   1      42.643  18.476  27.020  1.00  0.00    -0.246 OA
BRANCH  27  29
ATOM     29  C   UNL A   1      42.100  20.778  26.689  1.00  0.00     0.060 A 
ATOM     30  C   UNL A   1      42.134  21.624  25.573  1.00  0.00     0.016 A 
ATOM     31  C   UNL A   1      42.206  21.302  27.980  1.00  0.00     0.016 A 
ATOM     32  C   UNL A   1      42.270  23.003  25.747  1.00  0.00     0.010 A 
ATOM     33  C   UNL A   1      42.362  22.680  28.151  1.00  0.00     0.010 A 
ATOM     34  C   UNL A   1      42.405  23.537  27.036  1.00  0.00    -0.014 A 
BRANCH  34  35
ATOM     35  C   UNL A   1      42.697  24.978  27.226  1.00  0.00     0.031 A 
ATOM     36  C   UNL A   1      44.044  25.510  26.830  1.00  0.00     0.074 A 
ATOM     37  C   UNL A   1      41.778  25.800  27.762  1.00  0.00     0.049 A 
ATOM     38  N   UNL A   1      44.542  26.710  26.986  1.00  0.00    -0.248 NA
ATOM     39  C   UNL A   1      44.952  24.560  26.171  1.00  0.00     0.031 C 
ATOM     40  C   UNL A   1      40.423  25.414  28.152  1.00  0.00     0.029 A 
ATOM     41  N   UNL A   1      41.857  27.131  28.087  1.00  0.00    -0.354 N 
ATOM     42  C   UNL A   1      45.821  26.658  26.451  1.00  0.00     0.074 A 
ATOM     43  C   UNL A   1      46.033  25.302  25.991  1.00  0.00     0.031 C 
ATOM     44  C   UNL A   1      39.802  26.483  28.679  1.00  0.00     0.029 A 
ATOM     45  C   UNL A   1      40.728  27.613  28.701  1.00  0.00     0.049 A 
ATOM     46  H   UNL A   1      42.647  27.688  27.897  1.00  0.00     0.167 HD
ATOM     47  C   UNL A   1      46.736  27.653  26.350  1.00  0.00     0.037 A 
ATOM     48  C   UNL A   1      40.483  28.820  29.249  1.00  0.00     0.037 A 
ATOM     49  C   UNL A   1      46.527  28.997  26.822  1.00  0.00     0.049 A 
ATOM     50  C   UNL A   1      41.552  29.881  29.217  1.00  0.00     0.074 A 
ATOM     51  C   UNL A   1      47.382  30.082  26.740  1.00  0.00     0.029 A 
ATOM     52  N   UNL A   1      45.389  29.434  27.483  1.00  0.00    -0.354 N 
ATOM     53  N   UNL A   1      42.746  29.836  28.677  1.00  0.00    -0.248 NA
ATOM     54  C   UNL A   1      41.241  31.157  29.878  1.00  0.00     0.031 C 
ATOM     55  C   UNL A   1      46.786  31.159  27.403  1.00  0.00     0.029 A 
ATOM     56  C   UNL A   1      45.536  30.761  27.851  1.00  0.00     0.049 A 
ATOM     57  H   UNL A   1      44.594  28.882  27.665  1.00  0.00     0.167 HD
ATOM     58  C   UNL A   1      43.320  31.079  28.916  1.00  0.00     0.074 A 
ATOM     59  C   UNL A   1      42.337  31.862  29.634  1.00  0.00     0.031 C 
ATOM     60  C   UNL A   1      44.553  31.531  28.572  1.00  0.00     0.037 A 
BRANCH  47  61
ATOM     61  C   UNL A   1      48.059  27.310  25.732  1.00  0.00     0.057 A 
ATOM     62  C   UNL A   1      48.286  27.419  24.354  1.00  0.00     0.134 A 
ATOM     63  C   UNL A   1      49.129  26.882  26.529  1.00  0.00     0.134 A 
ATOM     64  F   UNL A   1      47.301  27.809  23.531  1.00  0.00    -0.206 F 
ATOM     65  C   UNL A   1      49.520  27.090  23.788  1.00  0.00     0.040 A 
ATOM     66  C   UNL A   1      50.374  26.577  25.979  1.00  0.00     0.040 A 
ATOM     67  F   UNL A   1      48.982  26.761  27.858  1.00  0.00    -0.206 F 
ATOM     68  C   UNL A   1      50.570  26.673  24.603  1.00  0.00     0.006 A 
ENDBRANCH  47  61
BRANCH  48  69
ATOM     69  C   UNL A   1      39.176  29.087  29.902  1.00  0.00     0.057 A 
ATOM     70  C   UNL A   1      38.962  28.779  31.250  1.00  0.00     0.134 A 
ATOM     71  C   UNL A   1      38.105  29.644  29.190  1.00  0.00     0.134 A 
ATOM     72  F   UNL A   1      39.941  28.219  31.977  1.00  0.00    -0.206 F 
ATOM     73  C   UNL A   1      37.730  29.005  31.866  1.00  0.00     0.040 A 
ATOM     74  C   UNL A   1      36.876  29.898  29.800  1.00  0.00     0.040 A 
ATOM     75  F   UNL A   1      38.243  29.956  27.893  1.00  0.00    -0.206 F 
ATOM     76  C   UNL A   1      36.684  29.573  31.140  1.00  0.00     0.006 A 
ENDBRANCH  48  69
BRANCH  60  77
ATOM     77  C   UNL A   1      44.904  32.940  28.952  1.00  0.00     0.057 A 
ATOM     78  C   UNL A   1      44.586  34.028  28.129  1.00  0.00     0.134 A 
ATOM     79  C   UNL A   1      45.525  33.218  30.178  1.00  0.00     0.134 A 
ATOM     80  F   UNL A   1      44.003  33.831  26.936  1.00  0.00    -0.206 F 
ATOM     81  C   UNL A   1      44.888  35.339  28.503  1.00  0.00     0.040 A 
ATOM     82  C   UNL A   1      45.807  34.526  30.574  1.00  0.00     0.040 A 
ATOM     83  F   UNL A   1      45.850  32.224  31.017  1.00  0.00    -0.206 F 
ATOM     84  C   UNL A   1      45.492  35.592  29.732  1.00  0.00     0.006 A 
ENDBRANCH  60  77
ENDBRANCH  34  35
ENDBRANCH  27  29
ENDBRANCH  26  27
ENDBRANCH  25  26
ENDBRANCH  24  25
ENDBRANCH  23  24
ENDBRANCH  22  23
ENDBRANCH   1  22
TORSDOF 21
ENDMDL
MODEL 2
REMARK VINA RESULT:      -9.9      1.260      2.223
REMARK SMILES COc1cc(/C=C/C(=O)OCCOCCOCCOC(=O)c2ccc(-c3c4nc(c(-c5c(F)cccc5F)c5ccc([nH]5)c(-c5c(F)cccc5F)c5nc(c(-c6c(F)cccc6F)c6ccc3[nH]6)C=C5)C=C4)cc2)cc(OC)c1O
REMARK SMILES IDX 14 1 13 2 12 3 11 4 10 5 8 6 9 7 7 8 6 9 5 10 3 11 4 12
REMARK SMILES IDX 80 13 77 14 76 15 2 16 1 17 81 18 78 20 79 21 15 22 16 23
REMARK SMILES IDX 17 24 18 25 19 26 20 27 21 28 22 29 23 30 75 31 24 32 74 33
REMARK SMILES IDX 25 34 26 35 27 36 68 37 28 38 73 39 67 40 69 41 29 42 72 43
REMARK SMILES IDX 66 44 65 45 30 47 56 48 39 49 55 50 40 51 43 52 54 53 70 54
REMARK SMILES IDX 41 55 42 56 53 58 71 59 44 60 31 61 32 62 37 63 33 64 34 65
REMARK SMILES IDX 36 66 38 67 35 68 57 69 58 70 63 71 59 72 60 73 62 74 64 75
REMARK SMILES IDX 61 76 45 77 46 78 51 79 47 80 48 81 50 82 52 83 49 84
REMARK H PARENT 81 19 69 46 43 57
REMARK Flexibility Score: inf
ROOT
ATOM      1  C   UNL A   1      36.556  22.757  25.570  1.00  0.00     0.188 C 
ENDROOT
BRANCH   1   2
ATOM      2  O   UNL A   1      35.459  23.081  26.417  1.00  0.00    -0.376 OA
BRANCH   2   3
ATOM      3  C   UNL A   1      34.278  22.290  26.377  1.00  0.00     0.202 C 
BRANCH   3   4
ATOM      4  C   UNL A   1      32.963  22.832  26.963  1.00  0.00     0.261 C 
BRANCH   4   5
ATOM      5  O   UNL A   1      31.819  22.764  26.093  1.00  0.00    -0.460 OA
BRANCH   5   6
ATOM      6  C   UNL A   1      30.876  23.714  26.303  1.00  0.00     0.330 C 
ATOM      7  O   UNL A   1      30.018  23.703  27.174  1.00  0.00    -0.247 OA
BRANCH   6   8
ATOM      8  C   UNL A   1      31.035  24.893  25.422  1.00  0.00     0.094 C 
ATOM      9  C   UNL A   1      30.087  25.783  25.086  1.00  0.00     0.016 C 
BRANCH   9  10
ATOM     10  C   UNL A   1      30.355  26.941  24.211  1.00  0.00    -0.018 A 
ATOM     11  C   UNL A   1      31.862  28.582  23.206  1.00  0.00     0.165 A 
ATOM     12  C   UNL A   1      31.641  27.473  24.034  1.00  0.00     0.058 A 
ATOM     13  C   UNL A   1      30.788  29.148  22.503  1.00  0.00     0.200 A 
ATOM     14  C   UNL A   1      29.496  28.629  22.657  1.00  0.00     0.165 A 
ATOM     15  C   UNL A   1      29.300  27.519  23.497  1.00  0.00     0.058 A 
BRANCH  11  16
ATOM     16  O   UNL A   1      33.178  28.956  23.104  1.00  0.00    -0.493 OA
ATOM     17  C   UNL A   1      34.034  28.114  22.334  1.00  0.00     0.278 C 
ENDBRANCH  11  16
BRANCH  13  18
ATOM     18  O   UNL A   1      31.020  30.150  21.600  1.00  0.00    -0.502 OA
ATOM     19  H   UNL A   1      31.779  30.118  21.050  1.00  0.00     0.293 HD
ENDBRANCH  13  18
BRANCH  14  20
ATOM     20  O   UNL A   1      28.343  29.030  22.035  1.00  0.00    -0.493 OA
ATOM     21  C   UNL A   1      27.611  30.108  22.601  1.00  0.00     0.278 C 
ENDBRANCH  14  20
ENDBRANCH   9  10
ENDBRANCH   6   8
ENDBRANCH   5   6
ENDBRANCH   4   5
ENDBRANCH   3   4
ENDBRANCH   2   3
ENDBRANCH   1   2
BRANCH   1  22
ATOM     22  C   UNL A   1      36.501  21.498  24.678  1.00  0.00     0.188 C 
BRANCH  22  23
ATOM     23  O   UNL A   1      36.929  20.319  25.316  1.00  0.00    -0.376 OA
BRANCH  23  24
ATOM     24  C   UNL A   1      38.156  19.721  24.937  1.00  0.00     0.202 C 
BRANCH  24  25
ATOM     25  C   UNL A   1      39.508  19.999  25.627  1.00  0.00     0.261 C 
BRANCH  25  26
ATOM     26  O   UNL A   1      40.335  18.882  25.968  1.00  0.00    -0.460 OA
BRANCH  26  27
ATOM     27  C   UNL A   1      41.668  19.089  25.999  1.00  0.00     0.338 C 
ATOM     28  O   UNL A   1      42.552  18.308  25.666  1.00  0.00    -0.246 OA
BRANCH  27  29
ATOM     29  C   UNL A   1      41.901  20.495  26.368  1.00  0.00     0.060 A 
ATOM     30  C   UNL A   1      42.280  21.409  25.376  1.00  0.00     0.016 A 
ATOM     31  C   UNL A   1      41.734  20.913  27.690  1.00  0.00     0.016 A 
ATOM     32  C   UNL A   1      42.488  22.750  25.706  1.00  0.00     0.010 A 
ATOM     33  C   UNL A   1      41.963  22.251  28.022  1.00  0.00     0.010 A 
ATOM     34  C   UNL A   1      42.352  23.174  27.034  1.00  0.00    -0.014 A 
BRANCH  34  35
ATOM     35  C   UNL A   1      42.713  24.558  27.423  1.00  0.00     0.031 A 
ATOM     36  C   UNL A   1      44.163  24.939  27.508  1.00  0.00     0.074 A 
ATOM     37  C   UNL A   1      41.760  25.461  27.714  1.00  0.00     0.049 A 
ATOM     38  N   UNL A   1      44.705  26.061  27.908  1.00  0.00    -0.248 NA
ATOM     39  C   UNL A   1      45.131  23.916  27.086  1.00  0.00     0.031 C 
ATOM     40  C   UNL A   1      40.320  25.226  27.632  1.00  0.00     0.029 A 
ATOM     41  N   UNL A   1      41.867  26.756  28.155  1.00  0.00    -0.354 N 
ATOM     42  C   UNL A   1      46.076  25.877  27.793  1.00  0.00     0.074 A 
ATOM     43  C   UNL A   1      46.283  24.529  27.311  1.00  0.00     0.031 C 
ATOM     44  C   UNL A   1      39.676  26.338  28.027  1.00  0.00     0.029 A 
ATOM     45  C   UNL A   1      40.656  27.345  28.427  1.00  0.00     0.049 A 
ATOM     46  H   UNL A   1      42.729  27.220  28.265  1.00  0.00     0.167 HD
ATOM     47  C   UNL A   1      47.071  26.756  28.062  1.00  0.00     0.037 A 
ATOM     48  C   UNL A   1      40.375  28.546  28.969  1.00  0.00     0.037 A 
ATOM     49  C   UNL A   1      46.862  28.093  28.554  1.00  0.00     0.049 A 
ATOM     50  C   UNL A   1      41.501  29.468  29.356  1.00  0.00     0.074 A 
ATOM     51  C   UNL A   1      47.804  29.068  28.829  1.00  0.00     0.029 A 
ATOM     52  N   UNL A   1      45.624  28.636  28.864  1.00  0.00    -0.354 N 
ATOM     53  N   UNL A   1      42.794  29.302  29.210  1.00  0.00    -0.248 NA
ATOM     54  C   UNL A   1      41.128  30.741  29.991  1.00  0.00     0.031 C 
ATOM     55  C   UNL A   1      47.141  30.179  29.362  1.00  0.00     0.029 A 
ATOM     56  C   UNL A   1      45.781  29.917  29.366  1.00  0.00     0.049 A 
ATOM     57  H   UNL A   1      44.760  28.177  28.745  1.00  0.00     0.167 HD
ATOM     58  C   UNL A   1      43.386  30.454  29.716  1.00  0.00     0.074 A 
ATOM     59  C   UNL A   1      42.311  31.318  30.156  1.00  0.00     0.031 C 
ATOM     60  C   UNL A   1      44.703  30.767  29.808  1.00  0.00     0.037 A 
BRANCH  47  61
ATOM     61  C   UNL A   1      48.480  26.283  27.857  1.00  0.00     0.057 A 
ATOM     62  C   UNL A   1      49.147  26.441  26.635  1.00  0.00     0.134 A 
ATOM     63  C   UNL A   1      49.187  25.677  28.904  1.00  0.00     0.134 A 
ATOM     64  F   UNL A   1      48.524  27.001  25.587  1.00  0.00    -0.206 F 
ATOM     65  C   UNL A   1      50.456  25.990  26.454  1.00  0.00     0.040 A 
ATOM     66  C   UNL A   1      50.505  25.247  28.743  1.00  0.00     0.040 A 
ATOM     67  F   UNL A   1      48.610  25.500  30.102  1.00  0.00    -0.206 F 
ATOM     68  C   UNL A   1      51.141  25.396  27.513  1.00  0.00     0.006 A 
ENDBRANCH  47  61
BRANCH  48  69
ATOM     69  C   UNL A   1      38.963  28.941  29.205  1.00  0.00     0.057 A 
ATOM     70  C   UNL A   1      38.193  29.519  28.190  1.00  0.00     0.134 A 
ATOM     71  C   UNL A   1      38.354  28.763  30.454  1.00  0.00     0.134 A 
ATOM     72  F   UNL A   1      38.728  29.740  26.980  1.00  0.00    -0.206 F 
ATOM     73  C   UNL A   1      36.872  29.914  28.408  1.00  0.00     0.040 A 
ATOM     74  C   UNL A   1      37.027  29.131  30.680  1.00  0.00     0.040 A 
ATOM     75  F   UNL A   1      39.040  28.221  31.471  1.00  0.00    -0.206 F 
ATOM     76  C   UNL A   1      36.284  29.714  29.656  1.00  0.00     0.006 A 
ENDBRANCH  48  69
BRANCH  60  77
ATOM     77  C   UNL A   1      45.057  32.104  30.393  1.00  0.00     0.057 A 
ATOM     78  C   UNL A   1      45.214  33.242  29.591  1.00  0.00     0.134 A 
ATOM     79  C   UNL A   1      45.197  32.266  31.778  1.00  0.00     0.134 A 
ATOM     80  F   UNL A   1      45.106  33.153  28.256  1.00  0.00    -0.206 F 
ATOM     81  C   UNL A   1      45.512  34.489  30.143  1.00  0.00     0.040 A 
ATOM     82  C   UNL A   1      45.468  33.512  32.344  1.00  0.00     0.040 A 
ATOM     83  F   UNL A   1      45.052  31.220  32.604  1.00  0.00    -0.206 F 
ATOM     84  C   UNL A   1      45.632  34.628  31.525  1.00  0.00     0.006 A 
ENDBRANCH  60  77
ENDBRANCH  34  35
ENDBRANCH  27  29
ENDBRANCH  26  27
ENDBRANCH  25  26
ENDBRANCH  24  25
ENDBRANCH  23  24
ENDBRANCH  22  23
ENDBRANCH   1  22
TORSDOF 21
ENDMDL
MODEL 3
REMARK VINA RESULT:      -9.7      1.084      6.293
REMARK SMILES COc1cc(/C=C/C(=O)OCCOCCOCCOC(=O)c2ccc(-c3c4nc(c(-c5c(F)cccc5F)c5ccc([nH]5)c(-c5c(F)cccc5F)c5nc(c(-c6c(F)cccc6F)c6ccc3[nH]6)C=C5)C=C4)cc2)cc(OC)c1O
REMARK SMILES IDX 14 1 13 2 12 3 11 4 10 5 8 6 9 7 7 8 6 9 5 10 3 11 4 12
REMARK SMILES IDX 80 13 77 14 76 15 2 16 1 17 81 18 78 20 79 21 15 22 16 23
REMARK SMILES IDX 17 24 18 25 19 26 20 27 21 28 22 29 23 30 75 31 24 32 74 33
REMARK SMILES IDX 25 34 26 35 27 36 68 37 28 38 73 39 67 40 69 41 29 42 72 43
REMARK SMILES IDX 66 44 65 45 30 47 56 48 39 49 55 50 40 51 43 52 54 53 70 54
REMARK SMILES IDX 41 55 42 56 53 58 71 59 44 60 31 61 32 62 37 63 33 64 34 65
REMARK SMILES IDX 36 66 38 67 35 68 57 69 58 70 63 71 59 72 60 73 62 74 64 75
REMARK SMILES IDX 61 76 45 77 46 78 51 79 47 80 48 81 50 82 52 83 49 84
REMARK H PARENT 81 19 69 46 43 57
REMARK Flexibility Score: inf
ROOT
ATOM      1  C   UNL A   1      36.263  22.625  25.662  1.00  0.00     0.188 C 
ENDROOT
BRANCH   1   2
ATOM      2  O   UNL A   1      34.960  23.129  25.395  1.00  0.00    -0.376 OA
BRANCH   2   3
ATOM      3  C   UNL A   1      33.856  22.235  25.329  1.00  0.00     0.202 C 
BRANCH   3   4
ATOM      4  C   UNL A   1      32.639  22.436  26.249  1.00  0.00     0.261 C 
BRANCH   4   5
ATOM      5  O   UNL A   1      31.406  22.766  25.587  1.00  0.00    -0.460 OA
BRANCH   5   6
ATOM      6  C   UNL A   1      30.662  23.723  26.192  1.00  0.00     0.330 C 
ATOM      7  O   UNL A   1      30.066  23.614  27.254  1.00  0.00    -0.247 OA
BRANCH   6   8
ATOM      8  C   UNL A   1      30.717  25.027  25.494  1.00  0.00     0.094 C 
ATOM      9  C   UNL A   1      30.300  25.292  24.246  1.00  0.00     0.016 C 
BRANCH   9  10
ATOM     10  C   UNL A   1      30.382  26.639  23.647  1.00  0.00    -0.018 A 
ATOM     11  C   UNL A   1      31.647  28.527  22.749  1.00  0.00     0.165 A 
ATOM     12  C   UNL A   1      31.601  27.241  23.305  1.00  0.00     0.058 A 
ATOM     13  C   UNL A   1      30.451  29.213  22.486  1.00  0.00     0.200 A 
ATOM     14  C   UNL A   1      29.221  28.628  22.812  1.00  0.00     0.165 A 
ATOM     15  C   UNL A   1      29.202  27.339  23.372  1.00  0.00     0.058 A 
BRANCH  11  16
ATOM     16  O   UNL A   1      32.909  28.959  22.430  1.00  0.00    -0.493 OA
ATOM     17  C   UNL A   1      34.003  28.261  23.022  1.00  0.00     0.278 C 
ENDBRANCH  11  16
BRANCH  13  18
ATOM     18  O   UNL A   1      30.487  30.413  21.831  1.00  0.00    -0.502 OA
ATOM     19  H   UNL A   1      30.770  31.185  22.281  1.00  0.00     0.293 HD
ENDBRANCH  13  18
BRANCH  14  20
ATOM     20  O   UNL A   1      27.963  29.130  22.603  1.00  0.00    -0.493 OA
ATOM     21  C   UNL A   1      27.655  30.415  23.126  1.00  0.00     0.278 C 
ENDBRANCH  14  20
ENDBRANCH   9  10
ENDBRANCH   6   8
ENDBRANCH   5   6
ENDBRANCH   4   5
ENDBRANCH   3   4
ENDBRANCH   2   3
ENDBRANCH   1   2
BRANCH   1  22
ATOM     22  C   UNL A   1      36.959  21.696  24.644  1.00  0.00     0.188 C 
BRANCH  22  23
ATOM     23  O   UNL A   1      36.876  20.327  24.960  1.00  0.00    -0.376 OA
BRANCH  23  24
ATOM     24  C   UNL A   1      38.057  19.547  25.014  1.00  0.00     0.202 C 
BRANCH  24  25
ATOM     25  C   UNL A   1      39.394  20.035  25.607  1.00  0.00     0.261 C 
BRANCH  25  26
ATOM     26  O   UNL A   1      40.265  19.067  26.201  1.00  0.00    -0.460 OA
BRANCH  26  27
ATOM     27  C   UNL A   1      41.588  19.203  25.969  1.00  0.00     0.338 C 
ATOM     28  O   UNL A   1      42.333  18.403  25.414  1.00  0.00    -0.246 OA
BRANCH  27  29
ATOM     29  C   UNL A   1      41.980  20.565  26.365  1.00  0.00     0.060 A 
ATOM     30  C   UNL A   1      42.300  21.501  25.373  1.00  0.00     0.016 A 
ATOM     31  C   UNL A   1      42.023  20.920  27.716  1.00  0.00     0.016 A 
ATOM     32  C   UNL A   1      42.659  22.802  25.732  1.00  0.00     0.010 A 
ATOM     33  C   UNL A   1      42.403  22.216  28.073  1.00  0.00     0.010 A 
ATOM     34  C   UNL A   1      42.733  23.161  27.085  1.00  0.00    -0.014 A 
BRANCH  34  35
ATOM     35  C   UNL A   1      43.254  24.490  27.483  1.00  0.00     0.031 A 
ATOM     36  C   UNL A   1      42.289  25.550  27.928  1.00  0.00     0.074 A 
ATOM     37  C   UNL A   1      44.571  24.756  27.432  1.00  0.00     0.049 A 
ATOM     38  N   UNL A   1      42.513  26.802  28.237  1.00  0.00    -0.248 NA
ATOM     39  C   UNL A   1      40.880  25.144  28.039  1.00  0.00     0.031 C 
ATOM     40  C   UNL A   1      45.612  23.802  27.054  1.00  0.00     0.029 A 
ATOM     41  N   UNL A   1      45.254  25.919  27.684  1.00  0.00    -0.354 N 
ATOM     42  C   UNL A   1      41.276  27.334  28.571  1.00  0.00     0.074 A 
ATOM     43  C   UNL A   1      40.301  26.278  28.403  1.00  0.00     0.031 C 
ATOM     44  C   UNL A   1      46.803  24.424  27.083  1.00  0.00     0.029 A 
ATOM     45  C   UNL A   1      46.603  25.827  27.442  1.00  0.00     0.049 A 
ATOM     46  H   UNL A   1      44.820  26.741  28.008  1.00  0.00     0.167 HD
ATOM     47  C   UNL A   1      40.980  28.590  28.985  1.00  0.00     0.037 A 
ATOM     48  C   UNL A   1      47.560  26.775  27.472  1.00  0.00     0.037 A 
ATOM     49  C   UNL A   1      41.950  29.642  29.139  1.00  0.00     0.049 A 
ATOM     50  C   UNL A   1      47.191  28.190  27.837  1.00  0.00     0.074 A 
ATOM     51  C   UNL A   1      41.753  30.939  29.579  1.00  0.00     0.029 A 
ATOM     52  N   UNL A   1      43.299  29.524  28.836  1.00  0.00    -0.354 N 
ATOM     53  N   UNL A   1      46.025  28.678  28.187  1.00  0.00    -0.248 NA
ATOM     54  C   UNL A   1      48.271  29.187  27.800  1.00  0.00     0.031 C 
ATOM     55  C   UNL A   1      42.970  31.622  29.487  1.00  0.00     0.029 A 
ATOM     56  C   UNL A   1      43.938  30.736  29.041  1.00  0.00     0.049 A 
ATOM     57  H   UNL A   1      43.737  28.700  28.522  1.00  0.00     0.167 HD
ATOM     58  C   UNL A   1      46.235  30.030  28.431  1.00  0.00     0.074 A 
ATOM     59  C   UNL A   1      47.642  30.282  28.206  1.00  0.00     0.031 C 
ATOM     60  C   UNL A   1      45.340  30.978  28.807  1.00  0.00     0.037 A 
BRANCH  47  61
ATOM     61  C   UNL A   1      39.540  28.899  29.270  1.00  0.00     0.057 A 
ATOM     62  C   UNL A   1      38.674  29.384  28.282  1.00  0.00     0.134 A 
ATOM     63  C   UNL A   1      39.007  28.690  30.549  1.00  0.00     0.134 A 
ATOM     64  F   UNL A   1      39.123  29.620  27.040  1.00  0.00    -0.206 F 
ATOM     65  C   UNL A   1      37.337  29.676  28.561  1.00  0.00     0.040 A 
ATOM     66  C   UNL A   1      37.666  28.952  30.834  1.00  0.00     0.040 A 
ATOM     67  F   UNL A   1      39.779  28.222  31.542  1.00  0.00    -0.206 F 
ATOM     68  C   UNL A   1      36.828  29.454  29.840  1.00  0.00     0.006 A 
ENDBRANCH  47  61
BRANCH  48  69
ATOM     69  C   UNL A   1      48.960  26.428  27.124  1.00  0.00     0.057 A 
ATOM     70  C   UNL A   1      49.888  26.077  28.112  1.00  0.00     0.134 A 
ATOM     71  C   UNL A   1      49.410  26.450  25.797  1.00  0.00     0.134 A 
ATOM     72  F   UNL A   1      49.524  26.064  29.403  1.00  0.00    -0.206 F 
ATOM     73  C   UNL A   1      51.213  25.771  27.797  1.00  0.00     0.040 A 
ATOM     74  C   UNL A   1      50.725  26.123  25.465  1.00  0.00     0.040 A 
ATOM     75  F   UNL A   1      48.573  26.784  24.804  1.00  0.00    -0.206 F 
ATOM     76  C   UNL A   1      51.632  25.788  26.468  1.00  0.00     0.006 A 
ENDBRANCH  48  69
BRANCH  60  77
ATOM     77  C   UNL A   1      45.856  32.373  29.015  1.00  0.00     0.057 A 
ATOM     78  C   UNL A   1      45.837  33.327  27.989  1.00  0.00     0.134 A 
ATOM     79  C   UNL A   1      46.333  32.781  30.268  1.00  0.00     0.134 A 
ATOM     80  F   UNL A   1      45.404  32.997  26.762  1.00  0.00    -0.206 F 
ATOM     81  C   UNL A   1      46.289  34.631  28.197  1.00  0.00     0.040 A 
ATOM     82  C   UNL A   1      46.762  34.089  30.495  1.00  0.00     0.040 A 
ATOM     83  F   UNL A   1      46.372  31.921  31.296  1.00  0.00    -0.206 F 
ATOM     84  C   UNL A   1      46.746  35.018  29.455  1.00  0.00     0.006 A 
ENDBRANCH  60  77
ENDBRANCH  34  35
ENDBRANCH  27  29
ENDBRANCH  26  27
ENDBRANCH  25  26
ENDBRANCH  24  25
ENDBRANCH  23  24
ENDBRANCH  22  23
ENDBRANCH   1  22
TORSDOF 21
ENDMDL
