MODEL 1
REMARK VINA RESULT:     -11.9      0.000      0.000
REMARK SMILES O=C(OCCOCCOCCOC(=O)[C@@H]1CC=CC[C@H]1C(=O)N1CC[NH+](Cc2ccc3c(c2)OCO3)CC1)c1ccc(-c2c3nc(c(-c4c(F)cccc4F)c4ccc([nH]4)c(-c4c(F)cccc4F)c4nc(c(-c5c(F)cccc5F)c5ccc2[nH]5)C=C4)C=C3)cc1
REMARK SMILES IDX 8 1 7 2 6 3 5 4 4 5 3 6 2 7 1 8 39 9 40 10 92 11 41 12 91 13
REMARK SMILES IDX 42 14 43 15 44 16 85 17 45 18 90 19 84 20 86 21 46 22 89 23
REMARK SMILES IDX 83 24 82 25 47 27 73 28 56 29 72 30 57 31 60 32 71 33 87 34
REMARK SMILES IDX 58 35 59 36 70 38 88 39 61 40 48 41 49 42 54 43 50 44 51 45
REMARK SMILES IDX 53 46 55 47 52 48 74 49 75 50 80 51 76 52 77 53 79 54 81 55
REMARK SMILES IDX 78 56 62 57 63 58 68 59 64 60 65 61 67 62 69 63 66 64 9 65
REMARK SMILES IDX 10 66 11 67 12 68 13 69 14 70 15 71 16 72 20 73 17 74 19 75
REMARK SMILES IDX 18 76 21 77 22 78 23 79 24 80 38 81 25 82 37 83 26 84 27 86
REMARK SMILES IDX 28 87 29 88 33 89 30 90 32 91 31 92 34 93 36 94 35 95
REMARK H PARENT 86 26 60 37 26 85
REMARK Flexibility Score: inf
ROOT
ATOM      1  C   UNL A   1      40.098  22.078  26.492  1.00  0.00     0.188 C 
ENDROOT
BRANCH   1   2
ATOM      2  C   UNL A   1      41.547  21.741  26.135  1.00  0.00     0.188 C 
BRANCH   2   3
ATOM      3  O   UNL A   1      42.209  20.968  27.140  1.00  0.00    -0.376 OA
BRANCH   3   4
ATOM      4  C   UNL A   1      42.037  19.561  27.001  1.00  0.00     0.202 C 
BRANCH   4   5
ATOM      5  C   UNL A   1      42.638  18.936  25.747  1.00  0.00     0.261 C 
BRANCH   5   6
ATOM      6  O   UNL A   1      44.051  18.748  25.732  1.00  0.00    -0.460 OA
BRANCH   6   7
ATOM      7  C   UNL A   1      44.937  19.400  24.950  1.00  0.00     0.338 C 
ATOM      8  O   UNL A   1      45.619  18.725  24.175  1.00  0.00    -0.246 OA
BRANCH   7   9
ATOM      9  C   UNL A   1      44.914  20.900  24.825  1.00  0.00     0.060 A 
ATOM     10  C   UNL A   1      44.619  21.749  23.759  1.00  0.00     0.016 A 
ATOM     11  C   UNL A   1      45.310  21.522  25.994  1.00  0.00     0.016 A 
ATOM     12  C   UNL A   1      44.755  23.164  23.884  1.00  0.00     0.010 A 
ATOM     13  C   UNL A   1      45.530  22.887  26.103  1.00  0.00     0.010 A 
ATOM     14  C   UNL A   1      45.241  23.742  25.059  1.00  0.00    -0.014 A 
BRANCH  14  15
ATOM     15  C   UNL A   1      45.363  25.186  25.405  1.00  0.00     0.031 A 
ATOM     16  C   UNL A   1      46.717  25.811  25.596  1.00  0.00     0.074 A 
ATOM     17  C   UNL A   1      44.293  25.799  25.931  1.00  0.00     0.049 A 
ATOM     18  N   UNL A   1      47.144  26.743  26.413  1.00  0.00    -0.248 NA
ATOM     19  C   UNL A   1      47.770  25.200  24.795  1.00  0.00     0.031 C 
ATOM     20  C   UNL A   1      42.939  25.259  25.972  1.00  0.00     0.029 A 
ATOM     21  N   UNL A   1      44.214  26.971  26.623  1.00  0.00    -0.354 N 
ATOM     22  C   UNL A   1      48.530  26.758  26.257  1.00  0.00     0.074 A 
ATOM     23  C   UNL A   1      48.850  25.625  25.436  1.00  0.00     0.031 C 
ATOM     24  C   UNL A   1      42.174  26.052  26.738  1.00  0.00     0.029 A 
ATOM     25  C   UNL A   1      42.982  27.181  27.182  1.00  0.00     0.049 A 
ATOM     26  H   UNL A   1      44.965  27.602  26.711  1.00  0.00     0.167 HD
ATOM     27  C   UNL A   1      49.446  27.714  26.564  1.00  0.00     0.037 A 
ATOM     28  C   UNL A   1      42.562  28.208  27.936  1.00  0.00     0.037 A 
ATOM     29  C   UNL A   1      49.027  29.022  26.977  1.00  0.00     0.049 A 
ATOM     30  C   UNL A   1      43.493  29.378  28.053  1.00  0.00     0.074 A 
ATOM     31  C   UNL A   1      49.738  30.206  26.969  1.00  0.00     0.029 A 
ATOM     32  N   UNL A   1      47.721  29.329  27.327  1.00  0.00    -0.354 N 
ATOM     33  N   UNL A   1      44.787  29.430  27.830  1.00  0.00    -0.248 NA
ATOM     34  C   UNL A   1      42.883  30.667  28.387  1.00  0.00     0.031 C 
ATOM     35  C   UNL A   1      48.836  31.243  27.231  1.00  0.00     0.029 A 
ATOM     36  C   UNL A   1      47.578  30.696  27.441  1.00  0.00     0.049 A 
ATOM     37  H   UNL A   1      47.003  28.671  27.473  1.00  0.00     0.167 HD
ATOM     38  C   UNL A   1      45.130  30.771  27.907  1.00  0.00     0.074 A 
ATOM     39  C   UNL A   1      43.909  31.489  28.216  1.00  0.00     0.031 C 
ATOM     40  C   UNL A   1      46.336  31.364  27.720  1.00  0.00     0.037 A 
BRANCH  27  41
ATOM     41  C   UNL A   1      50.902  27.492  26.195  1.00  0.00     0.057 A 
ATOM     42  C   UNL A   1      51.825  26.983  27.126  1.00  0.00     0.134 A 
ATOM     43  C   UNL A   1      51.401  27.760  24.912  1.00  0.00     0.134 A 
ATOM     44  F   UNL A   1      51.425  26.634  28.359  1.00  0.00    -0.206 F 
ATOM     45  C   UNL A   1      53.190  26.881  26.850  1.00  0.00     0.040 A 
ATOM     46  C   UNL A   1      52.760  27.596  24.601  1.00  0.00     0.040 A 
ATOM     47  F   UNL A   1      50.586  28.181  23.933  1.00  0.00    -0.206 F 
ATOM     48  C   UNL A   1      53.662  27.189  25.581  1.00  0.00     0.006 A 
ENDBRANCH  27  41
BRANCH  28  49
ATOM     49  C   UNL A   1      41.153  28.245  28.375  1.00  0.00     0.057 A 
ATOM     50  C   UNL A   1      40.810  27.901  29.687  1.00  0.00     0.134 A 
ATOM     51  C   UNL A   1      40.134  28.716  27.540  1.00  0.00     0.134 A 
ATOM     52  F   UNL A   1      41.755  27.479  30.541  1.00  0.00    -0.206 F 
ATOM     53  C   UNL A   1      39.497  27.976  30.144  1.00  0.00     0.040 A 
ATOM     54  C   UNL A   1      38.816  28.811  27.989  1.00  0.00     0.040 A 
ATOM     55  F   UNL A   1      40.411  29.117  26.290  1.00  0.00    -0.206 F 
ATOM     56  C   UNL A   1      38.494  28.431  29.292  1.00  0.00     0.006 A 
ENDBRANCH  28  49
BRANCH  40  57
ATOM     57  C   UNL A   1      46.369  32.855  27.807  1.00  0.00     0.057 A 
ATOM     58  C   UNL A   1      45.967  33.646  26.727  1.00  0.00     0.134 A 
ATOM     59  C   UNL A   1      46.766  33.498  28.986  1.00  0.00     0.134 A 
ATOM     60  F   UNL A   1      45.588  33.078  25.572  1.00  0.00    -0.206 F 
ATOM     61  C   UNL A   1      45.987  35.037  26.806  1.00  0.00     0.040 A 
ATOM     62  C   UNL A   1      46.759  34.887  29.086  1.00  0.00     0.040 A 
ATOM     63  F   UNL A   1      47.147  32.787  30.059  1.00  0.00    -0.206 F 
ATOM     64  C   UNL A   1      46.377  35.660  27.991  1.00  0.00     0.006 A 
ENDBRANCH  40  57
ENDBRANCH  14  15
ENDBRANCH   7   9
ENDBRANCH   6   7
ENDBRANCH   5   6
ENDBRANCH   4   5
ENDBRANCH   3   4
ENDBRANCH   2   3
ENDBRANCH   1   2
BRANCH   1  65
ATOM     65  O   UNL A   1      39.061  21.445  25.747  1.00  0.00    -0.376 OA
BRANCH  65  66
ATOM     66  C   UNL A   1      37.768  22.039  25.779  1.00  0.00     0.202 C 
BRANCH  66  67
ATOM     67  C   UNL A   1      37.599  23.504  25.323  1.00  0.00     0.261 C 
BRANCH  67  68
ATOM     68  O   UNL A   1      36.247  23.881  25.026  1.00  0.00    -0.463 OA
BRANCH  68  69
ATOM     69  C   UNL A   1      35.652  23.299  23.954  1.00  0.00     0.310 C 
ATOM     70  O   UNL A   1      36.195  23.125  22.859  1.00  0.00    -0.252 OA
BRANCH  69  71
ATOM     71  C   UNL A   1      34.234  22.837  24.285  1.00  0.00     0.115 C 
ATOM     72  C   UNL A   1      34.306  21.371  24.743  1.00  0.00     0.043 C 
ATOM     73  C   UNL A   1      33.283  23.175  23.117  1.00  0.00     0.097 C 
ATOM     74  C   UNL A   1      33.269  20.450  24.193  1.00  0.00    -0.030 C 
ATOM     75  C   UNL A   1      32.512  22.046  22.436  1.00  0.00     0.041 C 
ATOM     76  C   UNL A   1      32.471  20.749  23.166  1.00  0.00    -0.030 C 
BRANCH  73  77
ATOM     77  C   UNL A   1      32.405  24.359  23.523  1.00  0.00     0.227 C 
ATOM     78  O   UNL A   1      31.261  24.388  23.068  1.00  0.00    -0.275 OA
ATOM     79  N   UNL A   1      32.938  25.423  24.257  1.00  0.00    -0.331 N 
ATOM     80  C   UNL A   1      32.270  25.722  25.543  1.00  0.00     0.181 C 
ATOM     81  C   UNL A   1      33.427  26.557  23.460  1.00  0.00     0.181 C 
ATOM     82  C   UNL A   1      32.078  27.223  25.951  1.00  0.00     0.284 C 
ATOM     83  C   UNL A   1      33.229  27.988  24.035  1.00  0.00     0.284 C 
ATOM     84  N   UNL A   1      31.978  28.112  24.789  1.00  0.00    -0.328 N 
ATOM     85  H   UNL A   1      31.193  27.787  24.224  1.00  0.00     0.348 HD
BRANCH  84  86
ATOM     86  C   UNL A   1      31.468  29.482  24.991  1.00  0.00     0.299 C 
BRANCH  86  87
ATOM     87  C   UNL A   1      30.303  29.850  24.045  1.00  0.00     0.010 A 
ATOM     88  C   UNL A   1      29.904  28.938  23.043  1.00  0.00     0.013 A 
ATOM     89  C   UNL A   1      29.695  31.134  24.042  1.00  0.00     0.060 A 
ATOM     90  C   UNL A   1      29.006  29.322  22.037  1.00  0.00     0.051 A 
ATOM     91  C   UNL A   1      28.890  31.503  22.961  1.00  0.00     0.166 A 
ATOM     92  C   UNL A   1      28.594  30.622  21.962  1.00  0.00     0.165 A 
ATOM     93  O   UNL A   1      28.399  32.743  22.667  1.00  0.00    -0.454 OA
ATOM     94  O   UNL A   1      27.947  31.180  20.905  1.00  0.00    -0.454 OA
ATOM     95  C   UNL A   1      28.028  32.566  21.279  1.00  0.00     0.468 C 
ENDBRANCH  86  87
ENDBRANCH  84  86
ENDBRANCH  73  77
ENDBRANCH  69  71
ENDBRANCH  68  69
ENDBRANCH  67  68
ENDBRANCH  66  67
ENDBRANCH  65  66
ENDBRANCH   1  65
TORSDOF 20
ENDMDL
MODEL 2
REMARK VINA RESULT:     -11.2      3.370      9.385
REMARK SMILES O=C(OCCOCCOCCOC(=O)[C@@H]1CC=CC[C@H]1C(=O)N1CC[NH+](Cc2ccc3c(c2)OCO3)CC1)c1ccc(-c2c3nc(c(-c4c(F)cccc4F)c4ccc([nH]4)c(-c4c(F)cccc4F)c4nc(c(-c5c(F)cccc5F)c5ccc2[nH]5)C=C4)C=C3)cc1
REMARK SMILES IDX 8 1 7 2 6 3 5 4 4 5 3 6 2 7 1 8 39 9 40 10 92 11 41 12 91 13
REMARK SMILES IDX 42 14 43 15 44 16 85 17 45 18 90 19 84 20 86 21 46 22 89 23
REMARK SMILES IDX 83 24 82 25 47 27 73 28 56 29 72 30 57 31 60 32 71 33 87 34
REMARK SMILES IDX 58 35 59 36 70 38 88 39 61 40 48 41 49 42 54 43 50 44 51 45
REMARK SMILES IDX 53 46 55 47 52 48 74 49 75 50 80 51 76 52 77 53 79 54 81 55
REMARK SMILES IDX 78 56 62 57 63 58 68 59 64 60 65 61 67 62 69 63 66 64 9 65
REMARK SMILES IDX 10 66 11 67 12 68 13 69 14 70 15 71 16 72 20 73 17 74 19 75
REMARK SMILES IDX 18 76 21 77 22 78 23 79 24 80 38 81 25 82 37 83 26 84 27 86
REMARK SMILES IDX 28 87 29 88 33 89 30 90 32 91 31 92 34 93 36 94 35 95
REMARK H PARENT 86 26 60 37 26 85
REMARK Flexibility Score: inf
ROOT
ATOM      1  C   UNL A   1      34.137  29.789  27.264  1.00  0.00     0.188 C 
ENDROOT
BRANCH   1   2
ATOM      2  C   UNL A   1      33.082  30.893  27.357  1.00  0.00     0.188 C 
BRANCH   2   3
ATOM      3  O   UNL A   1      33.625  32.159  27.742  1.00  0.00    -0.376 OA
BRANCH   3   4
ATOM      4  C   UNL A   1      34.702  32.074  28.669  1.00  0.00     0.202 C 
BRANCH   4   5
ATOM      5  C   UNL A   1      34.534  32.864  29.963  1.00  0.00     0.261 C 
BRANCH   5   6
ATOM      6  O   UNL A   1      35.721  33.173  30.690  1.00  0.00    -0.460 OA
BRANCH   6   7
ATOM      7  C   UNL A   1      36.248  32.456  31.703  1.00  0.00     0.338 C 
ATOM      8  O   UNL A   1      35.511  32.184  32.654  1.00  0.00    -0.246 OA
BRANCH   7   9
ATOM      9  C   UNL A   1      37.589  31.783  31.571  1.00  0.00     0.060 A 
ATOM     10  C   UNL A   1      38.507  31.326  32.516  1.00  0.00     0.016 A 
ATOM     11  C   UNL A   1      37.971  31.650  30.250  1.00  0.00     0.016 A 
ATOM     12  C   UNL A   1      39.768  30.788  32.117  1.00  0.00     0.010 A 
ATOM     13  C   UNL A   1      39.226  31.211  29.853  1.00  0.00     0.010 A 
ATOM     14  C   UNL A   1      40.147  30.753  30.773  1.00  0.00    -0.014 A 
BRANCH  14  15
ATOM     15  C   UNL A   1      41.366  30.152  30.165  1.00  0.00     0.031 A 
ATOM     16  C   UNL A   1      42.438  31.030  29.582  1.00  0.00     0.074 A 
ATOM     17  C   UNL A   1      41.311  28.868  29.784  1.00  0.00     0.049 A 
ATOM     18  N   UNL A   1      43.225  30.881  28.544  1.00  0.00    -0.248 NA
ATOM     19  C   UNL A   1      42.557  32.330  30.232  1.00  0.00     0.031 C 
ATOM     20  C   UNL A   1      40.255  27.924  30.128  1.00  0.00     0.029 A 
ATOM     21  N   UNL A   1      42.122  28.176  28.933  1.00  0.00    -0.354 N 
ATOM     22  C   UNL A   1      43.867  32.110  28.394  1.00  0.00     0.074 A 
ATOM     23  C   UNL A   1      43.225  33.009  29.310  1.00  0.00     0.031 C 
ATOM     24  C   UNL A   1      40.426  26.797  29.420  1.00  0.00     0.029 A 
ATOM     25  C   UNL A   1      41.639  26.933  28.624  1.00  0.00     0.049 A 
ATOM     26  H   UNL A   1      42.968  28.535  28.577  1.00  0.00     0.167 HD
ATOM     27  C   UNL A   1      45.011  32.437  27.737  1.00  0.00     0.037 A 
ATOM     28  C   UNL A   1      42.164  26.003  27.812  1.00  0.00     0.037 A 
ATOM     29  C   UNL A   1      45.866  31.416  27.204  1.00  0.00     0.049 A 
ATOM     30  C   UNL A   1      43.548  26.266  27.298  1.00  0.00     0.074 A 
ATOM     31  C   UNL A   1      47.199  31.494  26.854  1.00  0.00     0.029 A 
ATOM     32  N   UNL A   1      45.488  30.086  27.095  1.00  0.00    -0.354 N 
ATOM     33  N   UNL A   1      44.200  27.405  27.225  1.00  0.00    -0.248 NA
ATOM     34  C   UNL A   1      44.325  25.095  26.885  1.00  0.00     0.031 C 
ATOM     35  C   UNL A   1      47.651  30.191  26.617  1.00  0.00     0.029 A 
ATOM     36  C   UNL A   1      46.587  29.314  26.780  1.00  0.00     0.049 A 
ATOM     37  H   UNL A   1      44.574  29.745  27.223  1.00  0.00     0.167 HD
ATOM     38  C   UNL A   1      45.492  27.076  26.845  1.00  0.00     0.074 A 
ATOM     39  C   UNL A   1      45.519  25.634  26.687  1.00  0.00     0.031 C 
ATOM     40  C   UNL A   1      46.568  27.881  26.664  1.00  0.00     0.037 A 
BRANCH  27  41
ATOM     41  C   UNL A   1      45.531  33.862  27.817  1.00  0.00     0.057 A 
ATOM     42  C   UNL A   1      45.187  34.823  26.849  1.00  0.00     0.134 A 
ATOM     43  C   UNL A   1      46.359  34.302  28.859  1.00  0.00     0.134 A 
ATOM     44  F   UNL A   1      44.346  34.513  25.851  1.00  0.00    -0.206 F 
ATOM     45  C   UNL A   1      45.744  36.103  26.833  1.00  0.00     0.040 A 
ATOM     46  C   UNL A   1      46.871  35.608  28.893  1.00  0.00     0.040 A 
ATOM     47  F   UNL A   1      46.685  33.481  29.869  1.00  0.00    -0.206 F 
ATOM     48  C   UNL A   1      46.591  36.501  27.860  1.00  0.00     0.006 A 
ENDBRANCH  27  41
BRANCH  28  49
ATOM     49  C   UNL A   1      41.486  24.698  27.687  1.00  0.00     0.057 A 
ATOM     50  C   UNL A   1      40.505  24.500  26.709  1.00  0.00     0.134 A 
ATOM     51  C   UNL A   1      41.863  23.595  28.461  1.00  0.00     0.134 A 
ATOM     52  F   UNL A   1      40.133  25.515  25.914  1.00  0.00    -0.206 F 
ATOM     53  C   UNL A   1      39.885  23.265  26.533  1.00  0.00     0.040 A 
ATOM     54  C   UNL A   1      41.261  22.348  28.286  1.00  0.00     0.040 A 
ATOM     55  F   UNL A   1      42.839  23.708  29.374  1.00  0.00    -0.206 F 
ATOM     56  C   UNL A   1      40.263  22.184  27.326  1.00  0.00     0.006 A 
ENDBRANCH  28  49
BRANCH  40  57
ATOM     57  C   UNL A   1      47.856  27.211  26.315  1.00  0.00     0.057 A 
ATOM     58  C   UNL A   1      48.256  27.071  24.983  1.00  0.00     0.134 A 
ATOM     59  C   UNL A   1      48.716  26.740  27.315  1.00  0.00     0.134 A 
ATOM     60  F   UNL A   1      47.463  27.497  23.988  1.00  0.00    -0.206 F 
ATOM     61  C   UNL A   1      49.460  26.456  24.652  1.00  0.00     0.040 A 
ATOM     62  C   UNL A   1      49.937  26.151  26.997  1.00  0.00     0.040 A 
ATOM     63  F   UNL A   1      48.390  26.861  28.612  1.00  0.00    -0.206 F 
ATOM     64  C   UNL A   1      50.308  26.000  25.662  1.00  0.00     0.006 A 
ENDBRANCH  40  57
ENDBRANCH  14  15
ENDBRANCH   7   9
ENDBRANCH   6   7
ENDBRANCH   5   6
ENDBRANCH   4   5
ENDBRANCH   3   4
ENDBRANCH   2   3
ENDBRANCH   1   2
BRANCH   1  65
ATOM     65  O   UNL A   1      34.183  29.007  26.074  1.00  0.00    -0.376 OA
BRANCH  65  66
ATOM     66  C   UNL A   1      33.132  29.181  25.128  1.00  0.00     0.202 C 
BRANCH  66  67
ATOM     67  C   UNL A   1      33.472  29.226  23.624  1.00  0.00     0.261 C 
BRANCH  67  68
ATOM     68  O   UNL A   1      32.521  28.558  22.782  1.00  0.00    -0.463 OA
BRANCH  68  69
ATOM     69  C   UNL A   1      32.837  27.315  22.337  1.00  0.00     0.310 C 
ATOM     70  O   UNL A   1      33.807  27.053  21.619  1.00  0.00    -0.252 OA
BRANCH  69  71
ATOM     71  C   UNL A   1      31.868  26.265  22.877  1.00  0.00     0.115 C 
ATOM     72  C   UNL A   1      30.461  26.884  22.903  1.00  0.00     0.043 C 
ATOM     73  C   UNL A   1      32.413  25.674  24.196  1.00  0.00     0.097 C 
ATOM     74  C   UNL A   1      29.645  26.635  24.127  1.00  0.00    -0.030 C 
ATOM     75  C   UNL A   1      31.568  25.783  25.464  1.00  0.00     0.041 C 
ATOM     76  C   UNL A   1      30.138  26.146  25.267  1.00  0.00    -0.030 C 
BRANCH  73  77
ATOM     77  C   UNL A   1      32.933  24.262  23.925  1.00  0.00     0.227 C 
ATOM     78  O   UNL A   1      32.168  23.486  23.353  1.00  0.00    -0.275 OA
ATOM     79  N   UNL A   1      34.166  23.845  24.438  1.00  0.00    -0.331 N 
ATOM     80  C   UNL A   1      35.151  23.363  23.446  1.00  0.00     0.181 C 
ATOM     81  C   UNL A   1      34.108  23.159  25.736  1.00  0.00     0.181 C 
ATOM     82  C   UNL A   1      36.033  22.122  23.815  1.00  0.00     0.284 C 
ATOM     83  C   UNL A   1      35.103  21.989  25.983  1.00  0.00     0.284 C 
ATOM     84  N   UNL A   1      35.367  21.222  24.762  1.00  0.00    -0.328 N 
ATOM     85  H   UNL A   1      34.488  20.927  24.335  1.00  0.00     0.348 HD
BRANCH  84  86
ATOM     86  C   UNL A   1      35.914  19.863  24.948  1.00  0.00     0.299 C 
BRANCH  86  87
ATOM     87  C   UNL A   1      34.863  18.747  24.758  1.00  0.00     0.010 A 
ATOM     88  C   UNL A   1      33.491  19.079  24.726  1.00  0.00     0.013 A 
ATOM     89  C   UNL A   1      35.203  17.367  24.751  1.00  0.00     0.060 A 
ATOM     90  C   UNL A   1      32.507  18.080  24.775  1.00  0.00     0.051 A 
ATOM     91  C   UNL A   1      34.192  16.416  24.906  1.00  0.00     0.166 A 
ATOM     92  C   UNL A   1      32.878  16.779  24.961  1.00  0.00     0.165 A 
ATOM     93  O   UNL A   1      34.329  15.078  25.139  1.00  0.00    -0.454 OA
ATOM     94  O   UNL A   1      32.035  15.762  25.284  1.00  0.00    -0.454 OA
ATOM     95  C   UNL A   1      32.999  14.746  25.605  1.00  0.00     0.468 C 
ENDBRANCH  86  87
ENDBRANCH  84  86
ENDBRANCH  73  77
ENDBRANCH  69  71
ENDBRANCH  68  69
ENDBRANCH  67  68
ENDBRANCH  66  67
ENDBRANCH  65  66
ENDBRANCH   1  65
TORSDOF 20
ENDMDL
MODEL 3
REMARK VINA RESULT:     -11.0      1.702      2.467
REMARK SMILES O=C(OCCOCCOCCOC(=O)[C@@H]1CC=CC[C@H]1C(=O)N1CC[NH+](Cc2ccc3c(c2)OCO3)CC1)c1ccc(-c2c3nc(c(-c4c(F)cccc4F)c4ccc([nH]4)c(-c4c(F)cccc4F)c4nc(c(-c5c(F)cccc5F)c5ccc2[nH]5)C=C4)C=C3)cc1
REMARK SMILES IDX 8 1 7 2 6 3 5 4 4 5 3 6 2 7 1 8 39 9 40 10 92 11 41 12 91 13
REMARK SMILES IDX 42 14 43 15 44 16 85 17 45 18 90 19 84 20 86 21 46 22 89 23
REMARK SMILES IDX 83 24 82 25 47 27 73 28 56 29 72 30 57 31 60 32 71 33 87 34
REMARK SMILES IDX 58 35 59 36 70 38 88 39 61 40 48 41 49 42 54 43 50 44 51 45
REMARK SMILES IDX 53 46 55 47 52 48 74 49 75 50 80 51 76 52 77 53 79 54 81 55
REMARK SMILES IDX 78 56 62 57 63 58 68 59 64 60 65 61 67 62 69 63 66 64 9 65
REMARK SMILES IDX 10 66 11 67 12 68 13 69 14 70 15 71 16 72 20 73 17 74 19 75
REMARK SMILES IDX 18 76 21 77 22 78 23 79 24 80 38 81 25 82 37 83 26 84 27 86
REMARK SMILES IDX 28 87 29 88 33 89 30 90 32 91 31 92 34 93 36 94 35 95
REMARK H PARENT 86 26 60 37 26 85
REMARK Flexibility Score: inf
ROOT
ATOM      1  C   UNL A   1      40.169  22.424  26.908  1.00  0.00     0.188 C 
ENDROOT
BRANCH   1   2
ATOM      2  C   UNL A   1      41.205  21.492  26.275  1.00  0.00     0.188 C 
BRANCH   2   3
ATOM      3  O   UNL A   1      42.076  20.886  27.233  1.00  0.00    -0.376 OA
BRANCH   3   4
ATOM      4  C   UNL A   1      42.190  19.472  27.107  1.00  0.00     0.202 C 
BRANCH   4   5
ATOM      5  C   UNL A   1      42.643  18.958  25.745  1.00  0.00     0.261 C 
BRANCH   5   6
ATOM      6  O   UNL A   1      44.016  18.599  25.614  1.00  0.00    -0.460 OA
BRANCH   6   7
ATOM      7  C   UNL A   1      44.963  19.289  24.944  1.00  0.00     0.338 C 
ATOM      8  O   UNL A   1      45.755  18.645  24.252  1.00  0.00    -0.246 OA
BRANCH   7   9
ATOM      9  C   UNL A   1      44.900  20.788  24.823  1.00  0.00     0.060 A 
ATOM     10  C   UNL A   1      44.533  21.630  23.774  1.00  0.00     0.016 A 
ATOM     11  C   UNL A   1      45.339  21.418  25.972  1.00  0.00     0.016 A 
ATOM     12  C   UNL A   1      44.643  23.048  23.895  1.00  0.00     0.010 A 
ATOM     13  C   UNL A   1      45.533  22.787  26.072  1.00  0.00     0.010 A 
ATOM     14  C   UNL A   1      45.174  23.637  25.045  1.00  0.00    -0.014 A 
BRANCH  14  15
ATOM     15  C   UNL A   1      45.280  25.082  25.387  1.00  0.00     0.031 A 
ATOM     16  C   UNL A   1      46.628  25.728  25.553  1.00  0.00     0.074 A 
ATOM     17  C   UNL A   1      44.211  25.680  25.931  1.00  0.00     0.049 A 
ATOM     18  N   UNL A   1      47.055  26.668  26.361  1.00  0.00    -0.248 NA
ATOM     19  C   UNL A   1      47.675  25.132  24.733  1.00  0.00     0.031 C 
ATOM     20  C   UNL A   1      42.866  25.119  25.998  1.00  0.00     0.029 A 
ATOM     21  N   UNL A   1      44.126  26.852  26.623  1.00  0.00    -0.354 N 
ATOM     22  C   UNL A   1      48.438  26.703  26.180  1.00  0.00     0.074 A 
ATOM     23  C   UNL A   1      48.760  25.574  25.355  1.00  0.00     0.031 C 
ATOM     24  C   UNL A   1      42.104  25.902  26.776  1.00  0.00     0.029 A 
ATOM     25  C   UNL A   1      42.902  27.044  27.204  1.00  0.00     0.049 A 
ATOM     26  H   UNL A   1      44.870  27.494  26.697  1.00  0.00     0.167 HD
ATOM     27  C   UNL A   1      49.345  27.674  26.469  1.00  0.00     0.037 A 
ATOM     28  C   UNL A   1      42.480  28.066  27.964  1.00  0.00     0.037 A 
ATOM     29  C   UNL A   1      48.913  28.976  26.888  1.00  0.00     0.049 A 
ATOM     30  C   UNL A   1      43.395  29.250  28.062  1.00  0.00     0.074 A 
ATOM     31  C   UNL A   1      49.607  30.170  26.866  1.00  0.00     0.029 A 
ATOM     32  N   UNL A   1      47.609  29.264  27.261  1.00  0.00    -0.354 N 
ATOM     33  N   UNL A   1      44.684  29.321  27.816  1.00  0.00    -0.248 NA
ATOM     34  C   UNL A   1      42.772  30.530  28.406  1.00  0.00     0.031 C 
ATOM     35  C   UNL A   1      48.693  31.194  27.142  1.00  0.00     0.029 A 
ATOM     36  C   UNL A   1      47.448  30.628  27.376  1.00  0.00     0.049 A 
ATOM     37  H   UNL A   1      46.905  28.595  27.420  1.00  0.00     0.167 HD
ATOM     38  C   UNL A   1      45.008  30.667  27.886  1.00  0.00     0.074 A 
ATOM     39  C   UNL A   1      43.781  31.367  28.215  1.00  0.00     0.031 C 
ATOM     40  C   UNL A   1      46.201  31.278  27.676  1.00  0.00     0.037 A 
BRANCH  27  41
ATOM     41  C   UNL A   1      50.797  27.473  26.074  1.00  0.00     0.057 A 
ATOM     42  C   UNL A   1      51.742  26.968  26.986  1.00  0.00     0.134 A 
ATOM     43  C   UNL A   1      51.272  27.758  24.786  1.00  0.00     0.134 A 
ATOM     44  F   UNL A   1      51.367  26.604  28.222  1.00  0.00    -0.206 F 
ATOM     45  C   UNL A   1      53.103  26.886  26.687  1.00  0.00     0.040 A 
ATOM     46  C   UNL A   1      52.627  27.614  24.451  1.00  0.00     0.040 A 
ATOM     47  F   UNL A   1      50.436  28.177  23.824  1.00  0.00    -0.206 F 
ATOM     48  C   UNL A   1      53.551  27.210  25.412  1.00  0.00     0.006 A 
ENDBRANCH  27  41
BRANCH  28  49
ATOM     49  C   UNL A   1      41.079  28.082  28.428  1.00  0.00     0.057 A 
ATOM     50  C   UNL A   1      40.763  27.714  29.740  1.00  0.00     0.134 A 
ATOM     51  C   UNL A   1      40.041  28.556  27.619  1.00  0.00     0.134 A 
ATOM     52  F   UNL A   1      41.726  27.287  30.570  1.00  0.00    -0.206 F 
ATOM     53  C   UNL A   1      39.456  27.769  30.222  1.00  0.00     0.040 A 
ATOM     54  C   UNL A   1      38.730  28.632  28.092  1.00  0.00     0.040 A 
ATOM     55  F   UNL A   1      40.292  28.981  26.371  1.00  0.00    -0.206 F 
ATOM     56  C   UNL A   1      38.435  28.228  29.394  1.00  0.00     0.006 A 
ENDBRANCH  28  49
BRANCH  40  57
ATOM     57  C   UNL A   1      46.214  32.769  27.761  1.00  0.00     0.057 A 
ATOM     58  C   UNL A   1      46.650  33.419  28.919  1.00  0.00     0.134 A 
ATOM     59  C   UNL A   1      45.828  33.555  26.668  1.00  0.00     0.134 A 
ATOM     60  F   UNL A   1      47.020  32.710  29.996  1.00  0.00    -0.206 F 
ATOM     61  C   UNL A   1      46.674  34.809  29.000  1.00  0.00     0.040 A 
ATOM     62  C   UNL A   1      45.877  34.946  26.727  1.00  0.00     0.040 A 
ATOM     63  F   UNL A   1      45.415  32.984  25.525  1.00  0.00    -0.206 F 
ATOM     64  C   UNL A   1      46.293  35.575  27.900  1.00  0.00     0.006 A 
ENDBRANCH  40  57
ENDBRANCH  14  15
ENDBRANCH   7   9
ENDBRANCH   6   7
ENDBRANCH   5   6
ENDBRANCH   4   5
ENDBRANCH   3   4
ENDBRANCH   2   3
ENDBRANCH   1   2
BRANCH   1  65
ATOM     65  O   UNL A   1      38.849  22.417  26.372  1.00  0.00    -0.376 OA
BRANCH  65  66
ATOM     66  C   UNL A   1      38.544  21.444  25.378  1.00  0.00     0.202 C 
BRANCH  66  67
ATOM     67  C   UNL A   1      37.109  20.883  25.288  1.00  0.00     0.261 C 
BRANCH  67  68
ATOM     68  O   UNL A   1      36.164  21.769  24.672  1.00  0.00    -0.463 OA
BRANCH  68  69
ATOM     69  C   UNL A   1      35.430  22.571  25.484  1.00  0.00     0.310 C 
ATOM     70  O   UNL A   1      35.888  23.506  26.148  1.00  0.00    -0.252 OA
BRANCH  69  71
ATOM     71  C   UNL A   1      33.948  22.204  25.439  1.00  0.00     0.115 C 
ATOM     72  C   UNL A   1      33.783  20.809  26.064  1.00  0.00     0.043 C 
ATOM     73  C   UNL A   1      33.395  22.418  24.013  1.00  0.00     0.097 C 
ATOM     74  C   UNL A   1      32.884  19.859  25.347  1.00  0.00    -0.030 C 
ATOM     75  C   UNL A   1      32.773  21.236  23.273  1.00  0.00     0.041 C 
ATOM     76  C   UNL A   1      32.435  20.048  24.104  1.00  0.00    -0.030 C 
BRANCH  73  77
ATOM     77  C   UNL A   1      32.523  23.674  24.005  1.00  0.00     0.227 C 
ATOM     78  O   UNL A   1      31.595  23.704  23.197  1.00  0.00    -0.275 OA
ATOM     79  N   UNL A   1      32.865  24.784  24.784  1.00  0.00    -0.331 N 
ATOM     80  C   UNL A   1      31.839  25.242  25.747  1.00  0.00     0.181 C 
ATOM     81  C   UNL A   1      33.670  25.808  24.103  1.00  0.00     0.181 C 
ATOM     82  C   UNL A   1      31.635  26.783  25.941  1.00  0.00     0.284 C 
ATOM     83  C   UNL A   1      33.402  27.297  24.459  1.00  0.00     0.284 C 
ATOM     84  N   UNL A   1      31.986  27.551  24.743  1.00  0.00    -0.328 N 
ATOM     85  H   UNL A   1      31.407  27.204  23.978  1.00  0.00     0.348 HD
BRANCH  84  86
ATOM     86  C   UNL A   1      31.541  28.956  24.650  1.00  0.00     0.299 C 
BRANCH  86  87
ATOM     87  C   UNL A   1      32.086  29.850  25.787  1.00  0.00     0.010 A 
ATOM     88  C   UNL A   1      31.404  31.039  26.127  1.00  0.00     0.013 A 
ATOM     89  C   UNL A   1      33.332  29.604  26.424  1.00  0.00     0.060 A 
ATOM     90  C   UNL A   1      31.982  31.977  26.994  1.00  0.00     0.051 A 
ATOM     91  C   UNL A   1      33.912  30.614  27.196  1.00  0.00     0.166 A 
ATOM     92  C   UNL A   1      33.261  31.789  27.433  1.00  0.00     0.165 A 
ATOM     93  O   UNL A   1      35.179  30.656  27.704  1.00  0.00    -0.454 OA
ATOM     94  O   UNL A   1      34.024  32.730  28.053  1.00  0.00    -0.454 OA
ATOM     95  C   UNL A   1      35.298  32.065  28.018  1.00  0.00     0.468 C 
ENDBRANCH  86  87
ENDBRANCH  84  86
ENDBRANCH  73  77
ENDBRANCH  69  71
ENDBRANCH  68  69
ENDBRANCH  67  68
ENDBRANCH  66  67
ENDBRANCH  65  66
ENDBRANCH   1  65
TORSDOF 20
ENDMDL
