MODEL 1
REMARK VINA RESULT:     -10.6      0.000      0.000
REMARK SMILES CN(C)c1ccc(CCC(=O)N2C[C@@H](C(=O)OCCOCCOCCOC(=O)c3ccc(-c4c5nc(c(-c6c(F)cccc6F)c6ccc([nH]6)c(-c6c(F)cccc6F)c6nc(c(-c7c(F)cccc7F)c7ccc4[nH]7)C=C6)C=C5)cc3)[C@H](c3cccnc3)C2)cc1
REMARK SMILES IDX 20 1 19 2 18 3 17 4 15 5 16 6 14 7 12 8 13 9 90 10 83 11
REMARK SMILES IDX 10 12 11 13 9 14 8 15 7 16 4 17 5 18 92 19 6 20 91 21 2 22
REMARK SMILES IDX 1 23 3 24 84 25 85 26 89 27 86 28 88 29 87 30 21 31 22 32
REMARK SMILES IDX 23 33 24 34 25 35 26 36 27 37 28 38 29 39 30 40 82 41 31 42
REMARK SMILES IDX 81 43 32 44 33 45 34 46 75 47 35 48 80 49 74 50 76 51 36 52
REMARK SMILES IDX 79 53 73 54 72 55 37 57 63 58 46 59 62 60 47 61 50 62 61 63
REMARK SMILES IDX 77 64 48 65 49 66 60 68 78 69 51 70 38 71 39 72 44 73 40 74
REMARK SMILES IDX 41 75 43 76 45 77 42 78 64 79 65 80 70 81 66 82 67 83 69 84
REMARK SMILES IDX 71 85 68 86 52 87 53 88 58 89 54 90 55 91 57 92 59 93 56 94
REMARK H PARENT 76 56 50 67
REMARK Flexibility Score: inf
ROOT
ATOM      1  O   UNL A   1      31.675  28.783  24.891  1.00  0.00    -0.376 OA
ENDROOT
BRANCH   1   2
ATOM      2  C   UNL A   1      32.856  29.260  24.258  1.00  0.00     0.202 C 
BRANCH   2   3
ATOM      3  C   UNL A   1      33.106  28.637  22.890  1.00  0.00     0.261 C 
BRANCH   3   4
ATOM      4  O   UNL A   1      34.016  27.519  22.897  1.00  0.00    -0.463 OA
BRANCH   4   5
ATOM      5  C   UNL A   1      33.587  26.345  22.392  1.00  0.00     0.311 C 
ATOM      6  O   UNL A   1      33.524  26.118  21.189  1.00  0.00    -0.252 OA
BRANCH   5   7
ATOM      7  C   UNL A   1      33.222  25.315  23.458  1.00  0.00     0.128 C 
ATOM      8  N   UNL A   1      31.812  24.982  25.349  1.00  0.00    -0.341 N 
ATOM      9  C   UNL A   1      31.782  25.317  23.943  1.00  0.00     0.135 C 
ATOM     10  C   UNL A   1      33.106  25.298  25.919  1.00  0.00     0.128 C 
ATOM     11  C   UNL A   1      34.087  25.439  24.734  1.00  0.00     0.056 C 
BRANCH   8  12
ATOM     12  C   UNL A   1      30.717  24.723  26.154  1.00  0.00     0.222 C 
ATOM     13  O   UNL A   1      29.973  25.635  26.523  1.00  0.00    -0.275 OA
BRANCH  12  14
ATOM     14  C   UNL A   1      30.495  23.307  26.686  1.00  0.00     0.105 C 
BRANCH  14  15
ATOM     15  C   UNL A   1      31.728  22.570  27.238  1.00  0.00     0.045 C 
BRANCH  15  16
ATOM     16  C   UNL A   1      32.475  21.815  26.164  1.00  0.00    -0.047 A 
ATOM     17  C   UNL A   1      33.465  19.766  24.503  1.00  0.00     0.036 A 
ATOM     18  C   UNL A   1      34.210  20.230  25.597  1.00  0.00     0.026 A 
ATOM     19  C   UNL A   1      32.339  20.506  24.131  1.00  0.00     0.026 A 
ATOM     20  C   UNL A   1      33.718  21.239  26.432  1.00  0.00     0.006 A 
ATOM     21  C   UNL A   1      31.860  21.539  24.937  1.00  0.00     0.006 A 
BRANCH  17  22
ATOM     22  N   UNL A   1      33.757  18.542  23.920  1.00  0.00    -0.378 N 
ATOM     23  C   UNL A   1      32.721  17.842  23.182  1.00  0.00     0.143 C 
ATOM     24  C   UNL A   1      34.910  17.782  24.385  1.00  0.00     0.143 C 
ENDBRANCH  17  22
ENDBRANCH  15  16
ENDBRANCH  14  15
ENDBRANCH  12  14
ENDBRANCH   8  12
BRANCH  11  25
ATOM     25  C   UNL A   1      35.216  24.428  24.634  1.00  0.00    -0.024 A 
ATOM     26  C   UNL A   1      35.324  23.646  23.475  1.00  0.00     0.007 A 
ATOM     27  C   UNL A   1      36.069  24.104  25.686  1.00  0.00     0.115 A 
ATOM     28  C   UNL A   1      36.212  22.578  23.426  1.00  0.00     0.020 A 
ATOM     29  N   UNL A   1      36.960  23.085  25.655  1.00  0.00    -0.264 NA
ATOM     30  C   UNL A   1      37.001  22.337  24.534  1.00  0.00     0.111 A 
ENDBRANCH  11  25
ENDBRANCH   5   7
ENDBRANCH   4   5
ENDBRANCH   3   4
ENDBRANCH   2   3
ENDBRANCH   1   2
BRANCH   1  31
ATOM     31  C   UNL A   1      31.801  28.526  26.280  1.00  0.00     0.188 C 
BRANCH  31  32
ATOM     32  C   UNL A   1      32.356  29.700  27.110  1.00  0.00     0.188 C 
BRANCH  32  33
ATOM     33  O   UNL A   1      31.788  30.997  27.005  1.00  0.00    -0.376 OA
BRANCH  33  34
ATOM     34  C   UNL A   1      32.650  32.125  26.924  1.00  0.00     0.202 C 
BRANCH  34  35
ATOM     35  C   UNL A   1      32.106  33.486  27.379  1.00  0.00     0.261 C 
BRANCH  35  36
ATOM     36  O   UNL A   1      33.140  34.405  27.756  1.00  0.00    -0.460 OA
BRANCH  36  37
ATOM     37  C   UNL A   1      33.392  34.496  29.085  1.00  0.00     0.338 C 
ATOM     38  O   UNL A   1      32.660  34.942  29.954  1.00  0.00    -0.246 OA
BRANCH  37  39
ATOM     39  C   UNL A   1      34.619  33.723  29.378  1.00  0.00     0.060 A 
ATOM     40  C   UNL A   1      34.492  32.544  30.131  1.00  0.00     0.016 A 
ATOM     41  C   UNL A   1      35.860  34.112  28.871  1.00  0.00     0.016 A 
ATOM     42  C   UNL A   1      35.611  31.761  30.402  1.00  0.00     0.010 A 
ATOM     43  C   UNL A   1      36.989  33.352  29.179  1.00  0.00     0.010 A 
ATOM     44  C   UNL A   1      36.872  32.201  29.980  1.00  0.00    -0.014 A 
BRANCH  44  45
ATOM     45  C   UNL A   1      38.081  31.694  30.663  1.00  0.00     0.031 A 
ATOM     46  C   UNL A   1      38.874  30.644  29.935  1.00  0.00     0.074 A 
ATOM     47  C   UNL A   1      38.448  32.106  31.887  1.00  0.00     0.049 A 
ATOM     48  N   UNL A   1      39.884  29.925  30.345  1.00  0.00    -0.248 NA
ATOM     49  C   UNL A   1      38.455  30.361  28.550  1.00  0.00     0.031 C 
ATOM     50  C   UNL A   1      37.799  33.160  32.664  1.00  0.00     0.029 A 
ATOM     51  N   UNL A   1      39.460  31.659  32.698  1.00  0.00    -0.354 N 
ATOM     52  C   UNL A   1      40.212  29.103  29.275  1.00  0.00     0.074 A 
ATOM     53  C   UNL A   1      39.288  29.395  28.205  1.00  0.00     0.031 C 
ATOM     54  C   UNL A   1      38.420  33.264  33.854  1.00  0.00     0.029 A 
ATOM     55  C   UNL A   1      39.480  32.259  33.933  1.00  0.00     0.049 A 
ATOM     56  H   UNL A   1      40.110  30.974  32.421  1.00  0.00     0.167 HD
ATOM     57  C   UNL A   1      41.191  28.175  29.190  1.00  0.00     0.037 A 
ATOM     58  C   UNL A   1      40.249  31.994  35.006  1.00  0.00     0.037 A 
ATOM     59  C   UNL A   1      42.084  27.859  30.265  1.00  0.00     0.049 A 
ATOM     60  C   UNL A   1      41.271  30.887  34.928  1.00  0.00     0.074 A 
ATOM     61  C   UNL A   1      43.099  26.922  30.299  1.00  0.00     0.029 A 
ATOM     62  N   UNL A   1      42.054  28.471  31.509  1.00  0.00    -0.354 N 
ATOM     63  N   UNL A   1      41.577  30.111  33.915  1.00  0.00    -0.248 NA
ATOM     64  C   UNL A   1      42.048  30.612  36.146  1.00  0.00     0.031 C 
ATOM     65  C   UNL A   1      43.659  26.938  31.581  1.00  0.00     0.029 A 
ATOM     66  C   UNL A   1      43.021  27.918  32.328  1.00  0.00     0.049 A 
ATOM     67  H   UNL A   1      41.436  29.191  31.771  1.00  0.00     0.167 HD
ATOM     68  C   UNL A   1      42.603  29.284  34.360  1.00  0.00     0.074 A 
ATOM     69  C   UNL A   1      42.863  29.649  35.737  1.00  0.00     0.031 C 
ATOM     70  C   UNL A   1      43.274  28.317  33.689  1.00  0.00     0.037 A 
BRANCH  57  71
ATOM     71  C   UNL A   1      41.285  27.413  27.903  1.00  0.00     0.057 A 
ATOM     72  C   UNL A   1      40.615  26.196  27.714  1.00  0.00     0.134 A 
ATOM     73  C   UNL A   1      42.099  27.875  26.863  1.00  0.00     0.134 A 
ATOM     74  F   UNL A   1      39.846  25.685  28.687  1.00  0.00    -0.206 F 
ATOM     75  C   UNL A   1      40.779  25.450  26.547  1.00  0.00     0.040 A 
ATOM     76  C   UNL A   1      42.251  27.148  25.681  1.00  0.00     0.040 A 
ATOM     77  F   UNL A   1      42.776  29.026  26.986  1.00  0.00    -0.206 F 
ATOM     78  C   UNL A   1      41.599  25.927  25.525  1.00  0.00     0.006 A 
ENDBRANCH  57  71
BRANCH  58  79
ATOM     79  C   UNL A   1      40.081  32.776  36.258  1.00  0.00     0.057 A 
ATOM     80  C   UNL A   1      39.112  32.421  37.204  1.00  0.00     0.134 A 
ATOM     81  C   UNL A   1      40.865  33.903  36.531  1.00  0.00     0.134 A 
ATOM     82  F   UNL A   1      38.312  31.367  36.985  1.00  0.00    -0.206 F 
ATOM     83  C   UNL A   1      38.920  33.163  38.370  1.00  0.00     0.040 A 
ATOM     84  C   UNL A   1      40.698  34.643  37.703  1.00  0.00     0.040 A 
ATOM     85  F   UNL A   1      41.808  34.299  35.664  1.00  0.00    -0.206 F 
ATOM     86  C   UNL A   1      39.719  34.277  38.625  1.00  0.00     0.006 A 
ENDBRANCH  58  79
BRANCH  70  87
ATOM     87  C   UNL A   1      44.392  27.620  34.405  1.00  0.00     0.057 A 
ATOM     88  C   UNL A   1      45.684  28.154  34.461  1.00  0.00     0.134 A 
ATOM     89  C   UNL A   1      44.144  26.440  35.117  1.00  0.00     0.134 A 
ATOM     90  F   UNL A   1      45.985  29.278  33.794  1.00  0.00    -0.206 F 
ATOM     91  C   UNL A   1      46.695  27.533  35.197  1.00  0.00     0.040 A 
ATOM     92  C   UNL A   1      45.140  25.823  35.874  1.00  0.00     0.040 A 
ATOM     93  F   UNL A   1      42.923  25.885  35.112  1.00  0.00    -0.206 F 
ATOM     94  C   UNL A   1      46.420  26.369  35.914  1.00  0.00     0.006 A 
ENDBRANCH  70  87
ENDBRANCH  44  45
ENDBRANCH  37  39
ENDBRANCH  36  37
ENDBRANCH  35  36
ENDBRANCH  34  35
ENDBRANCH  33  34
ENDBRANCH  32  33
ENDBRANCH  31  32
ENDBRANCH   1  31
TORSDOF 23
ENDMDL
MODEL 2
REMARK VINA RESULT:     -10.6      0.657      5.915
REMARK SMILES CN(C)c1ccc(CCC(=O)N2C[C@@H](C(=O)OCCOCCOCCOC(=O)c3ccc(-c4c5nc(c(-c6c(F)cccc6F)c6ccc([nH]6)c(-c6c(F)cccc6F)c6nc(c(-c7c(F)cccc7F)c7ccc4[nH]7)C=C6)C=C5)cc3)[C@H](c3cccnc3)C2)cc1
REMARK SMILES IDX 20 1 19 2 18 3 17 4 15 5 16 6 14 7 12 8 13 9 90 10 83 11
REMARK SMILES IDX 10 12 11 13 9 14 8 15 7 16 4 17 5 18 92 19 6 20 91 21 2 22
REMARK SMILES IDX 1 23 3 24 84 25 85 26 89 27 86 28 88 29 87 30 21 31 22 32
REMARK SMILES IDX 23 33 24 34 25 35 26 36 27 37 28 38 29 39 30 40 82 41 31 42
REMARK SMILES IDX 81 43 32 44 33 45 34 46 75 47 35 48 80 49 74 50 76 51 36 52
REMARK SMILES IDX 79 53 73 54 72 55 37 57 63 58 46 59 62 60 47 61 50 62 61 63
REMARK SMILES IDX 77 64 48 65 49 66 60 68 78 69 51 70 38 71 39 72 44 73 40 74
REMARK SMILES IDX 41 75 43 76 45 77 42 78 64 79 65 80 70 81 66 82 67 83 69 84
REMARK SMILES IDX 71 85 68 86 52 87 53 88 58 89 54 90 55 91 57 92 59 93 56 94
REMARK H PARENT 76 56 50 67
REMARK Flexibility Score: inf
ROOT
ATOM      1  O   UNL A   1      33.955  28.735  25.069  1.00  0.00    -0.376 OA
ENDROOT
BRANCH   1   2
ATOM      2  C   UNL A   1      32.838  28.830  24.195  1.00  0.00     0.202 C 
BRANCH   2   3
ATOM      3  C   UNL A   1      33.159  28.447  22.755  1.00  0.00     0.261 C 
BRANCH   3   4
ATOM      4  O   UNL A   1      34.023  27.302  22.618  1.00  0.00    -0.463 OA
BRANCH   4   5
ATOM      5  C   UNL A   1      33.479  26.138  22.210  1.00  0.00     0.311 C 
ATOM      6  O   UNL A   1      33.278  25.869  21.032  1.00  0.00    -0.252 OA
BRANCH   5   7
ATOM      7  C   UNL A   1      33.170  25.172  23.352  1.00  0.00     0.128 C 
ATOM      8  N   UNL A   1      31.822  24.932  25.302  1.00  0.00    -0.341 N 
ATOM      9  C   UNL A   1      31.745  25.173  23.878  1.00  0.00     0.135 C 
ATOM     10  C   UNL A   1      33.124  25.316  25.812  1.00  0.00     0.128 C 
ATOM     11  C   UNL A   1      34.067  25.402  24.592  1.00  0.00     0.056 C 
BRANCH   8  12
ATOM     12  C   UNL A   1      30.757  24.702  26.154  1.00  0.00     0.222 C 
ATOM     13  O   UNL A   1      30.005  25.620  26.490  1.00  0.00    -0.275 OA
BRANCH  12  14
ATOM     14  C   UNL A   1      30.582  23.317  26.778  1.00  0.00     0.105 C 
BRANCH  14  15
ATOM     15  C   UNL A   1      31.860  22.593  27.236  1.00  0.00     0.045 C 
BRANCH  15  16
ATOM     16  C   UNL A   1      32.506  21.806  26.120  1.00  0.00    -0.047 A 
ATOM     17  C   UNL A   1      33.350  19.706  24.442  1.00  0.00     0.036 A 
ATOM     18  C   UNL A   1      34.194  20.214  25.440  1.00  0.00     0.026 A 
ATOM     19  C   UNL A   1      32.185  20.424  24.158  1.00  0.00     0.026 A 
ATOM     20  C   UNL A   1      33.776  21.249  26.284  1.00  0.00     0.006 A 
ATOM     21  C   UNL A   1      31.776  21.482  24.971  1.00  0.00     0.006 A 
BRANCH  17  22
ATOM     22  N   UNL A   1      33.596  18.464  23.876  1.00  0.00    -0.378 N 
ATOM     23  C   UNL A   1      32.688  17.952  22.866  1.00  0.00     0.143 C 
ATOM     24  C   UNL A   1      34.470  17.523  24.563  1.00  0.00     0.143 C 
ENDBRANCH  17  22
ENDBRANCH  15  16
ENDBRANCH  14  15
ENDBRANCH  12  14
ENDBRANCH   8  12
BRANCH  11  25
ATOM     25  C   UNL A   1      35.218  24.414  24.525  1.00  0.00    -0.024 A 
ATOM     26  C   UNL A   1      35.302  23.544  23.429  1.00  0.00     0.007 A 
ATOM     27  C   UNL A   1      36.121  24.197  25.563  1.00  0.00     0.115 A 
ATOM     28  C   UNL A   1      36.216  22.497  23.428  1.00  0.00     0.020 A 
ATOM     29  N   UNL A   1      37.038  23.200  25.577  1.00  0.00    -0.264 NA
ATOM     30  C   UNL A   1      37.055  22.365  24.517  1.00  0.00     0.111 A 
ENDBRANCH  11  25
ENDBRANCH   5   7
ENDBRANCH   4   5
ENDBRANCH   3   4
ENDBRANCH   2   3
ENDBRANCH   1   2
BRANCH   1  31
ATOM     31  C   UNL A   1      33.781  29.355  26.333  1.00  0.00     0.188 C 
BRANCH  31  32
ATOM     32  C   UNL A   1      32.373  29.205  26.942  1.00  0.00     0.188 C 
BRANCH  32  33
ATOM     33  O   UNL A   1      31.590  30.348  27.251  1.00  0.00    -0.376 OA
BRANCH  33  34
ATOM     34  C   UNL A   1      31.701  31.504  26.432  1.00  0.00     0.202 C 
BRANCH  34  35
ATOM     35  C   UNL A   1      31.738  32.877  27.117  1.00  0.00     0.261 C 
BRANCH  35  36
ATOM     36  O   UNL A   1      33.060  33.428  27.197  1.00  0.00    -0.460 OA
BRANCH  36  37
ATOM     37  C   UNL A   1      33.284  34.272  28.235  1.00  0.00     0.338 C 
ATOM     38  O   UNL A   1      32.615  35.235  28.571  1.00  0.00    -0.246 OA
BRANCH  37  39
ATOM     39  C   UNL A   1      34.353  33.693  29.079  1.00  0.00     0.060 A 
ATOM     40  C   UNL A   1      35.681  34.066  28.810  1.00  0.00     0.016 A 
ATOM     41  C   UNL A   1      34.055  32.852  30.152  1.00  0.00     0.016 A 
ATOM     42  C   UNL A   1      36.719  33.580  29.600  1.00  0.00     0.010 A 
ATOM     43  C   UNL A   1      35.098  32.329  30.916  1.00  0.00     0.010 A 
ATOM     44  C   UNL A   1      36.432  32.657  30.614  1.00  0.00    -0.014 A 
BRANCH  44  45
ATOM     45  C   UNL A   1      37.504  31.765  31.105  1.00  0.00     0.031 A 
ATOM     46  C   UNL A   1      37.993  32.009  32.506  1.00  0.00     0.074 A 
ATOM     47  C   UNL A   1      38.056  30.808  30.342  1.00  0.00     0.049 A 
ATOM     48  N   UNL A   1      39.005  31.483  33.142  1.00  0.00    -0.248 NA
ATOM     49  C   UNL A   1      37.231  32.996  33.294  1.00  0.00     0.031 C 
ATOM     50  C   UNL A   1      37.627  30.436  28.996  1.00  0.00     0.029 A 
ATOM     51  N   UNL A   1      39.121  29.984  30.600  1.00  0.00    -0.354 N 
ATOM     52  C   UNL A   1      39.006  32.082  34.395  1.00  0.00     0.074 A 
ATOM     53  C   UNL A   1      37.909  33.020  34.428  1.00  0.00     0.031 C 
ATOM     54  C   UNL A   1      38.440  29.466  28.536  1.00  0.00     0.029 A 
ATOM     55  C   UNL A   1      39.466  29.182  29.540  1.00  0.00     0.049 A 
ATOM     56  H   UNL A   1      39.594  29.969  31.463  1.00  0.00     0.167 HD
ATOM     57  C   UNL A   1      39.852  31.879  35.429  1.00  0.00     0.037 A 
ATOM     58  C   UNL A   1      40.510  28.344  29.398  1.00  0.00     0.037 A 
ATOM     59  C   UNL A   1      40.963  30.975  35.383  1.00  0.00     0.049 A 
ATOM     60  C   UNL A   1      41.503  28.203  30.525  1.00  0.00     0.074 A 
ATOM     61  C   UNL A   1      41.900  30.704  36.363  1.00  0.00     0.029 A 
ATOM     62  N   UNL A   1      41.293  30.200  34.281  1.00  0.00    -0.354 N 
ATOM     63  N   UNL A   1      41.501  28.772  31.707  1.00  0.00    -0.248 NA
ATOM     64  C   UNL A   1      42.649  27.311  30.293  1.00  0.00     0.031 C 
ATOM     65  C   UNL A   1      42.823  29.794  35.837  1.00  0.00     0.029 A 
ATOM     66  C   UNL A   1      42.433  29.465  34.548  1.00  0.00     0.049 A 
ATOM     67  H   UNL A   1      40.791  30.178  33.434  1.00  0.00     0.167 HD
ATOM     68  C   UNL A   1      42.619  28.280  32.372  1.00  0.00     0.074 A 
ATOM     69  C   UNL A   1      43.280  27.371  31.459  1.00  0.00     0.031 C 
ATOM     70  C   UNL A   1      43.056  28.549  33.627  1.00  0.00     0.037 A 
BRANCH  57  71
ATOM     71  C   UNL A   1      39.620  32.702  36.659  1.00  0.00     0.057 A 
ATOM     72  C   UNL A   1      40.401  33.828  36.953  1.00  0.00     0.134 A 
ATOM     73  C   UNL A   1      38.642  32.330  37.588  1.00  0.00     0.134 A 
ATOM     74  F   UNL A   1      41.377  34.215  36.118  1.00  0.00    -0.206 F 
ATOM     75  C   UNL A   1      40.238  34.536  38.144  1.00  0.00     0.040 A 
ATOM     76  C   UNL A   1      38.452  33.045  38.771  1.00  0.00     0.040 A 
ATOM     77  F   UNL A   1      37.869  31.255  37.371  1.00  0.00    -0.206 F 
ATOM     78  C   UNL A   1      39.259  34.146  39.056  1.00  0.00     0.006 A 
ENDBRANCH  57  71
BRANCH  58  79
ATOM     79  C   UNL A   1      40.690  27.579  28.137  1.00  0.00     0.057 A 
ATOM     80  C   UNL A   1      40.110  26.316  27.972  1.00  0.00     0.134 A 
ATOM     81  C   UNL A   1      41.457  28.079  27.079  1.00  0.00     0.134 A 
ATOM     82  F   UNL A   1      39.387  25.772  28.962  1.00  0.00    -0.206 F 
ATOM     83  C   UNL A   1      40.296  25.572  26.806  1.00  0.00     0.040 A 
ATOM     84  C   UNL A   1      41.635  27.354  25.898  1.00  0.00     0.040 A 
ATOM     85  F   UNL A   1      42.043  29.282  27.175  1.00  0.00    -0.206 F 
ATOM     86  C   UNL A   1      41.057  26.094  25.762  1.00  0.00     0.006 A 
ENDBRANCH  58  79
BRANCH  70  87
ATOM     87  C   UNL A   1      44.270  27.816  34.114  1.00  0.00     0.057 A 
ATOM     88  C   UNL A   1      44.185  26.550  34.703  1.00  0.00     0.134 A 
ATOM     89  C   UNL A   1      45.546  28.355  33.911  1.00  0.00     0.134 A 
ATOM     90  F   UNL A   1      42.991  25.984  34.931  1.00  0.00    -0.206 F 
ATOM     91  C   UNL A   1      45.331  25.847  35.081  1.00  0.00     0.040 A 
ATOM     92  C   UNL A   1      46.699  27.653  34.263  1.00  0.00     0.040 A 
ATOM     93  F   UNL A   1      45.694  29.560  33.340  1.00  0.00    -0.206 F 
ATOM     94  C   UNL A   1      46.592  26.395  34.852  1.00  0.00     0.006 A 
ENDBRANCH  70  87
ENDBRANCH  44  45
ENDBRANCH  37  39
ENDBRANCH  36  37
ENDBRANCH  35  36
ENDBRANCH  34  35
ENDBRANCH  33  34
ENDBRANCH  32  33
ENDBRANCH  31  32
ENDBRANCH   1  31
TORSDOF 23
ENDMDL
MODEL 3
REMARK VINA RESULT:     -10.1      1.828      3.555
REMARK SMILES CN(C)c1ccc(CCC(=O)N2C[C@@H](C(=O)OCCOCCOCCOC(=O)c3ccc(-c4c5nc(c(-c6c(F)cccc6F)c6ccc([nH]6)c(-c6c(F)cccc6F)c6nc(c(-c7c(F)cccc7F)c7ccc4[nH]7)C=C6)C=C5)cc3)[C@H](c3cccnc3)C2)cc1
REMARK SMILES IDX 20 1 19 2 18 3 17 4 15 5 16 6 14 7 12 8 13 9 90 10 83 11
REMARK SMILES IDX 10 12 11 13 9 14 8 15 7 16 4 17 5 18 92 19 6 20 91 21 2 22
REMARK SMILES IDX 1 23 3 24 84 25 85 26 89 27 86 28 88 29 87 30 21 31 22 32
REMARK SMILES IDX 23 33 24 34 25 35 26 36 27 37 28 38 29 39 30 40 82 41 31 42
REMARK SMILES IDX 81 43 32 44 33 45 34 46 75 47 35 48 80 49 74 50 76 51 36 52
REMARK SMILES IDX 79 53 73 54 72 55 37 57 63 58 46 59 62 60 47 61 50 62 61 63
REMARK SMILES IDX 77 64 48 65 49 66 60 68 78 69 51 70 38 71 39 72 44 73 40 74
REMARK SMILES IDX 41 75 43 76 45 77 42 78 64 79 65 80 70 81 66 82 67 83 69 84
REMARK SMILES IDX 71 85 68 86 52 87 53 88 58 89 54 90 55 91 57 92 59 93 56 94
REMARK H PARENT 76 56 50 67
REMARK Flexibility Score: inf
ROOT
ATOM      1  O   UNL A   1      33.463  24.725  26.100  1.00  0.00    -0.376 OA
ENDROOT
BRANCH   1   2
ATOM      2  C   UNL A   1      32.280  24.924  26.863  1.00  0.00     0.202 C 
BRANCH   2   3
ATOM      3  C   UNL A   1      31.106  24.072  26.396  1.00  0.00     0.261 C 
BRANCH   3   4
ATOM      4  O   UNL A   1      30.020  24.819  25.811  1.00  0.00    -0.463 OA
BRANCH   4   5
ATOM      5  C   UNL A   1      30.268  26.071  25.377  1.00  0.00     0.311 C 
ATOM      6  O   UNL A   1      30.345  27.036  26.128  1.00  0.00    -0.252 OA
BRANCH   5   7
ATOM      7  C   UNL A   1      30.481  26.166  23.868  1.00  0.00     0.128 C 
ATOM      8  N   UNL A   1      32.061  25.672  22.155  1.00  0.00    -0.341 N 
ATOM      9  C   UNL A   1      31.303  25.062  23.225  1.00  0.00     0.135 C 
ATOM     10  C   UNL A   1      32.224  27.093  22.393  1.00  0.00     0.128 C 
ATOM     11  C   UNL A   1      31.159  27.489  23.439  1.00  0.00     0.056 C 
BRANCH   8  12
ATOM     12  C   UNL A   1      32.825  25.011  21.211  1.00  0.00     0.222 C 
ATOM     13  O   UNL A   1      33.063  25.526  20.115  1.00  0.00    -0.275 OA
BRANCH  12  14
ATOM     14  C   UNL A   1      33.279  23.577  21.484  1.00  0.00     0.105 C 
BRANCH  14  15
ATOM     15  C   UNL A   1      34.106  23.340  22.760  1.00  0.00     0.045 C 
BRANCH  15  16
ATOM     16  C   UNL A   1      33.628  22.137  23.539  1.00  0.00    -0.047 A 
ATOM     17  C   UNL A   1      33.237  19.501  24.456  1.00  0.00     0.036 A 
ATOM     18  C   UNL A   1      32.322  20.103  23.581  1.00  0.00     0.026 A 
ATOM     19  C   UNL A   1      34.209  20.323  25.035  1.00  0.00     0.026 A 
ATOM     20  C   UNL A   1      32.517  21.408  23.113  1.00  0.00     0.006 A 
ATOM     21  C   UNL A   1      34.389  21.638  24.603  1.00  0.00     0.006 A 
BRANCH  17  22
ATOM     22  N   UNL A   1      33.261  18.124  24.613  1.00  0.00    -0.378 N 
ATOM     23  C   UNL A   1      33.636  17.287  23.488  1.00  0.00     0.143 C 
ATOM     24  C   UNL A   1      32.528  17.515  25.716  1.00  0.00     0.143 C 
ENDBRANCH  17  22
ENDBRANCH  15  16
ENDBRANCH  14  15
ENDBRANCH  12  14
ENDBRANCH   8  12
BRANCH  11  25
ATOM     25  C   UNL A   1      30.070  28.452  23.001  1.00  0.00    -0.024 A 
ATOM     26  C   UNL A   1      28.738  28.164  23.332  1.00  0.00     0.007 A 
ATOM     27  C   UNL A   1      30.280  29.531  22.146  1.00  0.00     0.115 A 
ATOM     28  C   UNL A   1      27.699  28.906  22.781  1.00  0.00     0.020 A 
ATOM     29  N   UNL A   1      29.288  30.286  21.616  1.00  0.00    -0.264 NA
ATOM     30  C   UNL A   1      28.022  29.947  21.933  1.00  0.00     0.111 A 
ENDBRANCH  11  25
ENDBRANCH   5   7
ENDBRANCH   4   5
ENDBRANCH   3   4
ENDBRANCH   2   3
ENDBRANCH   1   2
BRANCH   1  31
ATOM     31  C   UNL A   1      34.019  25.903  25.537  1.00  0.00     0.188 C 
BRANCH  31  32
ATOM     32  C   UNL A   1      33.635  27.211  26.257  1.00  0.00     0.188 C 
BRANCH  32  33
ATOM     33  O   UNL A   1      33.918  28.473  25.671  1.00  0.00    -0.376 OA
BRANCH  33  34
ATOM     34  C   UNL A   1      33.063  29.573  25.954  1.00  0.00     0.202 C 
BRANCH  34  35
ATOM     35  C   UNL A   1      33.590  30.682  26.874  1.00  0.00     0.261 C 
BRANCH  35  36
ATOM     36  O   UNL A   1      32.557  31.562  27.340  1.00  0.00    -0.460 OA
BRANCH  36  37
ATOM     37  C   UNL A   1      32.933  32.845  27.567  1.00  0.00     0.338 C 
ATOM     38  O   UNL A   1      32.321  33.862  27.287  1.00  0.00    -0.246 OA
BRANCH  37  39
ATOM     39  C   UNL A   1      34.116  32.829  28.457  1.00  0.00     0.060 A 
ATOM     40  C   UNL A   1      35.300  33.425  27.990  1.00  0.00     0.016 A 
ATOM     41  C   UNL A   1      34.048  32.299  29.746  1.00  0.00     0.016 A 
ATOM     42  C   UNL A   1      36.429  33.471  28.803  1.00  0.00     0.010 A 
ATOM     43  C   UNL A   1      35.192  32.304  30.545  1.00  0.00     0.010 A 
ATOM     44  C   UNL A   1      36.393  32.851  30.058  1.00  0.00    -0.014 A 
BRANCH  44  45
ATOM     45  C   UNL A   1      37.661  32.442  30.700  1.00  0.00     0.031 A 
ATOM     46  C   UNL A   1      38.391  31.287  30.070  1.00  0.00     0.074 A 
ATOM     47  C   UNL A   1      38.133  33.030  31.811  1.00  0.00     0.049 A 
ATOM     48  N   UNL A   1      39.438  30.629  30.493  1.00  0.00    -0.248 NA
ATOM     49  C   UNL A   1      37.852  30.803  28.786  1.00  0.00     0.031 C 
ATOM     50  C   UNL A   1      37.550  34.193  32.474  1.00  0.00     0.029 A 
ATOM     51  N   UNL A   1      39.215  32.701  32.587  1.00  0.00    -0.354 N 
ATOM     52  C   UNL A   1      39.672  29.653  29.534  1.00  0.00     0.074 A 
ATOM     53  C   UNL A   1      38.656  29.789  28.518  1.00  0.00     0.031 C 
ATOM     54  C   UNL A   1      38.274  34.470  33.575  1.00  0.00     0.029 A 
ATOM     55  C   UNL A   1      39.342  33.479  33.711  1.00  0.00     0.049 A 
ATOM     56  H   UNL A   1      39.841  31.976  32.359  1.00  0.00     0.167 HD
ATOM     57  C   UNL A   1      40.644  28.715  29.503  1.00  0.00     0.037 A 
ATOM     58  C   UNL A   1      40.205  33.372  34.739  1.00  0.00     0.037 A 
ATOM     59  C   UNL A   1      41.631  28.556  30.530  1.00  0.00     0.049 A 
ATOM     60  C   UNL A   1      41.221  32.257  34.738  1.00  0.00     0.074 A 
ATOM     61  C   UNL A   1      42.650  27.626  30.615  1.00  0.00     0.029 A 
ATOM     62  N   UNL A   1      41.709  29.348  31.666  1.00  0.00    -0.354 N 
ATOM     63  N   UNL A   1      41.439  31.335  33.830  1.00  0.00    -0.248 NA
ATOM     64  C   UNL A   1      42.104  32.161  35.910  1.00  0.00     0.031 C 
ATOM     65  C   UNL A   1      43.321  27.830  31.825  1.00  0.00     0.029 A 
ATOM     66  C   UNL A   1      42.748  28.916  32.469  1.00  0.00     0.049 A 
ATOM     67  H   UNL A   1      41.113  30.104  31.870  1.00  0.00     0.167 HD
ATOM     68  C   UNL A   1      42.505  30.576  34.302  1.00  0.00     0.074 A 
ATOM     69  C   UNL A   1      42.885  31.141  35.580  1.00  0.00     0.031 C 
ATOM     70  C   UNL A   1      43.118  29.513  33.727  1.00  0.00     0.037 A 
BRANCH  57  71
ATOM     71  C   UNL A   1      40.628  27.767  28.342  1.00  0.00     0.057 A 
ATOM     72  C   UNL A   1      39.928  26.553  28.389  1.00  0.00     0.134 A 
ATOM     73  C   UNL A   1      41.366  28.047  27.187  1.00  0.00     0.134 A 
ATOM     74  F   UNL A   1      39.229  26.213  29.482  1.00  0.00    -0.206 F 
ATOM     75  C   UNL A   1      39.990  25.637  27.339  1.00  0.00     0.040 A 
ATOM     76  C   UNL A   1      41.415  27.149  26.120  1.00  0.00     0.040 A 
ATOM     77  F   UNL A   1      42.067  29.186  27.085  1.00  0.00    -0.206 F 
ATOM     78  C   UNL A   1      40.735  25.936  26.199  1.00  0.00     0.006 A 
ENDBRANCH  57  71
BRANCH  58  79
ATOM     79  C   UNL A   1      40.145  34.334  35.869  1.00  0.00     0.057 A 
ATOM     80  C   UNL A   1      39.365  34.068  37.000  1.00  0.00     0.134 A 
ATOM     81  C   UNL A   1      40.844  35.546  35.839  1.00  0.00     0.134 A 
ATOM     82  F   UNL A   1      38.650  32.936  37.075  1.00  0.00    -0.206 F 
ATOM     83  C   UNL A   1      39.273  34.976  38.056  1.00  0.00     0.040 A 
ATOM     84  C   UNL A   1      40.777  36.455  36.897  1.00  0.00     0.040 A 
ATOM     85  F   UNL A   1      41.606  35.864  34.782  1.00  0.00    -0.206 F 
ATOM     86  C   UNL A   1      39.985  36.173  38.009  1.00  0.00     0.006 A 
ENDBRANCH  58  79
BRANCH  70  87
ATOM     87  C   UNL A   1      44.299  28.922  34.438  1.00  0.00     0.057 A 
ATOM     88  C   UNL A   1      45.596  29.412  34.256  1.00  0.00     0.134 A 
ATOM     89  C   UNL A   1      44.115  27.903  35.381  1.00  0.00     0.134 A 
ATOM     90  F   UNL A   1      45.838  30.382  33.361  1.00  0.00    -0.206 F 
ATOM     91  C   UNL A   1      46.674  28.903  34.983  1.00  0.00     0.040 A 
ATOM     92  C   UNL A   1      45.179  27.402  36.130  1.00  0.00     0.040 A 
ATOM     93  F   UNL A   1      42.893  27.399  35.610  1.00  0.00    -0.206 F 
ATOM     94  C   UNL A   1      46.464  27.901  35.930  1.00  0.00     0.006 A 
ENDBRANCH  70  87
ENDBRANCH  44  45
ENDBRANCH  37  39
ENDBRANCH  36  37
ENDBRANCH  35  36
ENDBRANCH  34  35
ENDBRANCH  33  34
ENDBRANCH  32  33
ENDBRANCH  31  32
ENDBRANCH   1  31
TORSDOF 23
ENDMDL
