MODEL 1
REMARK VINA RESULT:     -10.5      0.000      0.000
REMARK SMILES CC1=NN(c2ccc(Cl)c(C(=O)OCCOCCOCCOC(=O)c3ccc(-c4c5nc(c(-c6c(F)cccc6F)c6ccc([nH]6)c(-c6c(F)cccc6F)c6nc(c(-c7c(F)cccc7F)c7ccc4[nH]7)C=C6)C=C5)cc3)c2)C(=O)/C1=C\c1ccccc1Cl
REMARK SMILES IDX 17 1 16 2 15 3 14 4 13 5 11 6 12 7 10 8 5 9 6 10 79 11 7 12
REMARK SMILES IDX 8 13 9 14 4 15 1 16 2 17 3 18 82 19 80 20 83 21 81 22 84 23
REMARK SMILES IDX 85 24 89 25 86 26 88 27 90 28 87 29 18 30 19 31 20 32 21 33
REMARK SMILES IDX 22 34 23 35 24 36 25 37 26 38 78 39 27 40 77 41 28 42 29 43
REMARK SMILES IDX 30 44 71 45 31 46 76 47 70 48 72 49 32 50 75 51 69 52 68 53
REMARK SMILES IDX 33 55 59 56 42 57 58 58 43 59 46 60 57 61 73 62 44 63 45 64
REMARK SMILES IDX 56 66 74 67 47 68 34 69 35 70 40 71 36 72 37 73 39 74 41 75
REMARK SMILES IDX 38 76 60 77 61 78 66 79 62 80 63 81 65 82 67 83 64 84 48 85
REMARK SMILES IDX 49 86 54 87 50 88 51 89 53 90 55 91 52 92
REMARK H PARENT 72 54 46 65
REMARK Flexibility Score: inf
ROOT
ATOM      1  C   UNL A   1      31.964  25.872  24.558  1.00  0.00     0.188 C 
ENDROOT
BRANCH   1   2
ATOM      2  O   UNL A   1      32.625  24.914  25.366  1.00  0.00    -0.376 OA
BRANCH   2   3
ATOM      3  C   UNL A   1      31.884  24.185  26.337  1.00  0.00     0.202 C 
BRANCH   3   4
ATOM      4  C   UNL A   1      31.841  22.655  26.285  1.00  0.00     0.261 C 
BRANCH   4   5
ATOM      5  O   UNL A   1      33.069  22.048  26.709  1.00  0.00    -0.460 OA
BRANCH   5   6
ATOM      6  C   UNL A   1      33.631  21.180  25.834  1.00  0.00     0.339 C 
ATOM      7  O   UNL A   1      33.209  20.081  25.517  1.00  0.00    -0.246 OA
BRANCH   6   8
ATOM      8  C   UNL A   1      34.749  21.833  25.124  1.00  0.00     0.080 A 
ATOM      9  C   UNL A   1      37.011  22.692  25.285  1.00  0.00     0.070 A 
ATOM     10  C   UNL A   1      36.882  23.232  24.001  1.00  0.00     0.030 A 
ATOM     11  C   UNL A   1      35.955  21.970  25.840  1.00  0.00     0.045 A 
ATOM     12  C   UNL A   1      35.714  23.031  23.263  1.00  0.00     0.023 A 
ATOM     13  C   UNL A   1      34.634  22.346  23.828  1.00  0.00     0.055 A 
ATOM     14  Cl  UNL A   1      33.190  22.235  22.890  1.00  0.00    -0.083 Cl
BRANCH   9  15
ATOM     15  N   UNL A   1      38.124  23.026  26.068  1.00  0.00    -0.196 N 
ATOM     16  C   UNL A   1      39.746  25.200  28.435  1.00  0.00     0.069 C 
ATOM     17  C   UNL A   1      39.310  24.189  27.426  1.00  0.00     0.071 C 
ATOM     18  N   UNL A   1      38.153  24.202  26.806  1.00  0.00    -0.169 NA
ATOM     19  C   UNL A   1      40.151  23.050  27.009  1.00  0.00     0.065 C 
ATOM     20  C   UNL A   1      39.250  22.206  26.189  1.00  0.00     0.280 C 
ATOM     21  C   UNL A   1      41.475  22.908  27.169  1.00  0.00     0.025 C 
ATOM     22  O   UNL A   1      39.470  21.106  25.738  1.00  0.00    -0.267 OA
BRANCH  21  23
ATOM     23  C   UNL A   1      42.233  21.905  26.404  1.00  0.00    -0.006 A 
ATOM     24  C   UNL A   1      43.041  22.326  25.341  1.00  0.00     0.009 A 
ATOM     25  C   UNL A   1      42.238  20.539  26.761  1.00  0.00     0.048 A 
ATOM     26  C   UNL A   1      43.862  21.411  24.673  1.00  0.00     0.001 A 
ATOM     27  C   UNL A   1      43.070  19.633  26.101  1.00  0.00     0.021 A 
ATOM     28  Cl  UNL A   1      41.232  19.924  28.032  1.00  0.00    -0.084 Cl
ATOM     29  C   UNL A   1      43.887  20.071  25.062  1.00  0.00     0.002 A 
ENDBRANCH  21  23
ENDBRANCH   9  15
ENDBRANCH   6   8
ENDBRANCH   5   6
ENDBRANCH   4   5
ENDBRANCH   3   4
ENDBRANCH   2   3
ENDBRANCH   1   2
BRANCH   1  30
ATOM     30  C   UNL A   1      32.776  26.901  23.741  1.00  0.00     0.188 C 
BRANCH  30  31
ATOM     31  O   UNL A   1      32.731  28.263  24.088  1.00  0.00    -0.376 OA
BRANCH  31  32
ATOM     32  C   UNL A   1      31.769  28.758  25.002  1.00  0.00     0.202 C 
BRANCH  32  33
ATOM     33  C   UNL A   1      31.894  30.059  25.813  1.00  0.00     0.261 C 
BRANCH  33  34
ATOM     34  O   UNL A   1      32.737  30.043  26.966  1.00  0.00    -0.460 OA
BRANCH  34  35
ATOM     35  C   UNL A   1      33.322  31.230  27.265  1.00  0.00     0.338 C 
ATOM     36  O   UNL A   1      32.797  32.327  27.322  1.00  0.00    -0.246 OA
BRANCH  35  37
ATOM     37  C   UNL A   1      34.710  30.981  27.691  1.00  0.00     0.060 A 
ATOM     38  C   UNL A   1      35.121  29.659  27.896  1.00  0.00     0.016 A 
ATOM     39  C   UNL A   1      35.578  32.046  27.932  1.00  0.00     0.016 A 
ATOM     40  C   UNL A   1      36.405  29.396  28.372  1.00  0.00     0.010 A 
ATOM     41  C   UNL A   1      36.856  31.782  28.431  1.00  0.00     0.010 A 
ATOM     42  C   UNL A   1      37.263  30.459  28.683  1.00  0.00    -0.014 A 
BRANCH  42  43
ATOM     43  C   UNL A   1      38.509  30.203  29.443  1.00  0.00     0.031 A 
ATOM     44  C   UNL A   1      38.616  30.738  30.844  1.00  0.00     0.074 A 
ATOM     45  C   UNL A   1      39.524  29.503  28.907  1.00  0.00     0.049 A 
ATOM     46  N   UNL A   1      39.629  30.705  31.672  1.00  0.00    -0.248 NA
ATOM     47  C   UNL A   1      37.416  31.397  31.385  1.00  0.00     0.031 C 
ATOM     48  C   UNL A   1      39.526  28.892  27.579  1.00  0.00     0.029 A 
ATOM     49  N   UNL A   1      40.762  29.203  29.420  1.00  0.00    -0.354 N 
ATOM     50  C   UNL A   1      39.191  31.343  32.826  1.00  0.00     0.074 A 
ATOM     51  C   UNL A   1      37.832  31.777  32.583  1.00  0.00     0.031 C 
ATOM     52  C   UNL A   1      40.722  28.313  27.369  1.00  0.00     0.029 A 
ATOM     53  C   UNL A   1      41.575  28.539  28.535  1.00  0.00     0.049 A 
ATOM     54  H   UNL A   1      41.039  29.442  30.333  1.00  0.00     0.167 HD
ATOM     55  C   UNL A   1      39.858  31.542  33.987  1.00  0.00     0.037 A 
ATOM     56  C   UNL A   1      42.870  28.183  28.647  1.00  0.00     0.037 A 
ATOM     57  C   UNL A   1      41.212  31.120  34.226  1.00  0.00     0.049 A 
ATOM     58  C   UNL A   1      43.620  28.499  29.915  1.00  0.00     0.074 A 
ATOM     59  C   UNL A   1      41.972  31.269  35.373  1.00  0.00     0.029 A 
ATOM     60  N   UNL A   1      42.011  30.473  33.297  1.00  0.00    -0.354 N 
ATOM     61  N   UNL A   1      43.191  29.076  31.012  1.00  0.00    -0.248 NA
ATOM     62  C   UNL A   1      45.038  28.108  29.962  1.00  0.00     0.031 C 
ATOM     63  C   UNL A   1      43.246  30.753  35.122  1.00  0.00     0.029 A 
ATOM     64  C   UNL A   1      43.263  30.233  33.838  1.00  0.00     0.049 A 
ATOM     65  H   UNL A   1      41.731  30.222  32.387  1.00  0.00     0.167 HD
ATOM     66  C   UNL A   1      44.271  29.084  31.888  1.00  0.00     0.074 A 
ATOM     67  C   UNL A   1      45.372  28.446  31.199  1.00  0.00     0.031 C 
ATOM     68  C   UNL A   1      44.344  29.575  33.150  1.00  0.00     0.037 A 
BRANCH  55  69
ATOM     69  C   UNL A   1      39.135  32.268  35.083  1.00  0.00     0.057 A 
ATOM     70  C   UNL A   1      38.420  31.582  36.074  1.00  0.00     0.134 A 
ATOM     71  C   UNL A   1      39.185  33.664  35.171  1.00  0.00     0.134 A 
ATOM     72  F   UNL A   1      38.321  30.244  36.039  1.00  0.00    -0.206 F 
ATOM     73  C   UNL A   1      37.766  32.261  37.103  1.00  0.00     0.040 A 
ATOM     74  C   UNL A   1      38.557  34.353  36.209  1.00  0.00     0.040 A 
ATOM     75  F   UNL A   1      39.856  34.380  34.255  1.00  0.00    -0.206 F 
ATOM     76  C   UNL A   1      37.840  33.651  37.177  1.00  0.00     0.006 A 
ENDBRANCH  55  69
BRANCH  56  77
ATOM     77  C   UNL A   1      43.560  27.502  27.522  1.00  0.00     0.057 A 
ATOM     78  C   UNL A   1      44.105  28.230  26.458  1.00  0.00     0.134 A 
ATOM     79  C   UNL A   1      43.645  26.105  27.458  1.00  0.00     0.134 A 
ATOM     80  F   UNL A   1      44.030  29.570  26.451  1.00  0.00    -0.206 F 
ATOM     81  C   UNL A   1      44.685  27.596  25.359  1.00  0.00     0.040 A 
ATOM     82  C   UNL A   1      44.248  25.459  26.378  1.00  0.00     0.040 A 
ATOM     83  F   UNL A   1      43.140  25.349  28.443  1.00  0.00    -0.206 F 
ATOM     84  C   UNL A   1      44.761  26.205  25.318  1.00  0.00     0.006 A 
ENDBRANCH  56  77
BRANCH  68  85
ATOM     85  C   UNL A   1      45.635  29.389  33.893  1.00  0.00     0.057 A 
ATOM     86  C   UNL A   1      45.897  28.245  34.658  1.00  0.00     0.134 A 
ATOM     87  C   UNL A   1      46.650  30.352  33.803  1.00  0.00     0.134 A 
ATOM     88  F   UNL A   1      44.965  27.291  34.795  1.00  0.00    -0.206 F 
ATOM     89  C   UNL A   1      47.112  28.077  35.325  1.00  0.00     0.040 A 
ATOM     90  C   UNL A   1      47.879  30.182  34.442  1.00  0.00     0.040 A 
ATOM     91  F   UNL A   1      46.468  31.467  33.079  1.00  0.00    -0.206 F 
ATOM     92  C   UNL A   1      48.110  29.044  35.211  1.00  0.00     0.006 A 
ENDBRANCH  68  85
ENDBRANCH  42  43
ENDBRANCH  35  37
ENDBRANCH  34  35
ENDBRANCH  33  34
ENDBRANCH  32  33
ENDBRANCH  31  32
ENDBRANCH  30  31
ENDBRANCH   1  30
TORSDOF 19
ENDMDL
MODEL 2
REMARK VINA RESULT:     -10.4      1.169      5.935
REMARK SMILES CC1=NN(c2ccc(Cl)c(C(=O)OCCOCCOCCOC(=O)c3ccc(-c4c5nc(c(-c6c(F)cccc6F)c6ccc([nH]6)c(-c6c(F)cccc6F)c6nc(c(-c7c(F)cccc7F)c7ccc4[nH]7)C=C6)C=C5)cc3)c2)C(=O)/C1=C\c1ccccc1Cl
REMARK SMILES IDX 17 1 16 2 15 3 14 4 13 5 11 6 12 7 10 8 5 9 6 10 79 11 7 12
REMARK SMILES IDX 8 13 9 14 4 15 1 16 2 17 3 18 82 19 80 20 83 21 81 22 84 23
REMARK SMILES IDX 85 24 89 25 86 26 88 27 90 28 87 29 18 30 19 31 20 32 21 33
REMARK SMILES IDX 22 34 23 35 24 36 25 37 26 38 78 39 27 40 77 41 28 42 29 43
REMARK SMILES IDX 30 44 71 45 31 46 76 47 70 48 72 49 32 50 75 51 69 52 68 53
REMARK SMILES IDX 33 55 59 56 42 57 58 58 43 59 46 60 57 61 73 62 44 63 45 64
REMARK SMILES IDX 56 66 74 67 47 68 34 69 35 70 40 71 36 72 37 73 39 74 41 75
REMARK SMILES IDX 38 76 60 77 61 78 66 79 62 80 63 81 65 82 67 83 64 84 48 85
REMARK SMILES IDX 49 86 54 87 50 88 51 89 53 90 55 91 52 92
REMARK H PARENT 72 54 46 65
REMARK Flexibility Score: inf
ROOT
ATOM      1  C   UNL A   1      30.712  26.861  23.572  1.00  0.00     0.188 C 
ENDROOT
BRANCH   1   2
ATOM      2  O   UNL A   1      31.131  25.560  23.945  1.00  0.00    -0.376 OA
BRANCH   2   3
ATOM      3  C   UNL A   1      30.953  25.125  25.287  1.00  0.00     0.202 C 
BRANCH   3   4
ATOM      4  C   UNL A   1      31.367  23.709  25.699  1.00  0.00     0.261 C 
BRANCH   4   5
ATOM      5  O   UNL A   1      32.773  23.589  25.948  1.00  0.00    -0.460 OA
BRANCH   5   6
ATOM      6  C   UNL A   1      33.326  22.389  25.651  1.00  0.00     0.339 C 
ATOM      7  O   UNL A   1      32.793  21.295  25.734  1.00  0.00    -0.246 OA
BRANCH   6   8
ATOM      8  C   UNL A   1      34.630  22.584  24.988  1.00  0.00     0.080 A 
ATOM      9  C   UNL A   1      37.010  22.941  25.289  1.00  0.00     0.070 A 
ATOM     10  C   UNL A   1      37.137  23.159  23.914  1.00  0.00     0.030 A 
ATOM     11  C   UNL A   1      35.761  22.628  25.826  1.00  0.00     0.045 A 
ATOM     12  C   UNL A   1      36.028  23.040  23.073  1.00  0.00     0.023 A 
ATOM     13  C   UNL A   1      34.765  22.771  23.608  1.00  0.00     0.055 A 
ATOM     14  Cl  UNL A   1      33.431  22.748  22.514  1.00  0.00    -0.083 Cl
BRANCH   9  15
ATOM     15  N   UNL A   1      38.094  23.208  26.135  1.00  0.00    -0.196 N 
ATOM     16  C   UNL A   1      39.832  25.404  28.398  1.00  0.00     0.069 C 
ATOM     17  C   UNL A   1      39.330  24.349  27.467  1.00  0.00     0.071 C 
ATOM     18  N   UNL A   1      38.242  24.449  26.739  1.00  0.00    -0.169 NA
ATOM     19  C   UNL A   1      40.019  23.060  27.260  1.00  0.00     0.065 C 
ATOM     20  C   UNL A   1      39.070  22.258  26.454  1.00  0.00     0.280 C 
ATOM     21  C   UNL A   1      41.289  22.754  27.563  1.00  0.00     0.025 C 
ATOM     22  O   UNL A   1      39.156  21.091  26.149  1.00  0.00    -0.267 OA
BRANCH  21  23
ATOM     23  C   UNL A   1      41.946  21.568  26.989  1.00  0.00    -0.006 A 
ATOM     24  C   UNL A   1      41.751  20.320  27.594  1.00  0.00     0.009 A 
ATOM     25  C   UNL A   1      42.701  21.635  25.798  1.00  0.00     0.048 A 
ATOM     26  C   UNL A   1      42.266  19.161  27.003  1.00  0.00     0.001 A 
ATOM     27  C   UNL A   1      43.201  20.473  25.205  1.00  0.00     0.021 A 
ATOM     28  Cl  UNL A   1      43.034  23.143  25.010  1.00  0.00    -0.084 Cl
ATOM     29  C   UNL A   1      42.976  19.236  25.805  1.00  0.00     0.002 A 
ENDBRANCH  21  23
ENDBRANCH   9  15
ENDBRANCH   6   8
ENDBRANCH   5   6
ENDBRANCH   4   5
ENDBRANCH   3   4
ENDBRANCH   2   3
ENDBRANCH   1   2
BRANCH   1  30
ATOM     30  C   UNL A   1      31.708  28.042  23.600  1.00  0.00     0.188 C 
BRANCH  30  31
ATOM     31  O   UNL A   1      32.342  28.396  24.804  1.00  0.00    -0.376 OA
BRANCH  31  32
ATOM     32  C   UNL A   1      31.623  28.999  25.865  1.00  0.00     0.202 C 
BRANCH  32  33
ATOM     33  C   UNL A   1      32.138  30.142  26.757  1.00  0.00     0.261 C 
BRANCH  33  34
ATOM     34  O   UNL A   1      33.542  30.405  26.754  1.00  0.00    -0.460 OA
BRANCH  34  35
ATOM     35  C   UNL A   1      33.919  31.507  27.448  1.00  0.00     0.338 C 
ATOM     36  O   UNL A   1      33.263  32.508  27.675  1.00  0.00    -0.246 OA
BRANCH  35  37
ATOM     37  C   UNL A   1      35.236  31.255  28.059  1.00  0.00     0.060 A 
ATOM     38  C   UNL A   1      35.496  29.987  28.592  1.00  0.00     0.016 A 
ATOM     39  C   UNL A   1      36.182  32.276  28.149  1.00  0.00     0.016 A 
ATOM     40  C   UNL A   1      36.702  29.740  29.244  1.00  0.00     0.010 A 
ATOM     41  C   UNL A   1      37.382  32.034  28.823  1.00  0.00     0.010 A 
ATOM     42  C   UNL A   1      37.633  30.777  29.401  1.00  0.00    -0.014 A 
BRANCH  42  43
ATOM     43  C   UNL A   1      38.779  30.604  30.324  1.00  0.00     0.031 A 
ATOM     44  C   UNL A   1      39.971  29.820  29.847  1.00  0.00     0.074 A 
ATOM     45  C   UNL A   1      38.771  31.137  31.558  1.00  0.00     0.049 A 
ATOM     46  N   UNL A   1      41.053  29.475  30.496  1.00  0.00    -0.248 NA
ATOM     47  C   UNL A   1      39.937  29.367  28.446  1.00  0.00     0.031 C 
ATOM     48  C   UNL A   1      37.699  31.955  32.121  1.00  0.00     0.029 A 
ATOM     49  N   UNL A   1      39.698  31.052  32.567  1.00  0.00    -0.354 N 
ATOM     50  C   UNL A   1      41.824  28.759  29.587  1.00  0.00     0.074 A 
ATOM     51  C   UNL A   1      41.074  28.697  28.350  1.00  0.00     0.031 C 
ATOM     52  C   UNL A   1      38.017  32.275  33.389  1.00  0.00     0.029 A 
ATOM     53  C   UNL A   1      39.298  31.658  33.732  1.00  0.00     0.049 A 
ATOM     54  H   UNL A   1      40.566  30.598  32.465  1.00  0.00     0.167 HD
ATOM     55  C   UNL A   1      43.049  28.212  29.763  1.00  0.00     0.037 A 
ATOM     56  C   UNL A   1      39.888  31.683  34.943  1.00  0.00     0.037 A 
ATOM     57  C   UNL A   1      43.790  28.265  30.994  1.00  0.00     0.049 A 
ATOM     58  C   UNL A   1      41.209  30.986  35.141  1.00  0.00     0.074 A 
ATOM     59  C   UNL A   1      45.043  27.747  31.269  1.00  0.00     0.029 A 
ATOM     60  N   UNL A   1      43.340  28.866  32.159  1.00  0.00    -0.354 N 
ATOM     61  N   UNL A   1      41.944  30.338  34.269  1.00  0.00    -0.248 NA
ATOM     62  C   UNL A   1      41.786  31.028  36.493  1.00  0.00     0.031 C 
ATOM     63  C   UNL A   1      45.332  27.995  32.615  1.00  0.00     0.029 A 
ATOM     64  C   UNL A   1      44.283  28.715  33.162  1.00  0.00     0.049 A 
ATOM     65  H   UNL A   1      42.479  29.331  32.259  1.00  0.00     0.167 HD
ATOM     66  C   UNL A   1      43.082  29.929  34.956  1.00  0.00     0.074 A 
ATOM     67  C   UNL A   1      42.945  30.411  36.314  1.00  0.00     0.031 C 
ATOM     68  C   UNL A   1      44.145  29.220  34.504  1.00  0.00     0.037 A 
BRANCH  55  69
ATOM     69  C   UNL A   1      43.657  27.489  28.597  1.00  0.00     0.057 A 
ATOM     70  C   UNL A   1      43.544  26.101  28.452  1.00  0.00     0.134 A 
ATOM     71  C   UNL A   1      44.328  28.194  27.590  1.00  0.00     0.134 A 
ATOM     72  F   UNL A   1      42.925  25.366  29.389  1.00  0.00    -0.206 F 
ATOM     73  C   UNL A   1      44.095  25.435  27.355  1.00  0.00     0.040 A 
ATOM     74  C   UNL A   1      44.860  27.543  26.476  1.00  0.00     0.040 A 
ATOM     75  F   UNL A   1      44.468  29.526  27.668  1.00  0.00    -0.206 F 
ATOM     76  C   UNL A   1      44.748  26.159  26.359  1.00  0.00     0.006 A 
ENDBRANCH  55  69
BRANCH  56  77
ATOM     77  C   UNL A   1      39.233  32.377  36.081  1.00  0.00     0.057 A 
ATOM     78  C   UNL A   1      39.579  33.688  36.428  1.00  0.00     0.134 A 
ATOM     79  C   UNL A   1      38.284  31.728  36.882  1.00  0.00     0.134 A 
ATOM     80  F   UNL A   1      40.501  34.352  35.713  1.00  0.00    -0.206 F 
ATOM     81  C   UNL A   1      39.027  34.320  37.542  1.00  0.00     0.040 A 
ATOM     82  C   UNL A   1      37.703  32.358  37.983  1.00  0.00     0.040 A 
ATOM     83  F   UNL A   1      37.911  30.470  36.606  1.00  0.00    -0.206 F 
ATOM     84  C   UNL A   1      38.084  33.656  38.323  1.00  0.00     0.006 A 
ENDBRANCH  56  77
BRANCH  68  85
ATOM     85  C   UNL A   1      45.273  28.972  35.464  1.00  0.00     0.057 A 
ATOM     86  C   UNL A   1      45.268  27.894  36.358  1.00  0.00     0.134 A 
ATOM     87  C   UNL A   1      46.404  29.801  35.457  1.00  0.00     0.134 A 
ATOM     88  F   UNL A   1      44.212  27.070  36.423  1.00  0.00    -0.206 F 
ATOM     89  C   UNL A   1      46.334  27.664  37.228  1.00  0.00     0.040 A 
ATOM     90  C   UNL A   1      47.489  29.564  36.303  1.00  0.00     0.040 A 
ATOM     91  F   UNL A   1      46.479  30.845  34.619  1.00  0.00    -0.206 F 
ATOM     92  C   UNL A   1      47.453  28.495  37.196  1.00  0.00     0.006 A 
ENDBRANCH  68  85
ENDBRANCH  42  43
ENDBRANCH  35  37
ENDBRANCH  34  35
ENDBRANCH  33  34
ENDBRANCH  32  33
ENDBRANCH  31  32
ENDBRANCH  30  31
ENDBRANCH   1  30
TORSDOF 19
ENDMDL
MODEL 3
REMARK VINA RESULT:     -10.0      4.298      8.234
REMARK SMILES CC1=NN(c2ccc(Cl)c(C(=O)OCCOCCOCCOC(=O)c3ccc(-c4c5nc(c(-c6c(F)cccc6F)c6ccc([nH]6)c(-c6c(F)cccc6F)c6nc(c(-c7c(F)cccc7F)c7ccc4[nH]7)C=C6)C=C5)cc3)c2)C(=O)/C1=C\c1ccccc1Cl
REMARK SMILES IDX 17 1 16 2 15 3 14 4 13 5 11 6 12 7 10 8 5 9 6 10 79 11 7 12
REMARK SMILES IDX 8 13 9 14 4 15 1 16 2 17 3 18 82 19 80 20 83 21 81 22 84 23
REMARK SMILES IDX 85 24 89 25 86 26 88 27 90 28 87 29 18 30 19 31 20 32 21 33
REMARK SMILES IDX 22 34 23 35 24 36 25 37 26 38 78 39 27 40 77 41 28 42 29 43
REMARK SMILES IDX 30 44 71 45 31 46 76 47 70 48 72 49 32 50 75 51 69 52 68 53
REMARK SMILES IDX 33 55 59 56 42 57 58 58 43 59 46 60 57 61 73 62 44 63 45 64
REMARK SMILES IDX 56 66 74 67 47 68 34 69 35 70 40 71 36 72 37 73 39 74 41 75
REMARK SMILES IDX 38 76 60 77 61 78 66 79 62 80 63 81 65 82 67 83 64 84 48 85
REMARK SMILES IDX 49 86 54 87 50 88 51 89 53 90 55 91 52 92
REMARK H PARENT 72 54 46 65
REMARK Flexibility Score: inf
ROOT
ATOM      1  C   UNL A   1      36.815  34.289  33.814  1.00  0.00     0.188 C 
ENDROOT
BRANCH   1   2
ATOM      2  O   UNL A   1      37.473  33.983  35.032  1.00  0.00    -0.376 OA
BRANCH   2   3
ATOM      3  C   UNL A   1      38.794  34.459  35.252  1.00  0.00     0.202 C 
BRANCH   3   4
ATOM      4  C   UNL A   1      39.995  33.540  35.006  1.00  0.00     0.261 C 
BRANCH   4   5
ATOM      5  O   UNL A   1      39.612  32.219  34.602  1.00  0.00    -0.460 OA
BRANCH   5   6
ATOM      6  C   UNL A   1      40.023  31.212  35.409  1.00  0.00     0.339 C 
ATOM      7  O   UNL A   1      39.939  31.165  36.625  1.00  0.00    -0.246 OA
BRANCH   6   8
ATOM      8  C   UNL A   1      40.408  30.040  34.599  1.00  0.00     0.080 A 
ATOM      9  C   UNL A   1      42.164  28.458  34.050  1.00  0.00     0.070 A 
ATOM     10  C   UNL A   1      41.371  27.962  33.011  1.00  0.00     0.030 A 
ATOM     11  C   UNL A   1      41.675  29.481  34.863  1.00  0.00     0.045 A 
ATOM     12  C   UNL A   1      40.087  28.465  32.797  1.00  0.00     0.023 A 
ATOM     13  C   UNL A   1      39.606  29.520  33.578  1.00  0.00     0.055 A 
ATOM     14  Cl  UNL A   1      38.052  30.155  33.179  1.00  0.00    -0.083 Cl
BRANCH   9  15
ATOM     15  N   UNL A   1      43.499  28.050  34.159  1.00  0.00    -0.196 N 
ATOM     16  C   UNL A   1      47.020  28.768  33.931  1.00  0.00     0.069 C 
ATOM     17  C   UNL A   1      45.635  28.220  34.048  1.00  0.00     0.071 C 
ATOM     18  N   UNL A   1      44.538  28.900  33.806  1.00  0.00    -0.169 NA
ATOM     19  C   UNL A   1      45.348  26.829  34.451  1.00  0.00     0.065 C 
ATOM     20  C   UNL A   1      43.881  26.797  34.650  1.00  0.00     0.280 C 
ATOM     21  C   UNL A   1      46.191  25.786  34.447  1.00  0.00     0.025 C 
ATOM     22  O   UNL A   1      43.212  25.897  35.102  1.00  0.00    -0.267 OA
BRANCH  21  23
ATOM     23  C   UNL A   1      45.695  24.403  34.531  1.00  0.00    -0.006 A 
ATOM     24  C   UNL A   1      45.804  23.711  35.743  1.00  0.00     0.009 A 
ATOM     25  C   UNL A   1      45.035  23.779  33.449  1.00  0.00     0.048 A 
ATOM     26  C   UNL A   1      45.235  22.440  35.884  1.00  0.00     0.001 A 
ATOM     27  C   UNL A   1      44.457  22.517  33.599  1.00  0.00     0.021 A 
ATOM     28  Cl  UNL A   1      44.898  24.543  31.899  1.00  0.00    -0.084 Cl
ATOM     29  C   UNL A   1      44.552  21.851  34.820  1.00  0.00     0.002 A 
ENDBRANCH  21  23
ENDBRANCH   9  15
ENDBRANCH   6   8
ENDBRANCH   5   6
ENDBRANCH   4   5
ENDBRANCH   3   4
ENDBRANCH   2   3
ENDBRANCH   1   2
BRANCH   1  30
ATOM     30  C   UNL A   1      36.070  33.187  33.028  1.00  0.00     0.188 C 
BRANCH  30  31
ATOM     31  O   UNL A   1      34.819  33.464  32.449  1.00  0.00    -0.376 OA
BRANCH  31  32
ATOM     32  C   UNL A   1      34.707  33.868  31.096  1.00  0.00     0.202 C 
BRANCH  32  33
ATOM     33  C   UNL A   1      35.148  33.040  29.877  1.00  0.00     0.261 C 
BRANCH  33  34
ATOM     34  O   UNL A   1      34.799  31.656  29.854  1.00  0.00    -0.460 OA
BRANCH  34  35
ATOM     35  C   UNL A   1      34.962  31.044  28.655  1.00  0.00     0.338 C 
ATOM     36  O   UNL A   1      34.276  31.164  27.656  1.00  0.00    -0.246 OA
BRANCH  35  37
ATOM     37  C   UNL A   1      36.235  30.302  28.669  1.00  0.00     0.060 A 
ATOM     38  C   UNL A   1      36.627  29.666  29.854  1.00  0.00     0.016 A 
ATOM     39  C   UNL A   1      37.054  30.277  27.540  1.00  0.00     0.016 A 
ATOM     40  C   UNL A   1      37.860  29.021  29.922  1.00  0.00     0.010 A 
ATOM     41  C   UNL A   1      38.300  29.650  27.617  1.00  0.00     0.010 A 
ATOM     42  C   UNL A   1      38.721  29.048  28.816  1.00  0.00    -0.014 A 
BRANCH  42  43
ATOM     43  C   UNL A   1      40.129  28.613  28.969  1.00  0.00     0.031 A 
ATOM     44  C   UNL A   1      41.127  29.596  29.517  1.00  0.00     0.074 A 
ATOM     45  C   UNL A   1      40.518  27.370  28.637  1.00  0.00     0.049 A 
ATOM     46  N   UNL A   1      42.420  29.472  29.669  1.00  0.00    -0.248 NA
ATOM     47  C   UNL A   1      40.591  30.896  29.954  1.00  0.00     0.031 C 
ATOM     48  C   UNL A   1      39.642  26.311  28.140  1.00  0.00     0.029 A 
ATOM     49  N   UNL A   1      41.766  26.796  28.656  1.00  0.00    -0.354 N 
ATOM     50  C   UNL A   1      42.852  30.676  30.212  1.00  0.00     0.074 A 
ATOM     51  C   UNL A   1      41.689  31.528  30.337  1.00  0.00     0.031 C 
ATOM     52  C   UNL A   1      40.385  25.222  27.874  1.00  0.00     0.029 A 
ATOM     53  C   UNL A   1      41.789  25.519  28.153  1.00  0.00     0.049 A 
ATOM     54  H   UNL A   1      42.566  27.257  28.997  1.00  0.00     0.167 HD
ATOM     55  C   UNL A   1      44.103  31.036  30.582  1.00  0.00     0.037 A 
ATOM     56  C   UNL A   1      42.832  24.698  27.919  1.00  0.00     0.037 A 
ATOM     57  C   UNL A   1      45.261  30.194  30.449  1.00  0.00     0.049 A 
ATOM     58  C   UNL A   1      44.228  25.158  28.252  1.00  0.00     0.074 A 
ATOM     59  C   UNL A   1      46.571  30.467  30.803  1.00  0.00     0.029 A 
ATOM     60  N   UNL A   1      45.249  28.916  29.912  1.00  0.00    -0.354 N 
ATOM     61  N   UNL A   1      44.624  26.286  28.792  1.00  0.00    -0.248 NA
ATOM     62  C   UNL A   1      45.324  24.225  27.946  1.00  0.00     0.031 C 
ATOM     63  C   UNL A   1      47.359  29.371  30.437  1.00  0.00     0.029 A 
ATOM     64  C   UNL A   1      46.532  28.395  29.907  1.00  0.00     0.049 A 
ATOM     65  H   UNL A   1      44.448  28.449  29.583  1.00  0.00     0.167 HD
ATOM     66  C   UNL A   1      46.005  26.183  28.923  1.00  0.00     0.074 A 
ATOM     67  C   UNL A   1      46.377  24.879  28.416  1.00  0.00     0.031 C 
ATOM     68  C   UNL A   1      46.886  27.085  29.421  1.00  0.00     0.037 A 
BRANCH  55  69
ATOM     69  C   UNL A   1      44.286  32.413  31.150  1.00  0.00     0.057 A 
ATOM     70  C   UNL A   1      44.125  32.674  32.516  1.00  0.00     0.134 A 
ATOM     71  C   UNL A   1      44.666  33.480  30.327  1.00  0.00     0.134 A 
ATOM     72  F   UNL A   1      43.747  31.698  33.356  1.00  0.00    -0.206 F 
ATOM     73  C   UNL A   1      44.315  33.953  33.042  1.00  0.00     0.040 A 
ATOM     74  C   UNL A   1      44.885  34.758  30.844  1.00  0.00     0.040 A 
ATOM     75  F   UNL A   1      44.841  33.296  29.009  1.00  0.00    -0.206 F 
ATOM     76  C   UNL A   1      44.705  34.998  32.205  1.00  0.00     0.006 A 
ENDBRANCH  55  69
BRANCH  56  77
ATOM     77  C   UNL A   1      42.611  23.358  27.318  1.00  0.00     0.057 A 
ATOM     78  C   UNL A   1      42.322  22.245  28.116  1.00  0.00     0.134 A 
ATOM     79  C   UNL A   1      42.736  23.147  25.940  1.00  0.00     0.134 A 
ATOM     80  F   UNL A   1      42.215  22.380  29.448  1.00  0.00    -0.206 F 
ATOM     81  C   UNL A   1      42.190  20.968  27.571  1.00  0.00     0.040 A 
ATOM     82  C   UNL A   1      42.579  21.880  25.377  1.00  0.00     0.040 A 
ATOM     83  F   UNL A   1      43.015  24.171  25.120  1.00  0.00    -0.206 F 
ATOM     84  C   UNL A   1      42.316  20.783  26.196  1.00  0.00     0.006 A 
ENDBRANCH  56  77
BRANCH  68  85
ATOM     85  C   UNL A   1      48.329  26.677  29.499  1.00  0.00     0.057 A 
ATOM     86  C   UNL A   1      49.248  26.993  28.491  1.00  0.00     0.134 A 
ATOM     87  C   UNL A   1      48.813  25.998  30.626  1.00  0.00     0.134 A 
ATOM     88  F   UNL A   1      48.848  27.631  27.382  1.00  0.00    -0.206 F 
ATOM     89  C   UNL A   1      50.591  26.626  28.589  1.00  0.00     0.040 A 
ATOM     90  C   UNL A   1      50.159  25.651  30.748  1.00  0.00     0.040 A 
ATOM     91  F   UNL A   1      47.987  25.674  31.632  1.00  0.00    -0.206 F 
ATOM     92  C   UNL A   1      51.052  25.960  29.724  1.00  0.00     0.006 A 
ENDBRANCH  68  85
ENDBRANCH  42  43
ENDBRANCH  35  37
ENDBRANCH  34  35
ENDBRANCH  33  34
ENDBRANCH  32  33
ENDBRANCH  31  32
ENDBRANCH  30  31
ENDBRANCH   1  30
TORSDOF 19
ENDMDL
