MODEL 1
REMARK VINA RESULT:     -10.3      0.000      0.000
REMARK SMILES CC(=O)N[C@@H](Cc1c(OCC(C)C)ccc2ccccc12)C(=O)OCCOCCOCCOC(=O)c1ccc(-c2c3nc(c(-c4c(F)cccc4F)c4ccc([nH]4)c(-c4c(F)cccc4F)c4nc(c(-c5c(F)cccc5F)c5ccc2[nH]5)C=C4)C=C3)cc1
REMARK SMILES IDX 27 1 26 2 25 3 24 4 22 5 23 6 5 7 4 8 1 9 2 10 3 11 6 13
REMARK SMILES IDX 7 14 8 15 21 16 14 17 16 18 20 19 15 20 17 21 19 22 18 23
REMARK SMILES IDX 9 24 10 25 11 26 12 27 13 28 28 29 29 30 30 31 31 32 32 33
REMARK SMILES IDX 33 34 34 35 35 36 36 37 37 38 89 39 38 40 88 41 39 42 40 43
REMARK SMILES IDX 41 44 82 45 42 46 87 47 81 48 83 49 43 50 86 51 80 52 79 53
REMARK SMILES IDX 44 55 70 56 53 57 69 58 54 59 57 60 68 61 84 62 55 63 56 64
REMARK SMILES IDX 67 66 85 67 58 68 45 69 46 70 51 71 47 72 48 73 50 74 52 75
REMARK SMILES IDX 49 76 71 77 72 78 77 79 73 80 74 81 76 82 78 83 75 84 59 85
REMARK SMILES IDX 60 86 65 87 61 88 62 89 64 90 66 91 63 92
REMARK H PARENT 4 12 83 54 57 65
REMARK Flexibility Score: inf
ROOT
ATOM      1  O   UNL A   1      39.729  20.665  26.111  1.00  0.00    -0.376 OA
ENDROOT
BRANCH   1   2
ATOM      2  C   UNL A   1      38.858  21.788  26.107  1.00  0.00     0.202 C 
BRANCH   2   3
ATOM      3  C   UNL A   1      37.790  21.868  25.006  1.00  0.00     0.261 C 
BRANCH   3   4
ATOM      4  O   UNL A   1      37.258  23.187  24.759  1.00  0.00    -0.462 OA
BRANCH   4   5
ATOM      5  C   UNL A   1      36.402  23.323  23.709  1.00  0.00     0.329 C 
ATOM      6  O   UNL A   1      36.621  22.900  22.577  1.00  0.00    -0.250 OA
BRANCH   5   7
ATOM      7  C   UNL A   1      35.148  24.166  24.031  1.00  0.00     0.196 C 
BRANCH   7   8
ATOM      8  N   UNL A   1      33.952  23.979  23.207  1.00  0.00    -0.343 N 
ATOM      9  C   UNL A   1      33.657  26.306  22.454  1.00  0.00     0.114 C 
ATOM     10  C   UNL A   1      33.184  24.885  22.545  1.00  0.00     0.217 C 
ATOM     11  O   UNL A   1      32.142  24.520  22.003  1.00  0.00    -0.275 OA
ATOM     12  H   UNL A   1      33.654  23.044  23.120  1.00  0.00     0.164 HD
ENDBRANCH   7   8
BRANCH   7  13
ATOM     13  C   UNL A   1      34.762  23.972  25.506  1.00  0.00     0.077 C 
BRANCH  13  14
ATOM     14  C   UNL A   1      33.335  24.365  25.898  1.00  0.00     0.005 A 
ATOM     15  C   UNL A   1      32.334  23.371  26.053  1.00  0.00     0.123 A 
ATOM     16  C   UNL A   1      32.991  25.744  26.097  1.00  0.00    -0.011 A 
ATOM     17  C   UNL A   1      31.001  23.749  26.158  1.00  0.00     0.047 A 
ATOM     18  C   UNL A   1      31.637  26.078  26.341  1.00  0.00    -0.018 A 
ATOM     19  C   UNL A   1      33.917  26.819  26.100  1.00  0.00     0.009 A 
ATOM     20  C   UNL A   1      30.657  25.086  26.316  1.00  0.00     0.012 A 
ATOM     21  C   UNL A   1      31.261  27.402  26.612  1.00  0.00     0.009 A 
ATOM     22  C   UNL A   1      33.533  28.133  26.382  1.00  0.00     0.001 A 
ATOM     23  C   UNL A   1      32.205  28.423  26.645  1.00  0.00     0.001 A 
BRANCH  15  24
ATOM     24  O   UNL A   1      32.749  22.070  26.150  1.00  0.00    -0.493 OA
BRANCH  24  25
ATOM     25  C   UNL A   1      32.107  21.024  25.403  1.00  0.00     0.232 C 
BRANCH  25  26
ATOM     26  C   UNL A   1      33.053  20.054  24.649  1.00  0.00     0.020 C 
ATOM     27  C   UNL A   1      34.547  20.321  24.842  1.00  0.00     0.011 C 
ATOM     28  C   UNL A   1      32.760  18.614  25.089  1.00  0.00     0.011 C 
ENDBRANCH  25  26
ENDBRANCH  24  25
ENDBRANCH  15  24
ENDBRANCH  13  14
ENDBRANCH   7  13
ENDBRANCH   5   7
ENDBRANCH   4   5
ENDBRANCH   3   4
ENDBRANCH   2   3
ENDBRANCH   1   2
BRANCH   1  29
ATOM     29  C   UNL A   1      40.998  20.770  26.753  1.00  0.00     0.188 C 
BRANCH  29  30
ATOM     30  C   UNL A   1      42.221  20.052  26.153  1.00  0.00     0.188 C 
BRANCH  30  31
ATOM     31  O   UNL A   1      43.049  20.883  25.374  1.00  0.00    -0.376 OA
BRANCH  31  32
ATOM     32  C   UNL A   1      43.000  22.266  25.644  1.00  0.00     0.202 C 
BRANCH  32  33
ATOM     33  C   UNL A   1      43.682  23.179  24.615  1.00  0.00     0.261 C 
BRANCH  33  34
ATOM     34  O   UNL A   1      43.692  24.588  24.917  1.00  0.00    -0.460 OA
BRANCH  34  35
ATOM     35  C   UNL A   1      44.547  25.018  25.872  1.00  0.00     0.338 C 
ATOM     36  O   UNL A   1      45.767  24.921  25.862  1.00  0.00    -0.246 OA
BRANCH  35  37
ATOM     37  C   UNL A   1      43.775  25.802  26.863  1.00  0.00     0.060 A 
ATOM     38  C   UNL A   1      44.053  27.166  27.048  1.00  0.00     0.016 A 
ATOM     39  C   UNL A   1      42.775  25.185  27.616  1.00  0.00     0.016 A 
ATOM     40  C   UNL A   1      43.349  27.908  28.003  1.00  0.00     0.010 A 
ATOM     41  C   UNL A   1      42.092  25.920  28.590  1.00  0.00     0.010 A 
ATOM     42  C   UNL A   1      42.394  27.276  28.812  1.00  0.00    -0.014 A 
BRANCH  42  43
ATOM     43  C   UNL A   1      41.871  27.934  30.038  1.00  0.00     0.031 A 
ATOM     44  C   UNL A   1      40.647  28.799  29.901  1.00  0.00     0.074 A 
ATOM     45  C   UNL A   1      42.473  27.815  31.235  1.00  0.00     0.049 A 
ATOM     46  N   UNL A   1      40.109  29.630  30.755  1.00  0.00    -0.248 NA
ATOM     47  C   UNL A   1      39.942  28.718  28.611  1.00  0.00     0.031 C 
ATOM     48  C   UNL A   1      43.620  26.961  31.529  1.00  0.00     0.029 A 
ATOM     49  N   UNL A   1      42.207  28.447  32.427  1.00  0.00    -0.354 N 
ATOM     50  C   UNL A   1      39.022  30.192  30.097  1.00  0.00     0.074 A 
ATOM     51  C   UNL A   1      38.989  29.623  28.768  1.00  0.00     0.031 C 
ATOM     52  C   UNL A   1      43.977  27.141  32.813  1.00  0.00     0.029 A 
ATOM     53  C   UNL A   1      43.118  28.161  33.414  1.00  0.00     0.049 A 
ATOM     54  H   UNL A   1      41.438  29.047  32.560  1.00  0.00     0.167 HD
ATOM     55  C   UNL A   1      38.131  31.104  30.557  1.00  0.00     0.037 A 
ATOM     56  C   UNL A   1      43.264  28.693  34.646  1.00  0.00     0.037 A 
ATOM     57  C   UNL A   1      38.169  31.673  31.877  1.00  0.00     0.049 A 
ATOM     58  C   UNL A   1      42.322  29.778  35.107  1.00  0.00     0.074 A 
ATOM     59  C   UNL A   1      37.312  32.602  32.440  1.00  0.00     0.029 A 
ATOM     60  N   UNL A   1      39.120  31.371  32.840  1.00  0.00    -0.354 N 
ATOM     61  N   UNL A   1      41.302  30.313  34.480  1.00  0.00    -0.248 NA
ATOM     62  C   UNL A   1      42.555  30.338  36.447  1.00  0.00     0.031 C 
ATOM     63  C   UNL A   1      37.778  32.906  33.722  1.00  0.00     0.029 A 
ATOM     64  C   UNL A   1      38.885  32.113  33.985  1.00  0.00     0.049 A 
ATOM     65  H   UNL A   1      39.854  30.725  32.725  1.00  0.00     0.167 HD
ATOM     66  C   UNL A   1      40.748  31.235  35.363  1.00  0.00     0.074 A 
ATOM     67  C   UNL A   1      41.547  31.189  36.569  1.00  0.00     0.031 C 
ATOM     68  C   UNL A   1      39.672  32.041  35.191  1.00  0.00     0.037 A 
BRANCH  55  69
ATOM     69  C   UNL A   1      37.070  31.571  29.603  1.00  0.00     0.057 A 
ATOM     70  C   UNL A   1      37.204  32.751  28.859  1.00  0.00     0.134 A 
ATOM     71  C   UNL A   1      35.899  30.824  29.422  1.00  0.00     0.134 A 
ATOM     72  F   UNL A   1      38.293  33.523  28.997  1.00  0.00    -0.206 F 
ATOM     73  C   UNL A   1      36.198  33.188  27.995  1.00  0.00     0.040 A 
ATOM     74  C   UNL A   1      34.901  31.232  28.536  1.00  0.00     0.040 A 
ATOM     75  F   UNL A   1      35.708  29.681  30.099  1.00  0.00    -0.206 F 
ATOM     76  C   UNL A   1      35.044  32.423  27.827  1.00  0.00     0.006 A 
ENDBRANCH  55  69
BRANCH  56  77
ATOM     77  C   UNL A   1      44.363  28.231  35.534  1.00  0.00     0.057 A 
ATOM     78  C   UNL A   1      44.160  27.203  36.463  1.00  0.00     0.134 A 
ATOM     79  C   UNL A   1      45.632  28.823  35.501  1.00  0.00     0.134 A 
ATOM     80  F   UNL A   1      42.959  26.615  36.566  1.00  0.00    -0.206 F 
ATOM     81  C   UNL A   1      45.170  26.792  37.335  1.00  0.00     0.040 A 
ATOM     82  C   UNL A   1      46.660  28.402  36.347  1.00  0.00     0.040 A 
ATOM     83  F   UNL A   1      45.893  29.818  34.640  1.00  0.00    -0.206 F 
ATOM     84  C   UNL A   1      46.427  27.389  37.274  1.00  0.00     0.006 A 
ENDBRANCH  56  77
BRANCH  68  85
ATOM     85  C   UNL A   1      39.236  32.890  36.353  1.00  0.00     0.057 A 
ATOM     86  C   UNL A   1      38.399  32.403  37.365  1.00  0.00     0.134 A 
ATOM     87  C   UNL A   1      39.722  34.198  36.492  1.00  0.00     0.134 A 
ATOM     88  F   UNL A   1      37.889  31.164  37.290  1.00  0.00    -0.206 F 
ATOM     89  C   UNL A   1      38.047  33.193  38.462  1.00  0.00     0.040 A 
ATOM     90  C   UNL A   1      39.402  34.985  37.599  1.00  0.00     0.040 A 
ATOM     91  F   UNL A   1      40.538  34.723  35.565  1.00  0.00    -0.206 F 
ATOM     92  C   UNL A   1      38.557  34.484  38.587  1.00  0.00     0.006 A 
ENDBRANCH  68  85
ENDBRANCH  42  43
ENDBRANCH  35  37
ENDBRANCH  34  35
ENDBRANCH  33  34
ENDBRANCH  32  33
ENDBRANCH  31  32
ENDBRANCH  30  31
ENDBRANCH  29  30
ENDBRANCH   1  29
TORSDOF 23
ENDMDL
MODEL 2
REMARK VINA RESULT:      -9.7      1.275      6.319
REMARK SMILES CC(=O)N[C@@H](Cc1c(OCC(C)C)ccc2ccccc12)C(=O)OCCOCCOCCOC(=O)c1ccc(-c2c3nc(c(-c4c(F)cccc4F)c4ccc([nH]4)c(-c4c(F)cccc4F)c4nc(c(-c5c(F)cccc5F)c5ccc2[nH]5)C=C4)C=C3)cc1
REMARK SMILES IDX 27 1 26 2 25 3 24 4 22 5 23 6 5 7 4 8 1 9 2 10 3 11 6 13
REMARK SMILES IDX 7 14 8 15 21 16 14 17 16 18 20 19 15 20 17 21 19 22 18 23
REMARK SMILES IDX 9 24 10 25 11 26 12 27 13 28 28 29 29 30 30 31 31 32 32 33
REMARK SMILES IDX 33 34 34 35 35 36 36 37 37 38 89 39 38 40 88 41 39 42 40 43
REMARK SMILES IDX 41 44 82 45 42 46 87 47 81 48 83 49 43 50 86 51 80 52 79 53
REMARK SMILES IDX 44 55 70 56 53 57 69 58 54 59 57 60 68 61 84 62 55 63 56 64
REMARK SMILES IDX 67 66 85 67 58 68 45 69 46 70 51 71 47 72 48 73 50 74 52 75
REMARK SMILES IDX 49 76 71 77 72 78 77 79 73 80 74 81 76 82 78 83 75 84 59 85
REMARK SMILES IDX 60 86 65 87 61 88 62 89 64 90 66 91 63 92
REMARK H PARENT 4 12 83 54 57 65
REMARK Flexibility Score: inf
ROOT
ATOM      1  O   UNL A   1      39.232  22.252  26.882  1.00  0.00    -0.376 OA
ENDROOT
BRANCH   1   2
ATOM      2  C   UNL A   1      38.442  22.804  25.838  1.00  0.00     0.202 C 
BRANCH   2   3
ATOM      3  C   UNL A   1      37.318  23.779  26.221  1.00  0.00     0.261 C 
BRANCH   3   4
ATOM      4  O   UNL A   1      36.081  23.608  25.498  1.00  0.00    -0.462 OA
BRANCH   4   5
ATOM      5  C   UNL A   1      34.938  23.539  26.234  1.00  0.00     0.329 C 
ATOM      6  O   UNL A   1      34.754  22.752  27.157  1.00  0.00    -0.250 OA
BRANCH   5   7
ATOM      7  C   UNL A   1      33.818  24.481  25.738  1.00  0.00     0.196 C 
BRANCH   7   8
ATOM      8  N   UNL A   1      32.591  24.583  26.529  1.00  0.00    -0.343 N 
ATOM      9  C   UNL A   1      31.518  22.483  25.815  1.00  0.00     0.114 C 
ATOM     10  C   UNL A   1      31.490  23.786  26.559  1.00  0.00     0.217 C 
ATOM     11  O   UNL A   1      30.510  24.126  27.221  1.00  0.00    -0.275 OA
ATOM     12  H   UNL A   1      32.557  25.356  27.139  1.00  0.00     0.164 HD
ENDBRANCH   7   8
BRANCH   7  13
ATOM     13  C   UNL A   1      34.387  25.894  25.532  1.00  0.00     0.077 C 
BRANCH  13  14
ATOM     14  C   UNL A   1      33.519  26.873  24.737  1.00  0.00     0.005 A 
ATOM     15  C   UNL A   1      33.317  26.684  23.344  1.00  0.00     0.123 A 
ATOM     16  C   UNL A   1      32.914  28.000  25.387  1.00  0.00    -0.011 A 
ATOM     17  C   UNL A   1      32.745  27.702  22.589  1.00  0.00     0.047 A 
ATOM     18  C   UNL A   1      32.218  28.946  24.598  1.00  0.00    -0.018 A 
ATOM     19  C   UNL A   1      32.928  28.233  26.787  1.00  0.00     0.009 A 
ATOM     20  C   UNL A   1      32.188  28.812  23.210  1.00  0.00     0.012 A 
ATOM     21  C   UNL A   1      31.550  30.026  25.194  1.00  0.00     0.009 A 
ATOM     22  C   UNL A   1      32.251  29.306  27.371  1.00  0.00     0.001 A 
ATOM     23  C   UNL A   1      31.554  30.199  26.574  1.00  0.00     0.001 A 
BRANCH  15  24
ATOM     24  O   UNL A   1      33.650  25.464  22.820  1.00  0.00    -0.493 OA
BRANCH  24  25
ATOM     25  C   UNL A   1      32.645  24.483  22.515  1.00  0.00     0.232 C 
BRANCH  25  26
ATOM     26  C   UNL A   1      33.172  23.086  22.097  1.00  0.00     0.020 C 
ATOM     27  C   UNL A   1      34.471  22.650  22.777  1.00  0.00     0.011 C 
ATOM     28  C   UNL A   1      32.097  22.030  22.390  1.00  0.00     0.011 C 
ENDBRANCH  25  26
ENDBRANCH  24  25
ENDBRANCH  15  24
ENDBRANCH  13  14
ENDBRANCH   7  13
ENDBRANCH   5   7
ENDBRANCH   4   5
ENDBRANCH   3   4
ENDBRANCH   2   3
ENDBRANCH   1   2
BRANCH   1  29
ATOM     29  C   UNL A   1      40.652  22.351  26.809  1.00  0.00     0.188 C 
BRANCH  29  30
ATOM     30  C   UNL A   1      41.512  21.074  26.837  1.00  0.00     0.188 C 
BRANCH  30  31
ATOM     31  O   UNL A   1      42.270  20.866  25.669  1.00  0.00    -0.376 OA
BRANCH  31  32
ATOM     32  C   UNL A   1      43.546  21.464  25.622  1.00  0.00     0.202 C 
BRANCH  32  33
ATOM     33  C   UNL A   1      43.729  22.582  24.585  1.00  0.00     0.261 C 
BRANCH  33  34
ATOM     34  O   UNL A   1      43.294  23.897  24.980  1.00  0.00    -0.460 OA
BRANCH  34  35
ATOM     35  C   UNL A   1      44.246  24.824  25.230  1.00  0.00     0.338 C 
ATOM     36  O   UNL A   1      45.186  25.123  24.507  1.00  0.00    -0.246 OA
BRANCH  35  37
ATOM     37  C   UNL A   1      43.862  25.560  26.456  1.00  0.00     0.060 A 
ATOM     38  C   UNL A   1      42.707  25.188  27.164  1.00  0.00     0.016 A 
ATOM     39  C   UNL A   1      44.643  26.626  26.905  1.00  0.00     0.016 A 
ATOM     40  C   UNL A   1      42.319  25.896  28.307  1.00  0.00     0.010 A 
ATOM     41  C   UNL A   1      44.239  27.351  28.030  1.00  0.00     0.010 A 
ATOM     42  C   UNL A   1      43.060  27.012  28.721  1.00  0.00    -0.014 A 
BRANCH  42  43
ATOM     43  C   UNL A   1      42.511  27.974  29.712  1.00  0.00     0.031 A 
ATOM     44  C   UNL A   1      43.176  28.047  31.060  1.00  0.00     0.074 A 
ATOM     45  C   UNL A   1      41.432  28.736  29.459  1.00  0.00     0.049 A 
ATOM     46  N   UNL A   1      42.784  28.644  32.156  1.00  0.00    -0.248 NA
ATOM     47  C   UNL A   1      44.457  27.332  31.186  1.00  0.00     0.031 C 
ATOM     48  C   UNL A   1      40.731  28.819  28.181  1.00  0.00     0.029 A 
ATOM     49  N   UNL A   1      40.721  29.569  30.289  1.00  0.00    -0.354 N 
ATOM     50  C   UNL A   1      43.755  28.354  33.107  1.00  0.00     0.074 A 
ATOM     51  C   UNL A   1      44.741  27.513  32.466  1.00  0.00     0.031 C 
ATOM     52  C   UNL A   1      39.673  29.638  28.319  1.00  0.00     0.029 A 
ATOM     53  C   UNL A   1      39.594  30.094  29.707  1.00  0.00     0.049 A 
ATOM     54  H   UNL A   1      40.994  29.771  31.214  1.00  0.00     0.167 HD
ATOM     55  C   UNL A   1      43.818  28.751  34.401  1.00  0.00     0.037 A 
ATOM     56  C   UNL A   1      38.593  30.822  30.244  1.00  0.00     0.037 A 
ATOM     57  C   UNL A   1      42.834  29.583  35.038  1.00  0.00     0.049 A 
ATOM     58  C   UNL A   1      38.630  31.173  31.712  1.00  0.00     0.074 A 
ATOM     59  C   UNL A   1      42.807  30.043  36.344  1.00  0.00     0.029 A 
ATOM     60  N   UNL A   1      41.696  30.077  34.418  1.00  0.00    -0.354 N 
ATOM     61  N   UNL A   1      39.543  30.890  32.609  1.00  0.00    -0.248 NA
ATOM     62  C   UNL A   1      37.493  31.942  32.242  1.00  0.00     0.031 C 
ATOM     63  C   UNL A   1      41.625  30.764  36.529  1.00  0.00     0.029 A 
ATOM     64  C   UNL A   1      40.949  30.816  35.320  1.00  0.00     0.049 A 
ATOM     65  H   UNL A   1      41.455  29.923  33.476  1.00  0.00     0.167 HD
ATOM     66  C   UNL A   1      39.114  31.482  33.793  1.00  0.00     0.074 A 
ATOM     67  C   UNL A   1      37.858  32.138  33.501  1.00  0.00     0.031 C 
ATOM     68  C   UNL A   1      39.711  31.487  35.011  1.00  0.00     0.037 A 
BRANCH  55  69
ATOM     69  C   UNL A   1      44.971  28.247  35.220  1.00  0.00     0.057 A 
ATOM     70  C   UNL A   1      44.920  27.028  35.910  1.00  0.00     0.134 A 
ATOM     71  C   UNL A   1      46.155  28.991  35.313  1.00  0.00     0.134 A 
ATOM     72  F   UNL A   1      43.810  26.274  35.876  1.00  0.00    -0.206 F 
ATOM     73  C   UNL A   1      45.990  26.584  36.688  1.00  0.00     0.040 A 
ATOM     74  C   UNL A   1      47.244  28.541  36.061  1.00  0.00     0.040 A 
ATOM     75  F   UNL A   1      46.275  30.165  34.675  1.00  0.00    -0.206 F 
ATOM     76  C   UNL A   1      47.159  27.339  36.760  1.00  0.00     0.006 A 
ENDBRANCH  55  69
BRANCH  56  77
ATOM     77  C   UNL A   1      37.447  31.255  29.401  1.00  0.00     0.057 A 
ATOM     78  C   UNL A   1      37.383  32.551  28.876  1.00  0.00     0.134 A 
ATOM     79  C   UNL A   1      36.374  30.397  29.126  1.00  0.00     0.134 A 
ATOM     80  F   UNL A   1      38.363  33.430  29.129  1.00  0.00    -0.206 F 
ATOM     81  C   UNL A   1      36.290  32.984  28.123  1.00  0.00     0.040 A 
ATOM     82  C   UNL A   1      35.288  30.808  28.349  1.00  0.00     0.040 A 
ATOM     83  F   UNL A   1      36.367  29.144  29.604  1.00  0.00    -0.206 F 
ATOM     84  C   UNL A   1      35.241  32.108  27.852  1.00  0.00     0.006 A 
ENDBRANCH  56  77
BRANCH  68  85
ATOM     85  C   UNL A   1      39.063  32.284  36.109  1.00  0.00     0.057 A 
ATOM     86  C   UNL A   1      38.133  31.725  36.993  1.00  0.00     0.134 A 
ATOM     87  C   UNL A   1      39.434  33.620  36.322  1.00  0.00     0.134 A 
ATOM     88  F   UNL A   1      37.726  30.455  36.840  1.00  0.00    -0.206 F 
ATOM     89  C   UNL A   1      37.580  32.470  38.037  1.00  0.00     0.040 A 
ATOM     90  C   UNL A   1      38.912  34.365  37.381  1.00  0.00     0.040 A 
ATOM     91  F   UNL A   1      40.329  34.215  35.520  1.00  0.00    -0.206 F 
ATOM     92  C   UNL A   1      37.977  33.791  38.240  1.00  0.00     0.006 A 
ENDBRANCH  68  85
ENDBRANCH  42  43
ENDBRANCH  35  37
ENDBRANCH  34  35
ENDBRANCH  33  34
ENDBRANCH  32  33
ENDBRANCH  31  32
ENDBRANCH  30  31
ENDBRANCH  29  30
ENDBRANCH   1  29
TORSDOF 23
ENDMDL
MODEL 3
REMARK VINA RESULT:      -9.3      5.773     11.059
REMARK SMILES CC(=O)N[C@@H](Cc1c(OCC(C)C)ccc2ccccc12)C(=O)OCCOCCOCCOC(=O)c1ccc(-c2c3nc(c(-c4c(F)cccc4F)c4ccc([nH]4)c(-c4c(F)cccc4F)c4nc(c(-c5c(F)cccc5F)c5ccc2[nH]5)C=C4)C=C3)cc1
REMARK SMILES IDX 27 1 26 2 25 3 24 4 22 5 23 6 5 7 4 8 1 9 2 10 3 11 6 13
REMARK SMILES IDX 7 14 8 15 21 16 14 17 16 18 20 19 15 20 17 21 19 22 18 23
REMARK SMILES IDX 9 24 10 25 11 26 12 27 13 28 28 29 29 30 30 31 31 32 32 33
REMARK SMILES IDX 33 34 34 35 35 36 36 37 37 38 89 39 38 40 88 41 39 42 40 43
REMARK SMILES IDX 41 44 82 45 42 46 87 47 81 48 83 49 43 50 86 51 80 52 79 53
REMARK SMILES IDX 44 55 70 56 53 57 69 58 54 59 57 60 68 61 84 62 55 63 56 64
REMARK SMILES IDX 67 66 85 67 58 68 45 69 46 70 51 71 47 72 48 73 50 74 52 75
REMARK SMILES IDX 49 76 71 77 72 78 77 79 73 80 74 81 76 82 78 83 75 84 59 85
REMARK SMILES IDX 60 86 65 87 61 88 62 89 64 90 66 91 63 92
REMARK H PARENT 4 12 83 54 57 65
REMARK Flexibility Score: inf
ROOT
ATOM      1  O   UNL A   1      38.038  31.901  38.705  1.00  0.00    -0.376 OA
ENDROOT
BRANCH   1   2
ATOM      2  C   UNL A   1      37.706  32.138  37.344  1.00  0.00     0.202 C 
BRANCH   2   3
ATOM      3  C   UNL A   1      38.349  31.237  36.277  1.00  0.00     0.261 C 
BRANCH   3   4
ATOM      4  O   UNL A   1      38.334  31.765  34.935  1.00  0.00    -0.462 OA
BRANCH   4   5
ATOM      5  C   UNL A   1      38.045  30.894  33.930  1.00  0.00     0.329 C 
ATOM      6  O   UNL A   1      38.254  29.685  33.979  1.00  0.00    -0.250 OA
BRANCH   5   7
ATOM      7  C   UNL A   1      37.519  31.573  32.645  1.00  0.00     0.196 C 
BRANCH   7   8
ATOM      8  N   UNL A   1      38.489  32.161  31.719  1.00  0.00    -0.343 N 
ATOM      9  C   UNL A   1      38.133  34.535  32.273  1.00  0.00     0.114 C 
ATOM     10  C   UNL A   1      38.763  33.462  31.435  1.00  0.00     0.217 C 
ATOM     11  O   UNL A   1      39.545  33.734  30.525  1.00  0.00    -0.275 OA
ATOM     12  H   UNL A   1      39.031  31.506  31.221  1.00  0.00     0.164 HD
ENDBRANCH   7   8
BRANCH   7  13
ATOM     13  C   UNL A   1      36.634  30.586  31.867  1.00  0.00     0.077 C 
BRANCH  13  14
ATOM     14  C   UNL A   1      37.013  30.334  30.406  1.00  0.00     0.005 A 
ATOM     15  C   UNL A   1      36.482  31.153  29.375  1.00  0.00     0.123 A 
ATOM     16  C   UNL A   1      37.896  29.256  30.060  1.00  0.00    -0.011 A 
ATOM     17  C   UNL A   1      36.625  30.767  28.048  1.00  0.00     0.047 A 
ATOM     18  C   UNL A   1      38.127  28.981  28.691  1.00  0.00    -0.018 A 
ATOM     19  C   UNL A   1      38.594  28.448  30.994  1.00  0.00     0.009 A 
ATOM     20  C   UNL A   1      37.451  29.703  27.708  1.00  0.00     0.012 A 
ATOM     21  C   UNL A   1      39.036  27.985  28.303  1.00  0.00     0.009 A 
ATOM     22  C   UNL A   1      39.505  27.466  30.596  1.00  0.00     0.001 A 
ATOM     23  C   UNL A   1      39.732  27.240  29.249  1.00  0.00     0.001 A 
BRANCH  15  24
ATOM     24  O   UNL A   1      35.895  32.332  29.748  1.00  0.00    -0.493 OA
BRANCH  24  25
ATOM     25  C   UNL A   1      34.548  32.651  29.362  1.00  0.00     0.232 C 
BRANCH  25  26
ATOM     26  C   UNL A   1      34.029  34.042  29.809  1.00  0.00     0.020 C 
ATOM     27  C   UNL A   1      34.578  34.543  31.146  1.00  0.00     0.011 C 
ATOM     28  C   UNL A   1      34.367  35.080  28.729  1.00  0.00     0.011 C 
ENDBRANCH  25  26
ENDBRANCH  24  25
ENDBRANCH  15  24
ENDBRANCH  13  14
ENDBRANCH   7  13
ENDBRANCH   5   7
ENDBRANCH   4   5
ENDBRANCH   3   4
ENDBRANCH   2   3
ENDBRANCH   1   2
BRANCH   1  29
ATOM     29  C   UNL A   1      38.178  33.010  39.591  1.00  0.00     0.188 C 
BRANCH  29  30
ATOM     30  C   UNL A   1      38.685  32.784  41.027  1.00  0.00     0.188 C 
BRANCH  30  31
ATOM     31  O   UNL A   1      39.774  33.601  41.387  1.00  0.00    -0.376 OA
BRANCH  31  32
ATOM     32  C   UNL A   1      39.479  34.932  41.749  1.00  0.00     0.202 C 
BRANCH  32  33
ATOM     33  C   UNL A   1      40.115  36.024  40.876  1.00  0.00     0.261 C 
BRANCH  33  34
ATOM     34  O   UNL A   1      40.578  35.613  39.575  1.00  0.00    -0.460 OA
BRANCH  34  35
ATOM     35  C   UNL A   1      40.025  36.210  38.495  1.00  0.00     0.338 C 
ATOM     36  O   UNL A   1      39.306  37.200  38.493  1.00  0.00    -0.246 OA
BRANCH  35  37
ATOM     37  C   UNL A   1      40.586  35.576  37.280  1.00  0.00     0.060 A 
ATOM     38  C   UNL A   1      39.725  35.101  36.276  1.00  0.00     0.016 A 
ATOM     39  C   UNL A   1      41.968  35.445  37.135  1.00  0.00     0.016 A 
ATOM     40  C   UNL A   1      40.245  34.474  35.138  1.00  0.00     0.010 A 
ATOM     41  C   UNL A   1      42.484  34.793  36.011  1.00  0.00     0.010 A 
ATOM     42  C   UNL A   1      41.628  34.276  35.021  1.00  0.00    -0.014 A 
BRANCH  42  43
ATOM     43  C   UNL A   1      42.186  33.339  34.011  1.00  0.00     0.031 A 
ATOM     44  C   UNL A   1      42.503  33.889  32.646  1.00  0.00     0.074 A 
ATOM     45  C   UNL A   1      42.372  32.031  34.262  1.00  0.00     0.049 A 
ATOM     46  N   UNL A   1      42.807  33.261  31.540  1.00  0.00    -0.248 NA
ATOM     47  C   UNL A   1      42.457  35.355  32.516  1.00  0.00     0.031 C 
ATOM     48  C   UNL A   1      42.174  31.377  35.552  1.00  0.00     0.029 A 
ATOM     49  N   UNL A   1      42.748  31.012  33.420  1.00  0.00    -0.354 N 
ATOM     50  C   UNL A   1      42.960  34.251  30.577  1.00  0.00     0.074 A 
ATOM     51  C   UNL A   1      42.696  35.517  31.224  1.00  0.00     0.031 C 
ATOM     52  C   UNL A   1      42.405  30.060  35.411  1.00  0.00     0.029 A 
ATOM     53  C   UNL A   1      42.716  29.772  34.010  1.00  0.00     0.049 A 
ATOM     54  H   UNL A   1      43.016  31.157  32.484  1.00  0.00     0.167 HD
ATOM     55  C   UNL A   1      43.288  34.118  29.269  1.00  0.00     0.037 A 
ATOM     56  C   UNL A   1      42.877  28.546  33.472  1.00  0.00     0.037 A 
ATOM     57  C   UNL A   1      43.545  32.857  28.627  1.00  0.00     0.049 A 
ATOM     58  C   UNL A   1      43.146  28.410  31.992  1.00  0.00     0.074 A 
ATOM     59  C   UNL A   1      43.887  32.616  27.308  1.00  0.00     0.029 A 
ATOM     60  N   UNL A   1      43.482  31.623  29.256  1.00  0.00    -0.354 N 
ATOM     61  N   UNL A   1      43.281  29.346  31.084  1.00  0.00    -0.248 NA
ATOM     62  C   UNL A   1      43.280  27.044  31.462  1.00  0.00     0.031 C 
ATOM     63  C   UNL A   1      43.973  31.233  27.125  1.00  0.00     0.029 A 
ATOM     64  C   UNL A   1      43.755  30.615  28.347  1.00  0.00     0.049 A 
ATOM     65  H   UNL A   1      43.272  31.485  30.208  1.00  0.00     0.167 HD
ATOM     66  C   UNL A   1      43.559  28.686  29.891  1.00  0.00     0.074 A 
ATOM     67  C   UNL A   1      43.571  27.271  30.190  1.00  0.00     0.031 C 
ATOM     68  C   UNL A   1      43.790  29.209  28.661  1.00  0.00     0.037 A 
BRANCH  55  69
ATOM     69  C   UNL A   1      43.341  35.370  28.442  1.00  0.00     0.057 A 
ATOM     70  C   UNL A   1      44.545  36.034  28.170  1.00  0.00     0.134 A 
ATOM     71  C   UNL A   1      42.169  35.916  27.904  1.00  0.00     0.134 A 
ATOM     72  F   UNL A   1      45.703  35.574  28.668  1.00  0.00    -0.206 F 
ATOM     73  C   UNL A   1      44.577  37.211  27.421  1.00  0.00     0.040 A 
ATOM     74  C   UNL A   1      42.191  37.073  27.126  1.00  0.00     0.040 A 
ATOM     75  F   UNL A   1      40.982  35.329  28.121  1.00  0.00    -0.206 F 
ATOM     76  C   UNL A   1      43.397  37.731  26.891  1.00  0.00     0.006 A 
ENDBRANCH  55  69
BRANCH  56  77
ATOM     77  C   UNL A   1      42.765  27.333  34.325  1.00  0.00     0.057 A 
ATOM     78  C   UNL A   1      41.528  26.718  34.551  1.00  0.00     0.134 A 
ATOM     79  C   UNL A   1      43.883  26.778  34.959  1.00  0.00     0.134 A 
ATOM     80  F   UNL A   1      40.415  27.219  33.996  1.00  0.00    -0.206 F 
ATOM     81  C   UNL A   1      41.403  25.607  35.387  1.00  0.00     0.040 A 
ATOM     82  C   UNL A   1      43.778  25.649  35.775  1.00  0.00     0.040 A 
ATOM     83  F   UNL A   1      45.098  27.322  34.792  1.00  0.00    -0.206 F 
ATOM     84  C   UNL A   1      42.533  25.065  35.997  1.00  0.00     0.006 A 
ENDBRANCH  56  77
BRANCH  68  85
ATOM     85  C   UNL A   1      44.152  28.261  27.551  1.00  0.00     0.057 A 
ATOM     86  C   UNL A   1      43.206  27.773  26.642  1.00  0.00     0.134 A 
ATOM     87  C   UNL A   1      45.489  27.886  27.354  1.00  0.00     0.134 A 
ATOM     88  F   UNL A   1      41.907  28.084  26.779  1.00  0.00    -0.206 F 
ATOM     89  C   UNL A   1      43.572  26.932  25.589  1.00  0.00     0.040 A 
ATOM     90  C   UNL A   1      45.872  27.072  26.287  1.00  0.00     0.040 A 
ATOM     91  F   UNL A   1      46.450  28.326  28.181  1.00  0.00    -0.206 F 
ATOM     92  C   UNL A   1      44.910  26.588  25.402  1.00  0.00     0.006 A 
ENDBRANCH  68  85
ENDBRANCH  42  43
ENDBRANCH  35  37
ENDBRANCH  34  35
ENDBRANCH  33  34
ENDBRANCH  32  33
ENDBRANCH  31  32
ENDBRANCH  30  31
ENDBRANCH  29  30
ENDBRANCH   1  29
TORSDOF 23
ENDMDL
