MODEL 1
REMARK VINA RESULT:      -9.9      0.000      0.000
REMARK SMILES O=C(CC1CC[NH+](CC[NH+]2CCCCC2)CC1)OCCOCCOCCOC(=O)c1ccc(-c2c3nc(c(-c4c(F)cccc4F)c4ccc([nH]4)c(-c4c(F)cccc4F)c4nc(c(-c5c(F)cccc5F)c5ccc2[nH]5)C=C4)C=C3)cc1
REMARK SMILES IDX 22 1 21 2 20 3 19 4 18 5 2 6 1 7 3 8 4 9 5 10 17 11 6 12
REMARK SMILES IDX 16 13 7 14 8 16 9 17 10 18 11 19 15 20 12 22 14 23 13 24
REMARK SMILES IDX 23 25 24 26 25 27 26 28 27 29 28 30 29 31 30 32 31 33 83 34
REMARK SMILES IDX 32 35 82 36 33 37 34 38 35 39 76 40 36 41 81 42 75 43 77 44
REMARK SMILES IDX 37 45 80 46 74 47 73 48 38 50 64 51 47 52 63 53 48 54 51 55
REMARK SMILES IDX 62 56 78 57 49 58 50 59 61 61 79 62 52 63 39 64 40 65 45 66
REMARK SMILES IDX 41 67 42 68 44 69 46 70 43 71 65 72 66 73 71 74 67 75 68 76
REMARK SMILES IDX 70 77 72 78 69 79 53 80 54 81 59 82 55 83 56 84 58 85 60 86
REMARK SMILES IDX 57 87
REMARK H PARENT 7 15 10 21 77 49 51 60
REMARK Flexibility Score: inf
ROOT
ATOM      1  C   UNL A   1      32.996  26.550  22.127  1.00  0.00     0.188 C 
ENDROOT
BRANCH   1   2
ATOM      2  O   UNL A   1      31.612  26.302  21.927  1.00  0.00    -0.376 OA
BRANCH   2   3
ATOM      3  C   UNL A   1      30.654  27.086  22.613  1.00  0.00     0.202 C 
BRANCH   3   4
ATOM      4  C   UNL A   1      29.836  26.445  23.735  1.00  0.00     0.261 C 
BRANCH   4   5
ATOM      5  O   UNL A   1      30.463  26.417  25.015  1.00  0.00    -0.463 OA
BRANCH   5   6
ATOM      6  C   UNL A   1      30.687  25.195  25.564  1.00  0.00     0.306 C 
ATOM      7  O   UNL A   1      30.065  24.816  26.550  1.00  0.00    -0.252 OA
BRANCH   6   8
ATOM      8  C   UNL A   1      31.864  24.427  25.005  1.00  0.00     0.126 C 
BRANCH   8   9
ATOM      9  C   UNL A   1      31.498  23.136  24.235  1.00  0.00     0.011 C 
ATOM     10  C   UNL A   1      31.608  21.893  25.133  1.00  0.00     0.066 C 
ATOM     11  C   UNL A   1      32.417  22.839  23.039  1.00  0.00     0.066 C 
ATOM     12  C   UNL A   1      33.059  21.655  25.545  1.00  0.00     0.262 C 
ATOM     13  C   UNL A   1      33.878  22.661  23.453  1.00  0.00     0.262 C 
ATOM     14  N   UNL A   1      34.050  21.615  24.461  1.00  0.00    -0.330 N 
ATOM     15  H   UNL A   1      33.868  20.725  23.997  1.00  0.00     0.348 HD
BRANCH  14  16
ATOM     16  C   UNL A   1      35.454  21.604  24.957  1.00  0.00     0.324 C 
BRANCH  16  17
ATOM     17  C   UNL A   1      36.549  22.405  24.169  1.00  0.00     0.324 C 
BRANCH  17  18
ATOM     18  N   UNL A   1      37.775  22.630  24.942  1.00  0.00    -0.330 N 
ATOM     19  C   UNL A   1      37.620  23.714  25.907  1.00  0.00     0.262 C 
ATOM     20  C   UNL A   1      38.340  21.428  25.534  1.00  0.00     0.262 C 
ATOM     21  H   UNL A   1      38.473  22.929  24.259  1.00  0.00     0.348 HD
ATOM     22  C   UNL A   1      38.927  24.069  26.611  1.00  0.00     0.062 C 
ATOM     23  C   UNL A   1      39.719  21.726  26.122  1.00  0.00     0.062 C 
ATOM     24  C   UNL A   1      39.687  22.860  27.139  1.00  0.00     0.012 C 
ENDBRANCH  17  18
ENDBRANCH  16  17
ENDBRANCH  14  16
ENDBRANCH   8   9
ENDBRANCH   6   8
ENDBRANCH   5   6
ENDBRANCH   4   5
ENDBRANCH   3   4
ENDBRANCH   2   3
ENDBRANCH   1   2
BRANCH   1  25
ATOM     25  C   UNL A   1      33.562  27.974  22.076  1.00  0.00     0.188 C 
BRANCH  25  26
ATOM     26  O   UNL A   1      34.095  28.609  23.226  1.00  0.00    -0.376 OA
BRANCH  26  27
ATOM     27  C   UNL A   1      33.464  28.489  24.489  1.00  0.00     0.202 C 
BRANCH  27  28
ATOM     28  C   UNL A   1      32.421  29.532  24.885  1.00  0.00     0.261 C 
BRANCH  28  29
ATOM     29  O   UNL A   1      32.235  29.685  26.303  1.00  0.00    -0.460 OA
BRANCH  29  30
ATOM     30  C   UNL A   1      32.663  30.853  26.826  1.00  0.00     0.338 C 
ATOM     31  O   UNL A   1      32.046  31.923  26.856  1.00  0.00    -0.246 OA
BRANCH  30  32
ATOM     32  C   UNL A   1      34.001  30.709  27.427  1.00  0.00     0.060 A 
ATOM     33  C   UNL A   1      34.488  29.426  27.692  1.00  0.00     0.016 A 
ATOM     34  C   UNL A   1      34.731  31.828  27.844  1.00  0.00     0.016 A 
ATOM     35  C   UNL A   1      35.710  29.264  28.362  1.00  0.00     0.010 A 
ATOM     36  C   UNL A   1      35.940  31.660  28.542  1.00  0.00     0.010 A 
ATOM     37  C   UNL A   1      36.451  30.377  28.805  1.00  0.00    -0.014 A 
BRANCH  37  38
ATOM     38  C   UNL A   1      37.716  30.160  29.571  1.00  0.00     0.031 A 
ATOM     39  C   UNL A   1      38.949  29.681  28.878  1.00  0.00     0.074 A 
ATOM     40  C   UNL A   1      37.801  30.275  30.911  1.00  0.00     0.049 A 
ATOM     41  N   UNL A   1      40.115  29.420  29.409  1.00  0.00    -0.248 NA
ATOM     42  C   UNL A   1      38.821  29.317  27.463  1.00  0.00     0.031 C 
ATOM     43  C   UNL A   1      36.667  30.339  31.807  1.00  0.00     0.029 A 
ATOM     44  N   UNL A   1      38.886  30.371  31.762  1.00  0.00    -0.354 N 
ATOM     45  C   UNL A   1      40.811  28.719  28.445  1.00  0.00     0.074 A 
ATOM     46  C   UNL A   1      39.979  28.705  27.254  1.00  0.00     0.031 C 
ATOM     47  C   UNL A   1      37.103  30.632  33.041  1.00  0.00     0.029 A 
ATOM     48  C   UNL A   1      38.536  30.783  33.032  1.00  0.00     0.049 A 
ATOM     49  H   UNL A   1      39.809  30.167  31.490  1.00  0.00     0.167 HD
ATOM     50  C   UNL A   1      41.984  28.060  28.588  1.00  0.00     0.037 A 
ATOM     51  C   UNL A   1      39.266  31.236  34.072  1.00  0.00     0.037 A 
ATOM     52  C   UNL A   1      42.793  28.051  29.782  1.00  0.00     0.049 A 
ATOM     53  C   UNL A   1      40.711  30.868  34.076  1.00  0.00     0.074 A 
ATOM     54  C   UNL A   1      44.013  27.427  29.984  1.00  0.00     0.029 A 
ATOM     55  N   UNL A   1      42.471  28.679  30.976  1.00  0.00    -0.354 N 
ATOM     56  N   UNL A   1      41.380  30.248  33.140  1.00  0.00    -0.248 NA
ATOM     57  C   UNL A   1      41.458  31.087  35.323  1.00  0.00     0.031 C 
ATOM     58  C   UNL A   1      44.421  27.662  31.302  1.00  0.00     0.029 A 
ATOM     59  C   UNL A   1      43.477  28.468  31.912  1.00  0.00     0.049 A 
ATOM     60  H   UNL A   1      41.651  29.200  31.137  1.00  0.00     0.167 HD
ATOM     61  C   UNL A   1      42.567  29.870  33.732  1.00  0.00     0.074 A 
ATOM     62  C   UNL A   1      42.595  30.460  35.056  1.00  0.00     0.031 C 
ATOM     63  C   UNL A   1      43.494  29.016  33.243  1.00  0.00     0.037 A 
BRANCH  50  64
ATOM     64  C   UNL A   1      42.405  27.204  27.438  1.00  0.00     0.057 A 
ATOM     65  C   UNL A   1      42.156  25.828  27.404  1.00  0.00     0.134 A 
ATOM     66  C   UNL A   1      43.082  27.774  26.352  1.00  0.00     0.134 A 
ATOM     67  F   UNL A   1      41.542  25.224  28.432  1.00  0.00    -0.206 F 
ATOM     68  C   UNL A   1      42.581  25.043  26.333  1.00  0.00     0.040 A 
ATOM     69  C   UNL A   1      43.490  27.004  25.265  1.00  0.00     0.040 A 
ATOM     70  F   UNL A   1      43.359  29.087  26.333  1.00  0.00    -0.206 F 
ATOM     71  C   UNL A   1      43.244  25.632  25.256  1.00  0.00     0.006 A 
ENDBRANCH  50  64
BRANCH  51  72
ATOM     72  C   UNL A   1      38.686  32.003  35.214  1.00  0.00     0.057 A 
ATOM     73  C   UNL A   1      38.686  33.409  35.167  1.00  0.00     0.134 A 
ATOM     74  C   UNL A   1      38.163  31.419  36.371  1.00  0.00     0.134 A 
ATOM     75  F   UNL A   1      39.213  34.047  34.110  1.00  0.00    -0.206 F 
ATOM     76  C   UNL A   1      38.195  34.192  36.216  1.00  0.00     0.040 A 
ATOM     77  C   UNL A   1      37.625  32.187  37.409  1.00  0.00     0.040 A 
ATOM     78  F   UNL A   1      38.171  30.086  36.525  1.00  0.00    -0.206 F 
ATOM     79  C   UNL A   1      37.648  33.578  37.338  1.00  0.00     0.006 A 
ENDBRANCH  51  72
BRANCH  63  80
ATOM     80  C   UNL A   1      44.582  28.622  34.187  1.00  0.00     0.057 A 
ATOM     81  C   UNL A   1      45.778  29.349  34.255  1.00  0.00     0.134 A 
ATOM     82  C   UNL A   1      44.451  27.501  35.009  1.00  0.00     0.134 A 
ATOM     83  F   UNL A   1      45.973  30.419  33.468  1.00  0.00    -0.206 F 
ATOM     84  C   UNL A   1      46.816  28.964  35.105  1.00  0.00     0.040 A 
ATOM     85  C   UNL A   1      45.475  27.114  35.873  1.00  0.00     0.040 A 
ATOM     86  F   UNL A   1      43.334  26.759  34.976  1.00  0.00    -0.206 F 
ATOM     87  C   UNL A   1      46.664  27.844  35.919  1.00  0.00     0.006 A 
ENDBRANCH  63  80
ENDBRANCH  37  38
ENDBRANCH  30  32
ENDBRANCH  29  30
ENDBRANCH  28  29
ENDBRANCH  27  28
ENDBRANCH  26  27
ENDBRANCH  25  26
ENDBRANCH   1  25
TORSDOF 21
ENDMDL
MODEL 2
REMARK VINA RESULT:      -9.7      1.566      2.603
REMARK SMILES O=C(CC1CC[NH+](CC[NH+]2CCCCC2)CC1)OCCOCCOCCOC(=O)c1ccc(-c2c3nc(c(-c4c(F)cccc4F)c4ccc([nH]4)c(-c4c(F)cccc4F)c4nc(c(-c5c(F)cccc5F)c5ccc2[nH]5)C=C4)C=C3)cc1
REMARK SMILES IDX 22 1 21 2 20 3 19 4 18 5 2 6 1 7 3 8 4 9 5 10 17 11 6 12
REMARK SMILES IDX 16 13 7 14 8 16 9 17 10 18 11 19 15 20 12 22 14 23 13 24
REMARK SMILES IDX 23 25 24 26 25 27 26 28 27 29 28 30 29 31 30 32 31 33 83 34
REMARK SMILES IDX 32 35 82 36 33 37 34 38 35 39 76 40 36 41 81 42 75 43 77 44
REMARK SMILES IDX 37 45 80 46 74 47 73 48 38 50 64 51 47 52 63 53 48 54 51 55
REMARK SMILES IDX 62 56 78 57 49 58 50 59 61 61 79 62 52 63 39 64 40 65 45 66
REMARK SMILES IDX 41 67 42 68 44 69 46 70 43 71 65 72 66 73 71 74 67 75 68 76
REMARK SMILES IDX 70 77 72 78 69 79 53 80 54 81 59 82 55 83 56 84 58 85 60 86
REMARK SMILES IDX 57 87
REMARK H PARENT 7 15 10 21 77 49 51 60
REMARK Flexibility Score: inf
ROOT
ATOM      1  C   UNL A   1      33.659  26.537  22.398  1.00  0.00     0.188 C 
ENDROOT
BRANCH   1   2
ATOM      2  O   UNL A   1      32.626  25.751  21.822  1.00  0.00    -0.376 OA
BRANCH   2   3
ATOM      3  C   UNL A   1      31.331  25.769  22.394  1.00  0.00     0.202 C 
BRANCH   3   4
ATOM      4  C   UNL A   1      30.923  24.642  23.342  1.00  0.00     0.261 C 
BRANCH   4   5
ATOM      5  O   UNL A   1      30.362  25.056  24.586  1.00  0.00    -0.463 OA
BRANCH   5   6
ATOM      6  C   UNL A   1      31.082  24.787  25.706  1.00  0.00     0.306 C 
ATOM      7  O   UNL A   1      30.917  25.428  26.738  1.00  0.00    -0.252 OA
BRANCH   6   8
ATOM      8  C   UNL A   1      32.209  23.793  25.541  1.00  0.00     0.126 C 
BRANCH   8   9
ATOM      9  C   UNL A   1      33.501  24.130  26.323  1.00  0.00     0.011 C 
ATOM     10  C   UNL A   1      34.718  24.230  25.389  1.00  0.00     0.066 C 
ATOM     11  C   UNL A   1      33.893  23.073  27.368  1.00  0.00     0.066 C 
ATOM     12  C   UNL A   1      35.030  22.872  24.767  1.00  0.00     0.262 C 
ATOM     13  C   UNL A   1      34.147  21.700  26.744  1.00  0.00     0.262 C 
ATOM     14  N   UNL A   1      35.168  21.742  25.697  1.00  0.00    -0.330 N 
ATOM     15  H   UNL A   1      36.060  21.915  26.160  1.00  0.00     0.348 HD
BRANCH  14  16
ATOM     16  C   UNL A   1      35.249  20.426  25.004  1.00  0.00     0.324 C 
BRANCH  16  17
ATOM     17  C   UNL A   1      33.923  19.679  24.624  1.00  0.00     0.324 C 
BRANCH  17  18
ATOM     18  N   UNL A   1      33.896  18.280  25.062  1.00  0.00    -0.330 N 
ATOM     19  C   UNL A   1      32.534  17.763  25.155  1.00  0.00     0.262 C 
ATOM     20  C   UNL A   1      34.779  17.400  24.312  1.00  0.00     0.262 C 
ATOM     21  H   UNL A   1      34.284  18.284  26.006  1.00  0.00     0.348 HD
ATOM     22  C   UNL A   1      32.474  16.361  25.756  1.00  0.00     0.062 C 
ATOM     23  C   UNL A   1      34.848  16.027  24.979  1.00  0.00     0.062 C 
ATOM     24  C   UNL A   1      33.474  15.390  25.146  1.00  0.00     0.012 C 
ENDBRANCH  17  18
ENDBRANCH  16  17
ENDBRANCH  14  16
ENDBRANCH   8   9
ENDBRANCH   6   8
ENDBRANCH   5   6
ENDBRANCH   4   5
ENDBRANCH   3   4
ENDBRANCH   2   3
ENDBRANCH   1   2
BRANCH   1  25
ATOM     25  C   UNL A   1      33.410  27.990  22.818  1.00  0.00     0.188 C 
BRANCH  25  26
ATOM     26  O   UNL A   1      33.444  28.393  24.177  1.00  0.00    -0.376 OA
BRANCH  26  27
ATOM     27  C   UNL A   1      32.254  28.508  24.938  1.00  0.00     0.202 C 
BRANCH  27  28
ATOM     28  C   UNL A   1      31.788  29.902  25.356  1.00  0.00     0.261 C 
BRANCH  28  29
ATOM     29  O   UNL A   1      31.964  30.198  26.753  1.00  0.00    -0.460 OA
BRANCH  29  30
ATOM     30  C   UNL A   1      32.599  31.355  27.030  1.00  0.00     0.338 C 
ATOM     31  O   UNL A   1      32.157  32.499  26.873  1.00  0.00    -0.246 OA
BRANCH  30  32
ATOM     32  C   UNL A   1      33.933  31.108  27.605  1.00  0.00     0.060 A 
ATOM     33  C   UNL A   1      34.334  29.790  27.838  1.00  0.00     0.016 A 
ATOM     34  C   UNL A   1      34.745  32.166  28.029  1.00  0.00     0.016 A 
ATOM     35  C   UNL A   1      35.552  29.531  28.483  1.00  0.00     0.010 A 
ATOM     36  C   UNL A   1      35.951  31.901  28.703  1.00  0.00     0.010 A 
ATOM     37  C   UNL A   1      36.376  30.582  28.934  1.00  0.00    -0.014 A 
BRANCH  37  38
ATOM     38  C   UNL A   1      37.634  30.263  29.673  1.00  0.00     0.031 A 
ATOM     39  C   UNL A   1      38.804  29.669  28.960  1.00  0.00     0.074 A 
ATOM     40  C   UNL A   1      37.761  30.386  31.010  1.00  0.00     0.049 A 
ATOM     41  N   UNL A   1      39.955  29.312  29.468  1.00  0.00    -0.248 NA
ATOM     42  C   UNL A   1      38.611  29.301  27.553  1.00  0.00     0.031 C 
ATOM     43  C   UNL A   1      36.659  30.560  31.930  1.00  0.00     0.029 A 
ATOM     44  N   UNL A   1      38.870  30.396  31.834  1.00  0.00    -0.354 N 
ATOM     45  C   UNL A   1      40.564  28.541  28.497  1.00  0.00     0.074 A 
ATOM     46  C   UNL A   1      39.705  28.586  27.326  1.00  0.00     0.031 C 
ATOM     47  C   UNL A   1      37.148  30.829  33.150  1.00  0.00     0.029 A 
ATOM     48  C   UNL A   1      38.589  30.852  33.106  1.00  0.00     0.049 A 
ATOM     49  H   UNL A   1      39.766  30.108  31.545  1.00  0.00     0.167 HD
ATOM     50  C   UNL A   1      41.676  27.783  28.623  1.00  0.00     0.037 A 
ATOM     51  C   UNL A   1      39.380  31.251  34.123  1.00  0.00     0.037 A 
ATOM     52  C   UNL A   1      42.511  27.717  29.799  1.00  0.00     0.049 A 
ATOM     53  C   UNL A   1      40.787  30.757  34.099  1.00  0.00     0.074 A 
ATOM     54  C   UNL A   1      43.676  26.991  29.981  1.00  0.00     0.029 A 
ATOM     55  N   UNL A   1      42.273  28.386  30.991  1.00  0.00    -0.354 N 
ATOM     56  N   UNL A   1      41.376  30.070  33.157  1.00  0.00    -0.248 NA
ATOM     57  C   UNL A   1      41.580  30.925  35.325  1.00  0.00     0.031 C 
ATOM     58  C   UNL A   1      44.134  27.205  31.287  1.00  0.00     0.029 A 
ATOM     59  C   UNL A   1      43.279  28.098  31.906  1.00  0.00     0.049 A 
ATOM     60  H   UNL A   1      41.506  28.978  31.163  1.00  0.00     0.167 HD
ATOM     61  C   UNL A   1      42.540  29.596  33.727  1.00  0.00     0.074 A 
ATOM     62  C   UNL A   1      42.651  30.197  35.041  1.00  0.00     0.031 C 
ATOM     63  C   UNL A   1      43.376  28.658  33.228  1.00  0.00     0.037 A 
BRANCH  50  64
ATOM     64  C   UNL A   1      41.994  26.880  27.476  1.00  0.00     0.057 A 
ATOM     65  C   UNL A   1      41.450  25.596  27.368  1.00  0.00     0.134 A 
ATOM     66  C   UNL A   1      42.869  27.308  26.469  1.00  0.00     0.134 A 
ATOM     67  F   UNL A   1      40.633  25.122  28.320  1.00  0.00    -0.206 F 
ATOM     68  C   UNL A   1      41.780  24.759  26.302  1.00  0.00     0.040 A 
ATOM     69  C   UNL A   1      43.187  26.490  25.387  1.00  0.00     0.040 A 
ATOM     70  F   UNL A   1      43.431  28.526  26.525  1.00  0.00    -0.206 F 
ATOM     71  C   UNL A   1      42.645  25.209  25.304  1.00  0.00     0.006 A 
ENDBRANCH  50  64
BRANCH  51  72
ATOM     72  C   UNL A   1      38.897  32.080  35.267  1.00  0.00     0.057 A 
ATOM     73  C   UNL A   1      38.285  31.447  36.364  1.00  0.00     0.134 A 
ATOM     74  C   UNL A   1      38.975  33.475  35.317  1.00  0.00     0.134 A 
ATOM     75  F   UNL A   1      38.130  30.113  36.370  1.00  0.00    -0.206 F 
ATOM     76  C   UNL A   1      37.775  32.163  37.451  1.00  0.00     0.040 A 
ATOM     77  C   UNL A   1      38.511  34.202  36.419  1.00  0.00     0.040 A 
ATOM     78  F   UNL A   1      39.495  34.166  34.292  1.00  0.00    -0.206 F 
ATOM     79  C   UNL A   1      37.902  33.548  37.486  1.00  0.00     0.006 A 
ENDBRANCH  51  72
BRANCH  63  80
ATOM     80  C   UNL A   1      44.448  28.180  34.153  1.00  0.00     0.057 A 
ATOM     81  C   UNL A   1      45.711  28.787  34.169  1.00  0.00     0.134 A 
ATOM     82  C   UNL A   1      44.231  27.098  35.009  1.00  0.00     0.134 A 
ATOM     83  F   UNL A   1      45.986  29.813  33.349  1.00  0.00    -0.206 F 
ATOM     84  C   UNL A   1      46.731  28.322  35.000  1.00  0.00     0.040 A 
ATOM     85  C   UNL A   1      45.237  26.633  35.855  1.00  0.00     0.040 A 
ATOM     86  F   UNL A   1      43.046  26.471  35.026  1.00  0.00    -0.206 F 
ATOM     87  C   UNL A   1      46.493  27.242  35.849  1.00  0.00     0.006 A 
ENDBRANCH  63  80
ENDBRANCH  37  38
ENDBRANCH  30  32
ENDBRANCH  29  30
ENDBRANCH  28  29
ENDBRANCH  27  28
ENDBRANCH  26  27
ENDBRANCH  25  26
ENDBRANCH   1  25
TORSDOF 21
ENDMDL
MODEL 3
REMARK VINA RESULT:      -9.5      1.646      6.552
REMARK SMILES O=C(CC1CC[NH+](CC[NH+]2CCCCC2)CC1)OCCOCCOCCOC(=O)c1ccc(-c2c3nc(c(-c4c(F)cccc4F)c4ccc([nH]4)c(-c4c(F)cccc4F)c4nc(c(-c5c(F)cccc5F)c5ccc2[nH]5)C=C4)C=C3)cc1
REMARK SMILES IDX 22 1 21 2 20 3 19 4 18 5 2 6 1 7 3 8 4 9 5 10 17 11 6 12
REMARK SMILES IDX 16 13 7 14 8 16 9 17 10 18 11 19 15 20 12 22 14 23 13 24
REMARK SMILES IDX 23 25 24 26 25 27 26 28 27 29 28 30 29 31 30 32 31 33 83 34
REMARK SMILES IDX 32 35 82 36 33 37 34 38 35 39 76 40 36 41 81 42 75 43 77 44
REMARK SMILES IDX 37 45 80 46 74 47 73 48 38 50 64 51 47 52 63 53 48 54 51 55
REMARK SMILES IDX 62 56 78 57 49 58 50 59 61 61 79 62 52 63 39 64 40 65 45 66
REMARK SMILES IDX 41 67 42 68 44 69 46 70 43 71 65 72 66 73 71 74 67 75 68 76
REMARK SMILES IDX 70 77 72 78 69 79 53 80 54 81 59 82 55 83 56 84 58 85 60 86
REMARK SMILES IDX 57 87
REMARK H PARENT 7 15 10 21 77 49 51 60
REMARK Flexibility Score: inf
ROOT
ATOM      1  C   UNL A   1      31.662  26.833  22.682  1.00  0.00     0.188 C 
ENDROOT
BRANCH   1   2
ATOM      2  O   UNL A   1      32.999  27.278  22.860  1.00  0.00    -0.376 OA
BRANCH   2   3
ATOM      3  C   UNL A   1      33.950  26.417  23.458  1.00  0.00     0.202 C 
BRANCH   3   4
ATOM      4  C   UNL A   1      33.837  26.109  24.952  1.00  0.00     0.261 C 
BRANCH   4   5
ATOM      5  O   UNL A   1      33.003  26.990  25.701  1.00  0.00    -0.463 OA
BRANCH   5   6
ATOM      6  C   UNL A   1      32.029  26.422  26.456  1.00  0.00     0.306 C 
ATOM      7  O   UNL A   1      31.346  27.092  27.223  1.00  0.00    -0.252 OA
BRANCH   6   8
ATOM      8  C   UNL A   1      31.971  24.911  26.430  1.00  0.00     0.126 C 
BRANCH   8   9
ATOM      9  C   UNL A   1      30.670  24.314  25.844  1.00  0.00     0.011 C 
ATOM     10  C   UNL A   1      30.333  22.957  26.483  1.00  0.00     0.066 C 
ATOM     11  C   UNL A   1      30.734  24.033  24.334  1.00  0.00     0.066 C 
ATOM     12  C   UNL A   1      31.389  21.916  26.120  1.00  0.00     0.262 C 
ATOM     13  C   UNL A   1      31.833  23.034  23.972  1.00  0.00     0.262 C 
ATOM     14  N   UNL A   1      31.697  21.768  24.691  1.00  0.00    -0.330 N 
ATOM     15  H   UNL A   1      30.874  21.299  24.311  1.00  0.00     0.348 HD
BRANCH  14  16
ATOM     16  C   UNL A   1      32.883  20.903  24.439  1.00  0.00     0.324 C 
BRANCH  16  17
ATOM     17  C   UNL A   1      33.440  20.012  25.604  1.00  0.00     0.324 C 
BRANCH  17  18
ATOM     18  N   UNL A   1      33.646  18.612  25.219  1.00  0.00    -0.330 N 
ATOM     19  C   UNL A   1      32.752  17.711  25.942  1.00  0.00     0.262 C 
ATOM     20  C   UNL A   1      33.639  18.376  23.784  1.00  0.00     0.262 C 
ATOM     21  H   UNL A   1      34.599  18.389  25.509  1.00  0.00     0.348 HD
ATOM     22  C   UNL A   1      33.055  16.238  25.674  1.00  0.00     0.062 C 
ATOM     23  C   UNL A   1      34.080  16.944  23.481  1.00  0.00     0.062 C 
ATOM     24  C   UNL A   1      33.224  15.907  24.198  1.00  0.00     0.012 C 
ENDBRANCH  17  18
ENDBRANCH  16  17
ENDBRANCH  14  16
ENDBRANCH   8   9
ENDBRANCH   6   8
ENDBRANCH   5   6
ENDBRANCH   4   5
ENDBRANCH   3   4
ENDBRANCH   2   3
ENDBRANCH   1   2
BRANCH   1  25
ATOM     25  C   UNL A   1      30.501  27.830  22.583  1.00  0.00     0.188 C 
BRANCH  25  26
ATOM     26  O   UNL A   1      30.649  29.191  22.952  1.00  0.00    -0.376 OA
BRANCH  26  27
ATOM     27  C   UNL A   1      30.641  29.586  24.312  1.00  0.00     0.202 C 
BRANCH  27  28
ATOM     28  C   UNL A   1      31.947  30.068  24.939  1.00  0.00     0.261 C 
BRANCH  28  29
ATOM     29  O   UNL A   1      31.937  30.125  26.377  1.00  0.00    -0.460 OA
BRANCH  29  30
ATOM     30  C   UNL A   1      32.469  31.238  26.922  1.00  0.00     0.338 C 
ATOM     31  O   UNL A   1      31.947  32.357  26.981  1.00  0.00    -0.246 OA
BRANCH  30  32
ATOM     32  C   UNL A   1      33.794  30.965  27.507  1.00  0.00     0.060 A 
ATOM     33  C   UNL A   1      34.216  29.638  27.631  1.00  0.00     0.016 A 
ATOM     34  C   UNL A   1      34.574  31.995  28.045  1.00  0.00     0.016 A 
ATOM     35  C   UNL A   1      35.424  29.345  28.282  1.00  0.00     0.010 A 
ATOM     36  C   UNL A   1      35.768  31.693  28.723  1.00  0.00     0.010 A 
ATOM     37  C   UNL A   1      36.215  30.367  28.846  1.00  0.00    -0.014 A 
BRANCH  37  38
ATOM     38  C   UNL A   1      37.461  30.006  29.586  1.00  0.00     0.031 A 
ATOM     39  C   UNL A   1      37.572  30.258  31.054  1.00  0.00     0.074 A 
ATOM     40  C   UNL A   1      38.575  29.541  28.983  1.00  0.00     0.049 A 
ATOM     41  N   UNL A   1      38.598  30.025  31.831  1.00  0.00    -0.248 NA
ATOM     42  C   UNL A   1      36.468  30.983  31.691  1.00  0.00     0.031 C 
ATOM     43  C   UNL A   1      38.823  29.592  27.559  1.00  0.00     0.029 A 
ATOM     44  N   UNL A   1      39.705  28.923  29.483  1.00  0.00    -0.354 N 
ATOM     45  C   UNL A   1      38.336  30.707  33.002  1.00  0.00     0.074 A 
ATOM     46  C   UNL A   1      36.999  31.261  32.875  1.00  0.00     0.031 C 
ATOM     47  C   UNL A   1      39.931  28.886  27.286  1.00  0.00     0.029 A 
ATOM     48  C   UNL A   1      40.470  28.329  28.500  1.00  0.00     0.049 A 
ATOM     49  H   UNL A   1      39.938  28.907  30.439  1.00  0.00     0.167 HD
ATOM     50  C   UNL A   1      39.183  30.936  34.031  1.00  0.00     0.037 A 
ATOM     51  C   UNL A   1      41.482  27.438  28.551  1.00  0.00     0.037 A 
ATOM     52  C   UNL A   1      40.522  30.409  34.141  1.00  0.00     0.049 A 
ATOM     53  C   UNL A   1      42.222  27.353  29.843  1.00  0.00     0.074 A 
ATOM     54  C   UNL A   1      41.424  30.576  35.178  1.00  0.00     0.029 A 
ATOM     55  N   UNL A   1      41.158  29.627  33.188  1.00  0.00    -0.354 N 
ATOM     56  N   UNL A   1      41.944  27.961  30.965  1.00  0.00    -0.248 NA
ATOM     57  C   UNL A   1      43.497  26.621  29.841  1.00  0.00     0.031 C 
ATOM     58  C   UNL A   1      42.612  29.912  34.846  1.00  0.00     0.029 A 
ATOM     59  C   UNL A   1      42.436  29.293  33.622  1.00  0.00     0.049 A 
ATOM     60  H   UNL A   1      40.762  29.347  32.331  1.00  0.00     0.167 HD
ATOM     61  C   UNL A   1      43.070  27.814  31.748  1.00  0.00     0.074 A 
ATOM     62  C   UNL A   1      43.975  26.932  31.037  1.00  0.00     0.031 C 
ATOM     63  C   UNL A   1      43.357  28.452  32.904  1.00  0.00     0.037 A 
BRANCH  50  64
ATOM     64  C   UNL A   1      38.707  31.888  35.080  1.00  0.00     0.057 A 
ATOM     65  C   UNL A   1      38.158  31.450  36.289  1.00  0.00     0.134 A 
ATOM     66  C   UNL A   1      38.794  33.270  34.863  1.00  0.00     0.134 A 
ATOM     67  F   UNL A   1      38.019  30.139  36.536  1.00  0.00    -0.206 F 
ATOM     68  C   UNL A   1      37.696  32.356  37.243  1.00  0.00     0.040 A 
ATOM     69  C   UNL A   1      38.359  34.185  35.819  1.00  0.00     0.040 A 
ATOM     70  F   UNL A   1      39.302  33.750  33.716  1.00  0.00    -0.206 F 
ATOM     71  C   UNL A   1      37.802  33.728  37.012  1.00  0.00     0.006 A 
ENDBRANCH  50  64
BRANCH  51  72
ATOM     72  C   UNL A   1      41.916  26.616  27.383  1.00  0.00     0.057 A 
ATOM     73  C   UNL A   1      41.472  25.286  27.277  1.00  0.00     0.134 A 
ATOM     74  C   UNL A   1      42.782  27.066  26.382  1.00  0.00     0.134 A 
ATOM     75  F   UNL A   1      40.676  24.764  28.223  1.00  0.00    -0.206 F 
ATOM     76  C   UNL A   1      41.870  24.447  26.232  1.00  0.00     0.040 A 
ATOM     77  C   UNL A   1      43.151  26.253  25.305  1.00  0.00     0.040 A 
ATOM     78  F   UNL A   1      43.296  28.303  26.432  1.00  0.00    -0.206 F 
ATOM     79  C   UNL A   1      42.702  24.937  25.231  1.00  0.00     0.006 A 
ENDBRANCH  51  72
BRANCH  63  80
ATOM     80  C   UNL A   1      44.742  28.261  33.431  1.00  0.00     0.057 A 
ATOM     81  C   UNL A   1      45.778  29.134  33.071  1.00  0.00     0.134 A 
ATOM     82  C   UNL A   1      45.050  27.193  34.276  1.00  0.00     0.134 A 
ATOM     83  F   UNL A   1      45.547  30.162  32.239  1.00  0.00    -0.206 F 
ATOM     84  C   UNL A   1      47.083  28.940  33.525  1.00  0.00     0.040 A 
ATOM     85  C   UNL A   1      46.347  26.997  34.748  1.00  0.00     0.040 A 
ATOM     86  F   UNL A   1      44.102  26.319  34.642  1.00  0.00    -0.206 F 
ATOM     87  C   UNL A   1      47.369  27.869  34.370  1.00  0.00     0.006 A 
ENDBRANCH  63  80
ENDBRANCH  37  38
ENDBRANCH  30  32
ENDBRANCH  29  30
ENDBRANCH  28  29
ENDBRANCH  27  28
ENDBRANCH  26  27
ENDBRANCH  25  26
ENDBRANCH   1  25
TORSDOF 21
ENDMDL
