MODEL 1
REMARK VINA RESULT:     -10.9      0.000      0.000
REMARK SMILES C[C@H]1CCCC[C@@]1(NC(=O)N[C@@H]1CCOC1)C(=O)OCCOCCOCCOC(=O)c1ccc(-c2c3nc(c(-c4c(F)cccc4F)c4ccc([nH]4)c(-c4c(F)cccc4F)c4nc(c(-c5c(F)cccc5F)c5ccc2[nH]5)C=C4)C=C3)cc1
REMARK SMILES IDX 23 1 22 2 21 3 20 4 19 5 17 6 18 7 7 8 1 9 2 10 3 11 4 12
REMARK SMILES IDX 6 13 5 14 8 15 9 16 10 18 11 19 12 21 13 22 16 23 14 24
REMARK SMILES IDX 15 25 24 26 25 27 26 28 27 29 28 30 29 31 30 32 31 33 32 34
REMARK SMILES IDX 84 35 33 36 83 37 34 38 35 39 36 40 77 41 37 42 82 43 76 44
REMARK SMILES IDX 78 45 38 46 81 47 75 48 74 49 39 51 65 52 48 53 64 54 49 55
REMARK SMILES IDX 52 56 63 57 79 58 50 59 51 60 62 62 80 63 53 64 40 65 41 66
REMARK SMILES IDX 46 67 42 68 43 69 45 70 47 71 44 72 66 73 67 74 72 75 68 76
REMARK SMILES IDX 69 77 71 78 73 79 70 80 54 81 55 82 60 83 56 84 57 85 59 86
REMARK SMILES IDX 61 87 58 88
REMARK H PARENT 8 17 11 20 78 50 52 61
REMARK Flexibility Score: inf
ROOT
ATOM      1  C   UNL A   1      38.852  20.821  25.557  1.00  0.00     0.188 C 
ENDROOT
BRANCH   1   2
ATOM      2  O   UNL A   1      37.741  21.476  24.948  1.00  0.00    -0.376 OA
BRANCH   2   3
ATOM      3  C   UNL A   1      37.219  22.612  25.618  1.00  0.00     0.202 C 
BRANCH   3   4
ATOM      4  C   UNL A   1      36.706  23.702  24.659  1.00  0.00     0.261 C 
BRANCH   4   5
ATOM      5  O   UNL A   1      35.414  24.284  24.989  1.00  0.00    -0.461 OA
BRANCH   5   6
ATOM      6  C   UNL A   1      34.533  24.342  23.941  1.00  0.00     0.332 C 
ATOM      7  O   UNL A   1      34.843  23.965  22.810  1.00  0.00    -0.249 OA
BRANCH   6   8
ATOM      8  C   UNL A   1      33.091  24.896  24.281  1.00  0.00     0.142 C 
ATOM      9  C   UNL A   1      33.440  26.712  26.130  1.00  0.00     0.011 C 
ATOM     10  C   UNL A   1      33.039  26.401  24.694  1.00  0.00     0.023 C 
ATOM     11  C   UNL A   1      33.821  27.275  23.695  1.00  0.00     0.006 C 
ATOM     12  C   UNL A   1      33.288  27.156  22.267  1.00  0.00     0.000 C 
ATOM     13  C   UNL A   1      32.340  24.870  22.896  1.00  0.00     0.041 C 
ATOM     14  C   UNL A   1      32.974  25.736  21.811  1.00  0.00     0.003 C 
BRANCH   8  15
ATOM     15  N   UNL A   1      32.174  24.057  25.130  1.00  0.00    -0.322 N 
ATOM     16  C   UNL A   1      32.412  23.214  26.151  1.00  0.00     0.316 C 
ATOM     17  H   UNL A   1      31.222  24.141  24.893  1.00  0.00     0.166 HD
ATOM     18  O   UNL A   1      31.931  23.449  27.258  1.00  0.00    -0.249 OA
ATOM     19  N   UNL A   1      32.992  22.021  25.918  1.00  0.00    -0.333 N 
ATOM     20  H   UNL A   1      33.121  21.455  26.714  1.00  0.00     0.165 HD
BRANCH  19  21
ATOM     21  C   UNL A   1      33.458  21.442  24.663  1.00  0.00     0.112 C 
ATOM     22  C   UNL A   1      32.378  20.774  23.838  1.00  0.00     0.056 C 
ATOM     23  C   UNL A   1      34.353  20.269  24.976  1.00  0.00     0.185 C 
ATOM     24  C   UNL A   1      32.490  19.290  24.158  1.00  0.00     0.162 C 
ATOM     25  O   UNL A   1      33.471  19.163  25.183  1.00  0.00    -0.379 OA
ENDBRANCH  19  21
ENDBRANCH   8  15
ENDBRANCH   6   8
ENDBRANCH   5   6
ENDBRANCH   4   5
ENDBRANCH   3   4
ENDBRANCH   2   3
ENDBRANCH   1   2
BRANCH   1  26
ATOM     26  C   UNL A   1      39.839  21.736  26.277  1.00  0.00     0.188 C 
BRANCH  26  27
ATOM     27  O   UNL A   1      40.965  21.109  26.872  1.00  0.00    -0.376 OA
BRANCH  27  28
ATOM     28  C   UNL A   1      42.034  20.627  26.074  1.00  0.00     0.202 C 
BRANCH  28  29
ATOM     29  C   UNL A   1      43.186  21.571  25.714  1.00  0.00     0.261 C 
BRANCH  29  30
ATOM     30  O   UNL A   1      42.834  22.717  24.943  1.00  0.00    -0.460 OA
BRANCH  30  31
ATOM     31  C   UNL A   1      43.685  23.774  24.989  1.00  0.00     0.338 C 
ATOM     32  O   UNL A   1      44.688  23.928  24.333  1.00  0.00    -0.246 OA
BRANCH  31  33
ATOM     33  C   UNL A   1      43.062  24.794  25.885  1.00  0.00     0.060 A 
ATOM     34  C   UNL A   1      43.669  26.047  26.003  1.00  0.00     0.016 A 
ATOM     35  C   UNL A   1      41.850  24.545  26.546  1.00  0.00     0.016 A 
ATOM     36  C   UNL A   1      43.106  27.028  26.828  1.00  0.00     0.010 A 
ATOM     37  C   UNL A   1      41.281  25.527  27.361  1.00  0.00     0.010 A 
ATOM     38  C   UNL A   1      41.933  26.757  27.548  1.00  0.00    -0.014 A 
BRANCH  38  39
ATOM     39  C   UNL A   1      41.524  27.629  28.679  1.00  0.00     0.031 A 
ATOM     40  C   UNL A   1      42.282  27.500  29.973  1.00  0.00     0.074 A 
ATOM     41  C   UNL A   1      40.512  28.511  28.592  1.00  0.00     0.049 A 
ATOM     42  N   UNL A   1      42.091  28.102  31.120  1.00  0.00    -0.248 NA
ATOM     43  C   UNL A   1      43.407  26.552  29.969  1.00  0.00     0.031 C 
ATOM     44  C   UNL A   1      39.711  28.771  27.400  1.00  0.00     0.029 A 
ATOM     45  N   UNL A   1      39.981  29.344  29.549  1.00  0.00    -0.354 N 
ATOM     46  C   UNL A   1      43.074  27.609  31.968  1.00  0.00     0.074 A 
ATOM     47  C   UNL A   1      43.821  26.619  31.223  1.00  0.00     0.031 C 
ATOM     48  C   UNL A   1      38.773  29.688  27.703  1.00  0.00     0.029 A 
ATOM     49  C   UNL A   1      38.893  30.059  29.114  1.00  0.00     0.049 A 
ATOM     50  H   UNL A   1      40.347  29.420  30.459  1.00  0.00     0.167 HD
ATOM     51  C   UNL A   1      43.348  27.956  33.249  1.00  0.00     0.037 A 
ATOM     52  C   UNL A   1      38.077  30.900  29.783  1.00  0.00     0.037 A 
ATOM     53  C   UNL A   1      42.597  28.918  34.008  1.00  0.00     0.049 A 
ATOM     54  C   UNL A   1      38.337  31.208  31.237  1.00  0.00     0.074 A 
ATOM     55  C   UNL A   1      42.804  29.338  35.310  1.00  0.00     0.029 A 
ATOM     56  N   UNL A   1      41.483  29.598  33.540  1.00  0.00    -0.354 N 
ATOM     57  N   UNL A   1      39.290  30.767  32.022  1.00  0.00    -0.248 NA
ATOM     58  C   UNL A   1      37.408  32.139  31.897  1.00  0.00     0.031 C 
ATOM     59  C   UNL A   1      41.775  30.223  35.653  1.00  0.00     0.029 A 
ATOM     60  C   UNL A   1      40.969  30.408  34.541  1.00  0.00     0.049 A 
ATOM     61  H   UNL A   1      41.112  29.517  32.632  1.00  0.00     0.167 HD
ATOM     62  C   UNL A   1      39.093  31.385  33.254  1.00  0.00     0.074 A 
ATOM     63  C   UNL A   1      37.935  32.240  33.110  1.00  0.00     0.031 C 
ATOM     64  C   UNL A   1      39.813  31.258  34.397  1.00  0.00     0.037 A 
BRANCH  51  65
ATOM     65  C   UNL A   1      44.492  27.242  33.910  1.00  0.00     0.057 A 
ATOM     66  C   UNL A   1      44.316  26.035  34.601  1.00  0.00     0.134 A 
ATOM     67  C   UNL A   1      45.782  27.786  33.879  1.00  0.00     0.134 A 
ATOM     68  F   UNL A   1      43.102  25.469  34.683  1.00  0.00    -0.206 F 
ATOM     69  C   UNL A   1      45.371  25.421  35.277  1.00  0.00     0.040 A 
ATOM     70  C   UNL A   1      46.852  27.163  34.523  1.00  0.00     0.040 A 
ATOM     71  F   UNL A   1      46.024  28.936  33.233  1.00  0.00    -0.206 F 
ATOM     72  C   UNL A   1      46.645  25.984  35.236  1.00  0.00     0.006 A 
ENDBRANCH  51  65
BRANCH  52  73
ATOM     73  C   UNL A   1      36.913  31.505  29.084  1.00  0.00     0.057 A 
ATOM     74  C   UNL A   1      36.943  32.825  28.617  1.00  0.00     0.134 A 
ATOM     75  C   UNL A   1      35.733  30.778  28.882  1.00  0.00     0.134 A 
ATOM     76  F   UNL A   1      38.032  33.584  28.809  1.00  0.00    -0.206 F 
ATOM     77  C   UNL A   1      35.841  33.402  27.982  1.00  0.00     0.040 A 
ATOM     78  C   UNL A   1      34.633  31.335  28.227  1.00  0.00     0.040 A 
ATOM     79  F   UNL A   1      35.635  29.512  29.313  1.00  0.00    -0.206 F 
ATOM     80  C   UNL A   1      34.684  32.653  27.780  1.00  0.00     0.006 A 
ENDBRANCH  52  73
BRANCH  64  81
ATOM     81  C   UNL A   1      39.398  32.085  35.584  1.00  0.00     0.057 A 
ATOM     82  C   UNL A   1      38.486  31.616  36.539  1.00  0.00     0.134 A 
ATOM     83  C   UNL A   1      39.966  33.348  35.806  1.00  0.00     0.134 A 
ATOM     84  F   UNL A   1      37.898  30.420  36.388  1.00  0.00    -0.206 F 
ATOM     85  C   UNL A   1      38.139  32.380  37.656  1.00  0.00     0.040 A 
ATOM     86  C   UNL A   1      39.649  34.107  36.934  1.00  0.00     0.040 A 
ATOM     87  F   UNL A   1      40.857  33.856  34.940  1.00  0.00    -0.206 F 
ATOM     88  C   UNL A   1      38.729  33.626  37.860  1.00  0.00     0.006 A 
ENDBRANCH  64  81
ENDBRANCH  38  39
ENDBRANCH  31  33
ENDBRANCH  30  31
ENDBRANCH  29  30
ENDBRANCH  28  29
ENDBRANCH  27  28
ENDBRANCH  26  27
ENDBRANCH   1  26
TORSDOF 19
ENDMDL
MODEL 2
REMARK VINA RESULT:     -10.7      1.251      6.481
REMARK SMILES C[C@H]1CCCC[C@@]1(NC(=O)N[C@@H]1CCOC1)C(=O)OCCOCCOCCOC(=O)c1ccc(-c2c3nc(c(-c4c(F)cccc4F)c4ccc([nH]4)c(-c4c(F)cccc4F)c4nc(c(-c5c(F)cccc5F)c5ccc2[nH]5)C=C4)C=C3)cc1
REMARK SMILES IDX 23 1 22 2 21 3 20 4 19 5 17 6 18 7 7 8 1 9 2 10 3 11 4 12
REMARK SMILES IDX 6 13 5 14 8 15 9 16 10 18 11 19 12 21 13 22 16 23 14 24
REMARK SMILES IDX 15 25 24 26 25 27 26 28 27 29 28 30 29 31 30 32 31 33 32 34
REMARK SMILES IDX 84 35 33 36 83 37 34 38 35 39 36 40 77 41 37 42 82 43 76 44
REMARK SMILES IDX 78 45 38 46 81 47 75 48 74 49 39 51 65 52 48 53 64 54 49 55
REMARK SMILES IDX 52 56 63 57 79 58 50 59 51 60 62 62 80 63 53 64 40 65 41 66
REMARK SMILES IDX 46 67 42 68 43 69 45 70 47 71 44 72 66 73 67 74 72 75 68 76
REMARK SMILES IDX 69 77 71 78 73 79 70 80 54 81 55 82 60 83 56 84 57 85 59 86
REMARK SMILES IDX 61 87 58 88
REMARK H PARENT 8 17 11 20 78 50 52 61
REMARK Flexibility Score: inf
ROOT
ATOM      1  C   UNL A   1      39.551  21.588  26.160  1.00  0.00     0.188 C 
ENDROOT
BRANCH   1   2
ATOM      2  O   UNL A   1      38.277  21.571  25.517  1.00  0.00    -0.376 OA
BRANCH   2   3
ATOM      3  C   UNL A   1      37.832  20.324  25.008  1.00  0.00     0.202 C 
BRANCH   3   4
ATOM      4  C   UNL A   1      36.298  20.204  24.948  1.00  0.00     0.261 C 
BRANCH   4   5
ATOM      5  O   UNL A   1      35.551  21.225  25.665  1.00  0.00    -0.461 OA
BRANCH   5   6
ATOM      6  C   UNL A   1      34.223  21.296  25.333  1.00  0.00     0.332 C 
ATOM      7  O   UNL A   1      33.569  20.290  25.051  1.00  0.00    -0.249 OA
BRANCH   6   8
ATOM      8  C   UNL A   1      33.579  22.740  25.362  1.00  0.00     0.142 C 
ATOM      9  C   UNL A   1      35.582  24.412  25.547  1.00  0.00     0.011 C 
ATOM     10  C   UNL A   1      34.441  23.863  24.701  1.00  0.00     0.023 C 
ATOM     11  C   UNL A   1      34.937  23.431  23.308  1.00  0.00     0.006 C 
ATOM     12  C   UNL A   1      33.790  23.090  22.356  1.00  0.00     0.000 C 
ATOM     13  C   UNL A   1      32.336  22.619  24.401  1.00  0.00     0.041 C 
ATOM     14  C   UNL A   1      32.677  22.243  22.962  1.00  0.00     0.003 C 
BRANCH   8  15
ATOM     15  N   UNL A   1      32.926  23.217  26.631  1.00  0.00    -0.322 N 
ATOM     16  C   UNL A   1      31.732  23.788  26.870  1.00  0.00     0.316 C 
ATOM     17  H   UNL A   1      33.477  23.087  27.437  1.00  0.00     0.166 HD
ATOM     18  O   UNL A   1      30.921  23.219  27.600  1.00  0.00    -0.249 OA
ATOM     19  N   UNL A   1      31.505  25.060  26.490  1.00  0.00    -0.333 N 
ATOM     20  H   UNL A   1      30.611  25.410  26.712  1.00  0.00     0.165 HD
BRANCH  19  21
ATOM     21  C   UNL A   1      32.385  25.995  25.798  1.00  0.00     0.112 C 
ATOM     22  C   UNL A   1      32.733  27.237  26.591  1.00  0.00     0.056 C 
ATOM     23  C   UNL A   1      31.633  26.593  24.635  1.00  0.00     0.185 C 
ATOM     24  C   UNL A   1      31.777  28.312  26.092  1.00  0.00     0.162 C 
ATOM     25  O   UNL A   1      30.880  27.676  25.185  1.00  0.00    -0.379 OA
ENDBRANCH  19  21
ENDBRANCH   8  15
ENDBRANCH   6   8
ENDBRANCH   5   6
ENDBRANCH   4   5
ENDBRANCH   3   4
ENDBRANCH   2   3
ENDBRANCH   1   2
BRANCH   1  26
ATOM     26  C   UNL A   1      40.303  20.261  26.161  1.00  0.00     0.188 C 
BRANCH  26  27
ATOM     27  O   UNL A   1      41.609  20.273  25.605  1.00  0.00    -0.376 OA
BRANCH  27  28
ATOM     28  C   UNL A   1      42.671  20.949  26.259  1.00  0.00     0.202 C 
BRANCH  28  29
ATOM     29  C   UNL A   1      43.517  21.953  25.471  1.00  0.00     0.261 C 
BRANCH  29  30
ATOM     30  O   UNL A   1      42.917  23.224  25.234  1.00  0.00    -0.460 OA
BRANCH  30  31
ATOM     31  C   UNL A   1      43.724  24.312  25.324  1.00  0.00     0.338 C 
ATOM     32  O   UNL A   1      44.676  24.571  24.626  1.00  0.00    -0.246 OA
BRANCH  31  33
ATOM     33  C   UNL A   1      43.117  25.218  26.345  1.00  0.00     0.060 A 
ATOM     34  C   UNL A   1      43.677  26.485  26.537  1.00  0.00     0.016 A 
ATOM     35  C   UNL A   1      41.963  24.854  27.054  1.00  0.00     0.016 A 
ATOM     36  C   UNL A   1      43.127  27.361  27.480  1.00  0.00     0.010 A 
ATOM     37  C   UNL A   1      41.407  25.733  27.987  1.00  0.00     0.010 A 
ATOM     38  C   UNL A   1      42.017  26.972  28.244  1.00  0.00    -0.014 A 
BRANCH  38  39
ATOM     39  C   UNL A   1      41.645  27.722  29.471  1.00  0.00     0.031 A 
ATOM     40  C   UNL A   1      40.461  28.648  29.394  1.00  0.00     0.074 A 
ATOM     41  C   UNL A   1      42.321  27.610  30.628  1.00  0.00     0.049 A 
ATOM     42  N   UNL A   1      39.965  29.453  30.300  1.00  0.00    -0.248 NA
ATOM     43  C   UNL A   1      39.744  28.674  28.109  1.00  0.00     0.031 C 
ATOM     44  C   UNL A   1      43.463  26.733  30.864  1.00  0.00     0.029 A 
ATOM     45  N   UNL A   1      42.140  28.264  31.825  1.00  0.00    -0.354 N 
ATOM     46  C   UNL A   1      38.879  30.072  29.696  1.00  0.00     0.074 A 
ATOM     47  C   UNL A   1      38.823  29.595  28.332  1.00  0.00     0.031 C 
ATOM     48  C   UNL A   1      43.896  26.919  32.126  1.00  0.00     0.029 A 
ATOM     49  C   UNL A   1      43.078  27.945  32.775  1.00  0.00     0.049 A 
ATOM     50  H   UNL A   1      41.408  28.902  31.984  1.00  0.00     0.167 HD
ATOM     51  C   UNL A   1      37.992  30.948  30.228  1.00  0.00     0.037 A 
ATOM     52  C   UNL A   1      43.266  28.438  34.017  1.00  0.00     0.037 A 
ATOM     53  C   UNL A   1      38.052  31.449  31.573  1.00  0.00     0.049 A 
ATOM     54  C   UNL A   1      42.326  29.483  34.565  1.00  0.00     0.074 A 
ATOM     55  C   UNL A   1      37.195  32.334  32.202  1.00  0.00     0.029 A 
ATOM     56  N   UNL A   1      39.036  31.122  32.495  1.00  0.00    -0.354 N 
ATOM     57  N   UNL A   1      41.279  30.036  34.002  1.00  0.00    -0.248 NA
ATOM     58  C   UNL A   1      42.591  29.968  35.929  1.00  0.00     0.031 C 
ATOM     59  C   UNL A   1      37.697  32.596  33.482  1.00  0.00     0.029 A 
ATOM     60  C   UNL A   1      38.827  31.819  33.675  1.00  0.00     0.049 A 
ATOM     61  H   UNL A   1      39.774  30.490  32.334  1.00  0.00     0.167 HD
ATOM     62  C   UNL A   1      40.747  30.908  34.948  1.00  0.00     0.074 A 
ATOM     63  C   UNL A   1      41.581  30.804  36.125  1.00  0.00     0.031 C 
ATOM     64  C   UNL A   1      39.661  31.715  34.848  1.00  0.00     0.037 A 
BRANCH  51  65
ATOM     65  C   UNL A   1      36.906  31.444  29.316  1.00  0.00     0.057 A 
ATOM     66  C   UNL A   1      36.926  32.735  28.771  1.00  0.00     0.134 A 
ATOM     67  C   UNL A   1      35.812  30.627  29.003  1.00  0.00     0.134 A 
ATOM     68  F   UNL A   1      37.937  33.574  29.045  1.00  0.00    -0.206 F 
ATOM     69  C   UNL A   1      35.874  33.213  27.988  1.00  0.00     0.040 A 
ATOM     70  C   UNL A   1      34.771  31.083  28.193  1.00  0.00     0.040 A 
ATOM     71  F   UNL A   1      35.731  29.379  29.486  1.00  0.00    -0.206 F 
ATOM     72  C   UNL A   1      34.793  32.383  27.695  1.00  0.00     0.006 A 
ENDBRANCH  51  65
BRANCH  52  73
ATOM     73  C   UNL A   1      44.413  27.959  34.831  1.00  0.00     0.057 A 
ATOM     74  C   UNL A   1      45.637  28.638  34.843  1.00  0.00     0.134 A 
ATOM     75  C   UNL A   1      44.315  26.797  35.607  1.00  0.00     0.134 A 
ATOM     76  F   UNL A   1      45.806  29.739  34.095  1.00  0.00    -0.206 F 
ATOM     77  C   UNL A   1      46.724  28.175  35.589  1.00  0.00     0.040 A 
ATOM     78  C   UNL A   1      45.384  26.337  36.376  1.00  0.00     0.040 A 
ATOM     79  F   UNL A   1      43.172  26.095  35.633  1.00  0.00    -0.206 F 
ATOM     80  C   UNL A   1      46.596  27.024  36.365  1.00  0.00     0.006 A 
ENDBRANCH  52  73
BRANCH  64  81
ATOM     81  C   UNL A   1      39.281  32.534  36.052  1.00  0.00     0.057 A 
ATOM     82  C   UNL A   1      38.433  32.040  37.053  1.00  0.00     0.134 A 
ATOM     83  C   UNL A   1      39.820  33.814  36.242  1.00  0.00     0.134 A 
ATOM     84  F   UNL A   1      37.876  30.826  36.935  1.00  0.00    -0.206 F 
ATOM     85  C   UNL A   1      38.119  32.798  38.185  1.00  0.00     0.040 A 
ATOM     86  C   UNL A   1      39.537  34.568  37.382  1.00  0.00     0.040 A 
ATOM     87  F   UNL A   1      40.649  34.347  35.331  1.00  0.00    -0.206 F 
ATOM     88  C   UNL A   1      38.679  34.063  38.355  1.00  0.00     0.006 A 
ENDBRANCH  64  81
ENDBRANCH  38  39
ENDBRANCH  31  33
ENDBRANCH  30  31
ENDBRANCH  29  30
ENDBRANCH  28  29
ENDBRANCH  27  28
ENDBRANCH  26  27
ENDBRANCH   1  26
TORSDOF 19
ENDMDL
MODEL 3
REMARK VINA RESULT:     -10.7      0.969      2.877
REMARK SMILES C[C@H]1CCCC[C@@]1(NC(=O)N[C@@H]1CCOC1)C(=O)OCCOCCOCCOC(=O)c1ccc(-c2c3nc(c(-c4c(F)cccc4F)c4ccc([nH]4)c(-c4c(F)cccc4F)c4nc(c(-c5c(F)cccc5F)c5ccc2[nH]5)C=C4)C=C3)cc1
REMARK SMILES IDX 23 1 22 2 21 3 20 4 19 5 17 6 18 7 7 8 1 9 2 10 3 11 4 12
REMARK SMILES IDX 6 13 5 14 8 15 9 16 10 18 11 19 12 21 13 22 16 23 14 24
REMARK SMILES IDX 15 25 24 26 25 27 26 28 27 29 28 30 29 31 30 32 31 33 32 34
REMARK SMILES IDX 84 35 33 36 83 37 34 38 35 39 36 40 77 41 37 42 82 43 76 44
REMARK SMILES IDX 78 45 38 46 81 47 75 48 74 49 39 51 65 52 48 53 64 54 49 55
REMARK SMILES IDX 52 56 63 57 79 58 50 59 51 60 62 62 80 63 53 64 40 65 41 66
REMARK SMILES IDX 46 67 42 68 43 69 45 70 47 71 44 72 66 73 67 74 72 75 68 76
REMARK SMILES IDX 69 77 71 78 73 79 70 80 54 81 55 82 60 83 56 84 57 85 59 86
REMARK SMILES IDX 61 87 58 88
REMARK H PARENT 8 17 11 20 78 50 52 61
REMARK Flexibility Score: inf
ROOT
ATOM      1  C   UNL A   1      39.675  21.934  26.796  1.00  0.00     0.188 C 
ENDROOT
BRANCH   1   2
ATOM      2  O   UNL A   1      38.514  21.986  25.968  1.00  0.00    -0.376 OA
BRANCH   2   3
ATOM      3  C   UNL A   1      37.936  23.263  25.752  1.00  0.00     0.202 C 
BRANCH   3   4
ATOM      4  C   UNL A   1      36.748  23.237  24.774  1.00  0.00     0.261 C 
BRANCH   4   5
ATOM      5  O   UNL A   1      35.517  23.848  25.251  1.00  0.00    -0.461 OA
BRANCH   5   6
ATOM      6  C   UNL A   1      34.423  23.616  24.459  1.00  0.00     0.332 C 
ATOM      7  O   UNL A   1      34.500  23.618  23.229  1.00  0.00    -0.249 OA
BRANCH   6   8
ATOM      8  C   UNL A   1      33.068  23.321  25.220  1.00  0.00     0.142 C 
ATOM      9  C   UNL A   1      31.178  23.539  23.425  1.00  0.00     0.011 C 
ATOM     10  C   UNL A   1      31.962  22.629  24.361  1.00  0.00     0.023 C 
ATOM     11  C   UNL A   1      32.530  21.411  23.608  1.00  0.00     0.006 C 
ATOM     12  C   UNL A   1      33.126  20.364  24.549  1.00  0.00     0.000 C 
ATOM     13  C   UNL A   1      33.459  22.216  26.273  1.00  0.00     0.041 C 
ATOM     14  C   UNL A   1      33.995  20.922  25.669  1.00  0.00     0.003 C 
BRANCH   8  15
ATOM     15  N   UNL A   1      32.491  24.388  26.111  1.00  0.00    -0.322 N 
ATOM     16  C   UNL A   1      31.593  25.363  25.883  1.00  0.00     0.316 C 
ATOM     17  H   UNL A   1      32.836  24.368  27.033  1.00  0.00     0.166 HD
ATOM     18  O   UNL A   1      30.536  25.375  26.513  1.00  0.00    -0.249 OA
ATOM     19  N   UNL A   1      31.931  26.428  25.132  1.00  0.00    -0.333 N 
ATOM     20  H   UNL A   1      31.223  27.105  25.022  1.00  0.00     0.165 HD
BRANCH  19  21
ATOM     21  C   UNL A   1      33.188  26.729  24.457  1.00  0.00     0.112 C 
ATOM     22  C   UNL A   1      33.733  28.115  24.727  1.00  0.00     0.056 C 
ATOM     23  C   UNL A   1      32.932  26.801  22.972  1.00  0.00     0.185 C 
ATOM     24  C   UNL A   1      33.297  28.957  23.535  1.00  0.00     0.162 C 
ATOM     25  O   UNL A   1      32.461  28.129  22.731  1.00  0.00    -0.379 OA
ENDBRANCH  19  21
ENDBRANCH   8  15
ENDBRANCH   6   8
ENDBRANCH   5   6
ENDBRANCH   4   5
ENDBRANCH   3   4
ENDBRANCH   2   3
ENDBRANCH   1   2
BRANCH   1  26
ATOM     26  C   UNL A   1      40.633  20.781  26.511  1.00  0.00     0.188 C 
BRANCH  26  27
ATOM     27  O   UNL A   1      41.606  21.001  25.502  1.00  0.00    -0.376 OA
BRANCH  27  28
ATOM     28  C   UNL A   1      42.983  20.780  25.759  1.00  0.00     0.202 C 
BRANCH  28  29
ATOM     29  C   UNL A   1      44.002  21.852  25.358  1.00  0.00     0.261 C 
BRANCH  29  30
ATOM     30  O   UNL A   1      43.460  23.106  24.956  1.00  0.00    -0.460 OA
BRANCH  30  31
ATOM     31  C   UNL A   1      44.239  24.203  25.146  1.00  0.00     0.338 C 
ATOM     32  O   UNL A   1      45.283  24.456  24.593  1.00  0.00    -0.246 OA
BRANCH  31  33
ATOM     33  C   UNL A   1      43.482  25.122  26.046  1.00  0.00     0.060 A 
ATOM     34  C   UNL A   1      43.786  26.486  26.025  1.00  0.00     0.016 A 
ATOM     35  C   UNL A   1      42.431  24.657  26.851  1.00  0.00     0.016 A 
ATOM     36  C   UNL A   1      43.089  27.375  26.852  1.00  0.00     0.010 A 
ATOM     37  C   UNL A   1      41.727  25.546  27.668  1.00  0.00     0.010 A 
ATOM     38  C   UNL A   1      42.087  26.903  27.712  1.00  0.00    -0.014 A 
BRANCH  38  39
ATOM     39  C   UNL A   1      41.594  27.747  28.831  1.00  0.00     0.031 A 
ATOM     40  C   UNL A   1      42.307  27.645  30.153  1.00  0.00     0.074 A 
ATOM     41  C   UNL A   1      40.546  28.581  28.709  1.00  0.00     0.049 A 
ATOM     42  N   UNL A   1      42.044  28.228  31.295  1.00  0.00    -0.248 NA
ATOM     43  C   UNL A   1      43.475  26.751  30.188  1.00  0.00     0.031 C 
ATOM     44  C   UNL A   1      39.779  28.811  27.489  1.00  0.00     0.029 A 
ATOM     45  N   UNL A   1      39.939  29.382  29.649  1.00  0.00    -0.354 N 
ATOM     46  C   UNL A   1      43.015  27.776  32.178  1.00  0.00     0.074 A 
ATOM     47  C   UNL A   1      43.836  26.828  31.457  1.00  0.00     0.031 C 
ATOM     48  C   UNL A   1      38.788  29.681  27.760  1.00  0.00     0.029 A 
ATOM     49  C   UNL A   1      38.836  30.047  29.177  1.00  0.00     0.049 A 
ATOM     50  H   UNL A   1      40.265  29.468  30.574  1.00  0.00     0.167 HD
ATOM     51  C   UNL A   1      43.223  28.126  33.470  1.00  0.00     0.037 A 
ATOM     52  C   UNL A   1      37.956  30.845  29.818  1.00  0.00     0.037 A 
ATOM     53  C   UNL A   1      42.399  29.046  34.205  1.00  0.00     0.049 A 
ATOM     54  C   UNL A   1      38.145  31.153  31.283  1.00  0.00     0.074 A 
ATOM     55  C   UNL A   1      42.535  29.467  35.516  1.00  0.00     0.029 A 
ATOM     56  N   UNL A   1      41.273  29.677  33.697  1.00  0.00    -0.354 N 
ATOM     57  N   UNL A   1      39.086  30.752  32.102  1.00  0.00    -0.248 NA
ATOM     58  C   UNL A   1      37.148  32.035  31.911  1.00  0.00     0.031 C 
ATOM     59  C   UNL A   1      41.453  30.300  35.823  1.00  0.00     0.029 A 
ATOM     60  C   UNL A   1      40.683  30.455  34.682  1.00  0.00     0.049 A 
ATOM     61  H   UNL A   1      40.941  29.585  32.775  1.00  0.00     0.167 HD
ATOM     62  C   UNL A   1      38.813  31.351  33.328  1.00  0.00     0.074 A 
ATOM     63  C   UNL A   1      37.622  32.152  33.144  1.00  0.00     0.031 C 
ATOM     64  C   UNL A   1      39.495  31.251  34.498  1.00  0.00     0.037 A 
BRANCH  51  65
ATOM     65  C   UNL A   1      44.373  27.462  34.171  1.00  0.00     0.057 A 
ATOM     66  C   UNL A   1      45.656  28.028  34.193  1.00  0.00     0.134 A 
ATOM     67  C   UNL A   1      44.201  26.227  34.808  1.00  0.00     0.134 A 
ATOM     68  F   UNL A   1      45.892  29.202  33.587  1.00  0.00    -0.206 F 
ATOM     69  C   UNL A   1      46.735  27.367  34.781  1.00  0.00     0.040 A 
ATOM     70  C   UNL A   1      45.266  25.573  35.429  1.00  0.00     0.040 A 
ATOM     71  F   UNL A   1      43.000  25.631  34.830  1.00  0.00    -0.206 F 
ATOM     72  C   UNL A   1      46.540  26.136  35.405  1.00  0.00     0.006 A 
ENDBRANCH  51  65
BRANCH  52  73
ATOM     73  C   UNL A   1      36.792  31.399  29.078  1.00  0.00     0.057 A 
ATOM     74  C   UNL A   1      35.684  30.608  28.754  1.00  0.00     0.134 A 
ATOM     75  C   UNL A   1      36.771  32.736  28.662  1.00  0.00     0.134 A 
ATOM     76  F   UNL A   1      35.659  29.311  29.095  1.00  0.00    -0.206 F 
ATOM     77  C   UNL A   1      34.602  31.122  28.038  1.00  0.00     0.040 A 
ATOM     78  C   UNL A   1      35.685  33.270  27.967  1.00  0.00     0.040 A 
ATOM     79  F   UNL A   1      37.805  33.547  28.932  1.00  0.00    -0.206 F 
ATOM     80  C   UNL A   1      34.597  32.460  27.648  1.00  0.00     0.006 A 
ENDBRANCH  52  73
BRANCH  64  81
ATOM     81  C   UNL A   1      38.996  32.048  35.672  1.00  0.00     0.057 A 
ATOM     82  C   UNL A   1      38.209  31.478  36.682  1.00  0.00     0.134 A 
ATOM     83  C   UNL A   1      39.358  33.394  35.824  1.00  0.00     0.134 A 
ATOM     84  F   UNL A   1      37.819  30.197  36.600  1.00  0.00    -0.206 F 
ATOM     85  C   UNL A   1      37.785  32.222  37.787  1.00  0.00     0.040 A 
ATOM     86  C   UNL A   1      38.964  34.139  36.938  1.00  0.00     0.040 A 
ATOM     87  F   UNL A   1      40.119  34.003  34.902  1.00  0.00    -0.206 F 
ATOM     88  C   UNL A   1      38.170  33.555  37.920  1.00  0.00     0.006 A 
ENDBRANCH  64  81
ENDBRANCH  38  39
ENDBRANCH  31  33
ENDBRANCH  30  31
ENDBRANCH  29  30
ENDBRANCH  28  29
ENDBRANCH  27  28
ENDBRANCH  26  27
ENDBRANCH   1  26
TORSDOF 19
ENDMDL
