MODEL 1
REMARK VINA RESULT:     -10.6      0.000      0.000
REMARK SMILES O=C(OCCOCCOCCOC(=O)c1noc(-c2ccccc2Cl)n1)c1ccc(-c2c3nc(c(-c4c(F)cccc4F)c4ccc([nH]4)c(-c4c(F)cccc4F)c4nc(c(-c5c(F)cccc5F)c5ccc2[nH]5)C=C4)C=C3)cc1
REMARK SMILES IDX 7 1 6 2 5 3 4 4 3 5 2 6 1 7 27 8 28 9 80 10 29 11 79 12
REMARK SMILES IDX 30 13 31 14 32 15 73 16 33 17 78 18 72 19 74 20 34 21 77 22
REMARK SMILES IDX 71 23 70 24 35 26 61 27 44 28 60 29 45 30 48 31 59 32 75 33
REMARK SMILES IDX 46 34 47 35 58 37 76 38 49 39 36 40 37 41 42 42 38 43 39 44
REMARK SMILES IDX 41 45 43 46 40 47 62 48 63 49 68 50 64 51 65 52 67 53 69 54
REMARK SMILES IDX 66 55 50 56 51 57 56 58 52 59 53 60 55 61 57 62 54 63 8 64
REMARK SMILES IDX 9 65 10 66 11 67 12 68 13 69 14 70 15 71 16 72 26 73 17 74
REMARK SMILES IDX 18 75 19 76 20 77 24 78 21 79 23 80 25 81 22 82
REMARK H PARENT 74 25 48 36
REMARK Flexibility Score: inf
ROOT
ATOM      1  C   UNL A   1      32.205  28.886  27.170  1.00  0.00     0.188 C 
ENDROOT
BRANCH   1   2
ATOM      2  O   UNL A   1      31.590  30.123  26.806  1.00  0.00    -0.376 OA
BRANCH   2   3
ATOM      3  C   UNL A   1      32.392  31.286  27.041  1.00  0.00     0.202 C 
BRANCH   3   4
ATOM      4  C   UNL A   1      31.655  32.646  27.129  1.00  0.00     0.261 C 
BRANCH   4   5
ATOM      5  O   UNL A   1      32.496  33.807  27.323  1.00  0.00    -0.460 OA
BRANCH   5   6
ATOM      6  C   UNL A   1      33.029  34.320  28.465  1.00  0.00     0.338 C 
ATOM      7  O   UNL A   1      32.456  35.251  29.026  1.00  0.00    -0.246 OA
BRANCH   6   8
ATOM      8  C   UNL A   1      34.311  33.829  29.047  1.00  0.00     0.060 A 
ATOM      9  C   UNL A   1      34.361  32.837  30.011  1.00  0.00     0.016 A 
ATOM     10  C   UNL A   1      35.534  34.317  28.566  1.00  0.00     0.016 A 
ATOM     11  C   UNL A   1      35.529  32.407  30.587  1.00  0.00     0.010 A 
ATOM     12  C   UNL A   1      36.745  33.795  29.052  1.00  0.00     0.010 A 
ATOM     13  C   UNL A   1      36.735  32.823  30.067  1.00  0.00    -0.014 A 
BRANCH  13  14
ATOM     14  C   UNL A   1      37.945  32.265  30.691  1.00  0.00     0.031 A 
ATOM     15  C   UNL A   1      38.564  31.079  30.041  1.00  0.00     0.074 A 
ATOM     16  C   UNL A   1      38.586  32.927  31.680  1.00  0.00     0.049 A 
ATOM     17  N   UNL A   1      39.518  30.312  30.476  1.00  0.00    -0.248 NA
ATOM     18  C   UNL A   1      38.100  30.763  28.676  1.00  0.00     0.031 C 
ATOM     19  C   UNL A   1      38.285  34.294  32.121  1.00  0.00     0.029 A 
ATOM     20  N   UNL A   1      39.610  32.551  32.519  1.00  0.00    -0.354 N 
ATOM     21  C   UNL A   1      39.796  29.448  29.430  1.00  0.00     0.074 A 
ATOM     22  C   UNL A   1      38.883  29.745  28.354  1.00  0.00     0.031 C 
ATOM     23  C   UNL A   1      39.029  34.586  33.198  1.00  0.00     0.029 A 
ATOM     24  C   UNL A   1      39.663  33.376  33.633  1.00  0.00     0.049 A 
ATOM     25  H   UNL A   1      40.222  31.798  32.351  1.00  0.00     0.167 HD
ATOM     26  C   UNL A   1      40.762  28.509  29.391  1.00  0.00     0.037 A 
ATOM     27  C   UNL A   1      39.951  33.044  34.909  1.00  0.00     0.037 A 
ATOM     28  C   UNL A   1      41.625  28.257  30.508  1.00  0.00     0.049 A 
ATOM     29  C   UNL A   1      40.863  31.776  34.980  1.00  0.00     0.074 A 
ATOM     30  C   UNL A   1      42.616  27.309  30.645  1.00  0.00     0.029 A 
ATOM     31  N   UNL A   1      41.568  28.971  31.697  1.00  0.00    -0.354 N 
ATOM     32  N   UNL A   1      41.088  30.875  34.033  1.00  0.00    -0.248 NA
ATOM     33  C   UNL A   1      41.655  31.511  36.188  1.00  0.00     0.031 C 
ATOM     34  C   UNL A   1      43.105  27.400  31.952  1.00  0.00     0.029 A 
ATOM     35  C   UNL A   1      42.469  28.452  32.599  1.00  0.00     0.049 A 
ATOM     36  H   UNL A   1      40.974  29.737  31.870  1.00  0.00     0.167 HD
ATOM     37  C   UNL A   1      42.058  30.000  34.521  1.00  0.00     0.074 A 
ATOM     38  C   UNL A   1      42.372  30.450  35.854  1.00  0.00     0.031 C 
ATOM     39  C   UNL A   1      42.677  28.939  33.939  1.00  0.00     0.037 A 
BRANCH  26  40
ATOM     40  C   UNL A   1      40.865  27.673  28.159  1.00  0.00     0.057 A 
ATOM     41  C   UNL A   1      40.177  26.461  28.017  1.00  0.00     0.134 A 
ATOM     42  C   UNL A   1      41.685  28.083  27.102  1.00  0.00     0.134 A 
ATOM     43  F   UNL A   1      39.403  25.997  29.009  1.00  0.00    -0.206 F 
ATOM     44  C   UNL A   1      40.312  25.680  26.868  1.00  0.00     0.040 A 
ATOM     45  C   UNL A   1      41.812  27.322  25.941  1.00  0.00     0.040 A 
ATOM     46  F   UNL A   1      42.382  29.226  27.185  1.00  0.00    -0.206 F 
ATOM     47  C   UNL A   1      41.127  26.114  25.824  1.00  0.00     0.006 A 
ENDBRANCH  26  40
BRANCH  27  48
ATOM     48  C   UNL A   1      39.358  33.839  36.294  1.00  0.00     0.057 A 
ATOM     49  C   UNL A   1      40.735  34.980  36.565  1.00  0.00     0.134 A 
ATOM     50  C   UNL A   1      38.236  33.412  37.942  1.00  0.00     0.134 A 
ATOM     51  F   UNL A   1      41.511  35.367  35.543  1.00  0.00    -0.206 F 
ATOM     52  C   UNL A   1      41.104  35.548  38.184  1.00  0.00     0.040 A 
ATOM     53  C   UNL A   1      38.719  34.097  39.537  1.00  0.00     0.040 A 
ATOM     54  F   UNL A   1      37.182  32.565  38.159  1.00  0.00    -0.206 F 
ATOM     55  C   UNL A   1      40.140  35.120  39.608  1.00  0.00     0.006 A 
ENDBRANCH  27  48
BRANCH  39  56
ATOM     56  C   UNL A   1      43.703  28.198  34.752  1.00  0.00     0.057 A 
ATOM     57  C   UNL A   1      45.033  28.629  34.817  1.00  0.00     0.134 A 
ATOM     58  C   UNL A   1      43.327  27.128  35.575  1.00  0.00     0.134 A 
ATOM     59  F   UNL A   1      45.459  29.641  34.044  1.00  0.00    -0.206 F 
ATOM     60  C   UNL A   1      45.952  28.025  35.675  1.00  0.00     0.040 A 
ATOM     61  C   UNL A   1      44.228  26.537  36.460  1.00  0.00     0.040 A 
ATOM     62  F   UNL A   1      42.063  26.676  35.570  1.00  0.00    -0.206 F 
ATOM     63  C   UNL A   1      45.546  26.986  36.512  1.00  0.00     0.006 A 
ENDBRANCH  39  56
ENDBRANCH  13  14
ENDBRANCH   6   8
ENDBRANCH   5   6
ENDBRANCH   4   5
ENDBRANCH   3   4
ENDBRANCH   2   3
ENDBRANCH   1   2
BRANCH   1  64
ATOM     64  C   UNL A   1      32.799  28.118  25.991  1.00  0.00     0.188 C 
BRANCH  64  65
ATOM     65  O   UNL A   1      32.804  28.770  24.726  1.00  0.00    -0.376 OA
BRANCH  65  66
ATOM     66  C   UNL A   1      32.774  27.952  23.563  1.00  0.00     0.202 C 
BRANCH  66  67
ATOM     67  C   UNL A   1      31.403  27.482  23.051  1.00  0.00     0.261 C 
BRANCH  67  68
ATOM     68  O   UNL A   1      30.286  27.729  23.924  1.00  0.00    -0.457 OA
BRANCH  68  69
ATOM     69  C   UNL A   1      29.495  26.639  24.191  1.00  0.00     0.380 C 
ATOM     70  O   UNL A   1      28.323  26.540  23.840  1.00  0.00    -0.242 OA
BRANCH  69  71
ATOM     71  C   UNL A   1      30.146  25.653  25.057  1.00  0.00     0.281 A 
ATOM     72  N   UNL A   1      30.198  25.658  26.405  1.00  0.00    -0.049 NA
ATOM     73  N   UNL A   1      30.867  24.646  24.490  1.00  0.00    -0.181 NA
ATOM     74  O   UNL A   1      31.079  24.574  26.706  1.00  0.00    -0.333 OA
ATOM     75  C   UNL A   1      31.452  24.054  25.504  1.00  0.00     0.259 A 
BRANCH  75  76
ATOM     76  C   UNL A   1      32.384  22.935  25.359  1.00  0.00     0.058 A 
ATOM     77  C   UNL A   1      31.944  21.201  25.345  1.00  0.00     0.015 A 
ATOM     78  C   UNL A   1      34.022  23.501  25.151  1.00  0.00     0.053 A 
ATOM     79  C   UNL A   1      33.147  19.882  25.158  1.00  0.00     0.001 A 
ATOM     80  C   UNL A   1      35.309  22.328  24.932  1.00  0.00     0.021 A 
ATOM     81  Cl  UNL A   1      34.535  25.137  25.363  1.00  0.00    -0.083 Cl
ATOM     82  C   UNL A   1      34.884  20.354  24.909  1.00  0.00     0.002 A 
ENDBRANCH  75  76
ENDBRANCH  69  71
ENDBRANCH  68  69
ENDBRANCH  67  68
ENDBRANCH  66  67
ENDBRANCH  65  66
ENDBRANCH  64  65
ENDBRANCH   1  64
TORSDOF 18
ENDMDL
MODEL 2
REMARK VINA RESULT:     -10.5      5.325     10.577
REMARK SMILES O=C(OCCOCCOCCOC(=O)c1noc(-c2ccccc2Cl)n1)c1ccc(-c2c3nc(c(-c4c(F)cccc4F)c4ccc([nH]4)c(-c4c(F)cccc4F)c4nc(c(-c5c(F)cccc5F)c5ccc2[nH]5)C=C4)C=C3)cc1
REMARK SMILES IDX 7 1 6 2 5 3 4 4 3 5 2 6 1 7 27 8 28 9 80 10 29 11 79 12
REMARK SMILES IDX 30 13 31 14 32 15 73 16 33 17 78 18 72 19 74 20 34 21 77 22
REMARK SMILES IDX 71 23 70 24 35 26 61 27 44 28 60 29 45 30 48 31 59 32 75 33
REMARK SMILES IDX 46 34 47 35 58 37 76 38 49 39 36 40 37 41 42 42 38 43 39 44
REMARK SMILES IDX 41 45 43 46 40 47 62 48 63 49 68 50 64 51 65 52 67 53 69 54
REMARK SMILES IDX 66 55 50 56 51 57 56 58 52 59 53 60 55 61 57 62 54 63 8 64
REMARK SMILES IDX 9 65 10 66 11 67 12 68 13 69 14 70 15 71 16 72 26 73 17 74
REMARK SMILES IDX 18 75 19 76 20 77 24 78 21 79 23 80 25 81 22 82
REMARK H PARENT 74 25 48 36
REMARK Flexibility Score: inf
ROOT
ATOM      1  C   UNL A   1      36.381  21.487  25.133  1.00  0.00     0.188 C 
ENDROOT
BRANCH   1   2
ATOM      2  O   UNL A   1      37.795  21.322  25.249  1.00  0.00    -0.376 OA
BRANCH   2   3
ATOM      3  C   UNL A   1      38.264  19.985  25.039  1.00  0.00     0.202 C 
BRANCH   3   4
ATOM      4  C   UNL A   1      39.388  19.475  25.976  1.00  0.00     0.261 C 
BRANCH   4   5
ATOM      5  O   UNL A   1      40.665  19.219  25.348  1.00  0.00    -0.460 OA
BRANCH   5   6
ATOM      6  C   UNL A   1      41.926  19.442  25.808  1.00  0.00     0.338 C 
ATOM      7  O   UNL A   1      42.718  18.504  25.861  1.00  0.00    -0.246 OA
BRANCH   6   8
ATOM      8  C   UNL A   1      42.381  20.776  26.296  1.00  0.00     0.060 A 
ATOM      9  C   UNL A   1      42.728  21.806  25.439  1.00  0.00     0.016 A 
ATOM     10  C   UNL A   1      42.397  21.054  27.671  1.00  0.00     0.016 A 
ATOM     11  C   UNL A   1      43.190  23.022  25.874  1.00  0.00     0.010 A 
ATOM     12  C   UNL A   1      42.743  22.335  28.131  1.00  0.00     0.010 A 
ATOM     13  C   UNL A   1      43.134  23.328  27.216  1.00  0.00    -0.014 A 
BRANCH  13  14
ATOM     14  C   UNL A   1      43.581  24.677  27.598  1.00  0.00     0.031 A 
ATOM     15  C   UNL A   1      42.535  25.656  27.997  1.00  0.00     0.074 A 
ATOM     16  C   UNL A   1      44.892  24.947  27.789  1.00  0.00     0.049 A 
ATOM     17  N   UNL A   1      42.648  26.932  28.212  1.00  0.00    -0.248 NA
ATOM     18  C   UNL A   1      41.192  25.107  28.269  1.00  0.00     0.031 C 
ATOM     19  C   UNL A   1      45.970  23.951  27.812  1.00  0.00     0.029 A 
ATOM     20  N   UNL A   1      45.564  26.134  27.980  1.00  0.00    -0.354 N 
ATOM     21  C   UNL A   1      41.407  27.334  28.679  1.00  0.00     0.074 A 
ATOM     22  C   UNL A   1      40.537  26.183  28.673  1.00  0.00     0.031 C 
ATOM     23  C   UNL A   1      47.152  24.580  27.900  1.00  0.00     0.029 A 
ATOM     24  C   UNL A   1      46.917  25.982  27.714  1.00  0.00     0.049 A 
ATOM     25  H   UNL A   1      45.141  26.975  28.267  1.00  0.00     0.167 HD
ATOM     26  C   UNL A   1      41.061  28.567  29.099  1.00  0.00     0.037 A 
ATOM     27  C   UNL A   1      47.758  26.857  27.124  1.00  0.00     0.037 A 
ATOM     28  C   UNL A   1      41.977  29.670  29.062  1.00  0.00     0.049 A 
ATOM     29  C   UNL A   1      47.284  28.333  27.325  1.00  0.00     0.074 A 
ATOM     30  C   UNL A   1      41.765  30.988  29.401  1.00  0.00     0.029 A 
ATOM     31  N   UNL A   1      43.292  29.559  28.631  1.00  0.00    -0.354 N 
ATOM     32  N   UNL A   1      46.083  28.766  27.684  1.00  0.00    -0.248 NA
ATOM     33  C   UNL A   1      48.242  29.436  27.179  1.00  0.00     0.031 C 
ATOM     34  C   UNL A   1      42.935  31.692  29.099  1.00  0.00     0.029 A 
ATOM     35  C   UNL A   1      43.895  30.797  28.642  1.00  0.00     0.049 A 
ATOM     36  H   UNL A   1      43.731  28.721  28.360  1.00  0.00     0.167 HD
ATOM     37  C   UNL A   1      46.175  30.148  27.845  1.00  0.00     0.074 A 
ATOM     38  C   UNL A   1      47.535  30.500  27.525  1.00  0.00     0.031 C 
ATOM     39  C   UNL A   1      45.255  31.063  28.250  1.00  0.00     0.037 A 
BRANCH  26  40
ATOM     40  C   UNL A   1      39.652  28.776  29.544  1.00  0.00     0.057 A 
ATOM     41  C   UNL A   1      38.651  29.226  28.674  1.00  0.00     0.134 A 
ATOM     42  C   UNL A   1      39.296  28.539  30.876  1.00  0.00     0.134 A 
ATOM     43  F   UNL A   1      38.937  29.504  27.393  1.00  0.00    -0.206 F 
ATOM     44  C   UNL A   1      37.346  29.444  29.119  1.00  0.00     0.040 A 
ATOM     45  C   UNL A   1      37.992  28.733  31.328  1.00  0.00     0.040 A 
ATOM     46  F   UNL A   1      40.215  28.123  31.762  1.00  0.00    -0.206 F 
ATOM     47  C   UNL A   1      37.013  29.191  30.448  1.00  0.00     0.006 A 
ENDBRANCH  26  40
BRANCH  27  48
ATOM     48  C   UNL A   1      49.133  26.440  26.209  1.00  0.00     0.057 A 
ATOM     49  C   UNL A   1      50.372  26.523  27.523  1.00  0.00     0.134 A 
ATOM     50  C   UNL A   1      49.847  26.693  24.315  1.00  0.00     0.134 A 
ATOM     51  F   UNL A   1      50.023  26.326  28.803  1.00  0.00    -0.206 F 
ATOM     52  C   UNL A   1      52.039  26.921  27.141  1.00  0.00     0.040 A 
ATOM     53  C   UNL A   1      51.593  27.064  24.075  1.00  0.00     0.040 A 
ATOM     54  F   UNL A   1      49.237  26.766  23.090  1.00  0.00    -0.206 F 
ATOM     55  C   UNL A   1      52.621  27.185  25.489  1.00  0.00     0.006 A 
ENDBRANCH  27  48
BRANCH  39  56
ATOM     56  C   UNL A   1      45.689  32.501  28.326  1.00  0.00     0.057 A 
ATOM     57  C   UNL A   1      45.456  33.390  27.269  1.00  0.00     0.134 A 
ATOM     58  C   UNL A   1      46.221  33.027  29.511  1.00  0.00     0.134 A 
ATOM     59  F   UNL A   1      44.960  32.946  26.104  1.00  0.00    -0.206 F 
ATOM     60  C   UNL A   1      45.734  34.751  27.391  1.00  0.00     0.040 A 
ATOM     61  C   UNL A   1      46.473  34.391  29.655  1.00  0.00     0.040 A 
ATOM     62  F   UNL A   1      46.456  32.230  30.565  1.00  0.00    -0.206 F 
ATOM     63  C   UNL A   1      46.228  35.258  28.592  1.00  0.00     0.006 A 
ENDBRANCH  39  56
ENDBRANCH  13  14
ENDBRANCH   6   8
ENDBRANCH   5   6
ENDBRANCH   4   5
ENDBRANCH   3   4
ENDBRANCH   2   3
ENDBRANCH   1   2
BRANCH   1  64
ATOM     64  C   UNL A   1      35.617  20.175  24.959  1.00  0.00     0.188 C 
BRANCH  64  65
ATOM     65  O   UNL A   1      34.197  20.249  24.924  1.00  0.00    -0.376 OA
BRANCH  65  66
ATOM     66  C   UNL A   1      33.605  21.540  24.873  1.00  0.00     0.202 C 
BRANCH  66  67
ATOM     67  C   UNL A   1      33.080  22.036  23.516  1.00  0.00     0.261 C 
BRANCH  67  68
ATOM     68  O   UNL A   1      32.719  23.428  23.451  1.00  0.00    -0.457 OA
BRANCH  68  69
ATOM     69  C   UNL A   1      33.105  24.083  22.308  1.00  0.00     0.380 C 
ATOM     70  O   UNL A   1      33.421  23.516  21.266  1.00  0.00    -0.242 OA
BRANCH  69  71
ATOM     71  C   UNL A   1      33.237  25.530  22.490  1.00  0.00     0.281 A 
ATOM     72  N   UNL A   1      33.729  26.423  21.605  1.00  0.00    -0.049 NA
ATOM     73  N   UNL A   1      32.924  26.078  23.696  1.00  0.00    -0.181 NA
ATOM     74  O   UNL A   1      33.771  27.640  22.354  1.00  0.00    -0.333 OA
ATOM     75  C   UNL A   1      33.305  27.329  23.595  1.00  0.00     0.259 A 
BRANCH  75  76
ATOM     76  C   UNL A   1      33.212  28.295  24.691  1.00  0.00     0.058 A 
ATOM     77  C   UNL A   1      34.404  28.502  26.009  1.00  0.00     0.015 A 
ATOM     78  C   UNL A   1      31.782  29.285  24.538  1.00  0.00     0.053 A 
ATOM     79  C   UNL A   1      34.222  29.717  27.318  1.00  0.00     0.001 A 
ATOM     80  C   UNL A   1      31.478  30.535  25.732  1.00  0.00     0.021 A 
ATOM     81  Cl  UNL A   1      30.499  28.998  23.418  1.00  0.00    -0.083 Cl
ATOM     82  C   UNL A   1      32.781  30.822  27.249  1.00  0.00     0.002 A 
ENDBRANCH  75  76
ENDBRANCH  69  71
ENDBRANCH  68  69
ENDBRANCH  67  68
ENDBRANCH  66  67
ENDBRANCH  65  66
ENDBRANCH  64  65
ENDBRANCH   1  64
TORSDOF 18
ENDMDL
MODEL 3
REMARK VINA RESULT:     -10.4      1.331      2.193
REMARK SMILES O=C(OCCOCCOCCOC(=O)c1noc(-c2ccccc2Cl)n1)c1ccc(-c2c3nc(c(-c4c(F)cccc4F)c4ccc([nH]4)c(-c4c(F)cccc4F)c4nc(c(-c5c(F)cccc5F)c5ccc2[nH]5)C=C4)C=C3)cc1
REMARK SMILES IDX 7 1 6 2 5 3 4 4 3 5 2 6 1 7 27 8 28 9 80 10 29 11 79 12
REMARK SMILES IDX 30 13 31 14 32 15 73 16 33 17 78 18 72 19 74 20 34 21 77 22
REMARK SMILES IDX 71 23 70 24 35 26 61 27 44 28 60 29 45 30 48 31 59 32 75 33
REMARK SMILES IDX 46 34 47 35 58 37 76 38 49 39 36 40 37 41 42 42 38 43 39 44
REMARK SMILES IDX 41 45 43 46 40 47 62 48 63 49 68 50 64 51 65 52 67 53 69 54
REMARK SMILES IDX 66 55 50 56 51 57 56 58 52 59 53 60 55 61 57 62 54 63 8 64
REMARK SMILES IDX 9 65 10 66 11 67 12 68 13 69 14 70 15 71 16 72 26 73 17 74
REMARK SMILES IDX 18 75 19 76 20 77 24 78 21 79 23 80 25 81 22 82
REMARK H PARENT 74 25 48 36
REMARK Flexibility Score: inf
ROOT
ATOM      1  C   UNL A   1      32.205  28.810  27.331  1.00  0.00     0.188 C 
ENDROOT
BRANCH   1   2
ATOM      2  O   UNL A   1      33.422  29.537  27.161  1.00  0.00    -0.376 OA
BRANCH   2   3
ATOM      3  C   UNL A   1      33.264  30.859  26.631  1.00  0.00     0.202 C 
BRANCH   3   4
ATOM      4  C   UNL A   1      32.010  31.653  27.075  1.00  0.00     0.261 C 
BRANCH   4   5
ATOM      5  O   UNL A   1      32.167  33.089  27.146  1.00  0.00    -0.460 OA
BRANCH   5   6
ATOM      6  C   UNL A   1      32.897  33.847  28.008  1.00  0.00     0.338 C 
ATOM      7  O   UNL A   1      32.535  34.997  28.248  1.00  0.00    -0.246 OA
BRANCH   6   8
ATOM      8  C   UNL A   1      34.152  33.357  28.646  1.00  0.00     0.060 A 
ATOM      9  C   UNL A   1      35.401  33.543  28.077  1.00  0.00     0.016 A 
ATOM     10  C   UNL A   1      34.109  32.748  29.908  1.00  0.00     0.016 A 
ATOM     11  C   UNL A   1      36.559  33.059  28.631  1.00  0.00     0.010 A 
ATOM     12  C   UNL A   1      35.297  32.362  30.551  1.00  0.00     0.010 A 
ATOM     13  C   UNL A   1      36.533  32.531  29.903  1.00  0.00    -0.014 A 
BRANCH  13  14
ATOM     14  C   UNL A   1      37.825  32.097  30.458  1.00  0.00     0.031 A 
ATOM     15  C   UNL A   1      38.452  30.886  29.864  1.00  0.00     0.074 A 
ATOM     16  C   UNL A   1      38.513  32.886  31.313  1.00  0.00     0.049 A 
ATOM     17  N   UNL A   1      39.484  30.214  30.276  1.00  0.00    -0.248 NA
ATOM     18  C   UNL A   1      37.885  30.414  28.586  1.00  0.00     0.031 C 
ATOM     19  C   UNL A   1      38.174  34.273  31.651  1.00  0.00     0.029 A 
ATOM     20  N   UNL A   1      39.631  32.645  32.081  1.00  0.00    -0.354 N 
ATOM     21  C   UNL A   1      39.716  29.265  29.293  1.00  0.00     0.074 A 
ATOM     22  C   UNL A   1      38.693  29.409  28.287  1.00  0.00     0.031 C 
ATOM     23  C   UNL A   1      38.995  34.707  32.620  1.00  0.00     0.029 A 
ATOM     24  C   UNL A   1      39.736  33.579  33.103  1.00  0.00     0.049 A 
ATOM     25  H   UNL A   1      40.268  31.911  31.927  1.00  0.00     0.167 HD
ATOM     26  C   UNL A   1      40.729  28.376  29.250  1.00  0.00     0.037 A 
ATOM     27  C   UNL A   1      40.158  33.390  34.370  1.00  0.00     0.037 A 
ATOM     28  C   UNL A   1      41.703  28.280  30.297  1.00  0.00     0.049 A 
ATOM     29  C   UNL A   1      41.146  32.182  34.471  1.00  0.00     0.074 A 
ATOM     30  C   UNL A   1      42.757  27.400  30.426  1.00  0.00     0.029 A 
ATOM     31  N   UNL A   1      41.713  29.105  31.413  1.00  0.00    -0.354 N 
ATOM     32  N   UNL A   1      41.336  31.204  33.597  1.00  0.00    -0.248 NA
ATOM     33  C   UNL A   1      42.059  32.078  35.617  1.00  0.00     0.031 C 
ATOM     34  C   UNL A   1      43.357  27.645  31.666  1.00  0.00     0.029 A 
ATOM     35  C   UNL A   1      42.721  28.723  32.270  1.00  0.00     0.049 A 
ATOM     36  H   UNL A   1      41.093  29.853  31.570  1.00  0.00     0.167 HD
ATOM     37  C   UNL A   1      42.397  30.430  34.068  1.00  0.00     0.074 A 
ATOM     38  C   UNL A   1      42.804  31.026  35.316  1.00  0.00     0.031 C 
ATOM     39  C   UNL A   1      43.022  29.349  33.532  1.00  0.00     0.037 A 
BRANCH  26  40
ATOM     40  C   UNL A   1      40.768  27.429  28.097  1.00  0.00     0.057 A 
ATOM     41  C   UNL A   1      41.504  27.693  26.936  1.00  0.00     0.134 A 
ATOM     42  C   UNL A   1      40.038  26.237  28.147  1.00  0.00     0.134 A 
ATOM     43  F   UNL A   1      42.198  28.835  26.814  1.00  0.00    -0.206 F 
ATOM     44  C   UNL A   1      41.502  26.807  25.857  1.00  0.00     0.040 A 
ATOM     45  C   UNL A   1      40.044  25.334  27.084  1.00  0.00     0.040 A 
ATOM     46  F   UNL A   1      39.299  25.935  29.226  1.00  0.00    -0.206 F 
ATOM     47  C   UNL A   1      40.775  25.621  25.933  1.00  0.00     0.006 A 
ENDBRANCH  26  40
BRANCH  27  48
ATOM     48  C   UNL A   1      39.648  34.287  35.725  1.00  0.00     0.057 A 
ATOM     49  C   UNL A   1      40.918  35.575  35.695  1.00  0.00     0.134 A 
ATOM     50  C   UNL A   1      38.776  33.960  37.539  1.00  0.00     0.134 A 
ATOM     51  F   UNL A   1      41.526  35.905  34.546  1.00  0.00    -0.206 F 
ATOM     52  C   UNL A   1      41.409  36.365  37.183  1.00  0.00     0.040 A 
ATOM     53  C   UNL A   1      39.364  34.873  38.976  1.00  0.00     0.040 A 
ATOM     54  F   UNL A   1      37.850  33.051  37.978  1.00  0.00    -0.206 F 
ATOM     55  C   UNL A   1      40.667  36.023  38.755  1.00  0.00     0.006 A 
ENDBRANCH  27  48
BRANCH  39  56
ATOM     56  C   UNL A   1      44.159  28.745  34.308  1.00  0.00     0.057 A 
ATOM     57  C   UNL A   1      43.962  27.651  35.160  1.00  0.00     0.134 A 
ATOM     58  C   UNL A   1      45.477  29.175  34.099  1.00  0.00     0.134 A 
ATOM     59  F   UNL A   1      42.723  27.200  35.411  1.00  0.00    -0.206 F 
ATOM     60  C   UNL A   1      45.035  27.006  35.774  1.00  0.00     0.040 A 
ATOM     61  C   UNL A   1      46.559  28.517  34.682  1.00  0.00     0.040 A 
ATOM     62  F   UNL A   1      45.734  30.209  33.283  1.00  0.00    -0.206 F 
ATOM     63  C   UNL A   1      46.340  27.428  35.522  1.00  0.00     0.006 A 
ENDBRANCH  39  56
ENDBRANCH  13  14
ENDBRANCH   6   8
ENDBRANCH   5   6
ENDBRANCH   4   5
ENDBRANCH   3   4
ENDBRANCH   2   3
ENDBRANCH   1   2
BRANCH   1  64
ATOM     64  C   UNL A   1      31.905  27.830  26.198  1.00  0.00     0.188 C 
BRANCH  64  65
ATOM     65  O   UNL A   1      30.807  28.136  25.346  1.00  0.00    -0.376 OA
BRANCH  65  66
ATOM     66  C   UNL A   1      30.322  27.101  24.499  1.00  0.00     0.202 C 
BRANCH  66  67
ATOM     67  C   UNL A   1      29.752  27.502  23.130  1.00  0.00     0.261 C 
BRANCH  67  68
ATOM     68  O   UNL A   1      30.586  27.218  21.992  1.00  0.00    -0.457 OA
BRANCH  68  69
ATOM     69  C   UNL A   1      31.937  27.215  22.240  1.00  0.00     0.380 C 
ATOM     70  O   UNL A   1      32.578  28.212  22.557  1.00  0.00    -0.242 OA
BRANCH  69  71
ATOM     71  C   UNL A   1      32.572  25.925  21.958  1.00  0.00     0.281 A 
ATOM     72  N   UNL A   1      33.092  25.511  20.784  1.00  0.00    -0.049 NA
ATOM     73  N   UNL A   1      32.589  24.969  22.926  1.00  0.00    -0.181 NA
ATOM     74  O   UNL A   1      33.422  24.143  21.034  1.00  0.00    -0.333 OA
ATOM     75  C   UNL A   1      33.056  23.902  22.323  1.00  0.00     0.259 A 
BRANCH  75  76
ATOM     76  C   UNL A   1      33.195  22.599  22.974  1.00  0.00     0.058 A 
ATOM     77  C   UNL A   1      32.082  21.211  22.791  1.00  0.00     0.015 A 
ATOM     78  C   UNL A   1      34.643  22.534  23.949  1.00  0.00     0.053 A 
ATOM     79  C   UNL A   1      32.324  19.638  23.622  1.00  0.00     0.001 A 
ATOM     80  C   UNL A   1      35.029  21.052  24.805  1.00  0.00     0.021 A 
ATOM     81  Cl  UNL A   1      35.637  23.893  24.330  1.00  0.00    -0.083 Cl
ATOM     82  C   UNL A   1      33.813  19.446  24.646  1.00  0.00     0.002 A 
ENDBRANCH  75  76
ENDBRANCH  69  71
ENDBRANCH  68  69
ENDBRANCH  67  68
ENDBRANCH  66  67
ENDBRANCH  65  66
ENDBRANCH  64  65
ENDBRANCH   1  64
TORSDOF 18
ENDMDL
