MODEL 1
REMARK VINA RESULT:     -10.3      0.000      0.000
REMARK SMILES C[C@@H](c1ccccn1)S(=O)(=O)N1CC[NH2+]C[C@@H]1C(=O)OCCOCCOCCOC(=O)c1ccc(-c2c3nc(c(-c4c(F)cccc4F)c4ccc([nH]4)c(-c4c(F)cccc4F)c4nc(c(-c5c(F)cccc5F)c5ccc2[nH]5)C=C4)C=C3)cc1
REMARK SMILES IDX 24 1 23 2 22 3 21 4 20 5 18 6 19 7 17 8 12 9 13 10 14 11
REMARK SMILES IDX 16 12 15 13 9 16 10 17 11 18 2 19 1 20 3 21 4 22 8 23 5 24
REMARK SMILES IDX 7 25 6 26 25 27 26 28 27 29 28 30 29 31 30 32 31 33 32 34
REMARK SMILES IDX 33 35 85 36 34 37 84 38 35 39 36 40 37 41 78 42 38 43 83 44
REMARK SMILES IDX 77 45 79 46 39 47 82 48 76 49 75 50 40 52 66 53 49 54 65 55
REMARK SMILES IDX 50 56 53 57 64 58 80 59 51 60 52 61 63 63 81 64 54 65 41 66
REMARK SMILES IDX 42 67 47 68 43 69 44 70 46 71 48 72 45 73 67 74 68 75 73 76
REMARK SMILES IDX 69 77 70 78 72 79 74 80 71 81 55 82 56 83 61 84 57 85 58 86
REMARK SMILES IDX 60 87 62 88 59 89
REMARK H PARENT 15 14 15 15 79 51 53 62
REMARK Flexibility Score: inf
ROOT
ATOM      1  C   UNL A   1      40.772  22.289  27.027  1.00  0.00     0.188 C 
ENDROOT
BRANCH   1   2
ATOM      2  O   UNL A   1      39.517  21.635  26.879  1.00  0.00    -0.376 OA
BRANCH   2   3
ATOM      3  C   UNL A   1      38.510  22.202  26.059  1.00  0.00     0.202 C 
BRANCH   3   4
ATOM      4  C   UNL A   1      37.780  21.274  25.078  1.00  0.00     0.261 C 
BRANCH   4   5
ATOM      5  O   UNL A   1      37.371  21.863  23.825  1.00  0.00    -0.462 OA
BRANCH   5   6
ATOM      6  C   UNL A   1      36.361  22.788  23.884  1.00  0.00     0.330 C 
ATOM      7  O   UNL A   1      36.400  23.851  23.277  1.00  0.00    -0.250 OA
BRANCH   6   8
ATOM      8  C   UNL A   1      35.184  22.295  24.776  1.00  0.00     0.237 C 
ATOM      9  N   UNL A   1      34.042  21.646  23.998  1.00  0.00    -0.176 NA
ATOM     10  C   UNL A   1      33.457  22.737  23.095  1.00  0.00     0.164 C 
ATOM     11  C   UNL A   1      33.069  24.011  23.891  1.00  0.00     0.277 C 
ATOM     12  C   UNL A   1      34.693  23.485  25.620  1.00  0.00     0.293 C 
ATOM     13  N   UNL A   1      34.086  24.556  24.814  1.00  0.00    -0.343 N 
ATOM     14  H   UNL A   1      33.645  25.233  25.437  1.00  0.00     0.346 HD
ATOM     15  H   UNL A   1      34.819  25.004  24.263  1.00  0.00     0.346 HD
BRANCH   9  16
ATOM     16  S   UNL A   1      32.762  20.818  24.799  1.00  0.00     0.223 S 
ATOM     17  O   UNL A   1      31.633  21.733  24.701  1.00  0.00    -0.211 OA
ATOM     18  O   UNL A   1      33.233  20.458  26.117  1.00  0.00    -0.211 OA
BRANCH  16  19
ATOM     19  C   UNL A   1      32.204  19.323  23.935  1.00  0.00     0.170 C 
ATOM     20  C   UNL A   1      32.132  19.461  22.426  1.00  0.00     0.033 C 
BRANCH  19  21
ATOM     21  C   UNL A   1      32.883  18.083  24.450  1.00  0.00     0.060 A 
ATOM     22  C   UNL A   1      34.153  17.708  24.038  1.00  0.00     0.025 A 
ATOM     23  N   UNL A   1      32.156  17.277  25.263  1.00  0.00    -0.260 NA
ATOM     24  C   UNL A   1      34.761  16.583  24.592  1.00  0.00     0.004 A 
ATOM     25  C   UNL A   1      32.737  16.154  25.744  1.00  0.00     0.111 A 
ATOM     26  C   UNL A   1      34.040  15.789  25.469  1.00  0.00     0.020 A 
ENDBRANCH  19  21
ENDBRANCH  16  19
ENDBRANCH   9  16
ENDBRANCH   6   8
ENDBRANCH   5   6
ENDBRANCH   4   5
ENDBRANCH   3   4
ENDBRANCH   2   3
ENDBRANCH   1   2
BRANCH   1  27
ATOM     27  C   UNL A   1      42.089  21.521  26.802  1.00  0.00     0.188 C 
BRANCH  27  28
ATOM     28  O   UNL A   1      42.011  20.530  25.803  1.00  0.00    -0.376 OA
BRANCH  28  29
ATOM     29  C   UNL A   1      42.221  19.193  26.213  1.00  0.00     0.202 C 
BRANCH  29  30
ATOM     30  C   UNL A   1      43.387  18.455  25.537  1.00  0.00     0.261 C 
BRANCH  30  31
ATOM     31  O   UNL A   1      43.784  18.928  24.234  1.00  0.00    -0.460 OA
BRANCH  31  32
ATOM     32  C   UNL A   1      45.061  19.357  24.079  1.00  0.00     0.338 C 
ATOM     33  O   UNL A   1      45.963  18.763  23.528  1.00  0.00    -0.246 OA
BRANCH  32  34
ATOM     34  C   UNL A   1      45.118  20.779  24.504  1.00  0.00     0.060 A 
ATOM     35  C   UNL A   1      44.624  21.766  23.642  1.00  0.00     0.016 A 
ATOM     36  C   UNL A   1      45.632  21.142  25.750  1.00  0.00     0.016 A 
ATOM     37  C   UNL A   1      44.618  23.109  24.035  1.00  0.00     0.010 A 
ATOM     38  C   UNL A   1      45.652  22.493  26.128  1.00  0.00     0.010 A 
ATOM     39  C   UNL A   1      45.142  23.488  25.275  1.00  0.00    -0.014 A 
BRANCH  39  40
ATOM     40  C   UNL A   1      45.240  24.926  25.646  1.00  0.00     0.031 A 
ATOM     41  C   UNL A   1      46.578  25.611  25.581  1.00  0.00     0.074 A 
ATOM     42  C   UNL A   1      44.158  25.620  26.048  1.00  0.00     0.049 A 
ATOM     43  N   UNL A   1      46.926  26.796  26.012  1.00  0.00    -0.248 NA
ATOM     44  C   UNL A   1      47.666  24.859  24.938  1.00  0.00     0.031 C 
ATOM     45  C   UNL A   1      42.789  25.109  26.084  1.00  0.00     0.029 A 
ATOM     46  N   UNL A   1      44.048  26.904  26.530  1.00  0.00    -0.354 N 
ATOM     47  C   UNL A   1      48.278  26.921  25.722  1.00  0.00     0.074 A 
ATOM     48  C   UNL A   1      48.687  25.694  25.072  1.00  0.00     0.031 C 
ATOM     49  C   UNL A   1      41.983  26.055  26.599  1.00  0.00     0.029 A 
ATOM     50  C   UNL A   1      42.786  27.216  26.979  1.00  0.00     0.049 A 
ATOM     51  H   UNL A   1      44.801  27.539  26.550  1.00  0.00     0.167 HD
ATOM     52  C   UNL A   1      49.103  27.962  25.984  1.00  0.00     0.037 A 
ATOM     53  C   UNL A   1      42.342  28.287  27.670  1.00  0.00     0.037 A 
ATOM     54  C   UNL A   1      48.692  29.190  26.614  1.00  0.00     0.049 A 
ATOM     55  C   UNL A   1      43.306  29.388  28.039  1.00  0.00     0.074 A 
ATOM     56  C   UNL A   1      49.454  30.316  26.879  1.00  0.00     0.029 A 
ATOM     57  N   UNL A   1      47.417  29.449  27.087  1.00  0.00    -0.354 N 
ATOM     58  N   UNL A   1      44.579  29.508  27.744  1.00  0.00    -0.248 NA
ATOM     59  C   UNL A   1      42.777  30.497  28.850  1.00  0.00     0.031 C 
ATOM     60  C   UNL A   1      48.658  31.228  27.576  1.00  0.00     0.029 A 
ATOM     61  C   UNL A   1      47.384  30.696  27.689  1.00  0.00     0.049 A 
ATOM     62  H   UNL A   1      46.648  28.839  27.006  1.00  0.00     0.167 HD
ATOM     63  C   UNL A   1      44.990  30.709  28.313  1.00  0.00     0.074 A 
ATOM     64  C   UNL A   1      43.832  31.293  28.950  1.00  0.00     0.031 C 
ATOM     65  C   UNL A   1      46.223  31.273  28.316  1.00  0.00     0.037 A 
BRANCH  52  66
ATOM     66  C   UNL A   1      50.555  27.817  25.637  1.00  0.00     0.057 A 
ATOM     67  C   UNL A   1      51.524  27.499  26.595  1.00  0.00     0.134 A 
ATOM     68  C   UNL A   1      50.969  27.909  24.301  1.00  0.00     0.134 A 
ATOM     69  F   UNL A   1      51.195  27.408  27.892  1.00  0.00    -0.206 F 
ATOM     70  C   UNL A   1      52.857  27.281  26.236  1.00  0.00     0.040 A 
ATOM     71  C   UNL A   1      52.291  27.669  23.928  1.00  0.00     0.040 A 
ATOM     72  F   UNL A   1      50.088  28.206  23.334  1.00  0.00    -0.206 F 
ATOM     73  C   UNL A   1      53.239  27.354  24.898  1.00  0.00     0.006 A 
ENDBRANCH  52  66
BRANCH  53  74
ATOM     74  C   UNL A   1      40.932  28.348  28.145  1.00  0.00     0.057 A 
ATOM     75  C   UNL A   1      39.916  28.901  27.356  1.00  0.00     0.134 A 
ATOM     76  C   UNL A   1      40.581  27.927  29.435  1.00  0.00     0.134 A 
ATOM     77  F   UNL A   1      40.191  29.359  26.126  1.00  0.00    -0.206 F 
ATOM     78  C   UNL A   1      38.615  29.061  27.840  1.00  0.00     0.040 A 
ATOM     79  C   UNL A   1      39.278  28.048  29.920  1.00  0.00     0.040 A 
ATOM     80  F   UNL A   1      41.506  27.397  30.249  1.00  0.00    -0.206 F 
ATOM     81  C   UNL A   1      38.293  28.629  29.126  1.00  0.00     0.006 A 
ENDBRANCH  53  74
BRANCH  65  82
ATOM     82  C   UNL A   1      46.384  32.597  29.008  1.00  0.00     0.057 A 
ATOM     83  C   UNL A   1      46.789  32.684  30.346  1.00  0.00     0.134 A 
ATOM     84  C   UNL A   1      46.193  33.798  28.312  1.00  0.00     0.134 A 
ATOM     85  F   UNL A   1      46.977  31.574  31.073  1.00  0.00    -0.206 F 
ATOM     86  C   UNL A   1      46.980  33.919  30.972  1.00  0.00     0.040 A 
ATOM     87  C   UNL A   1      46.409  35.037  28.917  1.00  0.00     0.040 A 
ATOM     88  F   UNL A   1      45.816  33.787  27.024  1.00  0.00    -0.206 F 
ATOM     89  C   UNL A   1      46.799  35.099  30.253  1.00  0.00     0.006 A 
ENDBRANCH  65  82
ENDBRANCH  39  40
ENDBRANCH  32  34
ENDBRANCH  31  32
ENDBRANCH  30  31
ENDBRANCH  29  30
ENDBRANCH  28  29
ENDBRANCH  27  28
ENDBRANCH   1  27
TORSDOF 20
ENDMDL
MODEL 2
REMARK VINA RESULT:     -10.3      7.614     12.984
REMARK SMILES C[C@@H](c1ccccn1)S(=O)(=O)N1CC[NH2+]C[C@@H]1C(=O)OCCOCCOCCOC(=O)c1ccc(-c2c3nc(c(-c4c(F)cccc4F)c4ccc([nH]4)c(-c4c(F)cccc4F)c4nc(c(-c5c(F)cccc5F)c5ccc2[nH]5)C=C4)C=C3)cc1
REMARK SMILES IDX 24 1 23 2 22 3 21 4 20 5 18 6 19 7 17 8 12 9 13 10 14 11
REMARK SMILES IDX 16 12 15 13 9 16 10 17 11 18 2 19 1 20 3 21 4 22 8 23 5 24
REMARK SMILES IDX 7 25 6 26 25 27 26 28 27 29 28 30 29 31 30 32 31 33 32 34
REMARK SMILES IDX 33 35 85 36 34 37 84 38 35 39 36 40 37 41 78 42 38 43 83 44
REMARK SMILES IDX 77 45 79 46 39 47 82 48 76 49 75 50 40 52 66 53 49 54 65 55
REMARK SMILES IDX 50 56 53 57 64 58 80 59 51 60 52 61 63 63 81 64 54 65 41 66
REMARK SMILES IDX 42 67 47 68 43 69 44 70 46 71 48 72 45 73 67 74 68 75 73 76
REMARK SMILES IDX 69 77 70 78 72 79 74 80 71 81 55 82 56 83 61 84 57 85 58 86
REMARK SMILES IDX 60 87 62 88 59 89
REMARK H PARENT 15 14 15 15 79 51 53 62
REMARK Flexibility Score: inf
ROOT
ATOM      1  C   UNL A   1      35.315  32.594  28.008  1.00  0.00     0.188 C 
ENDROOT
BRANCH   1   2
ATOM      2  O   UNL A   1      33.971  32.167  27.821  1.00  0.00    -0.376 OA
BRANCH   2   3
ATOM      3  C   UNL A   1      33.679  30.796  27.620  1.00  0.00     0.202 C 
BRANCH   3   4
ATOM      4  C   UNL A   1      32.385  30.442  26.874  1.00  0.00     0.261 C 
BRANCH   4   5
ATOM      5  O   UNL A   1      32.028  29.043  26.840  1.00  0.00    -0.462 OA
BRANCH   5   6
ATOM      6  C   UNL A   1      32.828  28.224  26.086  1.00  0.00     0.330 C 
ATOM      7  O   UNL A   1      33.610  27.423  26.582  1.00  0.00    -0.250 OA
BRANCH   6   8
ATOM      8  C   UNL A   1      32.583  28.429  24.562  1.00  0.00     0.237 C 
ATOM      9  N   UNL A   1      31.221  27.939  24.079  1.00  0.00    -0.176 NA
ATOM     10  C   UNL A   1      31.200  26.424  24.307  1.00  0.00     0.164 C 
ATOM     11  C   UNL A   1      32.420  25.716  23.662  1.00  0.00     0.277 C 
ATOM     12  C   UNL A   1      33.736  27.754  23.798  1.00  0.00     0.293 C 
ATOM     13  N   UNL A   1      33.752  26.290  23.948  1.00  0.00    -0.343 N 
ATOM     14  H   UNL A   1      34.432  25.896  23.299  1.00  0.00     0.346 HD
ATOM     15  H   UNL A   1      34.005  26.064  24.910  1.00  0.00     0.346 HD
BRANCH   9  16
ATOM     16  S   UNL A   1      30.650  28.286  22.492  1.00  0.00     0.223 S 
ATOM     17  O   UNL A   1      30.816  27.031  21.773  1.00  0.00    -0.211 OA
ATOM     18  O   UNL A   1      31.369  29.445  22.013  1.00  0.00    -0.211 OA
BRANCH  16  19
ATOM     19  C   UNL A   1      28.868  28.616  22.412  1.00  0.00     0.170 C 
ATOM     20  C   UNL A   1      28.055  27.940  23.501  1.00  0.00     0.033 C 
BRANCH  19  21
ATOM     21  C   UNL A   1      28.569  30.072  22.178  1.00  0.00     0.060 A 
ATOM     22  C   UNL A   1      28.462  30.984  23.219  1.00  0.00     0.025 A 
ATOM     23  N   UNL A   1      28.301  30.447  20.903  1.00  0.00    -0.260 NA
ATOM     24  C   UNL A   1      28.245  32.331  22.944  1.00  0.00     0.004 A 
ATOM     25  C   UNL A   1      28.028  31.750  20.659  1.00  0.00     0.111 A 
ATOM     26  C   UNL A   1      28.028  32.727  21.634  1.00  0.00     0.020 A 
ENDBRANCH  19  21
ENDBRANCH  16  19
ENDBRANCH   9  16
ENDBRANCH   6   8
ENDBRANCH   5   6
ENDBRANCH   4   5
ENDBRANCH   3   4
ENDBRANCH   2   3
ENDBRANCH   1   2
BRANCH   1  27
ATOM     27  C   UNL A   1      35.624  33.981  28.602  1.00  0.00     0.188 C 
BRANCH  27  28
ATOM     28  O   UNL A   1      34.602  34.489  29.430  1.00  0.00    -0.376 OA
BRANCH  28  29
ATOM     29  C   UNL A   1      33.811  35.534  28.899  1.00  0.00     0.202 C 
BRANCH  29  30
ATOM     30  C   UNL A   1      32.529  35.872  29.675  1.00  0.00     0.261 C 
BRANCH  30  31
ATOM     31  O   UNL A   1      32.685  36.664  30.870  1.00  0.00    -0.460 OA
BRANCH  31  32
ATOM     32  C   UNL A   1      32.354  36.094  32.055  1.00  0.00     0.338 C 
ATOM     33  O   UNL A   1      31.269  36.122  32.595  1.00  0.00    -0.246 OA
BRANCH  32  34
ATOM     34  C   UNL A   1      33.490  35.235  32.480  1.00  0.00     0.060 A 
ATOM     35  C   UNL A   1      34.781  35.778  32.502  1.00  0.00     0.016 A 
ATOM     36  C   UNL A   1      33.288  33.912  32.876  1.00  0.00     0.016 A 
ATOM     37  C   UNL A   1      35.863  35.010  32.945  1.00  0.00     0.010 A 
ATOM     38  C   UNL A   1      34.381  33.136  33.292  1.00  0.00     0.010 A 
ATOM     39  C   UNL A   1      35.677  33.680  33.333  1.00  0.00    -0.014 A 
BRANCH  39  40
ATOM     40  C   UNL A   1      36.843  32.828  33.696  1.00  0.00     0.031 A 
ATOM     41  C   UNL A   1      37.590  33.112  34.969  1.00  0.00     0.074 A 
ATOM     42  C   UNL A   1      37.244  31.817  32.902  1.00  0.00     0.049 A 
ATOM     43  N   UNL A   1      38.722  32.614  35.397  1.00  0.00    -0.248 NA
ATOM     44  C   UNL A   1      36.975  34.085  35.885  1.00  0.00     0.031 C 
ATOM     45  C   UNL A   1      36.570  31.378  31.681  1.00  0.00     0.029 A 
ATOM     46  N   UNL A   1      38.341  30.991  32.993  1.00  0.00    -0.354 N 
ATOM     47  C   UNL A   1      38.971  33.233  36.615  1.00  0.00     0.074 A 
ATOM     48  C   UNL A   1      37.870  34.140  36.862  1.00  0.00     0.031 C 
ATOM     49  C   UNL A   1      37.287  30.391  31.117  1.00  0.00     0.029 A 
ATOM     50  C   UNL A   1      38.498  30.165  31.904  1.00  0.00     0.049 A 
ATOM     51  H   UNL A   1      38.954  30.990  33.765  1.00  0.00     0.167 HD
ATOM     52  C   UNL A   1      40.028  33.067  37.444  1.00  0.00     0.037 A 
ATOM     53  C   UNL A   1      39.526  29.364  31.553  1.00  0.00     0.037 A 
ATOM     54  C   UNL A   1      41.114  32.151  37.207  1.00  0.00     0.049 A 
ATOM     55  C   UNL A   1      40.739  29.273  32.448  1.00  0.00     0.074 A 
ATOM     56  C   UNL A   1      42.206  31.886  38.017  1.00  0.00     0.029 A 
ATOM     57  N   UNL A   1      41.254  31.363  36.078  1.00  0.00    -0.354 N 
ATOM     58  N   UNL A   1      40.959  29.847  33.607  1.00  0.00    -0.248 NA
ATOM     59  C   UNL A   1      41.855  28.436  31.978  1.00  0.00     0.031 C 
ATOM     60  C   UNL A   1      43.042  30.991  37.345  1.00  0.00     0.029 A 
ATOM     61  C   UNL A   1      42.440  30.651  36.146  1.00  0.00     0.049 A 
ATOM     62  H   UNL A   1      40.607  31.315  35.337  1.00  0.00     0.167 HD
ATOM     63  C   UNL A   1      42.221  29.424  34.009  1.00  0.00     0.074 A 
ATOM     64  C   UNL A   1      42.711  28.527  32.986  1.00  0.00     0.031 C 
ATOM     65  C   UNL A   1      42.918  29.755  35.124  1.00  0.00     0.037 A 
BRANCH  52  66
ATOM     66  C   UNL A   1      40.102  33.921  38.675  1.00  0.00     0.057 A 
ATOM     67  C   UNL A   1      39.602  33.497  39.911  1.00  0.00     0.134 A 
ATOM     68  C   UNL A   1      40.769  35.154  38.633  1.00  0.00     0.134 A 
ATOM     69  F   UNL A   1      38.943  32.333  40.015  1.00  0.00    -0.206 F 
ATOM     70  C   UNL A   1      39.760  34.270  41.063  1.00  0.00     0.040 A 
ATOM     71  C   UNL A   1      40.955  35.923  39.782  1.00  0.00     0.040 A 
ATOM     72  F   UNL A   1      41.275  35.615  37.480  1.00  0.00    -0.206 F 
ATOM     73  C   UNL A   1      40.449  35.481  41.002  1.00  0.00     0.006 A 
ENDBRANCH  52  66
BRANCH  53  74
ATOM     74  C   UNL A   1      39.510  28.638  30.253  1.00  0.00     0.057 A 
ATOM     75  C   UNL A   1      39.025  27.329  30.150  1.00  0.00     0.134 A 
ATOM     76  C   UNL A   1      40.055  29.212  29.096  1.00  0.00     0.134 A 
ATOM     77  F   UNL A   1      38.525  26.708  31.228  1.00  0.00    -0.206 F 
ATOM     78  C   UNL A   1      39.110  26.607  28.957  1.00  0.00     0.040 A 
ATOM     79  C   UNL A   1      40.114  28.515  27.888  1.00  0.00     0.040 A 
ATOM     80  F   UNL A   1      40.548  30.459  29.125  1.00  0.00    -0.206 F 
ATOM     81  C   UNL A   1      39.652  27.203  27.819  1.00  0.00     0.006 A 
ENDBRANCH  53  74
BRANCH  65  82
ATOM     82  C   UNL A   1      44.273  29.135  35.312  1.00  0.00     0.057 A 
ATOM     83  C   UNL A   1      44.435  27.893  35.939  1.00  0.00     0.134 A 
ATOM     84  C   UNL A   1      45.422  29.759  34.808  1.00  0.00     0.134 A 
ATOM     85  F   UNL A   1      43.377  27.249  36.454  1.00  0.00    -0.206 F 
ATOM     86  C   UNL A   1      45.693  27.301  36.071  1.00  0.00     0.040 A 
ATOM     87  C   UNL A   1      46.681  29.164  34.909  1.00  0.00     0.040 A 
ATOM     88  F   UNL A   1      45.338  30.945  34.187  1.00  0.00    -0.206 F 
ATOM     89  C   UNL A   1      46.819  27.932  35.547  1.00  0.00     0.006 A 
ENDBRANCH  65  82
ENDBRANCH  39  40
ENDBRANCH  32  34
ENDBRANCH  31  32
ENDBRANCH  30  31
ENDBRANCH  29  30
ENDBRANCH  28  29
ENDBRANCH  27  28
ENDBRANCH   1  27
TORSDOF 20
ENDMDL
MODEL 3
REMARK VINA RESULT:     -10.2      3.855      8.970
REMARK SMILES C[C@@H](c1ccccn1)S(=O)(=O)N1CC[NH2+]C[C@@H]1C(=O)OCCOCCOCCOC(=O)c1ccc(-c2c3nc(c(-c4c(F)cccc4F)c4ccc([nH]4)c(-c4c(F)cccc4F)c4nc(c(-c5c(F)cccc5F)c5ccc2[nH]5)C=C4)C=C3)cc1
REMARK SMILES IDX 24 1 23 2 22 3 21 4 20 5 18 6 19 7 17 8 12 9 13 10 14 11
REMARK SMILES IDX 16 12 15 13 9 16 10 17 11 18 2 19 1 20 3 21 4 22 8 23 5 24
REMARK SMILES IDX 7 25 6 26 25 27 26 28 27 29 28 30 29 31 30 32 31 33 32 34
REMARK SMILES IDX 33 35 85 36 34 37 84 38 35 39 36 40 37 41 78 42 38 43 83 44
REMARK SMILES IDX 77 45 79 46 39 47 82 48 76 49 75 50 40 52 66 53 49 54 65 55
REMARK SMILES IDX 50 56 53 57 64 58 80 59 51 60 52 61 63 63 81 64 54 65 41 66
REMARK SMILES IDX 42 67 47 68 43 69 44 70 46 71 48 72 45 73 67 74 68 75 73 76
REMARK SMILES IDX 69 77 70 78 72 79 74 80 71 81 55 82 56 83 61 84 57 85 58 86
REMARK SMILES IDX 60 87 62 88 59 89
REMARK H PARENT 15 14 15 15 79 51 53 62
REMARK Flexibility Score: inf
ROOT
ATOM      1  C   UNL A   1      33.726  32.028  27.885  1.00  0.00     0.188 C 
ENDROOT
BRANCH   1   2
ATOM      2  O   UNL A   1      33.565  31.000  26.915  1.00  0.00    -0.376 OA
BRANCH   2   3
ATOM      3  C   UNL A   1      33.073  29.728  27.298  1.00  0.00     0.202 C 
BRANCH   3   4
ATOM      4  C   UNL A   1      33.542  28.508  26.494  1.00  0.00     0.261 C 
BRANCH   4   5
ATOM      5  O   UNL A   1      33.738  28.711  25.079  1.00  0.00    -0.462 OA
BRANCH   5   6
ATOM      6  C   UNL A   1      32.665  28.446  24.267  1.00  0.00     0.330 C 
ATOM      7  O   UNL A   1      32.268  29.232  23.416  1.00  0.00    -0.250 OA
BRANCH   6   8
ATOM      8  C   UNL A   1      32.065  27.038  24.552  1.00  0.00     0.237 C 
ATOM      9  N   UNL A   1      32.974  25.881  24.146  1.00  0.00    -0.176 NA
ATOM     10  C   UNL A   1      33.134  25.969  22.624  1.00  0.00     0.164 C 
ATOM     11  C   UNL A   1      31.767  26.020  21.892  1.00  0.00     0.277 C 
ATOM     12  C   UNL A   1      30.692  26.955  23.860  1.00  0.00     0.293 C 
ATOM     13  N   UNL A   1      30.779  26.999  22.392  1.00  0.00    -0.343 N 
ATOM     14  H   UNL A   1      29.864  26.781  21.997  1.00  0.00     0.346 HD
ATOM     15  H   UNL A   1      31.076  27.934  22.111  1.00  0.00     0.346 HD
BRANCH   9  16
ATOM     16  S   UNL A   1      32.616  24.255  24.590  1.00  0.00     0.223 S 
ATOM     17  O   UNL A   1      33.016  23.474  23.428  1.00  0.00    -0.211 OA
ATOM     18  O   UNL A   1      31.229  24.209  24.996  1.00  0.00    -0.211 OA
BRANCH  16  19
ATOM     19  C   UNL A   1      33.653  23.620  25.936  1.00  0.00     0.170 C 
ATOM     20  C   UNL A   1      32.883  22.959  27.063  1.00  0.00     0.033 C 
BRANCH  19  21
ATOM     21  C   UNL A   1      34.847  22.860  25.423  1.00  0.00     0.060 A 
ATOM     22  C   UNL A   1      35.915  23.490  24.799  1.00  0.00     0.025 A 
ATOM     23  N   UNL A   1      34.793  21.508  25.500  1.00  0.00    -0.260 NA
ATOM     24  C   UNL A   1      37.022  22.747  24.398  1.00  0.00     0.004 A 
ATOM     25  C   UNL A   1      35.851  20.794  25.048  1.00  0.00     0.111 A 
ATOM     26  C   UNL A   1      36.994  21.368  24.529  1.00  0.00     0.020 A 
ENDBRANCH  19  21
ENDBRANCH  16  19
ENDBRANCH   9  16
ENDBRANCH   6   8
ENDBRANCH   5   6
ENDBRANCH   4   5
ENDBRANCH   3   4
ENDBRANCH   2   3
ENDBRANCH   1   2
BRANCH   1  27
ATOM     27  C   UNL A   1      33.057  33.403  27.692  1.00  0.00     0.188 C 
BRANCH  27  28
ATOM     28  O   UNL A   1      33.744  34.466  28.312  1.00  0.00    -0.376 OA
BRANCH  28  29
ATOM     29  C   UNL A   1      33.471  34.689  29.681  1.00  0.00     0.202 C 
BRANCH  29  30
ATOM     30  C   UNL A   1      34.579  34.283  30.665  1.00  0.00     0.261 C 
BRANCH  30  31
ATOM     31  O   UNL A   1      34.769  32.871  30.879  1.00  0.00    -0.460 OA
BRANCH  31  32
ATOM     32  C   UNL A   1      35.538  32.487  31.928  1.00  0.00     0.338 C 
ATOM     33  O   UNL A   1      35.219  32.482  33.098  1.00  0.00    -0.246 OA
BRANCH  32  34
ATOM     34  C   UNL A   1      36.771  31.862  31.384  1.00  0.00     0.060 A 
ATOM     35  C   UNL A   1      37.715  31.335  32.274  1.00  0.00     0.016 A 
ATOM     36  C   UNL A   1      36.991  31.771  30.008  1.00  0.00     0.016 A 
ATOM     37  C   UNL A   1      38.862  30.695  31.792  1.00  0.00     0.010 A 
ATOM     38  C   UNL A   1      38.157  31.155  29.529  1.00  0.00     0.010 A 
ATOM     39  C   UNL A   1      39.101  30.609  30.417  1.00  0.00    -0.014 A 
BRANCH  39  40
ATOM     40  C   UNL A   1      40.373  30.030  29.905  1.00  0.00     0.031 A 
ATOM     41  C   UNL A   1      41.558  30.932  29.697  1.00  0.00     0.074 A 
ATOM     42  C   UNL A   1      40.479  28.718  29.618  1.00  0.00     0.049 A 
ATOM     43  N   UNL A   1      42.701  30.681  29.111  1.00  0.00    -0.248 NA
ATOM     44  C   UNL A   1      41.440  32.299  30.227  1.00  0.00     0.031 C 
ATOM     45  C   UNL A   1      39.440  27.715  29.843  1.00  0.00     0.029 A 
ATOM     46  N   UNL A   1      41.509  28.010  29.044  1.00  0.00    -0.354 N 
ATOM     47  C   UNL A   1      43.425  31.864  29.173  1.00  0.00     0.074 A 
ATOM     48  C   UNL A   1      42.596  32.832  29.859  1.00  0.00     0.031 C 
ATOM     49  C   UNL A   1      39.871  26.528  29.378  1.00  0.00     0.029 A 
ATOM     50  C   UNL A   1      41.190  26.699  28.772  1.00  0.00     0.049 A 
ATOM     51  H   UNL A   1      42.391  28.403  28.848  1.00  0.00     0.167 HD
ATOM     52  C   UNL A   1      44.664  32.120  28.690  1.00  0.00     0.037 A 
ATOM     53  C   UNL A   1      41.858  25.764  28.065  1.00  0.00     0.037 A 
ATOM     54  C   UNL A   1      45.495  31.151  28.024  1.00  0.00     0.049 A 
ATOM     55  C   UNL A   1      43.194  26.106  27.451  1.00  0.00     0.074 A 
ATOM     56  C   UNL A   1      46.783  31.313  27.541  1.00  0.00     0.029 A 
ATOM     57  N   UNL A   1      45.120  29.850  27.736  1.00  0.00    -0.354 N 
ATOM     58  N   UNL A   1      43.881  27.221  27.530  1.00  0.00    -0.248 NA
ATOM     59  C   UNL A   1      43.842  25.066  26.635  1.00  0.00     0.031 C 
ATOM     60  C   UNL A   1      47.160  30.132  26.898  1.00  0.00     0.029 A 
ATOM     61  C   UNL A   1      46.132  29.214  27.035  1.00  0.00     0.049 A 
ATOM     62  H   UNL A   1      44.263  29.438  27.991  1.00  0.00     0.167 HD
ATOM     63  C   UNL A   1      45.043  27.006  26.797  1.00  0.00     0.074 A 
ATOM     64  C   UNL A   1      44.983  25.650  26.299  1.00  0.00     0.031 C 
ATOM     65  C   UNL A   1      46.066  27.860  26.549  1.00  0.00     0.037 A 
BRANCH  52  66
ATOM     66  C   UNL A   1      45.197  33.516  28.817  1.00  0.00     0.057 A 
ATOM     67  C   UNL A   1      44.925  34.509  27.868  1.00  0.00     0.134 A 
ATOM     68  C   UNL A   1      45.918  33.891  29.958  1.00  0.00     0.134 A 
ATOM     69  F   UNL A   1      44.249  34.212  26.748  1.00  0.00    -0.206 F 
ATOM     70  C   UNL A   1      45.356  35.825  28.050  1.00  0.00     0.040 A 
ATOM     71  C   UNL A   1      46.332  35.207  30.163  1.00  0.00     0.040 A 
ATOM     72  F   UNL A   1      46.207  32.987  30.907  1.00  0.00    -0.206 F 
ATOM     73  C   UNL A   1      46.051  36.178  29.206  1.00  0.00     0.006 A 
ENDBRANCH  52  66
BRANCH  53  74
ATOM     74  C   UNL A   1      41.249  24.428  27.814  1.00  0.00     0.057 A 
ATOM     75  C   UNL A   1      41.713  23.278  28.463  1.00  0.00     0.134 A 
ATOM     76  C   UNL A   1      40.240  24.259  26.856  1.00  0.00     0.134 A 
ATOM     77  F   UNL A   1      42.703  23.363  29.364  1.00  0.00    -0.206 F 
ATOM     78  C   UNL A   1      41.219  22.009  28.149  1.00  0.00     0.040 A 
ATOM     79  C   UNL A   1      39.712  23.002  26.557  1.00  0.00     0.040 A 
ATOM     80  F   UNL A   1      39.756  25.317  26.188  1.00  0.00    -0.206 F 
ATOM     81  C   UNL A   1      40.211  21.870  27.196  1.00  0.00     0.006 A 
ENDBRANCH  53  74
BRANCH  65  82
ATOM     82  C   UNL A   1      47.214  27.355  25.723  1.00  0.00     0.057 A 
ATOM     83  C   UNL A   1      47.293  27.595  24.345  1.00  0.00     0.134 A 
ATOM     84  C   UNL A   1      48.283  26.675  26.322  1.00  0.00     0.134 A 
ATOM     85  F   UNL A   1      46.299  28.230  23.708  1.00  0.00    -0.206 F 
ATOM     86  C   UNL A   1      48.385  27.161  23.590  1.00  0.00     0.040 A 
ATOM     87  C   UNL A   1      49.393  26.261  25.582  1.00  0.00     0.040 A 
ATOM     88  F   UNL A   1      48.279  26.421  27.639  1.00  0.00    -0.206 F 
ATOM     89  C   UNL A   1      49.444  26.501  24.211  1.00  0.00     0.006 A 
ENDBRANCH  65  82
ENDBRANCH  39  40
ENDBRANCH  32  34
ENDBRANCH  31  32
ENDBRANCH  30  31
ENDBRANCH  29  30
ENDBRANCH  28  29
ENDBRANCH  27  28
ENDBRANCH   1  27
TORSDOF 20
ENDMDL
