MODEL 1
REMARK VINA RESULT:     -11.0      0.000      0.000
REMARK SMILES COc1ccc2c(CC(=O)OCCOCCOCCOC(=O)c3ccc(-c4c5nc(c(-c6c(F)cccc6F)c6ccc([nH]6)c(-c6c(F)cccc6F)c6nc(c(-c7c(F)cccc7F)c7ccc4[nH]7)C=C6)C=C5)cc3)c(C(=O)c3cc(C)ccn3)[nH]c2c1
REMARK SMILES IDX 15 1 14 2 13 3 12 4 11 5 9 6 10 7 8 8 7 9 3 10 4 11 89 12
REMARK SMILES IDX 5 13 88 14 6 15 87 16 77 17 2 19 1 20 78 21 79 22 80 23
REMARK SMILES IDX 81 24 86 25 82 26 85 27 83 28 84 29 16 30 17 31 18 32 19 33
REMARK SMILES IDX 20 34 21 35 22 36 23 37 24 38 76 39 25 40 75 41 26 42 27 43
REMARK SMILES IDX 28 44 69 45 29 46 74 47 68 48 70 49 30 50 73 51 67 52 66 53
REMARK SMILES IDX 31 55 57 56 40 57 56 58 41 59 44 60 55 61 71 62 42 63 43 64
REMARK SMILES IDX 54 66 72 67 45 68 32 69 33 70 38 71 34 72 35 73 37 74 39 75
REMARK SMILES IDX 36 76 58 77 59 78 64 79 60 80 61 81 63 82 65 83 62 84 46 85
REMARK SMILES IDX 47 86 52 87 48 88 49 89 51 90 53 91 50 92
REMARK H PARENT 87 18 70 54 44 65
REMARK Flexibility Score: inf
ROOT
ATOM      1  C   UNL A   1      33.537  21.819  27.492  1.00  0.00     0.188 C 
ENDROOT
BRANCH   1   2
ATOM      2  O   UNL A   1      32.285  22.181  26.913  1.00  0.00    -0.376 OA
BRANCH   2   3
ATOM      3  C   UNL A   1      31.742  23.455  27.237  1.00  0.00     0.202 C 
BRANCH   3   4
ATOM      4  C   UNL A   1      31.763  24.490  26.105  1.00  0.00     0.261 C 
BRANCH   4   5
ATOM      5  O   UNL A   1      31.008  24.045  24.959  1.00  0.00    -0.463 OA
BRANCH   5   6
ATOM      6  C   UNL A   1      30.810  24.947  23.964  1.00  0.00     0.310 C 
ATOM      7  O   UNL A   1      31.008  24.703  22.777  1.00  0.00    -0.252 OA
BRANCH   6   8
ATOM      8  C   UNL A   1      30.134  26.231  24.425  1.00  0.00     0.161 C 
BRANCH   8   9
ATOM      9  C   UNL A   1      30.399  27.504  23.654  1.00  0.00     0.000 A 
ATOM     10  C   UNL A   1      27.960  30.616  22.226  1.00  0.00     0.120 A 
ATOM     11  C   UNL A   1      27.278  29.492  22.688  1.00  0.00     0.047 A 
ATOM     12  C   UNL A   1      29.351  30.613  22.110  1.00  0.00     0.073 A 
ATOM     13  C   UNL A   1      27.980  28.360  23.126  1.00  0.00     0.014 A 
ATOM     14  C   UNL A   1      30.033  29.493  22.595  1.00  0.00     0.050 A 
ATOM     15  C   UNL A   1      29.390  28.377  23.124  1.00  0.00     0.004 A 
ATOM     16  N   UNL A   1      31.381  29.262  22.694  1.00  0.00    -0.351 N 
ATOM     17  C   UNL A   1      31.611  28.204  23.547  1.00  0.00     0.093 A 
ATOM     18  H   UNL A   1      32.079  29.774  22.226  1.00  0.00     0.167 HD
BRANCH  10  19
ATOM     19  O   UNL A   1      27.325  31.765  21.828  1.00  0.00    -0.497 OA
ATOM     20  C   UNL A   1      28.234  32.837  21.577  1.00  0.00     0.278 C 
ENDBRANCH  10  19
BRANCH  17  21
ATOM     21  C   UNL A   1      32.875  27.991  24.238  1.00  0.00     0.227 C 
ATOM     22  O   UNL A   1      33.685  27.131  23.901  1.00  0.00    -0.285 OA
BRANCH  21  23
ATOM     23  C   UNL A   1      33.196  28.807  25.446  1.00  0.00     0.113 A 
ATOM     24  C   UNL A   1      34.396  28.619  26.126  1.00  0.00     0.036 A 
ATOM     25  N   UNL A   1      32.289  29.768  25.761  1.00  0.00    -0.253 NA
ATOM     26  C   UNL A   1      34.701  29.482  27.184  1.00  0.00    -0.047 A 
ATOM     27  C   UNL A   1      32.640  30.623  26.747  1.00  0.00     0.112 A 
ATOM     28  C   UNL A   1      35.951  29.328  27.999  1.00  0.00     0.044 C 
ATOM     29  C   UNL A   1      33.818  30.527  27.470  1.00  0.00     0.023 A 
ENDBRANCH  21  23
ENDBRANCH  17  21
ENDBRANCH   8   9
ENDBRANCH   6   8
ENDBRANCH   5   6
ENDBRANCH   4   5
ENDBRANCH   3   4
ENDBRANCH   2   3
ENDBRANCH   1   2
BRANCH   1  30
ATOM     30  C   UNL A   1      34.779  22.689  27.204  1.00  0.00     0.188 C 
BRANCH  30  31
ATOM     31  O   UNL A   1      35.383  22.420  25.945  1.00  0.00    -0.376 OA
BRANCH  31  32
ATOM     32  C   UNL A   1      35.202  21.089  25.482  1.00  0.00     0.202 C 
BRANCH  32  33
ATOM     33  C   UNL A   1      36.517  20.484  24.999  1.00  0.00     0.261 C 
BRANCH  33  34
ATOM     34  O   UNL A   1      37.584  21.457  25.030  1.00  0.00    -0.460 OA
BRANCH  34  35
ATOM     35  C   UNL A   1      38.685  21.154  25.737  1.00  0.00     0.338 C 
ATOM     36  O   UNL A   1      39.165  20.031  25.894  1.00  0.00    -0.246 OA
BRANCH  35  37
ATOM     37  C   UNL A   1      39.266  22.368  26.356  1.00  0.00     0.060 A 
ATOM     38  C   UNL A   1      38.779  23.650  26.084  1.00  0.00     0.016 A 
ATOM     39  C   UNL A   1      40.412  22.233  27.137  1.00  0.00     0.016 A 
ATOM     40  C   UNL A   1      39.477  24.786  26.512  1.00  0.00     0.010 A 
ATOM     41  C   UNL A   1      41.070  23.369  27.624  1.00  0.00     0.010 A 
ATOM     42  C   UNL A   1      40.636  24.663  27.284  1.00  0.00    -0.014 A 
BRANCH  42  43
ATOM     43  C   UNL A   1      41.444  25.853  27.682  1.00  0.00     0.031 A 
ATOM     44  C   UNL A   1      40.815  26.941  28.515  1.00  0.00     0.074 A 
ATOM     45  C   UNL A   1      42.730  25.993  27.304  1.00  0.00     0.049 A 
ATOM     46  N   UNL A   1      41.238  28.158  28.755  1.00  0.00    -0.248 NA
ATOM     47  C   UNL A   1      39.532  26.615  29.156  1.00  0.00     0.031 C 
ATOM     48  C   UNL A   1      43.519  25.003  26.571  1.00  0.00     0.029 A 
ATOM     49  N   UNL A   1      43.599  27.047  27.476  1.00  0.00    -0.354 N 
ATOM     50  C   UNL A   1      40.247  28.761  29.520  1.00  0.00     0.074 A 
ATOM     51  C   UNL A   1      39.202  27.775  29.707  1.00  0.00     0.031 C 
ATOM     52  C   UNL A   1      44.752  25.491  26.362  1.00  0.00     0.029 A 
ATOM     53  C   UNL A   1      44.819  26.858  26.872  1.00  0.00     0.049 A 
ATOM     54  H   UNL A   1      43.368  27.858  27.985  1.00  0.00     0.167 HD
ATOM     55  C   UNL A   1      40.207  30.021  30.017  1.00  0.00     0.037 A 
ATOM     56  C   UNL A   1      45.856  27.701  26.698  1.00  0.00     0.037 A 
ATOM     57  C   UNL A   1      41.263  30.994  29.876  1.00  0.00     0.049 A 
ATOM     58  C   UNL A   1      45.767  29.113  27.206  1.00  0.00     0.074 A 
ATOM     59  C   UNL A   1      41.305  32.296  30.346  1.00  0.00     0.029 A 
ATOM     60  N   UNL A   1      42.469  30.765  29.232  1.00  0.00    -0.354 N 
ATOM     61  N   UNL A   1      44.797  29.701  27.861  1.00  0.00    -0.248 NA
ATOM     62  C   UNL A   1      46.919  29.986  26.932  1.00  0.00     0.031 C 
ATOM     63  C   UNL A   1      42.521  32.868  29.954  1.00  0.00     0.029 A 
ATOM     64  C   UNL A   1      43.257  31.906  29.283  1.00  0.00     0.049 A 
ATOM     65  H   UNL A   1      42.728  29.919  28.802  1.00  0.00     0.167 HD
ATOM     66  C   UNL A   1      45.229  31.000  28.098  1.00  0.00     0.074 A 
ATOM     67  C   UNL A   1      46.557  31.110  27.533  1.00  0.00     0.031 C 
ATOM     68  C   UNL A   1      44.581  32.011  28.727  1.00  0.00     0.037 A 
BRANCH  55  69
ATOM     69  C   UNL A   1      38.955  30.444  30.731  1.00  0.00     0.057 A 
ATOM     70  C   UNL A   1      37.961  31.208  30.110  1.00  0.00     0.134 A 
ATOM     71  C   UNL A   1      38.728  30.042  32.054  1.00  0.00     0.134 A 
ATOM     72  F   UNL A   1      38.123  31.641  28.849  1.00  0.00    -0.206 F 
ATOM     73  C   UNL A   1      36.794  31.573  30.784  1.00  0.00     0.040 A 
ATOM     74  C   UNL A   1      37.555  30.379  32.730  1.00  0.00     0.040 A 
ATOM     75  F   UNL A   1      39.638  29.302  32.707  1.00  0.00    -0.206 F 
ATOM     76  C   UNL A   1      36.585  31.152  32.097  1.00  0.00     0.006 A 
ENDBRANCH  55  69
BRANCH  56  77
ATOM     77  C   UNL A   1      47.065  27.246  25.965  1.00  0.00     0.057 A 
ATOM     78  C   UNL A   1      47.150  27.358  24.572  1.00  0.00     0.134 A 
ATOM     79  C   UNL A   1      48.149  26.664  26.633  1.00  0.00     0.134 A 
ATOM     80  F   UNL A   1      46.129  27.875  23.874  1.00  0.00    -0.206 F 
ATOM     81  C   UNL A   1      48.264  26.895  23.869  1.00  0.00     0.040 A 
ATOM     82  C   UNL A   1      49.281  26.225  25.946  1.00  0.00     0.040 A 
ATOM     83  F   UNL A   1      48.126  26.522  27.967  1.00  0.00    -0.206 F 
ATOM     84  C   UNL A   1      49.337  26.333  24.558  1.00  0.00     0.006 A 
ENDBRANCH  56  77
BRANCH  68  85
ATOM     85  C   UNL A   1      45.320  33.311  28.878  1.00  0.00     0.057 A 
ATOM     86  C   UNL A   1      46.152  33.569  29.977  1.00  0.00     0.134 A 
ATOM     87  C   UNL A   1      45.197  34.316  27.913  1.00  0.00     0.134 A 
ATOM     88  F   UNL A   1      46.302  32.654  30.947  1.00  0.00    -0.206 F 
ATOM     89  C   UNL A   1      46.804  34.793  30.126  1.00  0.00     0.040 A 
ATOM     90  C   UNL A   1      45.868  35.536  28.037  1.00  0.00     0.040 A 
ATOM     91  F   UNL A   1      44.425  34.133  26.830  1.00  0.00    -0.206 F 
ATOM     92  C   UNL A   1      46.665  35.781  29.150  1.00  0.00     0.006 A 
ENDBRANCH  68  85
ENDBRANCH  42  43
ENDBRANCH  35  37
ENDBRANCH  34  35
ENDBRANCH  33  34
ENDBRANCH  32  33
ENDBRANCH  31  32
ENDBRANCH  30  31
ENDBRANCH   1  30
TORSDOF 21
ENDMDL
MODEL 2
REMARK VINA RESULT:     -10.8      2.404      7.500
REMARK SMILES COc1ccc2c(CC(=O)OCCOCCOCCOC(=O)c3ccc(-c4c5nc(c(-c6c(F)cccc6F)c6ccc([nH]6)c(-c6c(F)cccc6F)c6nc(c(-c7c(F)cccc7F)c7ccc4[nH]7)C=C6)C=C5)cc3)c(C(=O)c3cc(C)ccn3)[nH]c2c1
REMARK SMILES IDX 15 1 14 2 13 3 12 4 11 5 9 6 10 7 8 8 7 9 3 10 4 11 89 12
REMARK SMILES IDX 5 13 88 14 6 15 87 16 77 17 2 19 1 20 78 21 79 22 80 23
REMARK SMILES IDX 81 24 86 25 82 26 85 27 83 28 84 29 16 30 17 31 18 32 19 33
REMARK SMILES IDX 20 34 21 35 22 36 23 37 24 38 76 39 25 40 75 41 26 42 27 43
REMARK SMILES IDX 28 44 69 45 29 46 74 47 68 48 70 49 30 50 73 51 67 52 66 53
REMARK SMILES IDX 31 55 57 56 40 57 56 58 41 59 44 60 55 61 71 62 42 63 43 64
REMARK SMILES IDX 54 66 72 67 45 68 32 69 33 70 38 71 34 72 35 73 37 74 39 75
REMARK SMILES IDX 36 76 58 77 59 78 64 79 60 80 61 81 63 82 65 83 62 84 46 85
REMARK SMILES IDX 47 86 52 87 48 88 49 89 51 90 53 91 50 92
REMARK H PARENT 87 18 70 54 44 65
REMARK Flexibility Score: inf
ROOT
ATOM      1  C   UNL A   1      31.663  26.982  26.338  1.00  0.00     0.188 C 
ENDROOT
BRANCH   1   2
ATOM      2  O   UNL A   1      31.001  25.828  26.852  1.00  0.00    -0.376 OA
BRANCH   2   3
ATOM      3  C   UNL A   1      31.493  24.549  26.470  1.00  0.00     0.202 C 
BRANCH   3   4
ATOM      4  C   UNL A   1      30.790  23.903  25.270  1.00  0.00     0.261 C 
BRANCH   4   5
ATOM      5  O   UNL A   1      30.600  22.485  25.461  1.00  0.00    -0.463 OA
BRANCH   5   6
ATOM      6  C   UNL A   1      31.528  21.660  24.913  1.00  0.00     0.310 C 
ATOM      7  O   UNL A   1      31.741  20.518  25.312  1.00  0.00    -0.252 OA
BRANCH   6   8
ATOM      8  C   UNL A   1      32.151  22.199  23.633  1.00  0.00     0.161 C 
BRANCH   8   9
ATOM      9  C   UNL A   1      33.495  22.886  23.717  1.00  0.00     0.000 A 
ATOM     10  C   UNL A   1      37.308  21.697  25.029  1.00  0.00     0.120 A 
ATOM     11  C   UNL A   1      36.270  20.823  25.348  1.00  0.00     0.047 A 
ATOM     12  C   UNL A   1      37.044  22.944  24.458  1.00  0.00     0.073 A 
ATOM     13  C   UNL A   1      34.943  21.140  25.025  1.00  0.00     0.014 A 
ATOM     14  C   UNL A   1      35.720  23.219  24.103  1.00  0.00     0.050 A 
ATOM     15  C   UNL A   1      34.665  22.343  24.346  1.00  0.00     0.004 A 
ATOM     16  N   UNL A   1      35.195  24.306  23.452  1.00  0.00    -0.351 N 
ATOM     17  C   UNL A   1      33.930  24.008  22.994  1.00  0.00     0.093 A 
ATOM     18  H   UNL A   1      35.653  25.170  23.330  1.00  0.00     0.167 HD
BRANCH  10  19
ATOM     19  O   UNL A   1      38.626  21.417  25.281  1.00  0.00    -0.497 OA
ATOM     20  C   UNL A   1      39.180  22.249  26.301  1.00  0.00     0.278 C 
ENDBRANCH  10  19
BRANCH  17  21
ATOM     21  C   UNL A   1      33.287  24.716  21.895  1.00  0.00     0.227 C 
ATOM     22  O   UNL A   1      33.162  24.235  20.771  1.00  0.00    -0.285 OA
BRANCH  21  23
ATOM     23  C   UNL A   1      32.800  26.111  22.108  1.00  0.00     0.113 A 
ATOM     24  C   UNL A   1      31.468  26.350  22.433  1.00  0.00     0.036 A 
ATOM     25  N   UNL A   1      33.750  27.079  22.041  1.00  0.00    -0.253 NA
ATOM     26  C   UNL A   1      31.084  27.661  22.731  1.00  0.00    -0.047 A 
ATOM     27  C   UNL A   1      33.361  28.324  22.394  1.00  0.00     0.112 A 
ATOM     28  C   UNL A   1      29.662  28.020  23.051  1.00  0.00     0.044 C 
ATOM     29  C   UNL A   1      32.064  28.658  22.747  1.00  0.00     0.023 A 
ENDBRANCH  21  23
ENDBRANCH  17  21
ENDBRANCH   8   9
ENDBRANCH   6   8
ENDBRANCH   5   6
ENDBRANCH   4   5
ENDBRANCH   3   4
ENDBRANCH   2   3
ENDBRANCH   1   2
BRANCH   1  30
ATOM     30  C   UNL A   1      32.020  28.135  27.301  1.00  0.00     0.188 C 
BRANCH  30  31
ATOM     31  O   UNL A   1      31.733  29.425  26.775  1.00  0.00    -0.376 OA
BRANCH  31  32
ATOM     32  C   UNL A   1      32.711  30.410  27.076  1.00  0.00     0.202 C 
BRANCH  32  33
ATOM     33  C   UNL A   1      34.058  29.774  27.410  1.00  0.00     0.261 C 
BRANCH  33  34
ATOM     34  O   UNL A   1      35.077  30.779  27.602  1.00  0.00    -0.460 OA
BRANCH  34  35
ATOM     35  C   UNL A   1      35.697  30.821  28.793  1.00  0.00     0.338 C 
ATOM     36  O   UNL A   1      35.310  31.421  29.796  1.00  0.00    -0.246 OA
BRANCH  35  37
ATOM     37  C   UNL A   1      36.965  30.057  28.755  1.00  0.00     0.060 A 
ATOM     38  C   UNL A   1      37.528  29.488  29.901  1.00  0.00     0.016 A 
ATOM     39  C   UNL A   1      37.680  30.014  27.559  1.00  0.00     0.016 A 
ATOM     40  C   UNL A   1      38.825  28.960  29.876  1.00  0.00     0.010 A 
ATOM     41  C   UNL A   1      38.948  29.423  27.518  1.00  0.00     0.010 A 
ATOM     42  C   UNL A   1      39.557  28.924  28.685  1.00  0.00    -0.014 A 
BRANCH  42  43
ATOM     43  C   UNL A   1      40.970  28.445  28.646  1.00  0.00     0.031 A 
ATOM     44  C   UNL A   1      42.097  29.419  28.882  1.00  0.00     0.074 A 
ATOM     45  C   UNL A   1      41.274  27.158  28.389  1.00  0.00     0.049 A 
ATOM     46  N   UNL A   1      43.379  29.285  28.645  1.00  0.00    -0.248 NA
ATOM     47  C   UNL A   1      41.726  30.723  29.453  1.00  0.00     0.031 C 
ATOM     48  C   UNL A   1      40.313  26.069  28.220  1.00  0.00     0.029 A 
ATOM     49  N   UNL A   1      42.497  26.551  28.208  1.00  0.00    -0.354 N 
ATOM     50  C   UNL A   1      43.957  30.504  28.980  1.00  0.00     0.074 A 
ATOM     51  C   UNL A   1      42.886  31.365  29.438  1.00  0.00     0.031 C 
ATOM     52  C   UNL A   1      40.979  24.930  27.968  1.00  0.00     0.029 A 
ATOM     53  C   UNL A   1      42.406  25.221  27.876  1.00  0.00     0.049 A 
ATOM     54  H   UNL A   1      43.354  27.026  28.309  1.00  0.00     0.167 HD
ATOM     55  C   UNL A   1      45.258  30.875  28.907  1.00  0.00     0.037 A 
ATOM     56  C   UNL A   1      43.353  24.343  27.487  1.00  0.00     0.037 A 
ATOM     57  C   UNL A   1      46.337  30.010  28.497  1.00  0.00     0.049 A 
ATOM     58  C   UNL A   1      44.782  24.792  27.356  1.00  0.00     0.074 A 
ATOM     59  C   UNL A   1      47.687  30.304  28.392  1.00  0.00     0.029 A 
ATOM     60  N   UNL A   1      46.193  28.678  28.143  1.00  0.00    -0.354 N 
ATOM     61  N   UNL A   1      45.311  25.966  27.599  1.00  0.00    -0.248 NA
ATOM     62  C   UNL A   1      45.746  23.790  26.878  1.00  0.00     0.031 C 
ATOM     63  C   UNL A   1      48.354  29.161  27.937  1.00  0.00     0.029 A 
ATOM     64  C   UNL A   1      47.428  28.140  27.808  1.00  0.00     0.049 A 
ATOM     65  H   UNL A   1      45.341  28.186  28.130  1.00  0.00     0.167 HD
ATOM     66  C   UNL A   1      46.667  25.837  27.328  1.00  0.00     0.074 A 
ATOM     67  C   UNL A   1      46.885  24.466  26.919  1.00  0.00     0.031 C 
ATOM     68  C   UNL A   1      47.643  26.774  27.408  1.00  0.00     0.037 A 
BRANCH  55  69
ATOM     69  C   UNL A   1      45.591  32.302  29.239  1.00  0.00     0.057 A 
ATOM     70  C   UNL A   1      45.978  32.700  30.524  1.00  0.00     0.134 A 
ATOM     71  C   UNL A   1      45.562  33.284  28.240  1.00  0.00     0.134 A 
ATOM     72  F   UNL A   1      46.011  31.813  31.531  1.00  0.00    -0.206 F 
ATOM     73  C   UNL A   1      46.304  34.028  30.808  1.00  0.00     0.040 A 
ATOM     74  C   UNL A   1      45.910  34.608  28.506  1.00  0.00     0.040 A 
ATOM     75  F   UNL A   1      45.206  32.968  26.985  1.00  0.00    -0.206 F 
ATOM     76  C   UNL A   1      46.278  34.985  29.795  1.00  0.00     0.006 A 
ENDBRANCH  55  69
BRANCH  56  77
ATOM     77  C   UNL A   1      42.974  22.948  27.145  1.00  0.00     0.057 A 
ATOM     78  C   UNL A   1      42.896  22.527  25.813  1.00  0.00     0.134 A 
ATOM     79  C   UNL A   1      42.653  22.014  28.138  1.00  0.00     0.134 A 
ATOM     80  F   UNL A   1      43.158  23.386  24.817  1.00  0.00    -0.206 F 
ATOM     81  C   UNL A   1      42.500  21.231  25.479  1.00  0.00     0.040 A 
ATOM     82  C   UNL A   1      42.286  20.707  27.819  1.00  0.00     0.040 A 
ATOM     83  F   UNL A   1      42.702  22.358  29.434  1.00  0.00    -0.206 F 
ATOM     84  C   UNL A   1      42.200  20.314  26.485  1.00  0.00     0.006 A 
ENDBRANCH  56  77
BRANCH  68  85
ATOM     85  C   UNL A   1      49.045  26.333  27.093  1.00  0.00     0.057 A 
ATOM     86  C   UNL A   1      49.920  25.870  28.087  1.00  0.00     0.134 A 
ATOM     87  C   UNL A   1      49.525  26.373  25.780  1.00  0.00     0.134 A 
ATOM     88  F   UNL A   1      49.527  25.820  29.370  1.00  0.00    -0.206 F 
ATOM     89  C   UNL A   1      51.231  25.498  27.789  1.00  0.00     0.040 A 
ATOM     90  C   UNL A   1      50.828  25.976  25.465  1.00  0.00     0.040 A 
ATOM     91  F   UNL A   1      48.740  26.796  24.778  1.00  0.00    -0.206 F 
ATOM     92  C   UNL A   1      51.687  25.547  26.471  1.00  0.00     0.006 A 
ENDBRANCH  68  85
ENDBRANCH  42  43
ENDBRANCH  35  37
ENDBRANCH  34  35
ENDBRANCH  33  34
ENDBRANCH  32  33
ENDBRANCH  31  32
ENDBRANCH  30  31
ENDBRANCH   1  30
TORSDOF 21
ENDMDL
MODEL 3
REMARK VINA RESULT:     -10.6      2.684      8.001
REMARK SMILES COc1ccc2c(CC(=O)OCCOCCOCCOC(=O)c3ccc(-c4c5nc(c(-c6c(F)cccc6F)c6ccc([nH]6)c(-c6c(F)cccc6F)c6nc(c(-c7c(F)cccc7F)c7ccc4[nH]7)C=C6)C=C5)cc3)c(C(=O)c3cc(C)ccn3)[nH]c2c1
REMARK SMILES IDX 15 1 14 2 13 3 12 4 11 5 9 6 10 7 8 8 7 9 3 10 4 11 89 12
REMARK SMILES IDX 5 13 88 14 6 15 87 16 77 17 2 19 1 20 78 21 79 22 80 23
REMARK SMILES IDX 81 24 86 25 82 26 85 27 83 28 84 29 16 30 17 31 18 32 19 33
REMARK SMILES IDX 20 34 21 35 22 36 23 37 24 38 76 39 25 40 75 41 26 42 27 43
REMARK SMILES IDX 28 44 69 45 29 46 74 47 68 48 70 49 30 50 73 51 67 52 66 53
REMARK SMILES IDX 31 55 57 56 40 57 56 58 41 59 44 60 55 61 71 62 42 63 43 64
REMARK SMILES IDX 54 66 72 67 45 68 32 69 33 70 38 71 34 72 35 73 37 74 39 75
REMARK SMILES IDX 36 76 58 77 59 78 64 79 60 80 61 81 63 82 65 83 62 84 46 85
REMARK SMILES IDX 47 86 52 87 48 88 49 89 51 90 53 91 50 92
REMARK H PARENT 87 18 70 54 44 65
REMARK Flexibility Score: inf
ROOT
ATOM      1  C   UNL A   1      34.304  33.242  28.036  1.00  0.00     0.188 C 
ENDROOT
BRANCH   1   2
ATOM      2  O   UNL A   1      34.662  31.931  27.604  1.00  0.00    -0.376 OA
BRANCH   2   3
ATOM      3  C   UNL A   1      33.725  30.880  27.805  1.00  0.00     0.202 C 
BRANCH   3   4
ATOM      4  C   UNL A   1      33.315  30.109  26.545  1.00  0.00     0.261 C 
BRANCH   4   5
ATOM      5  O   UNL A   1      32.138  29.305  26.768  1.00  0.00    -0.463 OA
BRANCH   5   6
ATOM      6  C   UNL A   1      32.315  27.961  26.843  1.00  0.00     0.310 C 
ATOM      7  O   UNL A   1      31.426  27.177  27.165  1.00  0.00    -0.252 OA
BRANCH   6   8
ATOM      8  C   UNL A   1      33.657  27.487  26.304  1.00  0.00     0.161 C 
BRANCH   8   9
ATOM      9  C   UNL A   1      33.676  26.636  25.055  1.00  0.00     0.000 A 
ATOM     10  C   UNL A   1      33.490  22.499  24.334  1.00  0.00     0.120 A 
ATOM     11  C   UNL A   1      33.687  22.861  25.665  1.00  0.00     0.047 A 
ATOM     12  C   UNL A   1      33.518  23.457  23.318  1.00  0.00     0.073 A 
ATOM     13  C   UNL A   1      33.834  24.208  26.025  1.00  0.00     0.014 A 
ATOM     14  C   UNL A   1      33.620  24.797  23.704  1.00  0.00     0.050 A 
ATOM     15  C   UNL A   1      33.753  25.203  25.029  1.00  0.00     0.004 A 
ATOM     16  N   UNL A   1      33.578  25.935  22.940  1.00  0.00    -0.351 N 
ATOM     17  C   UNL A   1      33.355  27.030  23.746  1.00  0.00     0.093 A 
ATOM     18  H   UNL A   1      33.691  25.965  21.962  1.00  0.00     0.167 HD
BRANCH  10  19
ATOM     19  O   UNL A   1      33.295  21.202  23.932  1.00  0.00    -0.497 OA
ATOM     20  C   UNL A   1      32.238  20.559  24.644  1.00  0.00     0.278 C 
ENDBRANCH  10  19
BRANCH  17  21
ATOM     21  C   UNL A   1      32.796  28.284  23.260  1.00  0.00     0.227 C 
ATOM     22  O   UNL A   1      33.471  29.297  23.093  1.00  0.00    -0.285 OA
BRANCH  21  23
ATOM     23  C   UNL A   1      31.330  28.379  22.997  1.00  0.00     0.113 A 
ATOM     24  C   UNL A   1      30.452  27.460  23.564  1.00  0.00     0.036 A 
ATOM     25  N   UNL A   1      30.936  29.446  22.256  1.00  0.00    -0.253 NA
ATOM     26  C   UNL A   1      29.079  27.655  23.380  1.00  0.00    -0.047 A 
ATOM     27  C   UNL A   1      29.603  29.641  22.148  1.00  0.00     0.112 A 
ATOM     28  C   UNL A   1      28.060  26.694  23.918  1.00  0.00     0.044 C 
ATOM     29  C   UNL A   1      28.652  28.792  22.689  1.00  0.00     0.023 A 
ENDBRANCH  21  23
ENDBRANCH  17  21
ENDBRANCH   8   9
ENDBRANCH   6   8
ENDBRANCH   5   6
ENDBRANCH   4   5
ENDBRANCH   3   4
ENDBRANCH   2   3
ENDBRANCH   1   2
BRANCH   1  30
ATOM     30  C   UNL A   1      34.891  33.785  29.355  1.00  0.00     0.188 C 
BRANCH  30  31
ATOM     31  O   UNL A   1      34.047  33.580  30.482  1.00  0.00    -0.376 OA
BRANCH  31  32
ATOM     32  C   UNL A   1      34.550  32.647  31.427  1.00  0.00     0.202 C 
BRANCH  32  33
ATOM     33  C   UNL A   1      35.969  32.207  31.075  1.00  0.00     0.261 C 
BRANCH  33  34
ATOM     34  O   UNL A   1      36.005  30.815  30.692  1.00  0.00    -0.460 OA
BRANCH  34  35
ATOM     35  C   UNL A   1      36.861  30.010  31.344  1.00  0.00     0.338 C 
ATOM     36  O   UNL A   1      36.634  29.394  32.385  1.00  0.00    -0.246 OA
BRANCH  35  37
ATOM     37  C   UNL A   1      38.173  29.971  30.658  1.00  0.00     0.060 A 
ATOM     38  C   UNL A   1      38.297  30.124  29.274  1.00  0.00     0.016 A 
ATOM     39  C   UNL A   1      39.304  29.646  31.405  1.00  0.00     0.016 A 
ATOM     40  C   UNL A   1      39.515  29.871  28.631  1.00  0.00     0.010 A 
ATOM     41  C   UNL A   1      40.538  29.461  30.770  1.00  0.00     0.010 A 
ATOM     42  C   UNL A   1      40.653  29.530  29.369  1.00  0.00    -0.014 A 
BRANCH  42  43
ATOM     43  C   UNL A   1      41.941  29.173  28.705  1.00  0.00     0.031 A 
ATOM     44  C   UNL A   1      42.171  27.761  28.229  1.00  0.00     0.074 A 
ATOM     45  C   UNL A   1      42.922  30.080  28.529  1.00  0.00     0.049 A 
ATOM     46  N   UNL A   1      43.285  27.173  27.868  1.00  0.00    -0.248 NA
ATOM     47  C   UNL A   1      40.986  26.893  28.160  1.00  0.00     0.031 C 
ATOM     48  C   UNL A   1      42.838  31.504  28.851  1.00  0.00     0.029 A 
ATOM     49  N   UNL A   1      44.201  29.925  28.042  1.00  0.00    -0.354 N 
ATOM     50  C   UNL A   1      42.946  25.854  27.589  1.00  0.00     0.074 A 
ATOM     51  C   UNL A   1      41.522  25.728  27.820  1.00  0.00     0.031 C 
ATOM     52  C   UNL A   1      44.007  32.092  28.550  1.00  0.00     0.029 A 
ATOM     53  C   UNL A   1      44.950  31.076  28.091  1.00  0.00     0.049 A 
ATOM     54  H   UNL A   1      44.545  29.071  27.693  1.00  0.00     0.167 HD
ATOM     55  C   UNL A   1      43.748  24.839  27.183  1.00  0.00     0.037 A 
ATOM     56  C   UNL A   1      46.259  31.287  27.847  1.00  0.00     0.037 A 
ATOM     57  C   UNL A   1      45.157  24.967  26.904  1.00  0.00     0.049 A 
ATOM     58  C   UNL A   1      47.142  30.135  27.454  1.00  0.00     0.074 A 
ATOM     59  C   UNL A   1      46.047  23.989  26.490  1.00  0.00     0.029 A 
ATOM     60  N   UNL A   1      45.879  26.147  26.993  1.00  0.00    -0.354 N 
ATOM     61  N   UNL A   1      46.833  28.876  27.267  1.00  0.00    -0.248 NA
ATOM     62  C   UNL A   1      48.568  30.436  27.255  1.00  0.00     0.031 C 
ATOM     63  C   UNL A   1      47.315  24.570  26.365  1.00  0.00     0.029 A 
ATOM     64  C   UNL A   1      47.204  25.920  26.653  1.00  0.00     0.049 A 
ATOM     65  H   UNL A   1      45.506  27.018  27.260  1.00  0.00     0.167 HD
ATOM     66  C   UNL A   1      48.015  28.242  26.907  1.00  0.00     0.074 A 
ATOM     67  C   UNL A   1      49.046  29.257  26.882  1.00  0.00     0.031 C 
ATOM     68  C   UNL A   1      48.226  26.934  26.623  1.00  0.00     0.037 A 
BRANCH  55  69
ATOM     69  C   UNL A   1      43.128  23.477  27.053  1.00  0.00     0.057 A 
ATOM     70  C   UNL A   1      42.837  22.679  28.165  1.00  0.00     0.134 A 
ATOM     71  C   UNL A   1      42.781  22.978  25.790  1.00  0.00     0.134 A 
ATOM     72  F   UNL A   1      43.159  23.090  29.401  1.00  0.00    -0.206 F 
ATOM     73  C   UNL A   1      42.240  21.424  28.024  1.00  0.00     0.040 A 
ATOM     74  C   UNL A   1      42.162  21.737  25.639  1.00  0.00     0.040 A 
ATOM     75  F   UNL A   1      43.027  23.696  24.683  1.00  0.00    -0.206 F 
ATOM     76  C   UNL A   1      41.894  20.953  26.759  1.00  0.00     0.006 A 
ENDBRANCH  55  69
BRANCH  56  77
ATOM     77  C   UNL A   1      46.834  32.646  28.010  1.00  0.00     0.057 A 
ATOM     78  C   UNL A   1      46.780  33.583  26.972  1.00  0.00     0.134 A 
ATOM     79  C   UNL A   1      47.475  33.031  29.194  1.00  0.00     0.134 A 
ATOM     80  F   UNL A   1      46.210  33.261  25.802  1.00  0.00    -0.206 F 
ATOM     81  C   UNL A   1      47.355  34.849  27.100  1.00  0.00     0.040 A 
ATOM     82  C   UNL A   1      48.027  34.303  29.347  1.00  0.00     0.040 A 
ATOM     83  F   UNL A   1      47.566  32.176  30.224  1.00  0.00    -0.206 F 
ATOM     84  C   UNL A   1      47.975  35.214  28.294  1.00  0.00     0.006 A 
ENDBRANCH  56  77
BRANCH  68  85
ATOM     85  C   UNL A   1      49.617  26.536  26.215  1.00  0.00     0.057 A 
ATOM     86  C   UNL A   1      50.093  26.728  24.910  1.00  0.00     0.134 A 
ATOM     87  C   UNL A   1      50.490  25.952  27.139  1.00  0.00     0.134 A 
ATOM     88  F   UNL A   1      49.302  27.270  23.970  1.00  0.00    -0.206 F 
ATOM     89  C   UNL A   1      51.373  26.322  24.533  1.00  0.00     0.040 A 
ATOM     90  C   UNL A   1      51.785  25.566  26.780  1.00  0.00     0.040 A 
ATOM     91  F   UNL A   1      50.105  25.746  28.408  1.00  0.00    -0.206 F 
ATOM     92  C   UNL A   1      52.225  25.741  25.472  1.00  0.00     0.006 A 
ENDBRANCH  68  85
ENDBRANCH  42  43
ENDBRANCH  35  37
ENDBRANCH  34  35
ENDBRANCH  33  34
ENDBRANCH  32  33
ENDBRANCH  31  32
ENDBRANCH  30  31
ENDBRANCH   1  30
TORSDOF 21
ENDMDL
