MODEL 1
REMARK VINA RESULT:     -10.6      0.000      0.000
REMARK SMILES O=C(OCCOCCOCCOC(=O)[C@@H]1[C@@H](C(=O)Nc2cccc(C(F)(F)F)c2)[C@@H]2C=C[C@H]1O2)c1ccc(-c2c3nc(c(-c4c(F)cccc4F)c4ccc([nH]4)c(-c4c(F)cccc4F)c4nc(c(-c5c(F)cccc5F)c5ccc2[nH]5)C=C4)C=C3)cc1
REMARK SMILES IDX 8 1 7 2 6 3 5 4 4 5 3 6 2 7 1 8 35 9 36 10 88 11 37 12 87 13
REMARK SMILES IDX 38 14 39 15 40 16 81 17 41 18 86 19 80 20 82 21 42 22 85 23
REMARK SMILES IDX 79 24 78 25 43 27 69 28 52 29 68 30 53 31 56 32 67 33 83 34
REMARK SMILES IDX 54 35 55 36 66 38 84 39 57 40 44 41 45 42 50 43 46 44 47 45
REMARK SMILES IDX 49 46 51 47 48 48 70 49 71 50 76 51 72 52 73 53 75 54 77 55
REMARK SMILES IDX 74 56 58 57 59 58 64 59 60 60 61 61 63 62 65 63 62 64 9 65
REMARK SMILES IDX 10 66 11 67 12 68 13 69 14 70 15 71 16 72 33 73 30 74 32 75
REMARK SMILES IDX 34 76 31 77 17 78 18 79 19 80 20 82 21 83 29 84 22 85 24 86
REMARK SMILES IDX 23 87 25 88 26 89 27 90 28 91
REMARK H PARENT 82 26 56 37 19 81
REMARK Flexibility Score: inf
ROOT
ATOM      1  C   UNL A   1      32.489  29.597  25.027  1.00  0.00     0.188 C 
ENDROOT
BRANCH   1   2
ATOM      2  C   UNL A   1      31.720  29.362  26.330  1.00  0.00     0.188 C 
BRANCH   2   3
ATOM      3  O   UNL A   1      32.405  29.897  27.471  1.00  0.00    -0.376 OA
BRANCH   3   4
ATOM      4  C   UNL A   1      32.865  31.236  27.302  1.00  0.00     0.202 C 
BRANCH   4   5
ATOM      5  C   UNL A   1      34.318  31.540  27.688  1.00  0.00     0.261 C 
BRANCH   5   6
ATOM      6  O   UNL A   1      35.023  30.503  28.384  1.00  0.00    -0.460 OA
BRANCH   6   7
ATOM      7  C   UNL A   1      36.009  30.546  29.304  1.00  0.00     0.338 C 
ATOM      8  O   UNL A   1      35.779  31.146  30.355  1.00  0.00    -0.246 OA
BRANCH   7   9
ATOM      9  C   UNL A   1      37.381  29.974  29.122  1.00  0.00     0.060 A 
ATOM     10  C   UNL A   1      38.243  29.560  30.136  1.00  0.00     0.016 A 
ATOM     11  C   UNL A   1      37.846  29.874  27.794  1.00  0.00     0.016 A 
ATOM     12  C   UNL A   1      39.499  29.023  29.841  1.00  0.00     0.010 A 
ATOM     13  C   UNL A   1      39.125  29.390  27.493  1.00  0.00     0.010 A 
ATOM     14  C   UNL A   1      39.961  28.957  28.521  1.00  0.00    -0.014 A 
BRANCH  14  15
ATOM     15  C   UNL A   1      41.361  28.534  28.285  1.00  0.00     0.031 A 
ATOM     16  C   UNL A   1      41.613  27.143  27.804  1.00  0.00     0.074 A 
ATOM     17  C   UNL A   1      42.388  29.383  28.462  1.00  0.00     0.049 A 
ATOM     18  N   UNL A   1      42.733  26.598  27.413  1.00  0.00    -0.248 NA
ATOM     19  C   UNL A   1      40.459  26.228  27.807  1.00  0.00     0.031 C 
ATOM     20  C   UNL A   1      42.265  30.701  29.057  1.00  0.00     0.029 A 
ATOM     21  N   UNL A   1      43.720  29.296  28.130  1.00  0.00    -0.354 N 
ATOM     22  C   UNL A   1      42.440  25.261  27.208  1.00  0.00     0.074 A 
ATOM     23  C   UNL A   1      41.019  25.091  27.422  1.00  0.00     0.031 C 
ATOM     24  C   UNL A   1      43.434  31.349  28.940  1.00  0.00     0.029 A 
ATOM     25  C   UNL A   1      44.394  30.492  28.274  1.00  0.00     0.049 A 
ATOM     26  H   UNL A   1      44.149  28.466  27.821  1.00  0.00     0.167 HD
ATOM     27  C   UNL A   1      43.305  24.254  26.958  1.00  0.00     0.037 A 
ATOM     28  C   UNL A   1      45.633  30.851  27.882  1.00  0.00     0.037 A 
ATOM     29  C   UNL A   1      44.723  24.439  26.816  1.00  0.00     0.049 A 
ATOM     30  C   UNL A   1      46.537  29.749  27.404  1.00  0.00     0.074 A 
ATOM     31  C   UNL A   1      45.699  23.484  26.605  1.00  0.00     0.029 A 
ATOM     32  N   UNL A   1      45.368  25.666  26.898  1.00  0.00    -0.354 N 
ATOM     33  N   UNL A   1      46.244  28.492  27.168  1.00  0.00    -0.248 NA
ATOM     34  C   UNL A   1      47.959  30.079  27.238  1.00  0.00     0.031 C 
ATOM     35  C   UNL A   1      46.941  24.128  26.605  1.00  0.00     0.029 A 
ATOM     36  C   UNL A   1      46.734  25.489  26.764  1.00  0.00     0.049 A 
ATOM     37  H   UNL A   1      44.920  26.533  27.032  1.00  0.00     0.167 HD
ATOM     38  C   UNL A   1      47.453  27.865  26.920  1.00  0.00     0.074 A 
ATOM     39  C   UNL A   1      48.469  28.900  26.912  1.00  0.00     0.031 C 
ATOM     40  C   UNL A   1      47.714  26.544  26.785  1.00  0.00     0.037 A 
BRANCH  27  41
ATOM     41  C   UNL A   1      42.744  22.867  26.974  1.00  0.00     0.057 A 
ATOM     42  C   UNL A   1      42.408  22.204  28.158  1.00  0.00     0.134 A 
ATOM     43  C   UNL A   1      42.575  22.172  25.769  1.00  0.00     0.134 A 
ATOM     44  F   UNL A   1      42.586  22.802  29.347  1.00  0.00    -0.206 F 
ATOM     45  C   UNL A   1      41.936  20.890  28.145  1.00  0.00     0.040 A 
ATOM     46  C   UNL A   1      42.084  20.868  25.741  1.00  0.00     0.040 A 
ATOM     47  F   UNL A   1      42.897  22.747  24.600  1.00  0.00    -0.206 F 
ATOM     48  C   UNL A   1      41.768  20.221  26.934  1.00  0.00     0.006 A 
ENDBRANCH  27  41
BRANCH  28  49
ATOM     49  C   UNL A   1      46.125  32.260  27.947  1.00  0.00     0.057 A 
ATOM     50  C   UNL A   1      45.929  33.135  26.866  1.00  0.00     0.134 A 
ATOM     51  C   UNL A   1      46.841  32.765  29.038  1.00  0.00     0.134 A 
ATOM     52  F   UNL A   1      45.272  32.722  25.772  1.00  0.00    -0.206 F 
ATOM     53  C   UNL A   1      46.448  34.434  26.858  1.00  0.00     0.040 A 
ATOM     54  C   UNL A   1      47.322  34.079  29.066  1.00  0.00     0.040 A 
ATOM     55  F   UNL A   1      47.102  31.988  30.098  1.00  0.00    -0.206 F 
ATOM     56  C   UNL A   1      47.141  34.912  27.966  1.00  0.00     0.006 A 
ENDBRANCH  28  49
BRANCH  40  57
ATOM     57  C   UNL A   1      49.155  26.152  26.696  1.00  0.00     0.057 A 
ATOM     58  C   UNL A   1      49.821  26.131  25.463  1.00  0.00     0.134 A 
ATOM     59  C   UNL A   1      49.894  25.858  27.845  1.00  0.00     0.134 A 
ATOM     60  F   UNL A   1      49.158  26.390  24.325  1.00  0.00    -0.206 F 
ATOM     61  C   UNL A   1      51.176  25.817  25.377  1.00  0.00     0.040 A 
ATOM     62  C   UNL A   1      51.255  25.567  27.774  1.00  0.00     0.040 A 
ATOM     63  F   UNL A   1      49.309  25.868  29.052  1.00  0.00    -0.206 F 
ATOM     64  C   UNL A   1      51.899  25.544  26.536  1.00  0.00     0.006 A 
ENDBRANCH  40  57
ENDBRANCH  14  15
ENDBRANCH   7   9
ENDBRANCH   6   7
ENDBRANCH   5   6
ENDBRANCH   4   5
ENDBRANCH   3   4
ENDBRANCH   2   3
ENDBRANCH   1   2
BRANCH   1  65
ATOM     65  O   UNL A   1      31.948  29.017  23.837  1.00  0.00    -0.376 OA
BRANCH  65  66
ATOM     66  C   UNL A   1      32.831  28.756  22.754  1.00  0.00     0.202 C 
BRANCH  66  67
ATOM     67  C   UNL A   1      33.963  27.758  22.998  1.00  0.00     0.261 C 
BRANCH  67  68
ATOM     68  O   UNL A   1      33.493  26.413  23.079  1.00  0.00    -0.463 OA
BRANCH  68  69
ATOM     69  C   UNL A   1      33.561  25.840  24.306  1.00  0.00     0.312 C 
ATOM     70  O   UNL A   1      34.589  25.486  24.859  1.00  0.00    -0.252 OA
BRANCH  69  71
ATOM     71  C   UNL A   1      32.212  25.571  24.905  1.00  0.00     0.147 C 
ATOM     72  C   UNL A   1      32.125  24.059  25.193  1.00  0.00     0.129 C 
ATOM     73  C   UNL A   1      30.955  25.795  24.061  1.00  0.00     0.157 C 
ATOM     74  C   UNL A   1      30.752  23.706  24.629  1.00  0.00     0.155 C 
ATOM     75  C   UNL A   1      30.914  25.007  22.782  1.00  0.00     0.004 C 
ATOM     76  O   UNL A   1      30.056  24.961  24.848  1.00  0.00    -0.365 OA
ATOM     77  C   UNL A   1      30.803  23.719  23.130  1.00  0.00     0.004 C 
BRANCH  72  78
ATOM     78  C   UNL A   1      32.158  23.710  26.670  1.00  0.00     0.231 C 
ATOM     79  O   UNL A   1      31.322  24.143  27.465  1.00  0.00    -0.274 OA
ATOM     80  N   UNL A   1      33.039  22.758  27.121  1.00  0.00    -0.326 N 
ATOM     81  H   UNL A   1      32.835  22.393  28.012  1.00  0.00     0.169 HD
BRANCH  80  82
ATOM     82  C   UNL A   1      34.182  22.227  26.509  1.00  0.00     0.041 A 
ATOM     83  C   UNL A   1      34.047  21.061  25.760  1.00  0.00     0.026 A 
ATOM     84  C   UNL A   1      35.442  22.813  26.627  1.00  0.00     0.039 A 
ATOM     85  C   UNL A   1      35.129  20.573  25.024  1.00  0.00     0.003 A 
ATOM     86  C   UNL A   1      36.518  22.384  25.841  1.00  0.00     0.058 A 
ATOM     87  C   UNL A   1      36.350  21.250  25.040  1.00  0.00     0.013 A 
BRANCH  86  88
ATOM     88  C   UNL A   1      37.815  23.152  25.856  1.00  0.00     0.416 C 
ATOM     89  F   UNL A   1      37.984  23.880  26.992  1.00  0.00    -0.166 F 
ATOM     90  F   UNL A   1      38.905  22.341  25.758  1.00  0.00    -0.166 F 
ATOM     91  F   UNL A   1      37.926  24.036  24.821  1.00  0.00    -0.166 F 
ENDBRANCH  86  88
ENDBRANCH  80  82
ENDBRANCH  72  78
ENDBRANCH  69  71
ENDBRANCH  68  69
ENDBRANCH  67  68
ENDBRANCH  66  67
ENDBRANCH  65  66
ENDBRANCH   1  65
TORSDOF 20
ENDMDL
MODEL 2
REMARK VINA RESULT:     -10.6      3.614      7.928
REMARK SMILES O=C(OCCOCCOCCOC(=O)[C@@H]1[C@@H](C(=O)Nc2cccc(C(F)(F)F)c2)[C@@H]2C=C[C@H]1O2)c1ccc(-c2c3nc(c(-c4c(F)cccc4F)c4ccc([nH]4)c(-c4c(F)cccc4F)c4nc(c(-c5c(F)cccc5F)c5ccc2[nH]5)C=C4)C=C3)cc1
REMARK SMILES IDX 8 1 7 2 6 3 5 4 4 5 3 6 2 7 1 8 35 9 36 10 88 11 37 12 87 13
REMARK SMILES IDX 38 14 39 15 40 16 81 17 41 18 86 19 80 20 82 21 42 22 85 23
REMARK SMILES IDX 79 24 78 25 43 27 69 28 52 29 68 30 53 31 56 32 67 33 83 34
REMARK SMILES IDX 54 35 55 36 66 38 84 39 57 40 44 41 45 42 50 43 46 44 47 45
REMARK SMILES IDX 49 46 51 47 48 48 70 49 71 50 76 51 72 52 73 53 75 54 77 55
REMARK SMILES IDX 74 56 58 57 59 58 64 59 60 60 61 61 63 62 65 63 62 64 9 65
REMARK SMILES IDX 10 66 11 67 12 68 13 69 14 70 15 71 16 72 33 73 30 74 32 75
REMARK SMILES IDX 34 76 31 77 17 78 18 79 19 80 20 82 21 83 29 84 22 85 24 86
REMARK SMILES IDX 23 87 25 88 26 89 27 90 28 91
REMARK H PARENT 82 26 56 37 19 81
REMARK Flexibility Score: inf
ROOT
ATOM      1  C   UNL A   1      32.914  23.156  27.150  1.00  0.00     0.188 C 
ENDROOT
BRANCH   1   2
ATOM      2  C   UNL A   1      33.424  21.715  27.057  1.00  0.00     0.188 C 
BRANCH   2   3
ATOM      3  O   UNL A   1      33.356  21.199  25.721  1.00  0.00    -0.376 OA
BRANCH   3   4
ATOM      4  C   UNL A   1      34.612  20.779  25.192  1.00  0.00     0.202 C 
BRANCH   4   5
ATOM      5  C   UNL A   1      35.875  21.445  25.752  1.00  0.00     0.261 C 
BRANCH   5   6
ATOM      6  O   UNL A   1      37.127  20.963  25.247  1.00  0.00    -0.460 OA
BRANCH   6   7
ATOM      7  C   UNL A   1      38.393  21.111  25.691  1.00  0.00     0.338 C 
ATOM      8  O   UNL A   1      39.109  20.109  25.710  1.00  0.00    -0.246 OA
BRANCH   7   9
ATOM      9  C   UNL A   1      38.975  22.386  26.219  1.00  0.00     0.060 A 
ATOM     10  C   UNL A   1      38.532  23.675  25.930  1.00  0.00     0.016 A 
ATOM     11  C   UNL A   1      40.097  22.259  27.065  1.00  0.00     0.016 A 
ATOM     12  C   UNL A   1      39.148  24.794  26.499  1.00  0.00     0.010 A 
ATOM     13  C   UNL A   1      40.754  23.377  27.593  1.00  0.00     0.010 A 
ATOM     14  C   UNL A   1      40.278  24.657  27.313  1.00  0.00    -0.014 A 
BRANCH  14  15
ATOM     15  C   UNL A   1      40.985  25.883  27.750  1.00  0.00     0.031 A 
ATOM     16  C   UNL A   1      42.319  26.186  27.151  1.00  0.00     0.074 A 
ATOM     17  C   UNL A   1      40.435  26.731  28.637  1.00  0.00     0.049 A 
ATOM     18  N   UNL A   1      43.057  27.254  27.285  1.00  0.00    -0.248 NA
ATOM     19  C   UNL A   1      42.926  25.125  26.329  1.00  0.00     0.031 C 
ATOM     20  C   UNL A   1      39.218  26.460  29.377  1.00  0.00     0.029 A 
ATOM     21  N   UNL A   1      40.791  27.996  29.040  1.00  0.00    -0.354 N 
ATOM     22  C   UNL A   1      44.247  26.963  26.640  1.00  0.00     0.074 A 
ATOM     23  C   UNL A   1      44.102  25.659  26.031  1.00  0.00     0.031 C 
ATOM     24  C   UNL A   1      38.855  27.564  30.050  1.00  0.00     0.029 A 
ATOM     25  C   UNL A   1      39.819  28.617  29.798  1.00  0.00     0.049 A 
ATOM     26  H   UNL A   1      41.650  28.418  28.810  1.00  0.00     0.167 HD
ATOM     27  C   UNL A   1      45.388  27.687  26.644  1.00  0.00     0.037 A 
ATOM     28  C   UNL A   1      39.714  29.896  30.213  1.00  0.00     0.037 A 
ATOM     29  C   UNL A   1      45.527  28.951  27.313  1.00  0.00     0.049 A 
ATOM     30  C   UNL A   1      40.926  30.766  30.027  1.00  0.00     0.074 A 
ATOM     31  C   UNL A   1      46.649  29.750  27.420  1.00  0.00     0.029 A 
ATOM     32  N   UNL A   1      44.510  29.586  28.014  1.00  0.00    -0.354 N 
ATOM     33  N   UNL A   1      42.034  30.503  29.377  1.00  0.00    -0.248 NA
ATOM     34  C   UNL A   1      40.924  32.066  30.714  1.00  0.00     0.031 C 
ATOM     35  C   UNL A   1      46.324  30.847  28.224  1.00  0.00     0.029 A 
ATOM     36  C   UNL A   1      44.987  30.757  28.575  1.00  0.00     0.049 A 
ATOM     37  H   UNL A   1      43.588  29.252  28.100  1.00  0.00     0.167 HD
ATOM     38  C   UNL A   1      42.892  31.555  29.654  1.00  0.00     0.074 A 
ATOM     39  C   UNL A   1      42.135  32.519  30.429  1.00  0.00     0.031 C 
ATOM     40  C   UNL A   1      44.207  31.679  29.360  1.00  0.00     0.037 A 
BRANCH  27  41
ATOM     41  C   UNL A   1      46.592  27.046  26.028  1.00  0.00     0.057 A 
ATOM     42  C   UNL A   1      47.446  26.203  26.746  1.00  0.00     0.134 A 
ATOM     43  C   UNL A   1      46.915  27.316  24.692  1.00  0.00     0.134 A 
ATOM     44  F   UNL A   1      47.211  25.939  28.041  1.00  0.00    -0.206 F 
ATOM     45  C   UNL A   1      48.591  25.661  26.159  1.00  0.00     0.040 A 
ATOM     46  C   UNL A   1      48.043  26.764  24.088  1.00  0.00     0.040 A 
ATOM     47  F   UNL A   1      46.144  28.132  23.956  1.00  0.00    -0.206 F 
ATOM     48  C   UNL A   1      48.889  25.938  24.825  1.00  0.00     0.006 A 
ENDBRANCH  27  41
BRANCH  28  49
ATOM     49  C   UNL A   1      38.484  30.437  30.863  1.00  0.00     0.057 A 
ATOM     50  C   UNL A   1      37.556  31.186  30.123  1.00  0.00     0.134 A 
ATOM     51  C   UNL A   1      38.216  30.282  32.229  1.00  0.00     0.134 A 
ATOM     52  F   UNL A   1      37.750  31.400  28.813  1.00  0.00    -0.206 F 
ATOM     53  C   UNL A   1      36.436  31.779  30.717  1.00  0.00     0.040 A 
ATOM     54  C   UNL A   1      37.074  30.826  32.826  1.00  0.00     0.040 A 
ATOM     55  F   UNL A   1      39.067  29.610  33.016  1.00  0.00    -0.206 F 
ATOM     56  C   UNL A   1      36.188  31.591  32.073  1.00  0.00     0.006 A 
ENDBRANCH  28  49
BRANCH  40  57
ATOM     57  C   UNL A   1      44.914  32.861  29.945  1.00  0.00     0.057 A 
ATOM     58  C   UNL A   1      45.539  32.779  31.197  1.00  0.00     0.134 A 
ATOM     59  C   UNL A   1      45.024  34.059  29.235  1.00  0.00     0.134 A 
ATOM     60  F   UNL A   1      45.452  31.659  31.931  1.00  0.00    -0.206 F 
ATOM     61  C   UNL A   1      46.243  33.859  31.727  1.00  0.00     0.040 A 
ATOM     62  C   UNL A   1      45.746  35.137  29.744  1.00  0.00     0.040 A 
ATOM     63  F   UNL A   1      44.450  34.191  28.030  1.00  0.00    -0.206 F 
ATOM     64  C   UNL A   1      46.357  35.039  30.994  1.00  0.00     0.006 A 
ENDBRANCH  40  57
ENDBRANCH  14  15
ENDBRANCH   7   9
ENDBRANCH   6   7
ENDBRANCH   5   6
ENDBRANCH   4   5
ENDBRANCH   3   4
ENDBRANCH   2   3
ENDBRANCH   1   2
BRANCH   1  65
ATOM     65  O   UNL A   1      31.503  23.340  27.301  1.00  0.00    -0.376 OA
BRANCH  65  66
ATOM     66  C   UNL A   1      30.794  24.002  26.262  1.00  0.00     0.202 C 
BRANCH  66  67
ATOM     67  C   UNL A   1      30.734  25.528  26.318  1.00  0.00     0.261 C 
BRANCH  67  68
ATOM     68  O   UNL A   1      31.411  26.139  25.221  1.00  0.00    -0.463 OA
BRANCH  68  69
ATOM     69  C   UNL A   1      32.729  26.395  25.415  1.00  0.00     0.312 C 
ATOM     70  O   UNL A   1      33.231  26.732  26.474  1.00  0.00    -0.252 OA
BRANCH  69  71
ATOM     71  C   UNL A   1      33.532  26.329  24.148  1.00  0.00     0.147 C 
ATOM     72  C   UNL A   1      32.638  26.848  23.005  1.00  0.00     0.129 C 
ATOM     73  C   UNL A   1      33.967  24.966  23.603  1.00  0.00     0.157 C 
ATOM     74  C   UNL A   1      32.855  25.791  21.926  1.00  0.00     0.155 C 
ATOM     75  C   UNL A   1      32.837  24.014  23.331  1.00  0.00     0.004 C 
ATOM     76  O   UNL A   1      34.217  25.391  22.232  1.00  0.00    -0.365 OA
ATOM     77  C   UNL A   1      32.143  24.527  22.307  1.00  0.00     0.004 C 
BRANCH  72  78
ATOM     78  C   UNL A   1      33.058  28.203  22.462  1.00  0.00     0.231 C 
ATOM     79  O   UNL A   1      34.234  28.475  22.216  1.00  0.00    -0.274 OA
ATOM     80  N   UNL A   1      32.097  29.104  22.075  1.00  0.00    -0.326 N 
ATOM     81  H   UNL A   1      32.420  29.833  21.499  1.00  0.00     0.169 HD
BRANCH  80  82
ATOM     82  C   UNL A   1      30.729  29.144  22.373  1.00  0.00     0.041 A 
ATOM     83  C   UNL A   1      30.073  27.942  22.627  1.00  0.00     0.026 A 
ATOM     84  C   UNL A   1      30.001  30.333  22.416  1.00  0.00     0.039 A 
ATOM     85  C   UNL A   1      28.745  27.947  23.059  1.00  0.00     0.003 A 
ATOM     86  C   UNL A   1      28.694  30.366  22.919  1.00  0.00     0.058 A 
ATOM     87  C   UNL A   1      28.069  29.156  23.234  1.00  0.00     0.013 A 
BRANCH  86  88
ATOM     88  C   UNL A   1      28.000  31.688  23.124  1.00  0.00     0.416 C 
ATOM     89  F   UNL A   1      27.585  32.254  21.960  1.00  0.00    -0.166 F 
ATOM     90  F   UNL A   1      26.893  31.581  23.911  1.00  0.00    -0.166 F 
ATOM     91  F   UNL A   1      28.791  32.619  23.735  1.00  0.00    -0.166 F 
ENDBRANCH  86  88
ENDBRANCH  80  82
ENDBRANCH  72  78
ENDBRANCH  69  71
ENDBRANCH  68  69
ENDBRANCH  67  68
ENDBRANCH  66  67
ENDBRANCH  65  66
ENDBRANCH   1  65
TORSDOF 20
ENDMDL
MODEL 3
REMARK VINA RESULT:     -10.6      5.063      9.880
REMARK SMILES O=C(OCCOCCOCCOC(=O)[C@@H]1[C@@H](C(=O)Nc2cccc(C(F)(F)F)c2)[C@@H]2C=C[C@H]1O2)c1ccc(-c2c3nc(c(-c4c(F)cccc4F)c4ccc([nH]4)c(-c4c(F)cccc4F)c4nc(c(-c5c(F)cccc5F)c5ccc2[nH]5)C=C4)C=C3)cc1
REMARK SMILES IDX 8 1 7 2 6 3 5 4 4 5 3 6 2 7 1 8 35 9 36 10 88 11 37 12 87 13
REMARK SMILES IDX 38 14 39 15 40 16 81 17 41 18 86 19 80 20 82 21 42 22 85 23
REMARK SMILES IDX 79 24 78 25 43 27 69 28 52 29 68 30 53 31 56 32 67 33 83 34
REMARK SMILES IDX 54 35 55 36 66 38 84 39 57 40 44 41 45 42 50 43 46 44 47 45
REMARK SMILES IDX 49 46 51 47 48 48 70 49 71 50 76 51 72 52 73 53 75 54 77 55
REMARK SMILES IDX 74 56 58 57 59 58 64 59 60 60 61 61 63 62 65 63 62 64 9 65
REMARK SMILES IDX 10 66 11 67 12 68 13 69 14 70 15 71 16 72 33 73 30 74 32 75
REMARK SMILES IDX 34 76 31 77 17 78 18 79 19 80 20 82 21 83 29 84 22 85 24 86
REMARK SMILES IDX 23 87 25 88 26 89 27 90 28 91
REMARK H PARENT 82 26 56 37 19 81
REMARK Flexibility Score: inf
ROOT
ATOM      1  C   UNL A   1      41.628  19.856  27.207  1.00  0.00     0.188 C 
ENDROOT
BRANCH   1   2
ATOM      2  C   UNL A   1      42.059  19.549  25.771  1.00  0.00     0.188 C 
BRANCH   2   3
ATOM      3  O   UNL A   1      43.478  19.376  25.654  1.00  0.00    -0.376 OA
BRANCH   3   4
ATOM      4  C   UNL A   1      44.228  20.579  25.808  1.00  0.00     0.202 C 
BRANCH   4   5
ATOM      5  C   UNL A   1      44.050  21.667  24.742  1.00  0.00     0.261 C 
BRANCH   5   6
ATOM      6  O   UNL A   1      43.334  22.842  25.143  1.00  0.00    -0.460 OA
BRANCH   6   7
ATOM      7  C   UNL A   1      43.727  24.123  25.308  1.00  0.00     0.338 C 
ATOM      8  O   UNL A   1      44.634  24.535  24.585  1.00  0.00    -0.246 OA
BRANCH   7   9
ATOM      9  C   UNL A   1      43.186  25.061  26.343  1.00  0.00     0.060 A 
ATOM     10  C   UNL A   1      43.489  26.416  26.465  1.00  0.00     0.016 A 
ATOM     11  C   UNL A   1      42.309  24.503  27.297  1.00  0.00     0.016 A 
ATOM     12  C   UNL A   1      42.906  27.198  27.467  1.00  0.00     0.010 A 
ATOM     13  C   UNL A   1      41.766  25.267  28.337  1.00  0.00     0.010 A 
ATOM     14  C   UNL A   1      42.061  26.626  28.425  1.00  0.00    -0.014 A 
BRANCH  14  15
ATOM     15  C   UNL A   1      41.607  27.468  29.556  1.00  0.00     0.031 A 
ATOM     16  C   UNL A   1      42.492  27.586  30.754  1.00  0.00     0.074 A 
ATOM     17  C   UNL A   1      40.446  28.144  29.506  1.00  0.00     0.049 A 
ATOM     18  N   UNL A   1      42.363  28.358  31.798  1.00  0.00    -0.248 NA
ATOM     19  C   UNL A   1      43.652  26.680  30.805  1.00  0.00     0.031 C 
ATOM     20  C   UNL A   1      39.456  27.988  28.457  1.00  0.00     0.029 A 
ATOM     21  N   UNL A   1      39.915  29.118  30.317  1.00  0.00    -0.354 N 
ATOM     22  C   UNL A   1      43.369  27.973  32.667  1.00  0.00     0.074 A 
ATOM     23  C   UNL A   1      44.162  26.967  31.994  1.00  0.00     0.031 C 
ATOM     24  C   UNL A   1      38.498  28.915  28.613  1.00  0.00     0.029 A 
ATOM     25  C   UNL A   1      38.798  29.723  29.777  1.00  0.00     0.049 A 
ATOM     26  H   UNL A   1      40.293  29.361  31.193  1.00  0.00     0.167 HD
ATOM     27  C   UNL A   1      43.548  28.361  33.949  1.00  0.00     0.037 A 
ATOM     28  C   UNL A   1      38.120  30.821  30.170  1.00  0.00     0.037 A 
ATOM     29  C   UNL A   1      42.706  29.314  34.618  1.00  0.00     0.049 A 
ATOM     30  C   UNL A   1      38.467  31.381  31.522  1.00  0.00     0.074 A 
ATOM     31  C   UNL A   1      42.768  29.748  35.928  1.00  0.00     0.029 A 
ATOM     32  N   UNL A   1      41.627  29.959  34.029  1.00  0.00    -0.354 N 
ATOM     33  N   UNL A   1      39.449  31.043  32.323  1.00  0.00    -0.248 NA
ATOM     34  C   UNL A   1      37.560  32.396  32.075  1.00  0.00     0.031 C 
ATOM     35  C   UNL A   1      41.699  30.622  36.145  1.00  0.00     0.029 A 
ATOM     36  C   UNL A   1      41.002  30.773  34.957  1.00  0.00     0.049 A 
ATOM     37  H   UNL A   1      41.348  29.853  33.090  1.00  0.00     0.167 HD
ATOM     38  C   UNL A   1      39.225  31.730  33.504  1.00  0.00     0.074 A 
ATOM     39  C   UNL A   1      38.084  32.597  33.274  1.00  0.00     0.031 C 
ATOM     40  C   UNL A   1      39.854  31.602  34.695  1.00  0.00     0.037 A 
BRANCH  27  41
ATOM     41  C   UNL A   1      44.603  27.640  34.728  1.00  0.00     0.057 A 
ATOM     42  C   UNL A   1      44.344  26.462  35.434  1.00  0.00     0.134 A 
ATOM     43  C   UNL A   1      45.899  28.169  34.796  1.00  0.00     0.134 A 
ATOM     44  F   UNL A   1      43.112  25.928  35.440  1.00  0.00    -0.206 F 
ATOM     45  C   UNL A   1      45.336  25.839  36.196  1.00  0.00     0.040 A 
ATOM     46  C   UNL A   1      46.903  27.545  35.535  1.00  0.00     0.040 A 
ATOM     47  F   UNL A   1      46.206  29.307  34.155  1.00  0.00    -0.206 F 
ATOM     48  C   UNL A   1      46.621  26.379  36.242  1.00  0.00     0.006 A 
ENDBRANCH  27  41
BRANCH  28  49
ATOM     49  C   UNL A   1      37.045  31.447  29.343  1.00  0.00     0.057 A 
ATOM     50  C   UNL A   1      37.228  32.719  28.779  1.00  0.00     0.134 A 
ATOM     51  C   UNL A   1      35.800  30.842  29.133  1.00  0.00     0.134 A 
ATOM     52  F   UNL A   1      38.384  33.377  28.953  1.00  0.00    -0.206 F 
ATOM     53  C   UNL A   1      36.213  33.371  28.070  1.00  0.00     0.040 A 
ATOM     54  C   UNL A   1      34.794  31.459  28.382  1.00  0.00     0.040 A 
ATOM     55  F   UNL A   1      35.529  29.642  29.663  1.00  0.00    -0.206 F 
ATOM     56  C   UNL A   1      34.993  32.735  27.862  1.00  0.00     0.006 A 
ENDBRANCH  28  49
BRANCH  40  57
ATOM     57  C   UNL A   1      39.271  32.361  35.845  1.00  0.00     0.057 A 
ATOM     58  C   UNL A   1      38.345  31.761  36.709  1.00  0.00     0.134 A 
ATOM     59  C   UNL A   1      39.679  33.668  36.127  1.00  0.00     0.134 A 
ATOM     60  F   UNL A   1      37.905  30.514  36.478  1.00  0.00    -0.206 F 
ATOM     61  C   UNL A   1      37.835  32.444  37.812  1.00  0.00     0.040 A 
ATOM     62  C   UNL A   1      39.194  34.351  37.240  1.00  0.00     0.040 A 
ATOM     63  F   UNL A   1      40.567  34.290  35.336  1.00  0.00    -0.206 F 
ATOM     64  C   UNL A   1      38.268  33.739  38.086  1.00  0.00     0.006 A 
ENDBRANCH  40  57
ENDBRANCH  14  15
ENDBRANCH   7   9
ENDBRANCH   6   7
ENDBRANCH   5   6
ENDBRANCH   4   5
ENDBRANCH   3   4
ENDBRANCH   2   3
ENDBRANCH   1   2
BRANCH   1  65
ATOM     65  O   UNL A   1      40.614  20.850  27.385  1.00  0.00    -0.376 OA
BRANCH  65  66
ATOM     66  C   UNL A   1      40.208  21.607  26.252  1.00  0.00     0.202 C 
BRANCH  66  67
ATOM     67  C   UNL A   1      38.999  22.528  26.423  1.00  0.00     0.261 C 
BRANCH  67  68
ATOM     68  O   UNL A   1      37.862  22.071  25.691  1.00  0.00    -0.463 OA
BRANCH  68  69
ATOM     69  C   UNL A   1      36.831  22.948  25.602  1.00  0.00     0.312 C 
ATOM     70  O   UNL A   1      36.835  24.084  26.046  1.00  0.00    -0.252 OA
BRANCH  69  71
ATOM     71  C   UNL A   1      35.603  22.349  24.980  1.00  0.00     0.147 C 
ATOM     72  C   UNL A   1      34.537  23.460  24.898  1.00  0.00     0.129 C 
ATOM     73  C   UNL A   1      34.843  21.248  25.724  1.00  0.00     0.157 C 
ATOM     74  C   UNL A   1      33.298  22.752  25.438  1.00  0.00     0.155 C 
ATOM     75  C   UNL A   1      34.366  21.636  27.095  1.00  0.00     0.004 C 
ATOM     76  O   UNL A   1      33.578  21.391  25.015  1.00  0.00    -0.365 OA
ATOM     77  C   UNL A   1      33.425  22.572  26.922  1.00  0.00     0.004 C 
BRANCH  72  78
ATOM     78  C   UNL A   1      34.257  23.941  23.486  1.00  0.00     0.231 C 
ATOM     79  O   UNL A   1      34.791  23.430  22.501  1.00  0.00    -0.274 OA
ATOM     80  N   UNL A   1      33.260  24.861  23.271  1.00  0.00    -0.326 N 
ATOM     81  H   UNL A   1      32.953  24.930  22.338  1.00  0.00     0.169 HD
BRANCH  80  82
ATOM     82  C   UNL A   1      32.612  25.714  24.173  1.00  0.00     0.041 A 
ATOM     83  C   UNL A   1      31.292  25.432  24.516  1.00  0.00     0.026 A 
ATOM     84  C   UNL A   1      33.231  26.834  24.729  1.00  0.00     0.039 A 
ATOM     85  C   UNL A   1      30.654  26.176  25.511  1.00  0.00     0.003 A 
ATOM     86  C   UNL A   1      32.636  27.544  25.780  1.00  0.00     0.058 A 
ATOM     87  C   UNL A   1      31.334  27.207  26.162  1.00  0.00     0.013 A 
BRANCH  86  88
ATOM     88  C   UNL A   1      33.407  28.633  26.483  1.00  0.00     0.416 C 
ATOM     89  F   UNL A   1      32.860  29.864  26.305  1.00  0.00    -0.166 F 
ATOM     90  F   UNL A   1      33.478  28.438  27.829  1.00  0.00    -0.166 F 
ATOM     91  F   UNL A   1      34.702  28.730  26.061  1.00  0.00    -0.166 F 
ENDBRANCH  86  88
ENDBRANCH  80  82
ENDBRANCH  72  78
ENDBRANCH  69  71
ENDBRANCH  68  69
ENDBRANCH  67  68
ENDBRANCH  66  67
ENDBRANCH  65  66
ENDBRANCH   1  65
TORSDOF 20
ENDMDL
