MODEL 1
REMARK VINA RESULT:      -6.2      0.000      0.000
REMARK SMILES NS(=O)(=O)c1ccc(-n2nc(C(=O)NCCCCCCCCCCC(=O)OCCOCCOCCOC(=O)c3ccc(-c4c5nc(c(-c6c(F)cccc6F)c6ccc([nH]6)c(-c6c(F)cccc6F)c6nc(c(-c7c(F)cccc7F)c7ccc4[nH]7)C=C6)C=C5)cc3)cc2-c2ccccc2)cc1
REMARK SMILES IDX 24 1 23 2 22 3 21 4 20 5 19 6 18 7 17 8 16 9 15 10 14 11
REMARK SMILES IDX 12 12 13 13 11 15 9 16 10 17 94 18 93 19 8 20 5 21 6 22
REMARK SMILES IDX 102 23 7 24 101 25 2 26 3 27 4 28 1 29 95 32 96 33 100 34
REMARK SMILES IDX 97 35 99 36 98 37 25 38 26 39 27 40 28 41 29 42 30 43 31 44
REMARK SMILES IDX 32 45 33 46 34 47 35 48 36 49 37 50 38 51 39 52 40 53 92 54
REMARK SMILES IDX 41 55 91 56 42 57 43 58 44 59 85 60 45 61 90 62 84 63 86 64
REMARK SMILES IDX 46 65 89 66 83 67 82 68 47 70 73 71 56 72 72 73 57 74 60 75
REMARK SMILES IDX 71 76 87 77 58 78 59 79 70 81 88 82 61 83 48 84 49 85 54 86
REMARK SMILES IDX 50 87 51 88 53 89 55 90 52 91 74 92 75 93 80 94 76 95 77 96
REMARK SMILES IDX 79 97 81 98 78 99 62 100 63 101 68 102 64 103 65 104 67 105
REMARK SMILES IDX 69 106 66 107
REMARK H PARENT 14 14 1 30 1 31 86 69 60 80
REMARK Flexibility Score: inf
ROOT
ATOM      1  C   UNL A   1      40.640  33.573  36.652  1.00  0.00     0.123 C 
ENDROOT
BRANCH   1   2
ATOM      2  C   UNL A   1      40.491  34.881  35.867  1.00  0.00     0.012 C 
BRANCH   2   3
ATOM      3  C   UNL A   1      39.925  36.052  36.668  1.00  0.00     0.001 C 
BRANCH   3   4
ATOM      4  C   UNL A   1      39.026  35.584  37.808  1.00  0.00     0.000 C 
BRANCH   4   5
ATOM      5  C   UNL A   1      39.606  35.958  39.172  1.00  0.00     0.000 C 
BRANCH   5   6
ATOM      6  C   UNL A   1      40.343  37.300  39.134  1.00  0.00     0.000 C 
BRANCH   6   7
ATOM      7  C   UNL A   1      41.747  37.201  39.744  1.00  0.00     0.000 C 
BRANCH   7   8
ATOM      8  C   UNL A   1      42.299  35.768  39.726  1.00  0.00     0.002 C 
BRANCH   8   9
ATOM      9  C   UNL A   1      43.719  35.697  39.166  1.00  0.00     0.021 C 
BRANCH   9  10
ATOM     10  C   UNL A   1      44.384  34.391  39.581  1.00  0.00     0.116 C 
BRANCH  10  11
ATOM     11  N   UNL A   1      43.909  33.320  38.746  1.00  0.00    -0.351 N 
ATOM     12  C   UNL A   1      43.239  32.158  39.029  1.00  0.00     0.271 C 
ATOM     13  O   UNL A   1      43.121  31.374  38.084  1.00  0.00    -0.267 OA
ATOM     14  H   UNL A   1      44.102  33.446  37.788  1.00  0.00     0.163 HD
BRANCH  12  15
ATOM     15  C   UNL A   1      42.650  31.900  40.358  1.00  0.00     0.151 A 
ATOM     16  N   UNL A   1      41.085  31.871  41.827  1.00  0.00    -0.232 N 
ATOM     17  N   UNL A   1      41.309  31.887  40.499  1.00  0.00    -0.162 NA
ATOM     18  C   UNL A   1      42.242  31.702  42.557  1.00  0.00     0.075 A 
ATOM     19  C   UNL A   1      43.243  31.641  41.617  1.00  0.00     0.065 A 
BRANCH  16  20
ATOM     20  C   UNL A   1      39.777  31.920  42.338  1.00  0.00     0.065 A 
ATOM     21  C   UNL A   1      37.082  32.061  42.903  1.00  0.00     0.082 A 
ATOM     22  C   UNL A   1      37.682  30.808  42.741  1.00  0.00     0.024 A 
ATOM     23  C   UNL A   1      37.831  33.242  42.824  1.00  0.00     0.024 A 
ATOM     24  C   UNL A   1      39.037  30.736  42.450  1.00  0.00     0.030 A 
ATOM     25  C   UNL A   1      39.198  33.171  42.569  1.00  0.00     0.030 A 
BRANCH  21  26
ATOM     26  S   UNL A   1      35.337  32.102  43.153  1.00  0.00     0.238 S 
ATOM     27  O   UNL A   1      34.943  33.483  43.355  1.00  0.00    -0.207 OA
ATOM     28  O   UNL A   1      34.978  31.046  44.061  1.00  0.00    -0.207 OA
BRANCH  26  29
ATOM     29  N   UNL A   1      34.690  31.650  41.670  1.00  0.00    -0.225 NA
ATOM     30  H   UNL A   1      33.673  31.630  41.734  1.00  0.00     0.137 HD
ATOM     31  H   UNL A   1      35.033  30.722  41.419  1.00  0.00     0.137 HD
ENDBRANCH  26  29
ENDBRANCH  21  26
ENDBRANCH  16  20
BRANCH  18  32
ATOM     32  C   UNL A   1      42.359  31.488  43.994  1.00  0.00     0.000 A 
ATOM     33  C   UNL A   1      42.266  30.201  44.536  1.00  0.00     0.010 A 
ATOM     34  C   UNL A   1      42.613  32.575  44.839  1.00  0.00     0.010 A 
ATOM     35  C   UNL A   1      42.396  30.008  45.910  1.00  0.00     0.001 A 
ATOM     36  C   UNL A   1      42.749  32.379  46.212  1.00  0.00     0.001 A 
ATOM     37  C   UNL A   1      42.638  31.097  46.747  1.00  0.00     0.000 A 
ENDBRANCH  18  32
ENDBRANCH  12  15
ENDBRANCH  10  11
ENDBRANCH   9  10
ENDBRANCH   8   9
ENDBRANCH   7   8
ENDBRANCH   6   7
ENDBRANCH   5   6
ENDBRANCH   4   5
ENDBRANCH   3   4
ENDBRANCH   2   3
ENDBRANCH   1   2
BRANCH   1  38
ATOM     38  C   UNL A   1      39.770  32.388  36.253  1.00  0.00     0.305 C 
ATOM     39  O   UNL A   1      39.914  31.277  36.747  1.00  0.00    -0.252 OA
BRANCH  38  40
ATOM     40  O   UNL A   1      38.911  32.682  35.250  1.00  0.00    -0.463 OA
BRANCH  40  41
ATOM     41  C   UNL A   1      37.546  32.973  35.577  1.00  0.00     0.261 C 
BRANCH  41  42
ATOM     42  C   UNL A   1      36.916  33.964  34.588  1.00  0.00     0.202 C 
BRANCH  42  43
ATOM     43  O   UNL A   1      36.113  33.391  33.556  1.00  0.00    -0.376 OA
BRANCH  43  44
ATOM     44  C   UNL A   1      34.696  33.434  33.747  1.00  0.00     0.188 C 
BRANCH  44  45
ATOM     45  C   UNL A   1      34.051  34.798  33.497  1.00  0.00     0.188 C 
BRANCH  45  46
ATOM     46  O   UNL A   1      33.125  34.822  32.424  1.00  0.00    -0.376 OA
BRANCH  46  47
ATOM     47  C   UNL A   1      33.425  35.392  31.151  1.00  0.00     0.202 C 
BRANCH  47  48
ATOM     48  C   UNL A   1      34.028  34.653  29.948  1.00  0.00     0.261 C 
BRANCH  48  49
ATOM     49  O   UNL A   1      34.630  33.405  30.194  1.00  0.00    -0.460 OA
BRANCH  49  50
ATOM     50  C   UNL A   1      34.694  32.529  29.176  1.00  0.00     0.338 C 
ATOM     51  O   UNL A   1      33.971  32.465  28.199  1.00  0.00    -0.246 OA
BRANCH  50  52
ATOM     52  C   UNL A   1      35.829  31.643  29.488  1.00  0.00     0.060 A 
ATOM     53  C   UNL A   1      35.919  31.158  30.788  1.00  0.00     0.016 A 
ATOM     54  C   UNL A   1      36.886  31.506  28.568  1.00  0.00     0.016 A 
ATOM     55  C   UNL A   1      37.172  30.851  31.260  1.00  0.00     0.010 A 
ATOM     56  C   UNL A   1      38.135  31.222  29.041  1.00  0.00     0.010 A 
ATOM     57  C   UNL A   1      38.270  31.029  30.408  1.00  0.00    -0.014 A 
BRANCH  57  58
ATOM     58  C   UNL A   1      39.595  30.940  30.968  1.00  0.00     0.031 A 
ATOM     59  C   UNL A   1      40.203  32.272  31.128  1.00  0.00     0.074 A 
ATOM     60  C   UNL A   1      40.126  29.764  31.356  1.00  0.00     0.049 A 
ATOM     61  N   UNL A   1      41.177  32.770  30.446  1.00  0.00    -0.248 NA
ATOM     62  C   UNL A   1      39.504  33.247  31.985  1.00  0.00     0.031 C 
ATOM     63  C   UNL A   1      39.471  28.455  31.451  1.00  0.00     0.029 A 
ATOM     64  N   UNL A   1      41.372  29.510  31.841  1.00  0.00    -0.354 N 
ATOM     65  C   UNL A   1      41.381  34.031  30.986  1.00  0.00     0.074 A 
ATOM     66  C   UNL A   1      40.200  34.357  31.738  1.00  0.00     0.031 C 
ATOM     67  C   UNL A   1      40.248  27.614  32.175  1.00  0.00     0.029 A 
ATOM     68  C   UNL A   1      41.503  28.275  32.478  1.00  0.00     0.049 A 
ATOM     69  H   UNL A   1      42.119  30.145  31.750  1.00  0.00     0.167 HD
ATOM     70  C   UNL A   1      42.639  34.539  31.063  1.00  0.00     0.037 A 
ATOM     71  C   UNL A   1      42.553  27.904  33.258  1.00  0.00     0.037 A 
ATOM     72  C   UNL A   1      43.514  33.914  30.100  1.00  0.00     0.049 A 
ATOM     73  C   UNL A   1      43.687  28.808  32.922  1.00  0.00     0.074 A 
ATOM     74  C   UNL A   1      43.471  33.752  28.727  1.00  0.00     0.029 A 
ATOM     75  N   UNL A   1      44.411  32.979  30.555  1.00  0.00    -0.354 N 
ATOM     76  N   UNL A   1      44.312  28.787  31.778  1.00  0.00    -0.248 NA
ATOM     77  C   UNL A   1      43.781  30.055  33.668  1.00  0.00     0.031 C 
ATOM     78  C   UNL A   1      43.946  32.428  28.495  1.00  0.00     0.029 A 
ATOM     79  C   UNL A   1      44.336  31.891  29.721  1.00  0.00     0.049 A 
ATOM     80  H   UNL A   1      45.001  33.072  31.338  1.00  0.00     0.167 HD
ATOM     81  C   UNL A   1      44.493  30.124  31.455  1.00  0.00     0.074 A 
ATOM     82  C   UNL A   1      44.189  30.858  32.683  1.00  0.00     0.031 C 
ATOM     83  C   UNL A   1      44.573  30.534  30.156  1.00  0.00     0.037 A 
BRANCH  70  84
ATOM     84  C   UNL A   1      43.134  35.258  32.290  1.00  0.00     0.057 A 
ATOM     85  C   UNL A   1      43.776  36.495  32.145  1.00  0.00     0.134 A 
ATOM     86  C   UNL A   1      43.251  34.667  33.570  1.00  0.00     0.134 A 
ATOM     87  F   UNL A   1      43.774  37.134  30.965  1.00  0.00    -0.206 F 
ATOM     88  C   UNL A   1      44.517  37.077  33.180  1.00  0.00     0.040 A 
ATOM     89  C   UNL A   1      43.935  35.267  34.626  1.00  0.00     0.040 A 
ATOM     90  F   UNL A   1      42.806  33.436  33.844  1.00  0.00    -0.206 F 
ATOM     91  C   UNL A   1      44.597  36.464  34.425  1.00  0.00     0.006 A 
ENDBRANCH  70  84
BRANCH  71  92
ATOM     92  C   UNL A   1      42.553  27.109  34.513  1.00  0.00     0.057 A 
ATOM     93  C   UNL A   1      41.809  27.529  35.629  1.00  0.00     0.134 A 
ATOM     94  C   UNL A   1      43.017  25.783  34.553  1.00  0.00     0.134 A 
ATOM     95  F   UNL A   1      41.290  28.764  35.675  1.00  0.00    -0.206 F 
ATOM     96  C   UNL A   1      41.505  26.670  36.695  1.00  0.00     0.040 A 
ATOM     97  C   UNL A   1      42.727  24.918  35.615  1.00  0.00     0.040 A 
ATOM     98  F   UNL A   1      43.687  25.249  33.522  1.00  0.00    -0.206 F 
ATOM     99  C   UNL A   1      41.952  25.353  36.682  1.00  0.00     0.006 A 
ENDBRANCH  71  92
BRANCH  83 100
ATOM    100  C   UNL A   1      44.705  29.484  29.085  1.00  0.00     0.057 A 
ATOM    101  C   UNL A   1      43.623  28.840  28.462  1.00  0.00     0.134 A 
ATOM    102  C   UNL A   1      45.977  29.222  28.566  1.00  0.00     0.134 A 
ATOM    103  F   UNL A   1      42.359  29.099  28.820  1.00  0.00    -0.206 F 
ATOM    104  C   UNL A   1      43.810  27.944  27.401  1.00  0.00     0.040 A 
ATOM    105  C   UNL A   1      46.174  28.359  27.486  1.00  0.00     0.040 A 
ATOM    106  F   UNL A   1      47.054  29.840  29.076  1.00  0.00    -0.206 F 
ATOM    107  C   UNL A   1      45.089  27.708  26.906  1.00  0.00     0.006 A 
ENDBRANCH  83 100
ENDBRANCH  57  58
ENDBRANCH  50  52
ENDBRANCH  49  50
ENDBRANCH  48  49
ENDBRANCH  47  48
ENDBRANCH  46  47
ENDBRANCH  45  46
ENDBRANCH  44  45
ENDBRANCH  43  44
ENDBRANCH  42  43
ENDBRANCH  41  42
ENDBRANCH  40  41
ENDBRANCH  38  40
ENDBRANCH   1  38
TORSDOF 32
ENDMDL
MODEL 2
REMARK VINA RESULT:      -5.9      9.153     15.452
REMARK SMILES NS(=O)(=O)c1ccc(-n2nc(C(=O)NCCCCCCCCCCC(=O)OCCOCCOCCOC(=O)c3ccc(-c4c5nc(c(-c6c(F)cccc6F)c6ccc([nH]6)c(-c6c(F)cccc6F)c6nc(c(-c7c(F)cccc7F)c7ccc4[nH]7)C=C6)C=C5)cc3)cc2-c2ccccc2)cc1
REMARK SMILES IDX 24 1 23 2 22 3 21 4 20 5 19 6 18 7 17 8 16 9 15 10 14 11
REMARK SMILES IDX 12 12 13 13 11 15 9 16 10 17 94 18 93 19 8 20 5 21 6 22
REMARK SMILES IDX 102 23 7 24 101 25 2 26 3 27 4 28 1 29 95 32 96 33 100 34
REMARK SMILES IDX 97 35 99 36 98 37 25 38 26 39 27 40 28 41 29 42 30 43 31 44
REMARK SMILES IDX 32 45 33 46 34 47 35 48 36 49 37 50 38 51 39 52 40 53 92 54
REMARK SMILES IDX 41 55 91 56 42 57 43 58 44 59 85 60 45 61 90 62 84 63 86 64
REMARK SMILES IDX 46 65 89 66 83 67 82 68 47 70 73 71 56 72 72 73 57 74 60 75
REMARK SMILES IDX 71 76 87 77 58 78 59 79 70 81 88 82 61 83 48 84 49 85 54 86
REMARK SMILES IDX 50 87 51 88 53 89 55 90 52 91 74 92 75 93 80 94 76 95 77 96
REMARK SMILES IDX 79 97 81 98 78 99 62 100 63 101 68 102 64 103 65 104 67 105
REMARK SMILES IDX 69 106 66 107
REMARK H PARENT 14 14 1 30 1 31 86 69 60 80
REMARK Flexibility Score: inf
ROOT
ATOM      1  C   UNL A   1      43.848  22.719  27.483  1.00  0.00     0.123 C 
ENDROOT
BRANCH   1   2
ATOM      2  C   UNL A   1      44.596  23.337  28.669  1.00  0.00     0.012 C 
BRANCH   2   3
ATOM      3  C   UNL A   1      43.822  24.414  29.428  1.00  0.00     0.001 C 
BRANCH   3   4
ATOM      4  C   UNL A   1      44.707  25.600  29.798  1.00  0.00     0.000 C 
BRANCH   4   5
ATOM      5  C   UNL A   1      43.987  26.931  29.575  1.00  0.00     0.000 C 
BRANCH   5   6
ATOM      6  C   UNL A   1      42.470  26.751  29.467  1.00  0.00     0.000 C 
BRANCH   6   7
ATOM      7  C   UNL A   1      41.878  27.559  28.306  1.00  0.00     0.000 C 
BRANCH   7   8
ATOM      8  C   UNL A   1      41.906  26.790  26.977  1.00  0.00     0.002 C 
BRANCH   8   9
ATOM      9  C   UNL A   1      40.521  26.291  26.564  1.00  0.00     0.021 C 
BRANCH   9  10
ATOM     10  C   UNL A   1      40.045  25.209  27.524  1.00  0.00     0.116 C 
BRANCH  10  11
ATOM     11  N   UNL A   1      40.629  23.946  27.159  1.00  0.00    -0.351 N 
ATOM     12  C   UNL A   1      40.085  22.783  26.681  1.00  0.00     0.271 C 
ATOM     13  O   UNL A   1      40.858  21.824  26.620  1.00  0.00    -0.267 OA
ATOM     14  H   UNL A   1      41.607  23.911  27.274  1.00  0.00     0.163 HD
BRANCH  12  15
ATOM     15  C   UNL A   1      38.685  22.709  26.216  1.00  0.00     0.151 A 
ATOM     16  N   UNL A   1      36.948  21.747  25.401  1.00  0.00    -0.232 N 
ATOM     17  N   UNL A   1      38.105  21.503  26.045  1.00  0.00    -0.162 NA
ATOM     18  C   UNL A   1      36.673  23.094  25.297  1.00  0.00     0.075 A 
ATOM     19  C   UNL A   1      37.746  23.716  25.889  1.00  0.00     0.065 A 
BRANCH  16  20
ATOM     20  C   UNL A   1      36.110  20.692  24.999  1.00  0.00     0.065 A 
ATOM     21  C   UNL A   1      34.481  18.496  24.652  1.00  0.00     0.082 A 
ATOM     22  C   UNL A   1      33.901  19.746  24.892  1.00  0.00     0.024 A 
ATOM     23  C   UNL A   1      35.869  18.346  24.546  1.00  0.00     0.024 A 
ATOM     24  C   UNL A   1      34.721  20.851  25.073  1.00  0.00     0.030 A 
ATOM     25  C   UNL A   1      36.691  19.459  24.690  1.00  0.00     0.030 A 
BRANCH  21  26
ATOM     26  S   UNL A   1      33.401  17.105  24.547  1.00  0.00     0.238 S 
ATOM     27  O   UNL A   1      33.626  16.271  25.712  1.00  0.00    -0.207 OA
ATOM     28  O   UNL A   1      33.436  16.596  23.203  1.00  0.00    -0.207 OA
BRANCH  26  29
ATOM     29  N   UNL A   1      31.863  17.753  24.736  1.00  0.00    -0.225 NA
ATOM     30  H   UNL A   1      31.650  17.842  25.730  1.00  0.00     0.137 HD
ATOM     31  H   UNL A   1      31.178  17.137  24.297  1.00  0.00     0.137 HD
ENDBRANCH  26  29
ENDBRANCH  21  26
ENDBRANCH  16  20
BRANCH  18  32
ATOM     32  C   UNL A   1      35.449  23.712  24.803  1.00  0.00     0.000 A 
ATOM     33  C   UNL A   1      34.580  24.378  25.675  1.00  0.00     0.010 A 
ATOM     34  C   UNL A   1      35.160  23.681  23.434  1.00  0.00     0.010 A 
ATOM     35  C   UNL A   1      33.422  24.980  25.188  1.00  0.00     0.001 A 
ATOM     36  C   UNL A   1      34.004  24.289  22.946  1.00  0.00     0.001 A 
ATOM     37  C   UNL A   1      33.135  24.935  23.824  1.00  0.00     0.000 A 
ENDBRANCH  18  32
ENDBRANCH  12  15
ENDBRANCH  10  11
ENDBRANCH   9  10
ENDBRANCH   8   9
ENDBRANCH   7   8
ENDBRANCH   6   7
ENDBRANCH   5   6
ENDBRANCH   4   5
ENDBRANCH   3   4
ENDBRANCH   2   3
ENDBRANCH   1   2
BRANCH   1  38
ATOM     38  C   UNL A   1      44.129  23.266  26.089  1.00  0.00     0.305 C 
ATOM     39  O   UNL A   1      43.288  23.881  25.446  1.00  0.00    -0.252 OA
BRANCH  38  40
ATOM     40  O   UNL A   1      45.350  22.915  25.625  1.00  0.00    -0.463 OA
BRANCH  40  41
ATOM     41  C   UNL A   1      46.438  23.833  25.793  1.00  0.00     0.261 C 
BRANCH  41  42
ATOM     42  C   UNL A   1      46.989  24.326  24.447  1.00  0.00     0.202 C 
BRANCH  42  43
ATOM     43  O   UNL A   1      47.125  25.740  24.308  1.00  0.00    -0.376 OA
BRANCH  43  44
ATOM     44  C   UNL A   1      47.623  26.453  25.445  1.00  0.00     0.188 C 
BRANCH  44  45
ATOM     45  C   UNL A   1      49.129  26.326  25.678  1.00  0.00     0.188 C 
BRANCH  45  46
ATOM     46  O   UNL A   1      49.683  27.341  26.497  1.00  0.00    -0.376 OA
BRANCH  46  47
ATOM     47  C   UNL A   1      48.897  28.159  27.362  1.00  0.00     0.202 C 
BRANCH  47  48
ATOM     48  C   UNL A   1      49.327  29.496  27.981  1.00  0.00     0.261 C 
BRANCH  48  49
ATOM     49  O   UNL A   1      49.630  29.503  29.354  1.00  0.00    -0.460 OA
BRANCH  49  50
ATOM     50  C   UNL A   1      50.901  29.254  29.717  1.00  0.00     0.338 C 
ATOM     51  O   UNL A   1      51.884  29.196  29.002  1.00  0.00    -0.246 OA
BRANCH  50  52
ATOM     52  C   UNL A   1      50.864  29.056  31.177  1.00  0.00     0.060 A 
ATOM     53  C   UNL A   1      51.765  28.147  31.719  1.00  0.00     0.016 A 
ATOM     54  C   UNL A   1      49.801  29.589  31.930  1.00  0.00     0.016 A 
ATOM     55  C   UNL A   1      51.402  27.520  32.887  1.00  0.00     0.010 A 
ATOM     56  C   UNL A   1      49.428  28.953  33.080  1.00  0.00     0.010 A 
ATOM     57  C   UNL A   1      50.167  27.844  33.463  1.00  0.00    -0.014 A 
BRANCH  57  58
ATOM     58  C   UNL A   1      49.678  27.024  34.544  1.00  0.00     0.031 A 
ATOM     59  C   UNL A   1      50.385  27.315  35.803  1.00  0.00     0.074 A 
ATOM     60  C   UNL A   1      48.645  26.175  34.381  1.00  0.00     0.049 A 
ATOM     61  N   UNL A   1      51.233  26.558  36.411  1.00  0.00    -0.248 NA
ATOM     62  C   UNL A   1      50.319  28.692  36.324  1.00  0.00     0.031 C 
ATOM     63  C   UNL A   1      47.753  26.035  33.225  1.00  0.00     0.029 A 
ATOM     64  N   UNL A   1      48.112  25.300  35.277  1.00  0.00    -0.354 N 
ATOM     65  C   UNL A   1      51.596  27.272  37.544  1.00  0.00     0.074 A 
ATOM     66  C   UNL A   1      51.206  28.638  37.317  1.00  0.00     0.031 C 
ATOM     67  C   UNL A   1      46.666  25.309  33.580  1.00  0.00     0.029 A 
ATOM     68  C   UNL A   1      46.845  24.823  34.935  1.00  0.00     0.049 A 
ATOM     69  H   UNL A   1      48.582  25.026  36.098  1.00  0.00     0.167 HD
ATOM     70  C   UNL A   1      51.857  26.615  38.703  1.00  0.00     0.037 A 
ATOM     71  C   UNL A   1      46.008  24.156  35.773  1.00  0.00     0.037 A 
ATOM     72  C   UNL A   1      52.225  25.242  38.454  1.00  0.00     0.049 A 
ATOM     73  C   UNL A   1      46.838  23.628  36.890  1.00  0.00     0.074 A 
ATOM     74  C   UNL A   1      53.199  24.634  37.681  1.00  0.00     0.029 A 
ATOM     75  N   UNL A   1      51.291  24.267  38.705  1.00  0.00    -0.354 N 
ATOM     76  N   UNL A   1      47.723  22.682  36.747  1.00  0.00    -0.248 NA
ATOM     77  C   UNL A   1      47.032  24.502  38.040  1.00  0.00     0.031 C 
ATOM     78  C   UNL A   1      52.558  23.499  37.103  1.00  0.00     0.029 A 
ATOM     79  C   UNL A   1      51.265  23.426  37.621  1.00  0.00     0.049 A 
ATOM     80  H   UNL A   1      50.738  24.187  39.516  1.00  0.00     0.167 HD
ATOM     81  C   UNL A   1      48.809  23.102  37.501  1.00  0.00     0.074 A 
ATOM     82  C   UNL A   1      48.304  24.207  38.315  1.00  0.00     0.031 C 
ATOM     83  C   UNL A   1      50.081  22.725  37.182  1.00  0.00     0.037 A 
BRANCH  70  84
ATOM     84  C   UNL A   1      51.347  27.109  40.031  1.00  0.00     0.057 A 
ATOM     85  C   UNL A   1      52.229  27.182  41.118  1.00  0.00     0.134 A 
ATOM     86  C   UNL A   1      49.979  27.253  40.358  1.00  0.00     0.134 A 
ATOM     87  F   UNL A   1      53.549  27.016  40.942  1.00  0.00    -0.206 F 
ATOM     88  C   UNL A   1      51.780  27.341  42.434  1.00  0.00     0.040 A 
ATOM     89  C   UNL A   1      49.525  27.472  41.658  1.00  0.00     0.040 A 
ATOM     90  F   UNL A   1      48.998  27.086  39.464  1.00  0.00    -0.206 F 
ATOM     91  C   UNL A   1      50.425  27.489  42.707  1.00  0.00     0.006 A 
ENDBRANCH  70  84
BRANCH  71  92
ATOM     92  C   UNL A   1      44.531  24.256  35.898  1.00  0.00     0.057 A 
ATOM     93  C   UNL A   1      43.927  25.441  36.352  1.00  0.00     0.134 A 
ATOM     94  C   UNL A   1      43.669  23.326  35.292  1.00  0.00     0.134 A 
ATOM     95  F   UNL A   1      44.666  26.409  36.914  1.00  0.00    -0.206 F 
ATOM     96  C   UNL A   1      42.562  25.705  36.172  1.00  0.00     0.040 A 
ATOM     97  C   UNL A   1      42.303  23.574  35.112  1.00  0.00     0.040 A 
ATOM     98  F   UNL A   1      44.136  22.185  34.766  1.00  0.00    -0.206 F 
ATOM     99  C   UNL A   1      41.747  24.775  35.535  1.00  0.00     0.006 A 
ENDBRANCH  71  92
BRANCH  83 100
ATOM    100  C   UNL A   1      50.266  21.651  36.143  1.00  0.00     0.057 A 
ATOM    101  C   UNL A   1      50.202  21.863  34.756  1.00  0.00     0.134 A 
ATOM    102  C   UNL A   1      50.666  20.380  36.567  1.00  0.00     0.134 A 
ATOM    103  F   UNL A   1      49.925  23.071  34.249  1.00  0.00    -0.206 F 
ATOM    104  C   UNL A   1      50.482  20.841  33.840  1.00  0.00     0.040 A 
ATOM    105  C   UNL A   1      50.983  19.363  35.665  1.00  0.00     0.040 A 
ATOM    106  F   UNL A   1      50.801  20.117  37.877  1.00  0.00    -0.206 F 
ATOM    107  C   UNL A   1      50.882  19.588  34.295  1.00  0.00     0.006 A 
ENDBRANCH  83 100
ENDBRANCH  57  58
ENDBRANCH  50  52
ENDBRANCH  49  50
ENDBRANCH  48  49
ENDBRANCH  47  48
ENDBRANCH  46  47
ENDBRANCH  45  46
ENDBRANCH  44  45
ENDBRANCH  43  44
ENDBRANCH  42  43
ENDBRANCH  41  42
ENDBRANCH  40  41
ENDBRANCH  38  40
ENDBRANCH   1  38
TORSDOF 32
ENDMDL
MODEL 3
REMARK VINA RESULT:      -5.9     10.018     16.605
REMARK SMILES NS(=O)(=O)c1ccc(-n2nc(C(=O)NCCCCCCCCCCC(=O)OCCOCCOCCOC(=O)c3ccc(-c4c5nc(c(-c6c(F)cccc6F)c6ccc([nH]6)c(-c6c(F)cccc6F)c6nc(c(-c7c(F)cccc7F)c7ccc4[nH]7)C=C6)C=C5)cc3)cc2-c2ccccc2)cc1
REMARK SMILES IDX 24 1 23 2 22 3 21 4 20 5 19 6 18 7 17 8 16 9 15 10 14 11
REMARK SMILES IDX 12 12 13 13 11 15 9 16 10 17 94 18 93 19 8 20 5 21 6 22
REMARK SMILES IDX 102 23 7 24 101 25 2 26 3 27 4 28 1 29 95 32 96 33 100 34
REMARK SMILES IDX 97 35 99 36 98 37 25 38 26 39 27 40 28 41 29 42 30 43 31 44
REMARK SMILES IDX 32 45 33 46 34 47 35 48 36 49 37 50 38 51 39 52 40 53 92 54
REMARK SMILES IDX 41 55 91 56 42 57 43 58 44 59 85 60 45 61 90 62 84 63 86 64
REMARK SMILES IDX 46 65 89 66 83 67 82 68 47 70 73 71 56 72 72 73 57 74 60 75
REMARK SMILES IDX 71 76 87 77 58 78 59 79 70 81 88 82 61 83 48 84 49 85 54 86
REMARK SMILES IDX 50 87 51 88 53 89 55 90 52 91 74 92 75 93 80 94 76 95 77 96
REMARK SMILES IDX 79 97 81 98 78 99 62 100 63 101 68 102 64 103 65 104 67 105
REMARK SMILES IDX 69 106 66 107
REMARK H PARENT 14 14 1 30 1 31 86 69 60 80
REMARK Flexibility Score: inf
ROOT
ATOM      1  C   UNL A   1      47.563  45.115  26.806  1.00  0.00     0.123 C 
ENDROOT
BRANCH   1   2
ATOM      2  C   UNL A   1      48.587  45.501  25.733  1.00  0.00     0.012 C 
BRANCH   2   3
ATOM      3  C   UNL A   1      49.524  46.644  26.120  1.00  0.00     0.001 C 
BRANCH   3   4
ATOM      4  C   UNL A   1      50.071  47.374  24.897  1.00  0.00     0.000 C 
BRANCH   4   5
ATOM      5  C   UNL A   1      51.594  47.273  24.815  1.00  0.00     0.000 C 
BRANCH   5   6
ATOM      6  C   UNL A   1      52.048  45.940  24.215  1.00  0.00     0.000 C 
BRANCH   6   7
ATOM      7  C   UNL A   1      51.251  45.575  22.956  1.00  0.00     0.000 C 
BRANCH   7   8
ATOM      8  C   UNL A   1      51.709  46.362  21.719  1.00  0.00     0.002 C 
BRANCH   8   9
ATOM      9  C   UNL A   1      51.381  45.637  20.413  1.00  0.00     0.021 C 
BRANCH   9  10
ATOM     10  C   UNL A   1      50.330  46.414  19.631  1.00  0.00     0.116 C 
BRANCH  10  11
ATOM     11  N   UNL A   1      50.446  46.111  18.230  1.00  0.00    -0.351 N 
ATOM     12  C   UNL A   1      49.543  45.652  17.308  1.00  0.00     0.271 C 
ATOM     13  O   UNL A   1      50.017  45.343  16.212  1.00  0.00    -0.267 OA
ATOM     14  H   UNL A   1      51.348  46.264  17.864  1.00  0.00     0.163 HD
BRANCH  12  15
ATOM     15  C   UNL A   1      48.096  45.590  17.597  1.00  0.00     0.151 A 
ATOM     16  N   UNL A   1      46.333  44.880  18.596  1.00  0.00    -0.232 N 
ATOM     17  N   UNL A   1      47.669  44.993  18.728  1.00  0.00    -0.162 NA
ATOM     18  C   UNL A   1      45.854  45.541  17.485  1.00  0.00     0.075 A 
ATOM     19  C   UNL A   1      46.971  46.066  16.881  1.00  0.00     0.065 A 
BRANCH  16  20
ATOM     20  C   UNL A   1      45.563  44.235  19.578  1.00  0.00     0.065 A 
ATOM     21  C   UNL A   1      44.190  43.308  21.782  1.00  0.00     0.082 A 
ATOM     22  C   UNL A   1      43.533  44.136  20.865  1.00  0.00     0.024 A 
ATOM     23  C   UNL A   1      45.517  42.909  21.581  1.00  0.00     0.024 A 
ATOM     24  C   UNL A   1      44.226  44.608  19.759  1.00  0.00     0.030 A 
ATOM     25  C   UNL A   1      46.202  43.352  20.452  1.00  0.00     0.030 A 
BRANCH  21  26
ATOM     26  S   UNL A   1      43.303  42.833  23.230  1.00  0.00     0.238 S 
ATOM     27  O   UNL A   1      42.349  41.805  22.857  1.00  0.00    -0.207 OA
ATOM     28  O   UNL A   1      42.931  44.019  23.952  1.00  0.00    -0.207 OA
BRANCH  26  29
ATOM     29  N   UNL A   1      44.449  42.069  24.192  1.00  0.00    -0.225 NA
ATOM     30  H   UNL A   1      44.634  41.135  23.826  1.00  0.00     0.137 HD
ATOM     31  H   UNL A   1      44.097  41.995  25.147  1.00  0.00     0.137 HD
ENDBRANCH  26  29
ENDBRANCH  21  26
ENDBRANCH  16  20
BRANCH  18  32
ATOM     32  C   UNL A   1      44.460  45.757  17.116  1.00  0.00     0.000 A 
ATOM     33  C   UNL A   1      43.689  44.713  16.592  1.00  0.00     0.010 A 
ATOM     34  C   UNL A   1      43.872  47.008  17.329  1.00  0.00     0.010 A 
ATOM     35  C   UNL A   1      42.352  44.927  16.259  1.00  0.00     0.001 A 
ATOM     36  C   UNL A   1      42.533  47.220  17.001  1.00  0.00     0.001 A 
ATOM     37  C   UNL A   1      41.776  46.180  16.464  1.00  0.00     0.000 A 
ENDBRANCH  18  32
ENDBRANCH  12  15
ENDBRANCH  10  11
ENDBRANCH   9  10
ENDBRANCH   8   9
ENDBRANCH   7   8
ENDBRANCH   6   7
ENDBRANCH   5   6
ENDBRANCH   4   5
ENDBRANCH   3   4
ENDBRANCH   2   3
ENDBRANCH   1   2
BRANCH   1  38
ATOM     38  C   UNL A   1      46.204  44.598  26.354  1.00  0.00     0.305 C 
ATOM     39  O   UNL A   1      45.714  44.904  25.273  1.00  0.00    -0.252 OA
BRANCH  38  40
ATOM     40  O   UNL A   1      45.581  43.861  27.301  1.00  0.00    -0.463 OA
BRANCH  40  41
ATOM     41  C   UNL A   1      45.079  44.524  28.468  1.00  0.00     0.261 C 
BRANCH  41  42
ATOM     42  C   UNL A   1      45.515  43.822  29.762  1.00  0.00     0.202 C 
BRANCH  42  43
ATOM     43  O   UNL A   1      44.584  42.890  30.311  1.00  0.00    -0.376 OA
BRANCH  43  44
ATOM     44  C   UNL A   1      44.122  43.150  31.640  1.00  0.00     0.188 C 
BRANCH  44  45
ATOM     45  C   UNL A   1      42.744  42.574  31.970  1.00  0.00     0.188 C 
BRANCH  45  46
ATOM     46  O   UNL A   1      42.680  41.871  33.199  1.00  0.00    -0.376 OA
BRANCH  46  47
ATOM     47  C   UNL A   1      43.048  40.500  33.330  1.00  0.00     0.202 C 
BRANCH  47  48
ATOM     48  C   UNL A   1      44.372  39.870  32.872  1.00  0.00     0.261 C 
BRANCH  48  49
ATOM     49  O   UNL A   1      44.303  38.618  32.236  1.00  0.00    -0.460 OA
BRANCH  49  50
ATOM     50  C   UNL A   1      44.337  38.594  30.892  1.00  0.00     0.338 C 
ATOM     51  O   UNL A   1      44.347  39.542  30.129  1.00  0.00    -0.246 OA
BRANCH  50  52
ATOM     52  C   UNL A   1      44.355  37.168  30.521  1.00  0.00     0.060 A 
ATOM     53  C   UNL A   1      43.920  36.838  29.243  1.00  0.00     0.016 A 
ATOM     54  C   UNL A   1      44.573  36.189  31.509  1.00  0.00     0.016 A 
ATOM     55  C   UNL A   1      43.382  35.586  29.064  1.00  0.00     0.010 A 
ATOM     56  C   UNL A   1      44.020  34.952  31.340  1.00  0.00     0.010 A 
ATOM     57  C   UNL A   1      43.319  34.722  30.166  1.00  0.00    -0.014 A 
BRANCH  57  58
ATOM     58  C   UNL A   1      42.546  33.511  30.045  1.00  0.00     0.031 A 
ATOM     59  C   UNL A   1      41.104  33.777  30.178  1.00  0.00     0.074 A 
ATOM     60  C   UNL A   1      43.121  32.326  29.763  1.00  0.00     0.049 A 
ATOM     61  N   UNL A   1      40.341  33.452  31.165  1.00  0.00    -0.248 NA
ATOM     62  C   UNL A   1      40.486  34.707  29.215  1.00  0.00     0.031 C 
ATOM     63  C   UNL A   1      44.510  32.055  29.376  1.00  0.00     0.029 A 
ATOM     64  N   UNL A   1      42.542  31.097  29.677  1.00  0.00    -0.354 N 
ATOM     65  C   UNL A   1      39.082  33.911  30.806  1.00  0.00     0.074 A 
ATOM     66  C   UNL A   1      39.274  34.863  29.745  1.00  0.00     0.031 C 
ATOM     67  C   UNL A   1      44.602  30.800  28.875  1.00  0.00     0.029 A 
ATOM     68  C   UNL A   1      43.321  30.136  29.029  1.00  0.00     0.049 A 
ATOM     69  H   UNL A   1      41.649  30.902  30.042  1.00  0.00     0.167 HD
ATOM     70  C   UNL A   1      37.977  33.206  31.163  1.00  0.00     0.037 A 
ATOM     71  C   UNL A   1      42.872  28.929  28.594  1.00  0.00     0.037 A 
ATOM     72  C   UNL A   1      38.242  32.365  32.306  1.00  0.00     0.049 A 
ATOM     73  C   UNL A   1      41.611  28.641  29.331  1.00  0.00     0.074 A 
ATOM     74  C   UNL A   1      38.722  32.602  33.581  1.00  0.00     0.029 A 
ATOM     75  N   UNL A   1      38.409  31.018  32.091  1.00  0.00    -0.354 N 
ATOM     76  N   UNL A   1      41.564  28.388  30.609  1.00  0.00    -0.248 NA
ATOM     77  C   UNL A   1      40.374  29.133  28.741  1.00  0.00     0.031 C 
ATOM     78  C   UNL A   1      39.594  31.508  33.858  1.00  0.00     0.029 A 
ATOM     79  C   UNL A   1      39.528  30.624  32.781  1.00  0.00     0.049 A 
ATOM     80  H   UNL A   1      37.831  30.441  31.542  1.00  0.00     0.167 HD
ATOM     81  C   UNL A   1      40.462  29.095  31.065  1.00  0.00     0.074 A 
ATOM     82  C   UNL A   1      39.739  29.495  29.858  1.00  0.00     0.031 C 
ATOM     83  C   UNL A   1      40.395  29.553  32.349  1.00  0.00     0.037 A 
BRANCH  70  84
ATOM     84  C   UNL A   1      36.837  32.972  30.206  1.00  0.00     0.057 A 
ATOM     85  C   UNL A   1      35.530  33.262  30.618  1.00  0.00     0.134 A 
ATOM     86  C   UNL A   1      36.938  32.223  29.011  1.00  0.00     0.134 A 
ATOM     87  F   UNL A   1      35.302  33.928  31.760  1.00  0.00    -0.206 F 
ATOM     88  C   UNL A   1      34.408  32.804  29.917  1.00  0.00     0.040 A 
ATOM     89  C   UNL A   1      35.829  31.813  28.273  1.00  0.00     0.040 A 
ATOM     90  F   UNL A   1      38.102  31.755  28.544  1.00  0.00    -0.206 F 
ATOM     91  C   UNL A   1      34.555  32.079  28.741  1.00  0.00     0.006 A 
ENDBRANCH  70  84
BRANCH  71  92
ATOM     92  C   UNL A   1      43.216  28.193  27.349  1.00  0.00     0.057 A 
ATOM     93  C   UNL A   1      43.901  26.967  27.407  1.00  0.00     0.134 A 
ATOM     94  C   UNL A   1      42.621  28.503  26.114  1.00  0.00     0.134 A 
ATOM     95  F   UNL A   1      44.474  26.560  28.549  1.00  0.00    -0.206 F 
ATOM     96  C   UNL A   1      43.950  26.084  26.319  1.00  0.00     0.040 A 
ATOM     97  C   UNL A   1      42.670  27.633  25.019  1.00  0.00     0.040 A 
ATOM     98  F   UNL A   1      41.891  29.615  25.954  1.00  0.00    -0.206 F 
ATOM     99  C   UNL A   1      43.319  26.409  25.123  1.00  0.00     0.006 A 
ENDBRANCH  71  92
BRANCH  83 100
ATOM    100  C   UNL A   1      41.430  29.069  33.331  1.00  0.00     0.057 A 
ATOM    101  C   UNL A   1      42.577  29.790  33.701  1.00  0.00     0.134 A 
ATOM    102  C   UNL A   1      41.175  27.888  34.035  1.00  0.00     0.134 A 
ATOM    103  F   UNL A   1      42.856  30.981  33.156  1.00  0.00    -0.206 F 
ATOM    104  C   UNL A   1      43.449  29.329  34.696  1.00  0.00     0.040 A 
ATOM    105  C   UNL A   1      42.016  27.436  35.053  1.00  0.00     0.040 A 
ATOM    106  F   UNL A   1      40.070  27.172  33.774  1.00  0.00    -0.206 F 
ATOM    107  C   UNL A   1      43.164  28.151  35.380  1.00  0.00     0.006 A 
ENDBRANCH  83 100
ENDBRANCH  57  58
ENDBRANCH  50  52
ENDBRANCH  49  50
ENDBRANCH  48  49
ENDBRANCH  47  48
ENDBRANCH  46  47
ENDBRANCH  45  46
ENDBRANCH  44  45
ENDBRANCH  43  44
ENDBRANCH  42  43
ENDBRANCH  41  42
ENDBRANCH  40  41
ENDBRANCH  38  40
ENDBRANCH   1  38
TORSDOF 32
ENDMDL
