MODEL 1
REMARK VINA RESULT:     -10.7      0.000      0.000
REMARK SMILES O=C(OCCOCCOCCOC(=O)c1csc(C[NH2+][C@H]2CCSc3ccc(F)cc32)c1)c1ccc(-c2c3nc(c(-c4c(F)cccc4F)c4ccc([nH]4)c(-c4c(F)cccc4F)c4nc(c(-c5c(F)cccc5F)c5ccc2[nH]5)C=C4)C=C3)cc1
REMARK SMILES IDX 8 1 7 2 6 3 5 4 4 5 3 6 2 7 1 8 33 9 34 10 86 11 35 12 85 13
REMARK SMILES IDX 36 14 37 15 38 16 79 17 39 18 84 19 78 20 80 21 40 22 83 23
REMARK SMILES IDX 77 24 76 25 41 27 67 28 50 29 66 30 51 31 54 32 65 33 81 34
REMARK SMILES IDX 52 35 53 36 64 38 82 39 55 40 42 41 43 42 48 43 44 44 45 45
REMARK SMILES IDX 47 46 49 47 46 48 68 49 69 50 74 51 70 52 71 53 73 54 75 55
REMARK SMILES IDX 72 56 56 57 57 58 62 59 58 60 59 61 61 62 63 63 60 64 9 65
REMARK SMILES IDX 10 66 11 67 12 68 13 69 14 70 15 71 16 72 32 73 17 74 18 75
REMARK SMILES IDX 19 76 20 77 21 80 22 81 31 82 23 83 25 84 30 85 24 86 26 87
REMARK SMILES IDX 28 88 27 89 29 90
REMARK H PARENT 80 26 54 37 20 78 20 79
REMARK Flexibility Score: inf
ROOT
ATOM      1  C   UNL A   1      44.275  18.722  24.767  1.00  0.00     0.188 C 
ENDROOT
BRANCH   1   2
ATOM      2  C   UNL A   1      45.711  19.247  24.664  1.00  0.00     0.188 C 
BRANCH   2   3
ATOM      3  O   UNL A   1      45.795  20.624  25.066  1.00  0.00    -0.376 OA
BRANCH   3   4
ATOM      4  C   UNL A   1      44.983  21.496  24.271  1.00  0.00     0.202 C 
BRANCH   4   5
ATOM      5  C   UNL A   1      43.852  22.187  25.039  1.00  0.00     0.261 C 
BRANCH   5   6
ATOM      6  O   UNL A   1      43.670  23.554  24.644  1.00  0.00    -0.460 OA
BRANCH   6   7
ATOM      7  C   UNL A   1      44.300  24.665  25.095  1.00  0.00     0.338 C 
ATOM      8  O   UNL A   1      45.416  24.909  24.632  1.00  0.00    -0.246 OA
BRANCH   7   9
ATOM      9  C   UNL A   1      43.759  25.624  26.121  1.00  0.00     0.060 A 
ATOM     10  C   UNL A   1      42.728  25.135  26.951  1.00  0.00     0.016 A 
ATOM     11  C   UNL A   1      44.160  26.948  26.317  1.00  0.00     0.016 A 
ATOM     12  C   UNL A   1      42.153  25.925  27.955  1.00  0.00     0.010 A 
ATOM     13  C   UNL A   1      43.611  27.733  27.332  1.00  0.00     0.010 A 
ATOM     14  C   UNL A   1      42.608  27.229  28.160  1.00  0.00    -0.014 A 
BRANCH  14  15
ATOM     15  C   UNL A   1      42.169  28.043  29.311  1.00  0.00     0.031 A 
ATOM     16  C   UNL A   1      42.714  27.817  30.687  1.00  0.00     0.074 A 
ATOM     17  C   UNL A   1      41.123  28.866  29.127  1.00  0.00     0.049 A 
ATOM     18  N   UNL A   1      42.431  28.441  31.801  1.00  0.00    -0.248 NA
ATOM     19  C   UNL A   1      43.683  26.726  30.839  1.00  0.00     0.031 C 
ATOM     20  C   UNL A   1      40.420  29.062  27.858  1.00  0.00     0.029 A 
ATOM     21  N   UNL A   1      40.425  29.629  30.023  1.00  0.00    -0.354 N 
ATOM     22  C   UNL A   1      43.246  27.870  32.768  1.00  0.00     0.074 A 
ATOM     23  C   UNL A   1      43.957  26.784  32.134  1.00  0.00     0.031 C 
ATOM     24  C   UNL A   1      39.354  29.847  28.069  1.00  0.00     0.029 A 
ATOM     25  C   UNL A   1      39.306  30.207  29.482  1.00  0.00     0.049 A 
ATOM     26  H   UNL A   1      40.698  29.750  30.960  1.00  0.00     0.167 HD
ATOM     27  C   UNL A   1      43.403  28.236  34.063  1.00  0.00     0.037 A 
ATOM     28  C   UNL A   1      38.336  30.930  30.068  1.00  0.00     0.037 A 
ATOM     29  C   UNL A   1      42.606  29.244  34.708  1.00  0.00     0.049 A 
ATOM     30  C   UNL A   1      38.451  31.259  31.525  1.00  0.00     0.074 A 
ATOM     31  C   UNL A   1      42.718  29.759  35.986  1.00  0.00     0.029 A 
ATOM     32  N   UNL A   1      41.502  29.849  34.126  1.00  0.00    -0.354 N 
ATOM     33  N   UNL A   1      39.367  30.882  32.384  1.00  0.00    -0.248 NA
ATOM     34  C   UNL A   1      37.414  32.131  32.088  1.00  0.00     0.031 C 
ATOM     35  C   UNL A   1      41.636  30.625  36.200  1.00  0.00     0.029 A 
ATOM     36  C   UNL A   1      40.876  30.676  35.041  1.00  0.00     0.049 A 
ATOM     37  H   UNL A   1      41.207  29.711  33.196  1.00  0.00     0.167 HD
ATOM     38  C   UNL A   1      39.030  31.482  33.588  1.00  0.00     0.074 A 
ATOM     39  C   UNL A   1      37.827  32.257  33.342  1.00  0.00     0.031 C 
ATOM     40  C   UNL A   1      39.662  31.409  34.786  1.00  0.00     0.037 A 
BRANCH  27  41
ATOM     41  C   UNL A   1      44.482  27.547  34.841  1.00  0.00     0.057 A 
ATOM     42  C   UNL A   1      44.233  26.366  35.549  1.00  0.00     0.134 A 
ATOM     43  C   UNL A   1      45.782  28.071  34.895  1.00  0.00     0.134 A 
ATOM     44  F   UNL A   1      43.012  25.812  35.545  1.00  0.00    -0.206 F 
ATOM     45  C   UNL A   1      45.241  25.726  36.274  1.00  0.00     0.040 A 
ATOM     46  C   UNL A   1      46.802  27.430  35.600  1.00  0.00     0.040 A 
ATOM     47  F   UNL A   1      46.085  29.204  34.243  1.00  0.00    -0.206 F 
ATOM     48  C   UNL A   1      46.532  26.252  36.293  1.00  0.00     0.006 A 
ENDBRANCH  27  41
BRANCH  28  49
ATOM     49  C   UNL A   1      37.196  31.392  29.246  1.00  0.00     0.057 A 
ATOM     50  C   UNL A   1      37.172  32.682  28.700  1.00  0.00     0.134 A 
ATOM     51  C   UNL A   1      36.072  30.584  29.056  1.00  0.00     0.134 A 
ATOM     52  F   UNL A   1      38.215  33.509  28.868  1.00  0.00    -0.206 F 
ATOM     53  C   UNL A   1      36.060  33.158  28.005  1.00  0.00     0.040 A 
ATOM     54  C   UNL A   1      34.960  31.041  28.349  1.00  0.00     0.040 A 
ATOM     55  F   UNL A   1      36.045  29.340  29.554  1.00  0.00    -0.206 F 
ATOM     56  C   UNL A   1      34.949  32.334  27.828  1.00  0.00     0.006 A 
ENDBRANCH  28  49
BRANCH  40  57
ATOM     57  C   UNL A   1      39.044  32.164  35.920  1.00  0.00     0.057 A 
ATOM     58  C   UNL A   1      38.160  31.536  36.805  1.00  0.00     0.134 A 
ATOM     59  C   UNL A   1      39.313  33.523  36.121  1.00  0.00     0.134 A 
ATOM     60  F   UNL A   1      37.859  30.237  36.662  1.00  0.00    -0.206 F 
ATOM     61  C   UNL A   1      37.561  32.237  37.852  1.00  0.00     0.040 A 
ATOM     62  C   UNL A   1      38.736  34.229  37.177  1.00  0.00     0.040 A 
ATOM     63  F   UNL A   1      40.165  34.175  35.316  1.00  0.00    -0.206 F 
ATOM     64  C   UNL A   1      37.852  33.586  38.044  1.00  0.00     0.006 A 
ENDBRANCH  40  57
ENDBRANCH  14  15
ENDBRANCH   7   9
ENDBRANCH   6   7
ENDBRANCH   5   6
ENDBRANCH   4   5
ENDBRANCH   3   4
ENDBRANCH   2   3
ENDBRANCH   1   2
BRANCH   1  65
ATOM     65  O   UNL A   1      43.899  18.187  26.041  1.00  0.00    -0.376 OA
BRANCH  65  66
ATOM     66  C   UNL A   1      42.520  18.258  26.385  1.00  0.00     0.202 C 
BRANCH  66  67
ATOM     67  C   UNL A   1      42.028  19.583  26.979  1.00  0.00     0.261 C 
BRANCH  67  68
ATOM     68  O   UNL A   1      41.062  20.273  26.167  1.00  0.00    -0.460 OA
BRANCH  68  69
ATOM     69  C   UNL A   1      40.508  21.377  26.752  1.00  0.00     0.339 C 
ATOM     70  O   UNL A   1      40.990  21.959  27.716  1.00  0.00    -0.246 OA
BRANCH  69  71
ATOM     71  C   UNL A   1      39.240  21.806  26.155  1.00  0.00     0.071 A 
ATOM     72  C   UNL A   1      38.502  20.920  25.389  1.00  0.00     0.081 A 
ATOM     73  C   UNL A   1      38.547  23.066  26.258  1.00  0.00     0.037 A 
ATOM     74  S   UNL A   1      37.027  21.561  24.839  1.00  0.00    -0.142 S 
ATOM     75  C   UNL A   1      37.302  23.050  25.642  1.00  0.00     0.060 A 
BRANCH  75  76
ATOM     76  C   UNL A   1      36.189  24.059  25.691  1.00  0.00     0.308 C 
BRANCH  76  77
ATOM     77  N   UNL A   1      34.853  23.463  25.622  1.00  0.00    -0.336 N 
ATOM     78  H   UNL A   1      34.400  23.578  26.528  1.00  0.00     0.347 HD
ATOM     79  H   UNL A   1      34.974  22.480  25.376  1.00  0.00     0.347 HD
BRANCH  77  80
ATOM     80  C   UNL A   1      33.989  24.075  24.579  1.00  0.00     0.215 C 
ATOM     81  C   UNL A   1      33.176  23.011  23.811  1.00  0.00     0.081 C 
ATOM     82  C   UNL A   1      33.140  25.215  25.152  1.00  0.00     0.026 A 
ATOM     83  C   UNL A   1      32.219  23.622  22.808  1.00  0.00     0.081 C 
ATOM     84  C   UNL A   1      31.784  25.422  24.816  1.00  0.00     0.017 A 
ATOM     85  C   UNL A   1      33.760  26.171  25.987  1.00  0.00     0.050 A 
ATOM     86  S   UNL A   1      30.854  24.387  23.699  1.00  0.00    -0.125 SA
ATOM     87  C   UNL A   1      31.075  26.514  25.349  1.00  0.00     0.018 A 
ATOM     88  C   UNL A   1      33.044  27.257  26.488  1.00  0.00     0.123 A 
ATOM     89  C   UNL A   1      31.705  27.432  26.184  1.00  0.00     0.040 A 
ATOM     90  F   UNL A   1      33.662  28.159  27.261  1.00  0.00    -0.207 F 
ENDBRANCH  77  80
ENDBRANCH  76  77
ENDBRANCH  75  76
ENDBRANCH  69  71
ENDBRANCH  68  69
ENDBRANCH  67  68
ENDBRANCH  66  67
ENDBRANCH  65  66
ENDBRANCH   1  65
TORSDOF 20
ENDMDL
MODEL 2
REMARK VINA RESULT:     -10.6      1.200      2.044
REMARK SMILES O=C(OCCOCCOCCOC(=O)c1csc(C[NH2+][C@H]2CCSc3ccc(F)cc32)c1)c1ccc(-c2c3nc(c(-c4c(F)cccc4F)c4ccc([nH]4)c(-c4c(F)cccc4F)c4nc(c(-c5c(F)cccc5F)c5ccc2[nH]5)C=C4)C=C3)cc1
REMARK SMILES IDX 8 1 7 2 6 3 5 4 4 5 3 6 2 7 1 8 33 9 34 10 86 11 35 12 85 13
REMARK SMILES IDX 36 14 37 15 38 16 79 17 39 18 84 19 78 20 80 21 40 22 83 23
REMARK SMILES IDX 77 24 76 25 41 27 67 28 50 29 66 30 51 31 54 32 65 33 81 34
REMARK SMILES IDX 52 35 53 36 64 38 82 39 55 40 42 41 43 42 48 43 44 44 45 45
REMARK SMILES IDX 47 46 49 47 46 48 68 49 69 50 74 51 70 52 71 53 73 54 75 55
REMARK SMILES IDX 72 56 56 57 57 58 62 59 58 60 59 61 61 62 63 63 60 64 9 65
REMARK SMILES IDX 10 66 11 67 12 68 13 69 14 70 15 71 16 72 32 73 17 74 18 75
REMARK SMILES IDX 19 76 20 77 21 80 22 81 31 82 23 83 25 84 30 85 24 86 26 87
REMARK SMILES IDX 28 88 27 89 29 90
REMARK H PARENT 80 26 54 37 20 78 20 79
REMARK Flexibility Score: inf
ROOT
ATOM      1  C   UNL A   1      44.108  18.749  24.655  1.00  0.00     0.188 C 
ENDROOT
BRANCH   1   2
ATOM      2  C   UNL A   1      45.475  19.326  24.274  1.00  0.00     0.188 C 
BRANCH   2   3
ATOM      3  O   UNL A   1      45.596  20.700  24.680  1.00  0.00    -0.376 OA
BRANCH   3   4
ATOM      4  C   UNL A   1      44.676  21.570  24.012  1.00  0.00     0.202 C 
BRANCH   4   5
ATOM      5  C   UNL A   1      43.777  22.384  24.948  1.00  0.00     0.261 C 
BRANCH   5   6
ATOM      6  O   UNL A   1      43.694  23.766  24.572  1.00  0.00    -0.460 OA
BRANCH   6   7
ATOM      7  C   UNL A   1      44.329  24.836  25.106  1.00  0.00     0.338 C 
ATOM      8  O   UNL A   1      45.479  25.059  24.724  1.00  0.00    -0.246 OA
BRANCH   7   9
ATOM      9  C   UNL A   1      43.755  25.773  26.134  1.00  0.00     0.060 A 
ATOM     10  C   UNL A   1      42.894  25.197  27.093  1.00  0.00     0.016 A 
ATOM     11  C   UNL A   1      43.972  27.150  26.221  1.00  0.00     0.016 A 
ATOM     12  C   UNL A   1      42.310  25.960  28.112  1.00  0.00     0.010 A 
ATOM     13  C   UNL A   1      43.415  27.913  27.248  1.00  0.00     0.010 A 
ATOM     14  C   UNL A   1      42.584  27.326  28.202  1.00  0.00    -0.014 A 
BRANCH  14  15
ATOM     15  C   UNL A   1      42.144  28.142  29.352  1.00  0.00     0.031 A 
ATOM     16  C   UNL A   1      42.702  27.932  30.724  1.00  0.00     0.074 A 
ATOM     17  C   UNL A   1      41.087  28.952  29.170  1.00  0.00     0.049 A 
ATOM     18  N   UNL A   1      42.420  28.560  31.837  1.00  0.00    -0.248 NA
ATOM     19  C   UNL A   1      43.686  26.854  30.876  1.00  0.00     0.031 C 
ATOM     20  C   UNL A   1      40.372  29.130  27.906  1.00  0.00     0.029 A 
ATOM     21  N   UNL A   1      40.387  29.712  30.066  1.00  0.00    -0.354 N 
ATOM     22  C   UNL A   1      43.249  28.005  32.801  1.00  0.00     0.074 A 
ATOM     23  C   UNL A   1      43.969  26.923  32.168  1.00  0.00     0.031 C 
ATOM     24  C   UNL A   1      39.298  29.905  28.119  1.00  0.00     0.029 A 
ATOM     25  C   UNL A   1      39.257  30.273  29.530  1.00  0.00     0.049 A 
ATOM     26  H   UNL A   1      40.666  29.843  31.001  1.00  0.00     0.167 HD
ATOM     27  C   UNL A   1      43.412  28.382  34.092  1.00  0.00     0.037 A 
ATOM     28  C   UNL A   1      38.282  30.988  30.119  1.00  0.00     0.037 A 
ATOM     29  C   UNL A   1      42.608  29.384  34.736  1.00  0.00     0.049 A 
ATOM     30  C   UNL A   1      38.405  31.328  31.573  1.00  0.00     0.074 A 
ATOM     31  C   UNL A   1      42.723  29.909  36.011  1.00  0.00     0.029 A 
ATOM     32  N   UNL A   1      41.492  29.972  34.159  1.00  0.00    -0.354 N 
ATOM     33  N   UNL A   1      39.331  30.967  32.427  1.00  0.00    -0.248 NA
ATOM     34  C   UNL A   1      37.362  32.191  32.138  1.00  0.00     0.031 C 
ATOM     35  C   UNL A   1      41.633  30.763  36.227  1.00  0.00     0.029 A 
ATOM     36  C   UNL A   1      40.863  30.797  35.074  1.00  0.00     0.049 A 
ATOM     37  H   UNL A   1      41.192  29.824  33.233  1.00  0.00     0.167 HD
ATOM     38  C   UNL A   1      38.997  31.572  33.630  1.00  0.00     0.074 A 
ATOM     39  C   UNL A   1      37.783  32.330  33.389  1.00  0.00     0.031 C 
ATOM     40  C   UNL A   1      39.639  31.514  34.823  1.00  0.00     0.037 A 
BRANCH  27  41
ATOM     41  C   UNL A   1      44.505  27.711  34.866  1.00  0.00     0.057 A 
ATOM     42  C   UNL A   1      44.299  26.487  35.513  1.00  0.00     0.134 A 
ATOM     43  C   UNL A   1      45.775  28.295  34.978  1.00  0.00     0.134 A 
ATOM     44  F   UNL A   1      43.108  25.875  35.451  1.00  0.00    -0.206 F 
ATOM     45  C   UNL A   1      45.321  25.864  36.234  1.00  0.00     0.040 A 
ATOM     46  C   UNL A   1      46.809  27.672  35.680  1.00  0.00     0.040 A 
ATOM     47  F   UNL A   1      46.036  29.471  34.387  1.00  0.00    -0.206 F 
ATOM     48  C   UNL A   1      46.582  26.452  36.312  1.00  0.00     0.006 A 
ENDBRANCH  27  41
BRANCH  28  49
ATOM     49  C   UNL A   1      37.131  31.431  29.303  1.00  0.00     0.057 A 
ATOM     50  C   UNL A   1      37.048  32.743  28.818  1.00  0.00     0.134 A 
ATOM     51  C   UNL A   1      36.052  30.577  29.058  1.00  0.00     0.134 A 
ATOM     52  F   UNL A   1      38.044  33.612  29.040  1.00  0.00    -0.206 F 
ATOM     53  C   UNL A   1      35.921  33.195  28.130  1.00  0.00     0.040 A 
ATOM     54  C   UNL A   1      34.927  31.011  28.357  1.00  0.00     0.040 A 
ATOM     55  F   UNL A   1      36.082  29.311  29.497  1.00  0.00    -0.206 F 
ATOM     56  C   UNL A   1      34.857  32.326  27.898  1.00  0.00     0.006 A 
ENDBRANCH  28  49
BRANCH  40  57
ATOM     57  C   UNL A   1      39.020  32.269  35.957  1.00  0.00     0.057 A 
ATOM     58  C   UNL A   1      39.317  33.621  36.168  1.00  0.00     0.134 A 
ATOM     59  C   UNL A   1      38.143  31.646  36.854  1.00  0.00     0.134 A 
ATOM     60  F   UNL A   1      40.153  34.272  35.345  1.00  0.00    -0.206 F 
ATOM     61  C   UNL A   1      38.765  34.328  37.236  1.00  0.00     0.040 A 
ATOM     62  C   UNL A   1      37.568  32.349  37.913  1.00  0.00     0.040 A 
ATOM     63  F   UNL A   1      37.808  30.358  36.694  1.00  0.00    -0.206 F 
ATOM     64  C   UNL A   1      37.883  33.693  38.109  1.00  0.00     0.006 A 
ENDBRANCH  40  57
ENDBRANCH  14  15
ENDBRANCH   7   9
ENDBRANCH   6   7
ENDBRANCH   5   6
ENDBRANCH   4   5
ENDBRANCH   3   4
ENDBRANCH   2   3
ENDBRANCH   1   2
BRANCH   1  65
ATOM     65  O   UNL A   1      43.974  18.310  26.012  1.00  0.00    -0.376 OA
BRANCH  65  66
ATOM     66  C   UNL A   1      42.657  18.273  26.547  1.00  0.00     0.202 C 
BRANCH  66  67
ATOM     67  C   UNL A   1      42.100  19.594  27.093  1.00  0.00     0.261 C 
BRANCH  67  68
ATOM     68  O   UNL A   1      41.112  20.213  26.250  1.00  0.00    -0.460 OA
BRANCH  68  69
ATOM     69  C   UNL A   1      40.625  21.400  26.718  1.00  0.00     0.339 C 
ATOM     70  O   UNL A   1      41.191  22.094  27.556  1.00  0.00    -0.246 OA
BRANCH  69  71
ATOM     71  C   UNL A   1      39.323  21.781  26.164  1.00  0.00     0.071 A 
ATOM     72  C   UNL A   1      38.569  20.850  25.470  1.00  0.00     0.081 A 
ATOM     73  C   UNL A   1      38.610  23.031  26.249  1.00  0.00     0.037 A 
ATOM     74  S   UNL A   1      37.057  21.441  24.964  1.00  0.00    -0.142 S 
ATOM     75  C   UNL A   1      37.338  22.966  25.693  1.00  0.00     0.060 A 
BRANCH  75  76
ATOM     76  C   UNL A   1      36.208  23.956  25.753  1.00  0.00     0.308 C 
BRANCH  76  77
ATOM     77  N   UNL A   1      34.977  23.406  26.324  1.00  0.00    -0.336 N 
ATOM     78  H   UNL A   1      34.893  23.731  27.286  1.00  0.00     0.347 HD
ATOM     79  H   UNL A   1      35.046  22.389  26.267  1.00  0.00     0.347 HD
BRANCH  77  80
ATOM     80  C   UNL A   1      33.753  23.807  25.581  1.00  0.00     0.215 C 
ATOM     81  C   UNL A   1      33.931  25.170  24.878  1.00  0.00     0.081 C 
ATOM     82  C   UNL A   1      33.266  22.687  24.656  1.00  0.00     0.026 A 
ATOM     83  C   UNL A   1      32.730  25.552  24.038  1.00  0.00     0.081 C 
ATOM     84  C   UNL A   1      32.786  22.911  23.347  1.00  0.00     0.017 A 
ATOM     85  C   UNL A   1      33.198  21.370  25.161  1.00  0.00     0.050 A 
ATOM     86  S   UNL A   1      32.694  24.514  22.568  1.00  0.00    -0.125 SA
ATOM     87  C   UNL A   1      32.316  21.839  22.566  1.00  0.00     0.018 A 
ATOM     88  C   UNL A   1      32.709  20.326  24.377  1.00  0.00     0.123 A 
ATOM     89  C   UNL A   1      32.276  20.547  23.081  1.00  0.00     0.040 A 
ATOM     90  F   UNL A   1      32.637  19.090  24.888  1.00  0.00    -0.207 F 
ENDBRANCH  77  80
ENDBRANCH  76  77
ENDBRANCH  75  76
ENDBRANCH  69  71
ENDBRANCH  68  69
ENDBRANCH  67  68
ENDBRANCH  66  67
ENDBRANCH  65  66
ENDBRANCH   1  65
TORSDOF 20
ENDMDL
MODEL 3
REMARK VINA RESULT:     -10.3      1.690      2.717
REMARK SMILES O=C(OCCOCCOCCOC(=O)c1csc(C[NH2+][C@H]2CCSc3ccc(F)cc32)c1)c1ccc(-c2c3nc(c(-c4c(F)cccc4F)c4ccc([nH]4)c(-c4c(F)cccc4F)c4nc(c(-c5c(F)cccc5F)c5ccc2[nH]5)C=C4)C=C3)cc1
REMARK SMILES IDX 8 1 7 2 6 3 5 4 4 5 3 6 2 7 1 8 33 9 34 10 86 11 35 12 85 13
REMARK SMILES IDX 36 14 37 15 38 16 79 17 39 18 84 19 78 20 80 21 40 22 83 23
REMARK SMILES IDX 77 24 76 25 41 27 67 28 50 29 66 30 51 31 54 32 65 33 81 34
REMARK SMILES IDX 52 35 53 36 64 38 82 39 55 40 42 41 43 42 48 43 44 44 45 45
REMARK SMILES IDX 47 46 49 47 46 48 68 49 69 50 74 51 70 52 71 53 73 54 75 55
REMARK SMILES IDX 72 56 56 57 57 58 62 59 58 60 59 61 61 62 63 63 60 64 9 65
REMARK SMILES IDX 10 66 11 67 12 68 13 69 14 70 15 71 16 72 32 73 17 74 18 75
REMARK SMILES IDX 19 76 20 77 21 80 22 81 31 82 23 83 25 84 30 85 24 86 26 87
REMARK SMILES IDX 28 88 27 89 29 90
REMARK H PARENT 80 26 54 37 20 78 20 79
REMARK Flexibility Score: inf
ROOT
ATOM      1  C   UNL A   1      40.837  20.262  27.000  1.00  0.00     0.188 C 
ENDROOT
BRANCH   1   2
ATOM      2  C   UNL A   1      42.107  20.139  26.151  1.00  0.00     0.188 C 
BRANCH   2   3
ATOM      3  O   UNL A   1      43.041  21.189  26.451  1.00  0.00    -0.376 OA
BRANCH   3   4
ATOM      4  C   UNL A   1      44.240  21.119  25.669  1.00  0.00     0.202 C 
BRANCH   4   5
ATOM      5  C   UNL A   1      45.331  22.108  26.091  1.00  0.00     0.261 C 
BRANCH   5   6
ATOM      6  O   UNL A   1      45.168  23.400  25.490  1.00  0.00    -0.460 OA
BRANCH   6   7
ATOM      7  C   UNL A   1      44.048  24.153  25.372  1.00  0.00     0.338 C 
ATOM      8  O   UNL A   1      43.359  23.986  24.364  1.00  0.00    -0.246 OA
BRANCH   7   9
ATOM      9  C   UNL A   1      43.574  25.182  26.363  1.00  0.00     0.060 A 
ATOM     10  C   UNL A   1      42.452  24.828  27.143  1.00  0.00     0.016 A 
ATOM     11  C   UNL A   1      44.118  26.451  26.571  1.00  0.00     0.016 A 
ATOM     12  C   UNL A   1      41.926  25.693  28.111  1.00  0.00     0.010 A 
ATOM     13  C   UNL A   1      43.617  27.308  27.552  1.00  0.00     0.010 A 
ATOM     14  C   UNL A   1      42.521  26.936  28.330  1.00  0.00    -0.014 A 
BRANCH  14  15
ATOM     15  C   UNL A   1      42.126  27.811  29.453  1.00  0.00     0.031 A 
ATOM     16  C   UNL A   1      42.685  27.626  30.828  1.00  0.00     0.074 A 
ATOM     17  C   UNL A   1      41.102  28.657  29.249  1.00  0.00     0.049 A 
ATOM     18  N   UNL A   1      42.439  28.305  31.919  1.00  0.00    -0.248 NA
ATOM     19  C   UNL A   1      43.623  26.513  31.012  1.00  0.00     0.031 C 
ATOM     20  C   UNL A   1      40.385  28.821  27.983  1.00  0.00     0.029 A 
ATOM     21  N   UNL A   1      40.442  29.478  30.121  1.00  0.00    -0.354 N 
ATOM     22  C   UNL A   1      43.251  27.750  32.897  1.00  0.00     0.074 A 
ATOM     23  C   UNL A   1      43.920  26.617  32.299  1.00  0.00     0.031 C 
ATOM     24  C   UNL A   1      39.346  29.647  28.176  1.00  0.00     0.029 A 
ATOM     25  C   UNL A   1      39.332  30.067  29.573  1.00  0.00     0.049 A 
ATOM     26  H   UNL A   1      40.733  29.630  31.049  1.00  0.00     0.167 HD
ATOM     27  C   UNL A   1      43.439  28.165  34.173  1.00  0.00     0.037 A 
ATOM     28  C   UNL A   1      38.393  30.843  30.142  1.00  0.00     0.037 A 
ATOM     29  C   UNL A   1      42.684  29.223  34.786  1.00  0.00     0.049 A 
ATOM     30  C   UNL A   1      38.541  31.229  31.582  1.00  0.00     0.074 A 
ATOM     31  C   UNL A   1      42.831  29.788  36.040  1.00  0.00     0.029 A 
ATOM     32  N   UNL A   1      41.589  29.837  34.195  1.00  0.00    -0.354 N 
ATOM     33  N   UNL A   1      39.458  30.860  32.443  1.00  0.00    -0.248 NA
ATOM     34  C   UNL A   1      37.540  32.155  32.123  1.00  0.00     0.031 C 
ATOM     35  C   UNL A   1      41.780  30.694  36.233  1.00  0.00     0.029 A 
ATOM     36  C   UNL A   1      41.003  30.720  35.084  1.00  0.00     0.049 A 
ATOM     37  H   UNL A   1      41.276  29.668  33.277  1.00  0.00     0.167 HD
ATOM     38  C   UNL A   1      39.159  31.521  33.625  1.00  0.00     0.074 A 
ATOM     39  C   UNL A   1      37.976  32.321  33.364  1.00  0.00     0.031 C 
ATOM     40  C   UNL A   1      39.807  31.478  34.815  1.00  0.00     0.037 A 
BRANCH  27  41
ATOM     41  C   UNL A   1      44.510  27.476  34.964  1.00  0.00     0.057 A 
ATOM     42  C   UNL A   1      45.846  27.888  34.901  1.00  0.00     0.134 A 
ATOM     43  C   UNL A   1      44.208  26.384  35.790  1.00  0.00     0.134 A 
ATOM     44  F   UNL A   1      46.206  28.922  34.127  1.00  0.00    -0.206 F 
ATOM     45  C   UNL A   1      46.842  27.244  35.639  1.00  0.00     0.040 A 
ATOM     46  C   UNL A   1      45.192  25.745  36.548  1.00  0.00     0.040 A 
ATOM     47  F   UNL A   1      42.947  25.936  35.891  1.00  0.00    -0.206 F 
ATOM     48  C   UNL A   1      46.514  26.175  36.472  1.00  0.00     0.006 A 
ENDBRANCH  27  41
BRANCH  28  49
ATOM     49  C   UNL A   1      37.255  31.305  29.318  1.00  0.00     0.057 A 
ATOM     50  C   UNL A   1      37.247  32.584  28.745  1.00  0.00     0.134 A 
ATOM     51  C   UNL A   1      36.118  30.511  29.153  1.00  0.00     0.134 A 
ATOM     52  F   UNL A   1      38.303  33.397  28.888  1.00  0.00    -0.206 F 
ATOM     53  C   UNL A   1      36.137  33.061  28.047  1.00  0.00     0.040 A 
ATOM     54  C   UNL A   1      35.007  30.970  28.444  1.00  0.00     0.040 A 
ATOM     55  F   UNL A   1      36.074  29.278  29.678  1.00  0.00    -0.206 F 
ATOM     56  C   UNL A   1      35.013  32.251  27.895  1.00  0.00     0.006 A 
ENDBRANCH  28  49
BRANCH  40  57
ATOM     57  C   UNL A   1      39.230  32.299  35.926  1.00  0.00     0.057 A 
ATOM     58  C   UNL A   1      38.270  31.763  36.792  1.00  0.00     0.134 A 
ATOM     59  C   UNL A   1      39.616  33.630  36.122  1.00  0.00     0.134 A 
ATOM     60  F   UNL A   1      37.857  30.494  36.652  1.00  0.00    -0.206 F 
ATOM     61  C   UNL A   1      37.709  32.526  37.815  1.00  0.00     0.040 A 
ATOM     62  C   UNL A   1      39.078  34.397  37.156  1.00  0.00     0.040 A 
ATOM     63  F   UNL A   1      40.544  34.194  35.335  1.00  0.00    -0.206 F 
ATOM     64  C   UNL A   1      38.116  33.847  38.003  1.00  0.00     0.006 A 
ENDBRANCH  40  57
ENDBRANCH  14  15
ENDBRANCH   7   9
ENDBRANCH   6   7
ENDBRANCH   5   6
ENDBRANCH   4   5
ENDBRANCH   3   4
ENDBRANCH   2   3
ENDBRANCH   1   2
BRANCH   1  65
ATOM     65  O   UNL A   1      40.493  21.588  27.414  1.00  0.00    -0.376 OA
BRANCH  65  66
ATOM     66  C   UNL A   1      39.593  22.308  26.580  1.00  0.00     0.202 C 
BRANCH  66  67
ATOM     67  C   UNL A   1      38.737  21.478  25.616  1.00  0.00     0.261 C 
BRANCH  67  68
ATOM     68  O   UNL A   1      37.320  21.583  25.841  1.00  0.00    -0.460 OA
BRANCH  68  69
ATOM     69  C   UNL A   1      36.625  22.192  24.834  1.00  0.00     0.339 C 
ATOM     70  O   UNL A   1      37.102  22.469  23.739  1.00  0.00    -0.246 OA
BRANCH  69  71
ATOM     71  C   UNL A   1      35.243  22.537  25.176  1.00  0.00     0.071 A 
ATOM     72  C   UNL A   1      34.282  21.544  25.255  1.00  0.00     0.081 A 
ATOM     73  C   UNL A   1      34.663  23.814  25.510  1.00  0.00     0.037 A 
ATOM     74  S   UNL A   1      32.753  22.113  25.736  1.00  0.00    -0.142 S 
ATOM     75  C   UNL A   1      33.332  23.719  25.895  1.00  0.00     0.060 A 
BRANCH  75  76
ATOM     76  C   UNL A   1      32.429  24.752  26.510  1.00  0.00     0.308 C 
BRANCH  76  77
ATOM     77  N   UNL A   1      31.356  25.198  25.619  1.00  0.00    -0.336 N 
ATOM     78  H   UNL A   1      30.463  24.919  26.023  1.00  0.00     0.347 HD
ATOM     79  H   UNL A   1      31.519  24.764  24.710  1.00  0.00     0.347 HD
BRANCH  77  80
ATOM     80  C   UNL A   1      31.341  26.670  25.408  1.00  0.00     0.215 C 
ATOM     81  C   UNL A   1      31.577  27.440  26.725  1.00  0.00     0.081 C 
ATOM     82  C   UNL A   1      32.276  27.083  24.267  1.00  0.00     0.026 A 
ATOM     83  C   UNL A   1      31.659  28.938  26.515  1.00  0.00     0.081 C 
ATOM     84  C   UNL A   1      33.112  28.220  24.317  1.00  0.00     0.017 A 
ATOM     85  C   UNL A   1      32.240  26.351  23.059  1.00  0.00     0.050 A 
ATOM     86  S   UNL A   1      33.222  29.328  25.712  1.00  0.00    -0.125 SA
ATOM     87  C   UNL A   1      33.918  28.563  23.216  1.00  0.00     0.018 A 
ATOM     88  C   UNL A   1      33.031  26.721  21.973  1.00  0.00     0.123 A 
ATOM     89  C   UNL A   1      33.876  27.815  22.043  1.00  0.00     0.040 A 
ATOM     90  F   UNL A   1      32.961  26.021  20.833  1.00  0.00    -0.207 F 
ENDBRANCH  77  80
ENDBRANCH  76  77
ENDBRANCH  75  76
ENDBRANCH  69  71
ENDBRANCH  68  69
ENDBRANCH  67  68
ENDBRANCH  66  67
ENDBRANCH  65  66
ENDBRANCH   1  65
TORSDOF 20
ENDMDL
