MODEL 1
REMARK VINA RESULT:     -10.1      0.000      0.000
REMARK SMILES O=C(COC[C@@H]1COc2ccccc2O1)OCCOCCOCCOC(=O)c1ccc(-c2c3nc(c(-c4c(F)cccc4F)c4ccc([nH]4)c(-c4c(F)cccc4F)c4nc(c(-c5c(F)cccc5F)c5ccc2[nH]5)C=C4)C=C3)cc1
REMARK SMILES IDX 20 1 19 2 18 3 17 4 16 5 2 6 1 7 3 8 4 9 5 10 6 11 7 12
REMARK SMILES IDX 15 13 8 14 14 15 9 16 13 17 10 18 12 19 11 20 21 21 22 22
REMARK SMILES IDX 23 23 24 24 25 25 26 26 27 27 28 28 29 29 81 30 30 31 80 32
REMARK SMILES IDX 31 33 32 34 33 35 74 36 34 37 79 38 73 39 75 40 35 41 78 42
REMARK SMILES IDX 72 43 71 44 36 46 62 47 45 48 61 49 46 50 49 51 60 52 76 53
REMARK SMILES IDX 47 54 48 55 59 57 77 58 50 59 37 60 38 61 43 62 39 63 40 64
REMARK SMILES IDX 42 65 44 66 41 67 63 68 64 69 69 70 65 71 66 72 68 73 70 74
REMARK SMILES IDX 67 75 51 76 52 77 57 78 53 79 54 80 56 81 58 82 55 83
REMARK H PARENT 75 45 49 56
REMARK Flexibility Score: inf
ROOT
ATOM      1  C   UNL A   1      38.504  21.583  25.655  1.00  0.00     0.188 C 
ENDROOT
BRANCH   1   2
ATOM      2  O   UNL A   1      37.872  22.620  24.917  1.00  0.00    -0.376 OA
BRANCH   2   3
ATOM      3  C   UNL A   1      37.175  23.579  25.705  1.00  0.00     0.202 C 
BRANCH   3   4
ATOM      4  C   UNL A   1      35.695  23.218  25.834  1.00  0.00     0.261 C 
BRANCH   4   5
ATOM      5  O   UNL A   1      35.136  22.454  24.744  1.00  0.00    -0.462 OA
BRANCH   5   6
ATOM      6  C   UNL A   1      34.569  22.942  23.621  1.00  0.00     0.332 C 
ATOM      7  O   UNL A   1      35.275  23.402  22.725  1.00  0.00    -0.250 OA
BRANCH   6   8
ATOM      8  C   UNL A   1      33.049  23.000  23.535  1.00  0.00     0.282 C 
BRANCH   8   9
ATOM      9  O   UNL A   1      32.310  23.252  24.713  1.00  0.00    -0.366 OA
BRANCH   9  10
ATOM     10  C   UNL A   1      32.211  24.650  25.046  1.00  0.00     0.209 C 
BRANCH  10  11
ATOM     11  C   UNL A   1      30.763  25.082  25.379  1.00  0.00     0.236 C 
ATOM     12  C   UNL A   1      30.074  25.857  24.264  1.00  0.00     0.277 C 
ATOM     13  O   UNL A   1      30.746  25.875  26.583  1.00  0.00    -0.481 OA
ATOM     14  O   UNL A   1      30.772  27.062  23.943  1.00  0.00    -0.486 OA
ATOM     15  C   UNL A   1      31.138  27.169  26.350  1.00  0.00     0.161 A 
ATOM     16  C   UNL A   1      31.154  27.739  25.073  1.00  0.00     0.161 A 
ATOM     17  C   UNL A   1      31.570  27.906  27.451  1.00  0.00     0.050 A 
ATOM     18  C   UNL A   1      31.623  29.038  24.895  1.00  0.00     0.050 A 
ATOM     19  C   UNL A   1      32.041  29.206  27.272  1.00  0.00     0.004 A 
ATOM     20  C   UNL A   1      32.068  29.771  25.995  1.00  0.00     0.004 A 
ENDBRANCH  10  11
ENDBRANCH   9  10
ENDBRANCH   8   9
ENDBRANCH   6   8
ENDBRANCH   5   6
ENDBRANCH   4   5
ENDBRANCH   3   4
ENDBRANCH   2   3
ENDBRANCH   1   2
BRANCH   1  21
ATOM     21  C   UNL A   1      39.930  21.924  26.120  1.00  0.00     0.188 C 
BRANCH  21  22
ATOM     22  O   UNL A   1      41.022  21.146  25.653  1.00  0.00    -0.376 OA
BRANCH  22  23
ATOM     23  C   UNL A   1      42.299  21.335  26.248  1.00  0.00     0.202 C 
BRANCH  23  24
ATOM     24  C   UNL A   1      43.420  21.850  25.343  1.00  0.00     0.261 C 
BRANCH  24  25
ATOM     25  O   UNL A   1      43.065  23.023  24.582  1.00  0.00    -0.460 OA
BRANCH  25  26
ATOM     26  C   UNL A   1      43.805  24.121  24.876  1.00  0.00     0.338 C 
ATOM     27  O   UNL A   1      44.960  24.344  24.561  1.00  0.00    -0.246 OA
BRANCH  26  28
ATOM     28  C   UNL A   1      43.015  25.124  25.610  1.00  0.00     0.060 A 
ATOM     29  C   UNL A   1      43.613  26.358  25.890  1.00  0.00     0.016 A 
ATOM     30  C   UNL A   1      41.812  24.763  26.224  1.00  0.00     0.016 A 
ATOM     31  C   UNL A   1      43.040  27.210  26.837  1.00  0.00     0.010 A 
ATOM     32  C   UNL A   1      41.243  25.618  27.178  1.00  0.00     0.010 A 
ATOM     33  C   UNL A   1      41.880  26.823  27.525  1.00  0.00    -0.014 A 
BRANCH  33  34
ATOM     34  C   UNL A   1      41.446  27.605  28.712  1.00  0.00     0.031 A 
ATOM     35  C   UNL A   1      42.201  27.463  30.010  1.00  0.00     0.074 A 
ATOM     36  C   UNL A   1      40.425  28.476  28.632  1.00  0.00     0.049 A 
ATOM     37  N   UNL A   1      42.015  28.082  31.150  1.00  0.00    -0.248 NA
ATOM     38  C   UNL A   1      43.312  26.500  30.023  1.00  0.00     0.031 C 
ATOM     39  C   UNL A   1      39.621  28.730  27.439  1.00  0.00     0.029 A 
ATOM     40  N   UNL A   1      39.894  29.313  29.583  1.00  0.00    -0.354 N 
ATOM     41  C   UNL A   1      42.993  27.597  32.008  1.00  0.00     0.074 A 
ATOM     42  C   UNL A   1      43.744  26.601  31.272  1.00  0.00     0.031 C 
ATOM     43  C   UNL A   1      38.690  29.655  27.731  1.00  0.00     0.029 A 
ATOM     44  C   UNL A   1      38.827  30.049  29.132  1.00  0.00     0.049 A 
ATOM     45  H   UNL A   1      40.245  29.378  30.500  1.00  0.00     0.167 HD
ATOM     46  C   UNL A   1      43.259  27.956  33.287  1.00  0.00     0.037 A 
ATOM     47  C   UNL A   1      38.045  30.937  29.778  1.00  0.00     0.037 A 
ATOM     48  C   UNL A   1      42.516  28.935  34.037  1.00  0.00     0.049 A 
ATOM     49  C   UNL A   1      38.326  31.282  31.216  1.00  0.00     0.074 A 
ATOM     50  C   UNL A   1      42.716  29.359  35.341  1.00  0.00     0.029 A 
ATOM     51  N   UNL A   1      41.428  29.642  33.551  1.00  0.00    -0.354 N 
ATOM     52  N   UNL A   1      39.271  30.833  32.006  1.00  0.00    -0.248 NA
ATOM     53  C   UNL A   1      37.434  32.266  31.849  1.00  0.00     0.031 C 
ATOM     54  C   UNL A   1      41.727  30.298  35.654  1.00  0.00     0.029 A 
ATOM     55  C   UNL A   1      40.937  30.488  34.533  1.00  0.00     0.049 A 
ATOM     56  H   UNL A   1      41.059  29.556  32.643  1.00  0.00     0.167 HD
ATOM     57  C   UNL A   1      39.101  31.494  33.217  1.00  0.00     0.074 A 
ATOM     58  C   UNL A   1      37.974  32.389  33.052  1.00  0.00     0.031 C 
ATOM     59  C   UNL A   1      39.814  31.372  34.362  1.00  0.00     0.037 A 
BRANCH  46  60
ATOM     60  C   UNL A   1      44.411  27.277  33.967  1.00  0.00     0.057 A 
ATOM     61  C   UNL A   1      44.249  26.056  34.635  1.00  0.00     0.134 A 
ATOM     62  C   UNL A   1      45.699  27.824  33.918  1.00  0.00     0.134 A 
ATOM     63  F   UNL A   1      43.038  25.487  34.727  1.00  0.00    -0.206 F 
ATOM     64  C   UNL A   1      45.326  25.412  35.246  1.00  0.00     0.040 A 
ATOM     65  C   UNL A   1      46.787  27.179  34.507  1.00  0.00     0.040 A 
ATOM     66  F   UNL A   1      45.920  28.988  33.288  1.00  0.00    -0.206 F 
ATOM     67  C   UNL A   1      46.601  25.971  35.177  1.00  0.00     0.006 A 
ENDBRANCH  46  60
BRANCH  47  68
ATOM     68  C   UNL A   1      36.902  31.567  29.072  1.00  0.00     0.057 A 
ATOM     69  C   UNL A   1      36.971  32.885  28.609  1.00  0.00     0.134 A 
ATOM     70  C   UNL A   1      35.702  30.874  28.878  1.00  0.00     0.134 A 
ATOM     71  F   UNL A   1      38.088  33.607  28.790  1.00  0.00    -0.206 F 
ATOM     72  C   UNL A   1      35.879  33.502  27.998  1.00  0.00     0.040 A 
ATOM     73  C   UNL A   1      34.609  31.471  28.250  1.00  0.00     0.040 A 
ATOM     74  F   UNL A   1      35.575  29.608  29.300  1.00  0.00    -0.206 F 
ATOM     75  C   UNL A   1      34.694  32.792  27.814  1.00  0.00     0.006 A 
ENDBRANCH  47  68
BRANCH  59  76
ATOM     76  C   UNL A   1      39.408  32.237  35.520  1.00  0.00     0.057 A 
ATOM     77  C   UNL A   1      38.500  31.793  36.489  1.00  0.00     0.134 A 
ATOM     78  C   UNL A   1      39.944  33.521  35.677  1.00  0.00     0.134 A 
ATOM     79  F   UNL A   1      37.941  30.577  36.390  1.00  0.00    -0.206 F 
ATOM     80  C   UNL A   1      38.119  32.605  37.559  1.00  0.00     0.040 A 
ATOM     81  C   UNL A   1      39.588  34.335  36.754  1.00  0.00     0.040 A 
ATOM     82  F   UNL A   1      40.825  34.005  34.788  1.00  0.00    -0.206 F 
ATOM     83  C   UNL A   1      38.667  33.879  37.696  1.00  0.00     0.006 A 
ENDBRANCH  59  76
ENDBRANCH  33  34
ENDBRANCH  26  28
ENDBRANCH  25  26
ENDBRANCH  24  25
ENDBRANCH  23  24
ENDBRANCH  22  23
ENDBRANCH  21  22
ENDBRANCH   1  21
TORSDOF 20
ENDMDL
MODEL 2
REMARK VINA RESULT:     -10.0      4.597     10.045
REMARK SMILES O=C(COC[C@@H]1COc2ccccc2O1)OCCOCCOCCOC(=O)c1ccc(-c2c3nc(c(-c4c(F)cccc4F)c4ccc([nH]4)c(-c4c(F)cccc4F)c4nc(c(-c5c(F)cccc5F)c5ccc2[nH]5)C=C4)C=C3)cc1
REMARK SMILES IDX 20 1 19 2 18 3 17 4 16 5 2 6 1 7 3 8 4 9 5 10 6 11 7 12
REMARK SMILES IDX 15 13 8 14 14 15 9 16 13 17 10 18 12 19 11 20 21 21 22 22
REMARK SMILES IDX 23 23 24 24 25 25 26 26 27 27 28 28 29 29 81 30 30 31 80 32
REMARK SMILES IDX 31 33 32 34 33 35 74 36 34 37 79 38 73 39 75 40 35 41 78 42
REMARK SMILES IDX 72 43 71 44 36 46 62 47 45 48 61 49 46 50 49 51 60 52 76 53
REMARK SMILES IDX 47 54 48 55 59 57 77 58 50 59 37 60 38 61 43 62 39 63 40 64
REMARK SMILES IDX 42 65 44 66 41 67 63 68 64 69 69 70 65 71 66 72 68 73 70 74
REMARK SMILES IDX 67 75 51 76 52 77 57 78 53 79 54 80 56 81 58 82 55 83
REMARK H PARENT 75 45 49 56
REMARK Flexibility Score: inf
ROOT
ATOM      1  C   UNL A   1      33.028  35.971  29.283  1.00  0.00     0.188 C 
ENDROOT
BRANCH   1   2
ATOM      2  O   UNL A   1      32.830  34.638  28.829  1.00  0.00    -0.376 OA
BRANCH   2   3
ATOM      3  C   UNL A   1      33.876  34.121  28.014  1.00  0.00     0.202 C 
BRANCH   3   4
ATOM      4  C   UNL A   1      34.170  32.660  28.353  1.00  0.00     0.261 C 
BRANCH   4   5
ATOM      5  O   UNL A   1      33.800  31.693  27.346  1.00  0.00    -0.462 OA
BRANCH   5   6
ATOM      6  C   UNL A   1      34.056  30.368  27.364  1.00  0.00     0.332 C 
ATOM      7  O   UNL A   1      35.161  29.960  27.717  1.00  0.00    -0.250 OA
BRANCH   6   8
ATOM      8  C   UNL A   1      32.991  29.410  26.846  1.00  0.00     0.282 C 
BRANCH   8   9
ATOM      9  O   UNL A   1      33.335  28.054  26.643  1.00  0.00    -0.366 OA
BRANCH   9  10
ATOM     10  C   UNL A   1      32.242  27.142  26.863  1.00  0.00     0.209 C 
BRANCH  10  11
ATOM     11  C   UNL A   1      31.898  26.311  25.604  1.00  0.00     0.236 C 
ATOM     12  C   UNL A   1      30.718  25.367  25.787  1.00  0.00     0.277 C 
ATOM     13  O   UNL A   1      33.047  25.551  25.180  1.00  0.00    -0.481 OA
ATOM     14  O   UNL A   1      30.954  24.413  26.824  1.00  0.00    -0.486 OA
ATOM     15  C   UNL A   1      33.226  24.425  25.943  1.00  0.00     0.161 A 
ATOM     16  C   UNL A   1      32.215  23.879  26.740  1.00  0.00     0.161 A 
ATOM     17  C   UNL A   1      34.495  23.848  25.929  1.00  0.00     0.050 A 
ATOM     18  C   UNL A   1      32.479  22.771  27.540  1.00  0.00     0.050 A 
ATOM     19  C   UNL A   1      34.759  22.739  26.732  1.00  0.00     0.004 A 
ATOM     20  C   UNL A   1      33.752  22.201  27.537  1.00  0.00     0.004 A 
ENDBRANCH  10  11
ENDBRANCH   9  10
ENDBRANCH   8   9
ENDBRANCH   6   8
ENDBRANCH   5   6
ENDBRANCH   4   5
ENDBRANCH   3   4
ENDBRANCH   2   3
ENDBRANCH   1   2
BRANCH   1  21
ATOM     21  C   UNL A   1      33.056  36.114  30.813  1.00  0.00     0.188 C 
BRANCH  21  22
ATOM     22  O   UNL A   1      34.008  35.380  31.567  1.00  0.00    -0.376 OA
BRANCH  22  23
ATOM     23  C   UNL A   1      33.638  34.900  32.854  1.00  0.00     0.202 C 
BRANCH  23  24
ATOM     24  C   UNL A   1      34.058  33.473  33.212  1.00  0.00     0.261 C 
BRANCH  24  25
ATOM     25  O   UNL A   1      35.177  32.983  32.445  1.00  0.00    -0.460 OA
BRANCH  25  26
ATOM     26  C   UNL A   1      36.128  32.359  33.185  1.00  0.00     0.338 C 
ATOM     27  O   UNL A   1      36.314  32.452  34.384  1.00  0.00    -0.246 OA
BRANCH  26  28
ATOM     28  C   UNL A   1      36.936  31.442  32.362  1.00  0.00     0.060 A 
ATOM     29  C   UNL A   1      37.967  30.731  32.988  1.00  0.00     0.016 A 
ATOM     30  C   UNL A   1      36.843  31.477  30.968  1.00  0.00     0.016 A 
ATOM     31  C   UNL A   1      38.947  30.104  32.216  1.00  0.00     0.010 A 
ATOM     32  C   UNL A   1      37.831  30.851  30.197  1.00  0.00     0.010 A 
ATOM     33  C   UNL A   1      38.915  30.204  30.816  1.00  0.00    -0.014 A 
BRANCH  33  34
ATOM     34  C   UNL A   1      40.101  29.774  30.031  1.00  0.00     0.031 A 
ATOM     35  C   UNL A   1      41.229  30.747  29.799  1.00  0.00     0.074 A 
ATOM     36  C   UNL A   1      40.209  28.515  29.572  1.00  0.00     0.049 A 
ATOM     37  N   UNL A   1      42.369  30.565  29.179  1.00  0.00    -0.248 NA
ATOM     38  C   UNL A   1      41.049  32.104  30.338  1.00  0.00     0.031 C 
ATOM     39  C   UNL A   1      39.207  27.464  29.740  1.00  0.00     0.029 A 
ATOM     40  N   UNL A   1      41.221  27.909  28.868  1.00  0.00    -0.354 N 
ATOM     41  C   UNL A   1      43.047  31.774  29.268  1.00  0.00     0.074 A 
ATOM     42  C   UNL A   1      42.174  32.696  29.964  1.00  0.00     0.031 C 
ATOM     43  C   UNL A   1      39.651  26.342  29.147  1.00  0.00     0.029 A 
ATOM     44  C   UNL A   1      40.961  26.599  28.550  1.00  0.00     0.049 A 
ATOM     45  H   UNL A   1      42.053  28.370  28.617  1.00  0.00     0.167 HD
ATOM     46  C   UNL A   1      44.289  32.089  28.829  1.00  0.00     0.037 A 
ATOM     47  C   UNL A   1      41.693  25.709  27.851  1.00  0.00     0.037 A 
ATOM     48  C   UNL A   1      45.166  31.187  28.127  1.00  0.00     0.049 A 
ATOM     49  C   UNL A   1      43.050  26.098  27.327  1.00  0.00     0.074 A 
ATOM     50  C   UNL A   1      46.442  31.424  27.643  1.00  0.00     0.029 A 
ATOM     51  N   UNL A   1      44.855  29.876  27.804  1.00  0.00    -0.354 N 
ATOM     52  N   UNL A   1      43.688  27.237  27.441  1.00  0.00    -0.248 NA
ATOM     53  C   UNL A   1      43.792  25.069  26.582  1.00  0.00     0.031 C 
ATOM     54  C   UNL A   1      46.890  30.266  26.999  1.00  0.00     0.029 A 
ATOM     55  C   UNL A   1      45.909  29.296  27.115  1.00  0.00     0.049 A 
ATOM     56  H   UNL A   1      44.011  29.424  28.031  1.00  0.00     0.167 HD
ATOM     57  C   UNL A   1      44.910  27.055  26.805  1.00  0.00     0.074 A 
ATOM     58  C   UNL A   1      44.933  25.690  26.322  1.00  0.00     0.031 C 
ATOM     59  C   UNL A   1      45.923  27.939  26.636  1.00  0.00     0.037 A 
BRANCH  46  60
ATOM     60  C   UNL A   1      44.781  33.481  29.095  1.00  0.00     0.057 A 
ATOM     61  C   UNL A   1      44.459  34.545  28.243  1.00  0.00     0.134 A 
ATOM     62  C   UNL A   1      45.544  33.769  30.233  1.00  0.00     0.134 A 
ATOM     63  F   UNL A   1      43.740  34.330  27.131  1.00  0.00    -0.206 F 
ATOM     64  C   UNL A   1      44.895  35.844  28.504  1.00  0.00     0.040 A 
ATOM     65  C   UNL A   1      45.969  35.068  30.515  1.00  0.00     0.040 A 
ATOM     66  F   UNL A   1      45.881  32.794  31.091  1.00  0.00    -0.206 F 
ATOM     67  C   UNL A   1      45.647  36.109  29.646  1.00  0.00     0.006 A 
ENDBRANCH  46  60
BRANCH  47  68
ATOM     68  C   UNL A   1      41.157  24.350  27.593  1.00  0.00     0.057 A 
ATOM     69  C   UNL A   1      40.142  24.136  26.655  1.00  0.00     0.134 A 
ATOM     70  C   UNL A   1      41.624  23.242  28.308  1.00  0.00     0.134 A 
ATOM     71  F   UNL A   1      39.637  25.166  25.959  1.00  0.00    -0.206 F 
ATOM     72  C   UNL A   1      39.593  22.869  26.451  1.00  0.00     0.040 A 
ATOM     73  C   UNL A   1      41.099  21.966  28.100  1.00  0.00     0.040 A 
ATOM     74  F   UNL A   1      42.595  23.385  29.221  1.00  0.00    -0.206 F 
ATOM     75  C   UNL A   1      40.075  21.779  27.173  1.00  0.00     0.006 A 
ENDBRANCH  47  68
BRANCH  59  76
ATOM     76  C   UNL A   1      47.146  27.453  25.914  1.00  0.00     0.057 A 
ATOM     77  C   UNL A   1      48.207  26.840  26.592  1.00  0.00     0.134 A 
ATOM     78  C   UNL A   1      47.256  27.585  24.524  1.00  0.00     0.134 A 
ATOM     79  F   UNL A   1      48.168  26.694  27.925  1.00  0.00    -0.206 F 
ATOM     80  C   UNL A   1      49.346  26.398  25.917  1.00  0.00     0.040 A 
ATOM     81  C   UNL A   1      48.380  27.128  23.835  1.00  0.00     0.040 A 
ATOM     82  F   UNL A   1      46.272  28.157  23.814  1.00  0.00    -0.206 F 
ATOM     83  C   UNL A   1      49.433  26.538  24.532  1.00  0.00     0.006 A 
ENDBRANCH  59  76
ENDBRANCH  33  34
ENDBRANCH  26  28
ENDBRANCH  25  26
ENDBRANCH  24  25
ENDBRANCH  23  24
ENDBRANCH  22  23
ENDBRANCH  21  22
ENDBRANCH   1  21
TORSDOF 20
ENDMDL
MODEL 3
REMARK VINA RESULT:      -9.9      4.655      9.974
REMARK SMILES O=C(COC[C@@H]1COc2ccccc2O1)OCCOCCOCCOC(=O)c1ccc(-c2c3nc(c(-c4c(F)cccc4F)c4ccc([nH]4)c(-c4c(F)cccc4F)c4nc(c(-c5c(F)cccc5F)c5ccc2[nH]5)C=C4)C=C3)cc1
REMARK SMILES IDX 20 1 19 2 18 3 17 4 16 5 2 6 1 7 3 8 4 9 5 10 6 11 7 12
REMARK SMILES IDX 15 13 8 14 14 15 9 16 13 17 10 18 12 19 11 20 21 21 22 22
REMARK SMILES IDX 23 23 24 24 25 25 26 26 27 27 28 28 29 29 81 30 30 31 80 32
REMARK SMILES IDX 31 33 32 34 33 35 74 36 34 37 79 38 73 39 75 40 35 41 78 42
REMARK SMILES IDX 72 43 71 44 36 46 62 47 45 48 61 49 46 50 49 51 60 52 76 53
REMARK SMILES IDX 47 54 48 55 59 57 77 58 50 59 37 60 38 61 43 62 39 63 40 64
REMARK SMILES IDX 42 65 44 66 41 67 63 68 64 69 69 70 65 71 66 72 68 73 70 74
REMARK SMILES IDX 67 75 51 76 52 77 57 78 53 79 54 80 56 81 58 82 55 83
REMARK H PARENT 75 45 49 56
REMARK Flexibility Score: inf
ROOT
ATOM      1  C   UNL A   1      33.097  35.920  29.309  1.00  0.00     0.188 C 
ENDROOT
BRANCH   1   2
ATOM      2  O   UNL A   1      32.921  34.585  28.853  1.00  0.00    -0.376 OA
BRANCH   2   3
ATOM      3  C   UNL A   1      34.026  34.046  28.136  1.00  0.00     0.202 C 
BRANCH   3   4
ATOM      4  C   UNL A   1      34.290  32.595  28.538  1.00  0.00     0.261 C 
BRANCH   4   5
ATOM      5  O   UNL A   1      34.164  31.617  27.483  1.00  0.00    -0.462 OA
BRANCH   5   6
ATOM      6  C   UNL A   1      34.418  30.295  27.570  1.00  0.00     0.332 C 
ATOM      7  O   UNL A   1      35.344  29.892  28.272  1.00  0.00    -0.250 OA
BRANCH   6   8
ATOM      8  C   UNL A   1      33.605  29.335  26.712  1.00  0.00     0.282 C 
BRANCH   8   9
ATOM      9  O   UNL A   1      34.202  28.124  26.291  1.00  0.00    -0.366 OA
BRANCH   9  10
ATOM     10  C   UNL A   1      33.254  27.069  26.039  1.00  0.00     0.209 C 
BRANCH  10  11
ATOM     11  C   UNL A   1      33.384  26.479  24.615  1.00  0.00     0.236 C 
ATOM     12  C   UNL A   1      33.603  27.523  23.528  1.00  0.00     0.277 C 
ATOM     13  O   UNL A   1      32.215  25.701  24.291  1.00  0.00    -0.481 OA
ATOM     14  O   UNL A   1      32.524  28.457  23.461  1.00  0.00    -0.486 OA
ATOM     15  C   UNL A   1      31.156  26.494  23.926  1.00  0.00     0.161 A 
ATOM     16  C   UNL A   1      31.307  27.827  23.530  1.00  0.00     0.161 A 
ATOM     17  C   UNL A   1      29.886  25.926  24.003  1.00  0.00     0.050 A 
ATOM     18  C   UNL A   1      30.186  28.597  23.233  1.00  0.00     0.050 A 
ATOM     19  C   UNL A   1      28.763  26.699  23.707  1.00  0.00     0.004 A 
ATOM     20  C   UNL A   1      28.913  28.033  23.323  1.00  0.00     0.004 A 
ENDBRANCH  10  11
ENDBRANCH   9  10
ENDBRANCH   8   9
ENDBRANCH   6   8
ENDBRANCH   5   6
ENDBRANCH   4   5
ENDBRANCH   3   4
ENDBRANCH   2   3
ENDBRANCH   1   2
BRANCH   1  21
ATOM     21  C   UNL A   1      33.126  36.061  30.839  1.00  0.00     0.188 C 
BRANCH  21  22
ATOM     22  O   UNL A   1      34.102  35.353  31.589  1.00  0.00    -0.376 OA
BRANCH  22  23
ATOM     23  C   UNL A   1      33.749  34.855  32.872  1.00  0.00     0.202 C 
BRANCH  23  24
ATOM     24  C   UNL A   1      34.204  33.436  33.218  1.00  0.00     0.261 C 
BRANCH  24  25
ATOM     25  O   UNL A   1      35.347  32.987  32.460  1.00  0.00    -0.460 OA
BRANCH  25  26
ATOM     26  C   UNL A   1      36.281  32.335  33.196  1.00  0.00     0.338 C 
ATOM     27  O   UNL A   1      36.463  32.408  34.398  1.00  0.00    -0.246 OA
BRANCH  26  28
ATOM     28  C   UNL A   1      37.077  31.415  32.366  1.00  0.00     0.060 A 
ATOM     29  C   UNL A   1      38.103  30.691  32.983  1.00  0.00     0.016 A 
ATOM     30  C   UNL A   1      36.977  31.457  30.972  1.00  0.00     0.016 A 
ATOM     31  C   UNL A   1      39.073  30.058  32.203  1.00  0.00     0.010 A 
ATOM     32  C   UNL A   1      37.955  30.825  30.193  1.00  0.00     0.010 A 
ATOM     33  C   UNL A   1      39.035  30.164  30.804  1.00  0.00    -0.014 A 
BRANCH  33  34
ATOM     34  C   UNL A   1      40.214  29.726  30.012  1.00  0.00     0.031 A 
ATOM     35  C   UNL A   1      41.346  30.693  29.771  1.00  0.00     0.074 A 
ATOM     36  C   UNL A   1      40.310  28.466  29.552  1.00  0.00     0.049 A 
ATOM     37  N   UNL A   1      42.481  30.502  29.144  1.00  0.00    -0.248 NA
ATOM     38  C   UNL A   1      41.178  32.051  30.310  1.00  0.00     0.031 C 
ATOM     39  C   UNL A   1      39.304  27.422  29.728  1.00  0.00     0.029 A 
ATOM     40  N   UNL A   1      41.314  27.853  28.843  1.00  0.00    -0.354 N 
ATOM     41  C   UNL A   1      43.167  31.707  29.227  1.00  0.00     0.074 A 
ATOM     42  C   UNL A   1      42.304  32.636  29.928  1.00  0.00     0.031 C 
ATOM     43  C   UNL A   1      39.736  26.297  29.133  1.00  0.00     0.029 A 
ATOM     44  C   UNL A   1      41.044  26.545  28.527  1.00  0.00     0.049 A 
ATOM     45  H   UNL A   1      42.147  28.309  28.585  1.00  0.00     0.167 HD
ATOM     46  C   UNL A   1      44.408  32.014  28.779  1.00  0.00     0.037 A 
ATOM     47  C   UNL A   1      41.766  25.650  27.824  1.00  0.00     0.037 A 
ATOM     48  C   UNL A   1      45.274  31.107  28.072  1.00  0.00     0.049 A 
ATOM     49  C   UNL A   1      43.121  26.030  27.290  1.00  0.00     0.074 A 
ATOM     50  C   UNL A   1      46.548  31.335  27.579  1.00  0.00     0.029 A 
ATOM     51  N   UNL A   1      44.953  29.797  27.752  1.00  0.00    -0.354 N 
ATOM     52  N   UNL A   1      43.767  27.165  27.399  1.00  0.00    -0.248 NA
ATOM     53  C   UNL A   1      43.852  24.995  26.541  1.00  0.00     0.031 C 
ATOM     54  C   UNL A   1      46.985  30.174  26.932  1.00  0.00     0.029 A 
ATOM     55  C   UNL A   1      45.998  29.210  27.056  1.00  0.00     0.049 A 
ATOM     56  H   UNL A   1      44.108  29.350  27.985  1.00  0.00     0.167 HD
ATOM     57  C   UNL A   1      44.983  26.975  26.755  1.00  0.00     0.074 A 
ATOM     58  C   UNL A   1      44.995  25.610  26.273  1.00  0.00     0.031 C 
ATOM     59  C   UNL A   1      46.001  27.853  26.578  1.00  0.00     0.037 A 
BRANCH  46  60
ATOM     60  C   UNL A   1      44.910  33.403  29.041  1.00  0.00     0.057 A 
ATOM     61  C   UNL A   1      45.647  33.709  30.192  1.00  0.00     0.134 A 
ATOM     62  C   UNL A   1      44.692  34.432  28.118  1.00  0.00     0.134 A 
ATOM     63  F   UNL A   1      45.878  32.768  31.120  1.00  0.00    -0.206 F 
ATOM     64  C   UNL A   1      46.135  34.995  30.424  1.00  0.00     0.040 A 
ATOM     65  C   UNL A   1      45.193  35.718  28.328  1.00  0.00     0.040 A 
ATOM     66  F   UNL A   1      43.998  34.202  26.993  1.00  0.00    -0.206 F 
ATOM     67  C   UNL A   1      45.913  36.003  29.487  1.00  0.00     0.006 A 
ENDBRANCH  46  60
BRANCH  47  68
ATOM     68  C   UNL A   1      41.219  24.294  27.571  1.00  0.00     0.057 A 
ATOM     69  C   UNL A   1      40.182  24.089  26.655  1.00  0.00     0.134 A 
ATOM     70  C   UNL A   1      41.699  23.180  28.268  1.00  0.00     0.134 A 
ATOM     71  F   UNL A   1      39.664  25.124  25.977  1.00  0.00    -0.206 F 
ATOM     72  C   UNL A   1      39.625  22.824  26.457  1.00  0.00     0.040 A 
ATOM     73  C   UNL A   1      41.166  21.907  28.065  1.00  0.00     0.040 A 
ATOM     74  F   UNL A   1      42.692  23.315  29.158  1.00  0.00    -0.206 F 
ATOM     75  C   UNL A   1      40.119  21.729  27.161  1.00  0.00     0.006 A 
ENDBRANCH  47  68
BRANCH  59  76
ATOM     76  C   UNL A   1      47.215  27.359  25.849  1.00  0.00     0.057 A 
ATOM     77  C   UNL A   1      48.247  26.680  26.509  1.00  0.00     0.134 A 
ATOM     78  C   UNL A   1      47.348  27.550  24.467  1.00  0.00     0.134 A 
ATOM     79  F   UNL A   1      48.186  26.475  27.834  1.00  0.00    -0.206 F 
ATOM     80  C   UNL A   1      49.379  26.230  25.827  1.00  0.00     0.040 A 
ATOM     81  C   UNL A   1      48.465  27.086  23.770  1.00  0.00     0.040 A 
ATOM     82  F   UNL A   1      46.393  28.186  23.773  1.00  0.00    -0.206 F 
ATOM     83  C   UNL A   1      49.488  26.430  24.452  1.00  0.00     0.006 A 
ENDBRANCH  59  76
ENDBRANCH  33  34
ENDBRANCH  26  28
ENDBRANCH  25  26
ENDBRANCH  24  25
ENDBRANCH  23  24
ENDBRANCH  22  23
ENDBRANCH  21  22
ENDBRANCH   1  21
TORSDOF 20
ENDMDL
