MODEL 1
REMARK VINA RESULT:     -10.7      0.000      0.000
REMARK SMILES COc1ccc(/C=C/C(=O)OCCOCCOCCOC(=O)c2ccc(-c3c4nc(c(-c5c(F)cccc5F)c5ccc([nH]5)c(-c5c(F)cccc5F)c5nc(c(-c6c(F)cccc6F)c6ccc3[nH]6)C=C5)C=C4)cc2)cc1S(=O)(=O)Nc1ccc(F)cc1F
REMARK SMILES IDX 15 1 14 2 13 3 12 4 11 5 9 6 10 7 8 8 7 9 6 10 3 11 4 12
REMARK SMILES IDX 78 13 5 14 77 15 2 16 1 17 79 18 80 19 81 20 82 21 83 23
REMARK SMILES IDX 84 24 89 25 85 26 88 27 90 28 86 29 87 30 16 31 17 32 18 33
REMARK SMILES IDX 19 34 20 35 21 36 22 37 23 38 24 39 76 40 25 41 75 42 26 43
REMARK SMILES IDX 27 44 28 45 69 46 29 47 74 48 68 49 70 50 30 51 73 52 67 53
REMARK SMILES IDX 66 54 31 56 57 57 40 58 56 59 41 60 44 61 55 62 71 63 42 64
REMARK SMILES IDX 43 65 54 67 72 68 45 69 32 70 33 71 38 72 34 73 35 74 37 75
REMARK SMILES IDX 39 76 36 77 58 78 59 79 64 80 60 81 61 82 63 83 65 84 62 85
REMARK SMILES IDX 46 86 47 87 52 88 48 89 49 90 51 91 53 92 50 93
REMARK H PARENT 82 22 70 55 44 66
REMARK Flexibility Score: inf
ROOT
ATOM      1  C   UNL A   1      42.251  19.558  26.886  1.00  0.00     0.188 C 
ENDROOT
BRANCH   1   2
ATOM      2  O   UNL A   1      40.881  19.806  27.157  1.00  0.00    -0.376 OA
BRANCH   2   3
ATOM      3  C   UNL A   1      40.236  20.950  26.613  1.00  0.00     0.202 C 
BRANCH   3   4
ATOM      4  C   UNL A   1      40.289  22.349  27.265  1.00  0.00     0.261 C 
BRANCH   4   5
ATOM      5  O   UNL A   1      39.963  23.473  26.435  1.00  0.00    -0.460 OA
BRANCH   5   6
ATOM      6  C   UNL A   1      38.992  24.277  26.918  1.00  0.00     0.330 C 
ATOM      7  O   UNL A   1      39.128  25.150  27.765  1.00  0.00    -0.247 OA
BRANCH   6   8
ATOM      8  C   UNL A   1      37.701  24.113  26.224  1.00  0.00     0.094 C 
ATOM      9  C   UNL A   1      36.828  23.089  26.261  1.00  0.00     0.015 C 
BRANCH   9  10
ATOM     10  C   UNL A   1      35.574  23.183  25.490  1.00  0.00    -0.024 A 
ATOM     11  C   UNL A   1      33.389  24.039  23.982  1.00  0.00     0.139 A 
ATOM     12  C   UNL A   1      34.506  23.497  23.346  1.00  0.00     0.048 A 
ATOM     13  C   UNL A   1      33.233  23.868  25.351  1.00  0.00     0.130 A 
ATOM     14  C   UNL A   1      35.580  23.040  24.098  1.00  0.00     0.012 A 
ATOM     15  C   UNL A   1      34.358  23.487  26.115  1.00  0.00     0.034 A 
BRANCH  11  16
ATOM     16  O   UNL A   1      32.545  24.720  23.159  1.00  0.00    -0.495 OA
ATOM     17  C   UNL A   1      33.258  25.651  22.343  1.00  0.00     0.278 C 
ENDBRANCH  11  16
BRANCH  13  18
ATOM     18  S   UNL A   1      31.702  23.980  26.248  1.00  0.00     0.265 S 
ATOM     19  O   UNL A   1      30.658  23.501  25.366  1.00  0.00    -0.201 OA
ATOM     20  O   UNL A   1      31.954  23.297  27.503  1.00  0.00    -0.201 OA
BRANCH  18  21
ATOM     21  N   UNL A   1      31.299  25.531  26.729  1.00  0.00    -0.277 N 
ATOM     22  H   UNL A   1      30.748  25.612  27.541  1.00  0.00     0.180 HD
BRANCH  21  23
ATOM     23  C   UNL A   1      31.672  26.747  26.088  1.00  0.00     0.085 A 
ATOM     24  C   UNL A   1      32.887  27.306  26.519  1.00  0.00     0.033 A 
ATOM     25  C   UNL A   1      31.008  27.328  25.001  1.00  0.00     0.150 A 
ATOM     26  C   UNL A   1      33.507  28.305  25.769  1.00  0.00     0.041 A 
ATOM     27  C   UNL A   1      31.623  28.330  24.250  1.00  0.00     0.080 A 
ATOM     28  F   UNL A   1      29.830  26.852  24.577  1.00  0.00    -0.205 F 
ATOM     29  C   UNL A   1      32.883  28.782  24.622  1.00  0.00     0.126 A 
ATOM     30  F   UNL A   1      33.523  29.671  23.853  1.00  0.00    -0.207 F 
ENDBRANCH  21  23
ENDBRANCH  18  21
ENDBRANCH  13  18
ENDBRANCH   9  10
ENDBRANCH   6   8
ENDBRANCH   5   6
ENDBRANCH   4   5
ENDBRANCH   3   4
ENDBRANCH   2   3
ENDBRANCH   1   2
BRANCH   1  31
ATOM     31  C   UNL A   1      42.904  20.227  25.664  1.00  0.00     0.188 C 
BRANCH  31  32
ATOM     32  O   UNL A   1      44.210  19.763  25.410  1.00  0.00    -0.376 OA
BRANCH  32  33
ATOM     33  C   UNL A   1      45.184  20.701  24.984  1.00  0.00     0.202 C 
BRANCH  33  34
ATOM     34  C   UNL A   1      45.477  22.015  25.742  1.00  0.00     0.261 C 
BRANCH  34  35
ATOM     35  O   UNL A   1      44.467  23.034  25.762  1.00  0.00    -0.460 OA
BRANCH  35  36
ATOM     36  C   UNL A   1      44.852  24.305  25.520  1.00  0.00     0.338 C 
ATOM     37  O   UNL A   1      45.574  24.701  24.615  1.00  0.00    -0.246 OA
BRANCH  36  38
ATOM     38  C   UNL A   1      44.109  25.188  26.442  1.00  0.00     0.060 A 
ATOM     39  C   UNL A   1      44.362  26.567  26.425  1.00  0.00     0.016 A 
ATOM     40  C   UNL A   1      43.169  24.654  27.324  1.00  0.00     0.016 A 
ATOM     41  C   UNL A   1      43.683  27.414  27.305  1.00  0.00     0.010 A 
ATOM     42  C   UNL A   1      42.506  25.501  28.219  1.00  0.00     0.010 A 
ATOM     43  C   UNL A   1      42.778  26.881  28.232  1.00  0.00    -0.014 A 
BRANCH  43  44
ATOM     44  C   UNL A   1      42.236  27.733  29.321  1.00  0.00     0.031 A 
ATOM     45  C   UNL A   1      42.923  27.716  30.658  1.00  0.00     0.074 A 
ATOM     46  C   UNL A   1      41.157  28.514  29.131  1.00  0.00     0.049 A 
ATOM     47  N   UNL A   1      42.595  28.322  31.771  1.00  0.00    -0.248 NA
ATOM     48  C   UNL A   1      44.143  26.900  30.753  1.00  0.00     0.031 C 
ATOM     49  C   UNL A   1      40.422  28.651  27.875  1.00  0.00     0.029 A 
ATOM     50  N   UNL A   1      40.485  29.330  30.007  1.00  0.00    -0.354 N 
ATOM     51  C   UNL A   1      43.563  27.954  32.699  1.00  0.00     0.074 A 
ATOM     52  C   UNL A   1      44.469  27.047  32.029  1.00  0.00     0.031 C 
ATOM     53  C   UNL A   1      39.390  29.492  28.065  1.00  0.00     0.029 A 
ATOM     54  C   UNL A   1      39.371  29.923  29.463  1.00  0.00     0.049 A 
ATOM     55  H   UNL A   1      40.774  29.477  30.936  1.00  0.00     0.167 HD
ATOM     56  C   UNL A   1      43.689  28.341  33.991  1.00  0.00     0.037 A 
ATOM     57  C   UNL A   1      38.432  30.701  30.035  1.00  0.00     0.037 A 
ATOM     58  C   UNL A   1      42.782  29.238  34.659  1.00  0.00     0.049 A 
ATOM     59  C   UNL A   1      38.546  31.053  31.497  1.00  0.00     0.074 A 
ATOM     60  C   UNL A   1      42.837  29.705  35.961  1.00  0.00     0.029 A 
ATOM     61  N   UNL A   1      41.649  29.792  34.083  1.00  0.00    -0.354 N 
ATOM     62  N   UNL A   1      39.479  30.725  32.358  1.00  0.00    -0.248 NA
ATOM     63  C   UNL A   1      37.476  31.887  32.066  1.00  0.00     0.031 C 
ATOM     64  C   UNL A   1      41.706  30.494  36.191  1.00  0.00     0.029 A 
ATOM     65  C   UNL A   1      40.981  30.572  35.013  1.00  0.00     0.049 A 
ATOM     66  H   UNL A   1      41.363  29.653  33.152  1.00  0.00     0.167 HD
ATOM     67  C   UNL A   1      39.128  31.338  33.556  1.00  0.00     0.074 A 
ATOM     68  C   UNL A   1      37.903  32.068  33.308  1.00  0.00     0.031 C 
ATOM     69  C   UNL A   1      39.765  31.303  34.753  1.00  0.00     0.037 A 
BRANCH  56  70
ATOM     70  C   UNL A   1      44.834  27.769  34.775  1.00  0.00     0.057 A 
ATOM     71  C   UNL A   1      46.050  28.451  34.921  1.00  0.00     0.134 A 
ATOM     72  C   UNL A   1      44.709  26.530  35.416  1.00  0.00     0.134 A 
ATOM     73  F   UNL A   1      46.241  29.635  34.321  1.00  0.00    -0.206 F 
ATOM     74  C   UNL A   1      47.108  27.908  35.653  1.00  0.00     0.040 A 
ATOM     75  C   UNL A   1      45.749  25.992  36.176  1.00  0.00     0.040 A 
ATOM     76  F   UNL A   1      43.570  25.826  35.323  1.00  0.00    -0.206 F 
ATOM     77  C   UNL A   1      46.956  26.678  36.289  1.00  0.00     0.006 A 
ENDBRANCH  56  70
BRANCH  57  78
ATOM     78  C   UNL A   1      37.282  31.195  29.234  1.00  0.00     0.057 A 
ATOM     79  C   UNL A   1      37.257  32.499  28.725  1.00  0.00     0.134 A 
ATOM     80  C   UNL A   1      36.166  30.386  28.982  1.00  0.00     0.134 A 
ATOM     81  F   UNL A   1      38.282  33.333  28.955  1.00  0.00    -0.206 F 
ATOM     82  C   UNL A   1      36.159  32.987  28.014  1.00  0.00     0.040 A 
ATOM     83  C   UNL A   1      35.074  30.850  28.247  1.00  0.00     0.040 A 
ATOM     84  F   UNL A   1      36.125  29.127  29.444  1.00  0.00    -0.206 F 
ATOM     85  C   UNL A   1      35.066  32.158  27.768  1.00  0.00     0.006 A 
ENDBRANCH  57  78
BRANCH  69  86
ATOM     86  C   UNL A   1      39.181  32.113  35.877  1.00  0.00     0.057 A 
ATOM     87  C   UNL A   1      39.483  33.469  36.054  1.00  0.00     0.134 A 
ATOM     88  C   UNL A   1      38.267  31.535  36.769  1.00  0.00     0.134 A 
ATOM     89  F   UNL A   1      40.357  34.083  35.242  1.00  0.00    -0.206 F 
ATOM     90  C   UNL A   1      38.918  34.214  37.092  1.00  0.00     0.040 A 
ATOM     91  C   UNL A   1      37.673  32.277  37.791  1.00  0.00     0.040 A 
ATOM     92  F   UNL A   1      37.924  30.243  36.652  1.00  0.00    -0.206 F 
ATOM     93  C   UNL A   1      38.004  33.619  37.960  1.00  0.00     0.006 A 
ENDBRANCH  69  86
ENDBRANCH  43  44
ENDBRANCH  36  38
ENDBRANCH  35  36
ENDBRANCH  34  35
ENDBRANCH  33  34
ENDBRANCH  32  33
ENDBRANCH  31  32
ENDBRANCH   1  31
TORSDOF 22
ENDMDL
MODEL 2
REMARK VINA RESULT:     -10.1      4.877     10.404
REMARK SMILES COc1ccc(/C=C/C(=O)OCCOCCOCCOC(=O)c2ccc(-c3c4nc(c(-c5c(F)cccc5F)c5ccc([nH]5)c(-c5c(F)cccc5F)c5nc(c(-c6c(F)cccc6F)c6ccc3[nH]6)C=C5)C=C4)cc2)cc1S(=O)(=O)Nc1ccc(F)cc1F
REMARK SMILES IDX 15 1 14 2 13 3 12 4 11 5 9 6 10 7 8 8 7 9 6 10 3 11 4 12
REMARK SMILES IDX 78 13 5 14 77 15 2 16 1 17 79 18 80 19 81 20 82 21 83 23
REMARK SMILES IDX 84 24 89 25 85 26 88 27 90 28 86 29 87 30 16 31 17 32 18 33
REMARK SMILES IDX 19 34 20 35 21 36 22 37 23 38 24 39 76 40 25 41 75 42 26 43
REMARK SMILES IDX 27 44 28 45 69 46 29 47 74 48 68 49 70 50 30 51 73 52 67 53
REMARK SMILES IDX 66 54 31 56 57 57 40 58 56 59 41 60 44 61 55 62 71 63 42 64
REMARK SMILES IDX 43 65 54 67 72 68 45 69 32 70 33 71 38 72 34 73 35 74 37 75
REMARK SMILES IDX 39 76 36 77 58 78 59 79 64 80 60 81 61 82 63 83 65 84 62 85
REMARK SMILES IDX 46 86 47 87 52 88 48 89 49 90 51 91 53 92 50 93
REMARK H PARENT 82 22 70 55 44 66
REMARK Flexibility Score: inf
ROOT
ATOM      1  C   UNL A   1      34.427  35.120  29.153  1.00  0.00     0.188 C 
ENDROOT
BRANCH   1   2
ATOM      2  O   UNL A   1      34.944  33.956  28.530  1.00  0.00    -0.376 OA
BRANCH   2   3
ATOM      3  C   UNL A   1      34.347  32.687  28.768  1.00  0.00     0.202 C 
BRANCH   3   4
ATOM      4  C   UNL A   1      33.991  31.688  27.646  1.00  0.00     0.261 C 
BRANCH   4   5
ATOM      5  O   UNL A   1      34.145  30.291  27.936  1.00  0.00    -0.460 OA
BRANCH   5   6
ATOM      6  C   UNL A   1      35.218  29.705  27.364  1.00  0.00     0.330 C 
ATOM      7  O   UNL A   1      36.392  29.958  27.596  1.00  0.00    -0.247 OA
BRANCH   6   8
ATOM      8  C   UNL A   1      34.864  28.577  26.481  1.00  0.00     0.094 C 
ATOM      9  C   UNL A   1      33.682  27.958  26.306  1.00  0.00     0.015 C 
BRANCH   9  10
ATOM     10  C   UNL A   1      33.580  26.863  25.325  1.00  0.00    -0.024 A 
ATOM     11  C   UNL A   1      32.699  24.839  23.619  1.00  0.00     0.139 A 
ATOM     12  C   UNL A   1      32.869  26.135  23.133  1.00  0.00     0.048 A 
ATOM     13  C   UNL A   1      33.255  24.490  24.843  1.00  0.00     0.130 A 
ATOM     14  C   UNL A   1      33.339  27.136  23.974  1.00  0.00     0.012 A 
ATOM     15  C   UNL A   1      33.649  25.522  25.723  1.00  0.00     0.034 A 
BRANCH  11  16
ATOM     16  O   UNL A   1      31.962  24.026  22.814  1.00  0.00    -0.495 OA
ATOM     17  C   UNL A   1      30.629  23.879  23.309  1.00  0.00     0.278 C 
ENDBRANCH  11  16
BRANCH  13  18
ATOM     18  S   UNL A   1      33.628  22.839  25.385  1.00  0.00     0.265 S 
ATOM     19  O   UNL A   1      34.953  22.872  25.969  1.00  0.00    -0.201 OA
ATOM     20  O   UNL A   1      32.492  22.449  26.201  1.00  0.00    -0.201 OA
BRANCH  18  21
ATOM     21  N   UNL A   1      33.632  21.697  24.162  1.00  0.00    -0.277 N 
ATOM     22  H   UNL A   1      33.649  22.039  23.239  1.00  0.00     0.180 HD
BRANCH  21  23
ATOM     23  C   UNL A   1      33.613  20.281  24.318  1.00  0.00     0.085 A 
ATOM     24  C   UNL A   1      32.422  19.648  23.919  1.00  0.00     0.033 A 
ATOM     25  C   UNL A   1      34.706  19.491  24.693  1.00  0.00     0.150 A 
ATOM     26  C   UNL A   1      32.389  18.267  23.731  1.00  0.00     0.041 A 
ATOM     27  C   UNL A   1      34.675  18.108  24.509  1.00  0.00     0.080 A 
ATOM     28  F   UNL A   1      35.848  20.049  25.114  1.00  0.00    -0.205 F 
ATOM     29  C   UNL A   1      33.528  17.516  23.995  1.00  0.00     0.126 A 
ATOM     30  F   UNL A   1      33.523  16.205  23.722  1.00  0.00    -0.207 F 
ENDBRANCH  21  23
ENDBRANCH  18  21
ENDBRANCH  13  18
ENDBRANCH   9  10
ENDBRANCH   6   8
ENDBRANCH   5   6
ENDBRANCH   4   5
ENDBRANCH   3   4
ENDBRANCH   2   3
ENDBRANCH   1   2
BRANCH   1  31
ATOM     31  C   UNL A   1      33.418  34.966  30.304  1.00  0.00     0.188 C 
BRANCH  31  32
ATOM     32  O   UNL A   1      33.820  35.621  31.485  1.00  0.00    -0.376 OA
BRANCH  32  33
ATOM     33  C   UNL A   1      34.226  34.826  32.587  1.00  0.00     0.202 C 
BRANCH  33  34
ATOM     34  C   UNL A   1      34.451  33.301  32.488  1.00  0.00     0.261 C 
BRANCH  34  35
ATOM     35  O   UNL A   1      35.704  32.824  31.978  1.00  0.00    -0.460 OA
BRANCH  35  36
ATOM     36  C   UNL A   1      36.537  32.201  32.839  1.00  0.00     0.338 C 
ATOM     37  O   UNL A   1      36.372  32.034  34.040  1.00  0.00    -0.246 OA
BRANCH  36  38
ATOM     38  C   UNL A   1      37.627  31.588  32.054  1.00  0.00     0.060 A 
ATOM     39  C   UNL A   1      38.712  31.003  32.723  1.00  0.00     0.016 A 
ATOM     40  C   UNL A   1      37.580  31.596  30.658  1.00  0.00     0.016 A 
ATOM     41  C   UNL A   1      39.760  30.437  31.995  1.00  0.00     0.010 A 
ATOM     42  C   UNL A   1      38.642  31.048  29.931  1.00  0.00     0.010 A 
ATOM     43  C   UNL A   1      39.750  30.488  30.595  1.00  0.00    -0.014 A 
BRANCH  43  44
ATOM     44  C   UNL A   1      40.961  30.109  29.825  1.00  0.00     0.031 A 
ATOM     45  C   UNL A   1      41.063  28.709  29.285  1.00  0.00     0.074 A 
ATOM     46  C   UNL A   1      41.954  30.987  29.600  1.00  0.00     0.049 A 
ATOM     47  N   UNL A   1      42.046  28.132  28.643  1.00  0.00    -0.248 NA
ATOM     48  C   UNL A   1      39.895  27.840  29.504  1.00  0.00     0.031 C 
ATOM     49  C   UNL A   1      41.965  32.383  30.034  1.00  0.00     0.029 A 
ATOM     50  N   UNL A   1      43.158  30.825  28.958  1.00  0.00    -0.354 N 
ATOM     51  C   UNL A   1      41.621  26.833  28.390  1.00  0.00     0.074 A 
ATOM     52  C   UNL A   1      40.305  26.697  28.976  1.00  0.00     0.031 C 
ATOM     53  C   UNL A   1      43.126  32.947  29.657  1.00  0.00     0.029 A 
ATOM     54  C   UNL A   1      43.954  31.944  28.989  1.00  0.00     0.049 A 
ATOM     55  H   UNL A   1      43.423  29.985  28.516  1.00  0.00     0.167 HD
ATOM     56  C   UNL A   1      42.265  25.845  27.725  1.00  0.00     0.037 A 
ATOM     57  C   UNL A   1      45.216  32.127  28.551  1.00  0.00     0.037 A 
ATOM     58  C   UNL A   1      43.577  25.979  27.148  1.00  0.00     0.049 A 
ATOM     59  C   UNL A   1      45.945  30.987  27.886  1.00  0.00     0.074 A 
ATOM     60  C   UNL A   1      44.305  25.040  26.437  1.00  0.00     0.029 A 
ATOM     61  N   UNL A   1      44.363  27.118  27.228  1.00  0.00    -0.354 N 
ATOM     62  N   UNL A   1      45.525  29.773  27.625  1.00  0.00    -0.248 NA
ATOM     63  C   UNL A   1      47.327  31.246  27.452  1.00  0.00     0.031 C 
ATOM     64  C   UNL A   1      45.556  25.591  26.139  1.00  0.00     0.029 A 
ATOM     65  C   UNL A   1      45.581  26.895  26.605  1.00  0.00     0.049 A 
ATOM     66  H   UNL A   1      44.096  27.960  27.661  1.00  0.00     0.167 HD
ATOM     67  C   UNL A   1      46.573  29.137  26.969  1.00  0.00     0.074 A 
ATOM     68  C   UNL A   1      47.645  30.104  26.860  1.00  0.00     0.031 C 
ATOM     69  C   UNL A   1      46.640  27.868  26.495  1.00  0.00     0.037 A 
BRANCH  56  70
ATOM     70  C   UNL A   1      41.568  24.519  27.612  1.00  0.00     0.057 A 
ATOM     71  C   UNL A   1      41.899  23.433  28.434  1.00  0.00     0.134 A 
ATOM     72  C   UNL A   1      40.533  24.336  26.687  1.00  0.00     0.134 A 
ATOM     73  F   UNL A   1      42.891  23.536  29.332  1.00  0.00    -0.206 F 
ATOM     74  C   UNL A   1      41.244  22.206  28.319  1.00  0.00     0.040 A 
ATOM     75  C   UNL A   1      39.850  23.123  26.586  1.00  0.00     0.040 A 
ATOM     76  F   UNL A   1      40.161  25.336  25.873  1.00  0.00    -0.206 F 
ATOM     77  C   UNL A   1      40.210  22.051  27.398  1.00  0.00     0.006 A 
ENDBRANCH  56  70
BRANCH  57  78
ATOM     78  C   UNL A   1      45.887  33.439  28.739  1.00  0.00     0.057 A 
ATOM     79  C   UNL A   1      45.845  34.425  27.747  1.00  0.00     0.134 A 
ATOM     80  C   UNL A   1      46.613  33.728  29.902  1.00  0.00     0.134 A 
ATOM     81  F   UNL A   1      45.190  34.200  26.598  1.00  0.00    -0.206 F 
ATOM     82  C   UNL A   1      46.515  35.642  27.894  1.00  0.00     0.040 A 
ATOM     83  C   UNL A   1      47.263  34.951  30.076  1.00  0.00     0.040 A 
ATOM     84  F   UNL A   1      46.696  32.825  30.890  1.00  0.00    -0.206 F 
ATOM     85  C   UNL A   1      47.222  35.909  29.065  1.00  0.00     0.006 A 
ENDBRANCH  57  78
BRANCH  69  86
ATOM     86  C   UNL A   1      47.893  27.460  25.772  1.00  0.00     0.057 A 
ATOM     87  C   UNL A   1      48.996  26.914  26.441  1.00  0.00     0.134 A 
ATOM     88  C   UNL A   1      47.980  27.576  24.377  1.00  0.00     0.134 A 
ATOM     89  F   UNL A   1      48.986  26.784  27.776  1.00  0.00    -0.206 F 
ATOM     90  C   UNL A   1      50.147  26.523  25.754  1.00  0.00     0.040 A 
ATOM     91  C   UNL A   1      49.113  27.159  23.677  1.00  0.00     0.040 A 
ATOM     92  F   UNL A   1      46.957  28.081  23.671  1.00  0.00    -0.206 F 
ATOM     93  C   UNL A   1      50.205  26.638  24.366  1.00  0.00     0.006 A 
ENDBRANCH  69  86
ENDBRANCH  43  44
ENDBRANCH  36  38
ENDBRANCH  35  36
ENDBRANCH  34  35
ENDBRANCH  33  34
ENDBRANCH  32  33
ENDBRANCH  31  32
ENDBRANCH   1  31
TORSDOF 22
ENDMDL
MODEL 3
REMARK VINA RESULT:      -9.8      6.435     10.524
REMARK SMILES COc1ccc(/C=C/C(=O)OCCOCCOCCOC(=O)c2ccc(-c3c4nc(c(-c5c(F)cccc5F)c5ccc([nH]5)c(-c5c(F)cccc5F)c5nc(c(-c6c(F)cccc6F)c6ccc3[nH]6)C=C5)C=C4)cc2)cc1S(=O)(=O)Nc1ccc(F)cc1F
REMARK SMILES IDX 15 1 14 2 13 3 12 4 11 5 9 6 10 7 8 8 7 9 6 10 3 11 4 12
REMARK SMILES IDX 78 13 5 14 77 15 2 16 1 17 79 18 80 19 81 20 82 21 83 23
REMARK SMILES IDX 84 24 89 25 85 26 88 27 90 28 86 29 87 30 16 31 17 32 18 33
REMARK SMILES IDX 19 34 20 35 21 36 22 37 23 38 24 39 76 40 25 41 75 42 26 43
REMARK SMILES IDX 27 44 28 45 69 46 29 47 74 48 68 49 70 50 30 51 73 52 67 53
REMARK SMILES IDX 66 54 31 56 57 57 40 58 56 59 41 60 44 61 55 62 71 63 42 64
REMARK SMILES IDX 43 65 54 67 72 68 45 69 32 70 33 71 38 72 34 73 35 74 37 75
REMARK SMILES IDX 39 76 36 77 58 78 59 79 64 80 60 81 61 82 63 83 65 84 62 85
REMARK SMILES IDX 46 86 47 87 52 88 48 89 49 90 51 91 53 92 50 93
REMARK H PARENT 82 22 70 55 44 66
REMARK Flexibility Score: inf
ROOT
ATOM      1  C   UNL A   1      38.908  21.644  25.981  1.00  0.00     0.188 C 
ENDROOT
BRANCH   1   2
ATOM      2  O   UNL A   1      37.680  21.516  25.283  1.00  0.00    -0.376 OA
BRANCH   2   3
ATOM      3  C   UNL A   1      37.121  22.630  24.598  1.00  0.00     0.202 C 
BRANCH   3   4
ATOM      4  C   UNL A   1      35.781  22.575  23.833  1.00  0.00     0.261 C 
BRANCH   4   5
ATOM      5  O   UNL A   1      34.657  22.003  24.518  1.00  0.00    -0.460 OA
BRANCH   5   6
ATOM      6  C   UNL A   1      34.249  22.683  25.610  1.00  0.00     0.330 C 
ATOM      7  O   UNL A   1      34.326  22.304  26.771  1.00  0.00    -0.247 OA
BRANCH   6   8
ATOM      8  C   UNL A   1      33.793  24.054  25.307  1.00  0.00     0.094 C 
ATOM      9  C   UNL A   1      33.315  25.004  26.132  1.00  0.00     0.015 C 
BRANCH   9  10
ATOM     10  C   UNL A   1      32.954  26.322  25.579  1.00  0.00    -0.024 A 
ATOM     11  C   UNL A   1      31.919  28.875  25.142  1.00  0.00     0.139 A 
ATOM     12  C   UNL A   1      33.193  28.724  25.687  1.00  0.00     0.048 A 
ATOM     13  C   UNL A   1      31.301  27.788  24.536  1.00  0.00     0.130 A 
ATOM     14  C   UNL A   1      33.723  27.454  25.874  1.00  0.00     0.012 A 
ATOM     15  C   UNL A   1      31.799  26.495  24.806  1.00  0.00     0.034 A 
BRANCH  11  16
ATOM     16  O   UNL A   1      31.388  30.121  25.283  1.00  0.00    -0.495 OA
ATOM     17  C   UNL A   1      31.903  30.774  26.444  1.00  0.00     0.278 C 
ENDBRANCH  11  16
BRANCH  13  18
ATOM     18  S   UNL A   1      29.984  27.868  23.346  1.00  0.00     0.265 S 
ATOM     19  O   UNL A   1      30.597  28.035  22.045  1.00  0.00    -0.201 OA
ATOM     20  O   UNL A   1      29.169  26.696  23.613  1.00  0.00    -0.201 OA
BRANCH  18  21
ATOM     21  N   UNL A   1      28.919  29.137  23.582  1.00  0.00    -0.277 N 
ATOM     22  H   UNL A   1      28.312  29.067  24.354  1.00  0.00     0.180 HD
BRANCH  21  23
ATOM     23  C   UNL A   1      28.800  30.310  22.782  1.00  0.00     0.085 A 
ATOM     24  C   UNL A   1      28.384  30.094  21.457  1.00  0.00     0.033 A 
ATOM     25  C   UNL A   1      28.929  31.625  23.245  1.00  0.00     0.150 A 
ATOM     26  C   UNL A   1      27.936  31.161  20.678  1.00  0.00     0.041 A 
ATOM     27  C   UNL A   1      28.485  32.695  22.467  1.00  0.00     0.080 A 
ATOM     28  F   UNL A   1      29.357  31.880  24.488  1.00  0.00    -0.205 F 
ATOM     29  C   UNL A   1      27.960  32.447  21.205  1.00  0.00     0.126 A 
ATOM     30  F   UNL A   1      27.441  33.454  20.493  1.00  0.00    -0.207 F 
ENDBRANCH  21  23
ENDBRANCH  18  21
ENDBRANCH  13  18
ENDBRANCH   9  10
ENDBRANCH   6   8
ENDBRANCH   5   6
ENDBRANCH   4   5
ENDBRANCH   3   4
ENDBRANCH   2   3
ENDBRANCH   1   2
BRANCH   1  31
ATOM     31  C   UNL A   1      39.906  20.473  25.960  1.00  0.00     0.188 C 
BRANCH  31  32
ATOM     32  O   UNL A   1      40.425  20.165  27.234  1.00  0.00    -0.376 OA
BRANCH  32  33
ATOM     33  C   UNL A   1      41.662  20.744  27.611  1.00  0.00     0.202 C 
BRANCH  33  34
ATOM     34  C   UNL A   1      41.785  22.180  28.169  1.00  0.00     0.261 C 
BRANCH  34  35
ATOM     35  O   UNL A   1      41.696  23.281  27.254  1.00  0.00    -0.460 OA
BRANCH  35  36
ATOM     36  C   UNL A   1      42.528  23.284  26.191  1.00  0.00     0.338 C 
ATOM     37  O   UNL A   1      42.501  22.530  25.227  1.00  0.00    -0.246 OA
BRANCH  36  38
ATOM     38  C   UNL A   1      43.393  24.477  26.294  1.00  0.00     0.060 A 
ATOM     39  C   UNL A   1      43.628  25.255  25.151  1.00  0.00     0.016 A 
ATOM     40  C   UNL A   1      43.974  24.821  27.515  1.00  0.00     0.016 A 
ATOM     41  C   UNL A   1      44.460  26.375  25.227  1.00  0.00     0.010 A 
ATOM     42  C   UNL A   1      44.824  25.931  27.584  1.00  0.00     0.010 A 
ATOM     43  C   UNL A   1      45.092  26.698  26.435  1.00  0.00    -0.014 A 
BRANCH  43  44
ATOM     44  C   UNL A   1      46.156  27.733  26.467  1.00  0.00     0.031 A 
ATOM     45  C   UNL A   1      45.754  29.176  26.600  1.00  0.00     0.074 A 
ATOM     46  C   UNL A   1      47.458  27.405  26.387  1.00  0.00     0.049 A 
ATOM     47  N   UNL A   1      46.496  30.253  26.585  1.00  0.00    -0.248 NA
ATOM     48  C   UNL A   1      44.316  29.438  26.768  1.00  0.00     0.031 C 
ATOM     49  C   UNL A   1      47.984  26.045  26.293  1.00  0.00     0.029 A 
ATOM     50  N   UNL A   1      48.576  28.202  26.356  1.00  0.00    -0.354 N 
ATOM     51  C   UNL A   1      45.617  31.320  26.732  1.00  0.00     0.074 A 
ATOM     52  C   UNL A   1      44.284  30.762  26.801  1.00  0.00     0.031 C 
ATOM     53  C   UNL A   1      49.324  26.102  26.202  1.00  0.00     0.029 A 
ATOM     54  C   UNL A   1      49.747  27.502  26.194  1.00  0.00     0.049 A 
ATOM     55  H   UNL A   1      48.541  29.182  26.443  1.00  0.00     0.167 HD
ATOM     56  C   UNL A   1      45.895  32.643  26.809  1.00  0.00     0.037 A 
ATOM     57  C   UNL A   1      51.010  27.944  26.031  1.00  0.00     0.037 A 
ATOM     58  C   UNL A   1      47.221  33.198  26.733  1.00  0.00     0.049 A 
ATOM     59  C   UNL A   1      51.286  29.426  26.037  1.00  0.00     0.074 A 
ATOM     60  C   UNL A   1      47.606  34.524  26.821  1.00  0.00     0.029 A 
ATOM     61  N   UNL A   1      48.378  32.458  26.538  1.00  0.00    -0.354 N 
ATOM     62  N   UNL A   1      50.453  30.425  26.206  1.00  0.00    -0.248 NA
ATOM     63  C   UNL A   1      52.682  29.842  25.831  1.00  0.00     0.031 C 
ATOM     64  C   UNL A   1      48.988  34.593  26.618  1.00  0.00     0.029 A 
ATOM     65  C   UNL A   1      49.473  33.304  26.471  1.00  0.00     0.049 A 
ATOM     66  H   UNL A   1      48.415  31.478  26.458  1.00  0.00     0.167 HD
ATOM     67  C   UNL A   1      51.226  31.580  26.162  1.00  0.00     0.074 A 
ATOM     68  C   UNL A   1      52.597  31.158  25.962  1.00  0.00     0.031 C 
ATOM     69  C   UNL A   1      50.836  32.874  26.280  1.00  0.00     0.037 A 
BRANCH  56  70
ATOM     70  C   UNL A   1      44.735  33.585  26.954  1.00  0.00     0.057 A 
ATOM     71  C   UNL A   1      44.290  34.030  28.206  1.00  0.00     0.134 A 
ATOM     72  C   UNL A   1      44.072  34.076  25.822  1.00  0.00     0.134 A 
ATOM     73  F   UNL A   1      44.871  33.588  29.331  1.00  0.00    -0.206 F 
ATOM     74  C   UNL A   1      43.209  34.906  28.327  1.00  0.00     0.040 A 
ATOM     75  C   UNL A   1      43.011  34.976  25.930  1.00  0.00     0.040 A 
ATOM     76  F   UNL A   1      44.450  33.696  24.592  1.00  0.00    -0.206 F 
ATOM     77  C   UNL A   1      42.572  35.388  27.186  1.00  0.00     0.006 A 
ENDBRANCH  56  70
BRANCH  57  78
ATOM     78  C   UNL A   1      52.118  26.975  25.830  1.00  0.00     0.057 A 
ATOM     79  C   UNL A   1      52.436  26.488  24.556  1.00  0.00     0.134 A 
ATOM     80  C   UNL A   1      52.867  26.487  26.908  1.00  0.00     0.134 A 
ATOM     81  F   UNL A   1      51.738  26.894  23.485  1.00  0.00    -0.206 F 
ATOM     82  C   UNL A   1      53.443  25.539  24.364  1.00  0.00     0.040 A 
ATOM     83  C   UNL A   1      53.896  25.561  26.728  1.00  0.00     0.040 A 
ATOM     84  F   UNL A   1      52.612  26.910  28.156  1.00  0.00    -0.206 F 
ATOM     85  C   UNL A   1      54.180  25.079  25.453  1.00  0.00     0.006 A 
ENDBRANCH  57  78
BRANCH  69  86
ATOM     86  C   UNL A   1      51.906  33.929  26.247  1.00  0.00     0.057 A 
ATOM     87  C   UNL A   1      52.586  34.338  27.401  1.00  0.00     0.134 A 
ATOM     88  C   UNL A   1      52.290  34.513  25.032  1.00  0.00     0.134 A 
ATOM     89  F   UNL A   1      52.262  33.828  28.598  1.00  0.00    -0.206 F 
ATOM     90  C   UNL A   1      53.591  35.307  27.352  1.00  0.00     0.040 A 
ATOM     91  C   UNL A   1      53.315  35.459  24.966  1.00  0.00     0.040 A 
ATOM     92  F   UNL A   1      51.689  34.161  23.886  1.00  0.00    -0.206 F 
ATOM     93  C   UNL A   1      53.963  35.865  26.130  1.00  0.00     0.006 A 
ENDBRANCH  69  86
ENDBRANCH  43  44
ENDBRANCH  36  38
ENDBRANCH  35  36
ENDBRANCH  34  35
ENDBRANCH  33  34
ENDBRANCH  32  33
ENDBRANCH  31  32
ENDBRANCH   1  31
TORSDOF 22
ENDMDL
