MODEL 1
REMARK VINA RESULT:     -12.3      0.000      0.000
REMARK SMILES Cc1ccc(NC(=O)C[C@@H]2C[NH2+]CCO2)c(C(=O)OCCOCCOCCOC(=O)c2ccc(-c3c4nc(c(-c5c(F)cccc5F)c5ccc([nH]5)c(-c5c(F)cccc5F)c5nc(c(-c6c(F)cccc6F)c6ccc3[nH]6)C=C5)C=C4)cc2)c1
REMARK SMILES IDX 23 1 22 2 21 3 20 4 19 5 17 6 18 7 16 8 1 9 2 10 3 11 85 12
REMARK SMILES IDX 4 13 5 14 6 15 7 16 8 18 9 19 10 20 11 21 15 22 12 23 14 24
REMARK SMILES IDX 13 25 24 28 25 29 26 30 27 31 28 32 29 33 30 34 31 35 32 36
REMARK SMILES IDX 84 37 33 38 83 39 34 40 35 41 36 42 77 43 37 44 82 45 76 46
REMARK SMILES IDX 78 47 38 48 81 49 75 50 74 51 39 53 65 54 48 55 64 56 49 57
REMARK SMILES IDX 52 58 63 59 79 60 50 61 51 62 62 64 80 65 53 66 40 67 41 68
REMARK SMILES IDX 46 69 42 70 43 71 45 72 47 73 44 74 66 75 67 76 72 77 68 78
REMARK SMILES IDX 69 79 71 80 73 81 70 82 54 83 55 84 60 85 56 86 57 87 59 88
REMARK SMILES IDX 61 89 58 90
REMARK H PARENT 6 17 12 26 12 27 78 52 52 63
REMARK Flexibility Score: inf
ROOT
ATOM      1  C   UNL A   1      35.234  33.266  27.658  1.00  0.00     0.188 C 
ENDROOT
BRANCH   1   2
ATOM      2  O   UNL A   1      34.513  32.046  27.928  1.00  0.00    -0.376 OA
BRANCH   2   3
ATOM      3  C   UNL A   1      35.083  30.757  28.211  1.00  0.00     0.202 C 
BRANCH   3   4
ATOM      4  C   UNL A   1      34.755  29.213  27.506  1.00  0.00     0.261 C 
BRANCH   4   5
ATOM      5  O   UNL A   1      33.458  28.560  26.525  1.00  0.00    -0.460 OA
BRANCH   5   6
ATOM      6  C   UNL A   1      32.107  28.037  26.698  1.00  0.00     0.340 C 
ATOM      7  O   UNL A   1      31.613  27.522  27.703  1.00  0.00    -0.246 OA
BRANCH   6   8
ATOM      8  C   UNL A   1      31.100  27.817  25.657  1.00  0.00     0.083 A 
ATOM      9  C   UNL A   1      30.451  29.383  22.297  1.00  0.00     0.044 C 
ATOM     10  C   UNL A   1      30.433  28.418  23.436  1.00  0.00    -0.050 A 
ATOM     11  C   UNL A   1      29.803  27.176  23.281  1.00  0.00     0.005 A 
ATOM     12  C   UNL A   1      31.076  28.745  24.631  1.00  0.00     0.021 A 
ATOM     13  C   UNL A   1      29.829  26.229  24.298  1.00  0.00     0.027 A 
ATOM     14  C   UNL A   1      30.465  26.516  25.501  1.00  0.00     0.055 A 
BRANCH  14  15
ATOM     15  N   UNL A   1      30.579  25.475  26.480  1.00  0.00    -0.325 N 
ATOM     16  C   UNL A   1      31.114  24.213  26.457  1.00  0.00     0.227 C 
ATOM     17  H   UNL A   1      30.192  25.717  27.352  1.00  0.00     0.169 HD
ATOM     18  O   UNL A   1      31.293  23.617  27.525  1.00  0.00    -0.275 OA
BRANCH  16  19
ATOM     19  C   UNL A   1      31.517  23.475  25.197  1.00  0.00     0.138 C 
BRANCH  19  20
ATOM     20  C   UNL A   1      32.769  23.961  24.455  1.00  0.00     0.182 C 
ATOM     21  C   UNL A   1      33.372  22.755  23.686  1.00  0.00     0.293 C 
ATOM     22  O   UNL A   1      33.679  24.563  25.372  1.00  0.00    -0.366 OA
ATOM     23  N   UNL A   1      34.745  22.961  23.203  1.00  0.00    -0.342 N 
ATOM     24  C   UNL A   1      35.006  24.727  24.898  1.00  0.00     0.222 C 
ATOM     25  C   UNL A   1      35.556  23.414  24.347  1.00  0.00     0.289 C 
ATOM     26  H   UNL A   1      34.754  23.669  22.470  1.00  0.00     0.346 HD
ATOM     27  H   UNL A   1      35.123  22.095  22.817  1.00  0.00     0.346 HD
ENDBRANCH  19  20
ENDBRANCH  16  19
ENDBRANCH  14  15
ENDBRANCH   6   8
ENDBRANCH   5   6
ENDBRANCH   4   5
ENDBRANCH   3   4
ENDBRANCH   2   3
ENDBRANCH   1   2
BRANCH   1  28
ATOM     28  C   UNL A   1      34.667  34.653  27.955  1.00  0.00     0.188 C 
BRANCH  28  29
ATOM     29  O   UNL A   1      33.608  34.548  28.883  1.00  0.00    -0.376 OA
BRANCH  29  30
ATOM     30  C   UNL A   1      32.881  35.735  29.132  1.00  0.00     0.202 C 
BRANCH  30  31
ATOM     31  C   UNL A   1      32.857  36.115  30.624  1.00  0.00     0.261 C 
BRANCH  31  32
ATOM     32  O   UNL A   1      32.857  34.933  31.464  1.00  0.00    -0.460 OA
BRANCH  32  33
ATOM     33  C   UNL A   1      33.710  34.921  32.560  1.00  0.00     0.338 C 
ATOM     34  O   UNL A   1      33.972  35.864  33.237  1.00  0.00    -0.246 OA
BRANCH  33  35
ATOM     35  C   UNL A   1      34.442  33.591  32.597  1.00  0.00     0.060 A 
ATOM     36  C   UNL A   1      35.261  33.128  33.643  1.00  0.00     0.016 A 
ATOM     37  C   UNL A   1      34.670  33.041  31.391  1.00  0.00     0.016 A 
ATOM     38  C   UNL A   1      36.440  32.300  33.390  1.00  0.00     0.010 A 
ATOM     39  C   UNL A   1      35.977  32.619  31.204  1.00  0.00     0.010 A 
ATOM     40  C   UNL A   1      36.942  32.085  32.104  1.00  0.00    -0.014 A 
BRANCH  40  41
ATOM     41  C   UNL A   1      38.465  31.414  31.689  1.00  0.00     0.031 A 
ATOM     42  C   UNL A   1      38.957  29.921  30.893  1.00  0.00     0.074 A 
ATOM     43  C   UNL A   1      39.548  32.052  32.192  1.00  0.00     0.049 A 
ATOM     44  N   UNL A   1      40.107  29.304  31.113  1.00  0.00    -0.248 NA
ATOM     45  C   UNL A   1      38.205  28.966  29.960  1.00  0.00     0.031 C 
ATOM     46  C   UNL A   1      40.944  31.862  31.806  1.00  0.00     0.029 A 
ATOM     47  N   UNL A   1      39.611  32.962  33.255  1.00  0.00    -0.354 N 
ATOM     48  C   UNL A   1      40.189  28.197  30.256  1.00  0.00     0.074 A 
ATOM     49  C   UNL A   1      38.894  27.848  29.878  1.00  0.00     0.031 C 
ATOM     50  C   UNL A   1      41.729  32.362  32.768  1.00  0.00     0.029 A 
ATOM     51  C   UNL A   1      40.868  32.767  33.859  1.00  0.00     0.049 A 
ATOM     52  H   UNL A   1      38.919  33.606  33.525  1.00  0.00     0.167 HD
ATOM     53  C   UNL A   1      41.333  27.768  29.669  1.00  0.00     0.037 A 
ATOM     54  C   UNL A   1      40.986  32.371  35.156  1.00  0.00     0.037 A 
ATOM     55  C   UNL A   1      42.431  28.134  30.512  1.00  0.00     0.049 A 
ATOM     56  C   UNL A   1      41.761  31.082  35.340  1.00  0.00     0.074 A 
ATOM     57  C   UNL A   1      43.391  29.118  30.464  1.00  0.00     0.029 A 
ATOM     58  N   UNL A   1      42.397  27.651  31.810  1.00  0.00    -0.354 N 
ATOM     59  N   UNL A   1      42.207  30.337  34.364  1.00  0.00    -0.248 NA
ATOM     60  C   UNL A   1      42.079  30.509  36.648  1.00  0.00     0.031 C 
ATOM     61  C   UNL A   1      43.815  29.341  31.807  1.00  0.00     0.029 A 
ATOM     62  C   UNL A   1      43.168  28.437  32.635  1.00  0.00     0.049 A 
ATOM     63  H   UNL A   1      41.892  26.858  32.100  1.00  0.00     0.167 HD
ATOM     64  C   UNL A   1      42.751  29.183  34.868  1.00  0.00     0.074 A 
ATOM     65  C   UNL A   1      42.701  29.369  36.304  1.00  0.00     0.031 C 
ATOM     66  C   UNL A   1      43.155  28.154  34.063  1.00  0.00     0.037 A 
BRANCH  53  67
ATOM     67  C   UNL A   1      41.415  27.144  28.270  1.00  0.00     0.057 A 
ATOM     68  C   UNL A   1      41.613  27.970  27.151  1.00  0.00     0.134 A 
ATOM     69  C   UNL A   1      41.157  25.787  27.925  1.00  0.00     0.134 A 
ATOM     70  F   UNL A   1      41.841  29.282  27.296  1.00  0.00    -0.206 F 
ATOM     71  C   UNL A   1      41.555  27.498  25.824  1.00  0.00     0.040 A 
ATOM     72  C   UNL A   1      41.164  25.293  26.609  1.00  0.00     0.040 A 
ATOM     73  F   UNL A   1      40.808  24.855  28.821  1.00  0.00    -0.206 F 
ATOM     74  C   UNL A   1      41.344  26.154  25.546  1.00  0.00     0.006 A 
ENDBRANCH  53  67
BRANCH  54  75
ATOM     75  C   UNL A   1      39.887  32.887  36.021  1.00  0.00     0.057 A 
ATOM     76  C   UNL A   1      38.807  32.036  36.323  1.00  0.00     0.134 A 
ATOM     77  C   UNL A   1      40.061  33.996  36.847  1.00  0.00     0.134 A 
ATOM     78  F   UNL A   1      38.577  30.949  35.569  1.00  0.00    -0.206 F 
ATOM     79  C   UNL A   1      38.013  32.211  37.463  1.00  0.00     0.040 A 
ATOM     80  C   UNL A   1      39.253  34.193  37.981  1.00  0.00     0.040 A 
ATOM     81  F   UNL A   1      41.101  34.814  36.646  1.00  0.00    -0.206 F 
ATOM     82  C   UNL A   1      38.259  33.276  38.318  1.00  0.00     0.006 A 
ENDBRANCH  54  75
BRANCH  66  83
ATOM     83  C   UNL A   1      43.553  26.762  34.512  1.00  0.00     0.057 A 
ATOM     84  C   UNL A   1      44.873  26.315  34.666  1.00  0.00     0.134 A 
ATOM     85  C   UNL A   1      42.564  25.859  34.975  1.00  0.00     0.134 A 
ATOM     86  F   UNL A   1      45.920  27.100  34.382  1.00  0.00    -0.206 F 
ATOM     87  C   UNL A   1      45.183  25.049  35.186  1.00  0.00     0.040 A 
ATOM     88  C   UNL A   1      42.864  24.625  35.558  1.00  0.00     0.040 A 
ATOM     89  F   UNL A   1      41.256  26.155  34.912  1.00  0.00    -0.206 F 
ATOM     90  C   UNL A   1      44.180  24.205  35.648  1.00  0.00     0.006 A 
ENDBRANCH  66  83
ENDBRANCH  40  41
ENDBRANCH  33  35
ENDBRANCH  32  33
ENDBRANCH  31  32
ENDBRANCH  30  31
ENDBRANCH  29  30
ENDBRANCH  28  29
ENDBRANCH   1  28
TORSDOF 20
ENDMDL
MODEL 2
REMARK VINA RESULT:     -12.2      4.852     10.834
REMARK SMILES Cc1ccc(NC(=O)C[C@@H]2C[NH2+]CCO2)c(C(=O)OCCOCCOCCOC(=O)c2ccc(-c3c4nc(c(-c5c(F)cccc5F)c5ccc([nH]5)c(-c5c(F)cccc5F)c5nc(c(-c6c(F)cccc6F)c6ccc3[nH]6)C=C5)C=C4)cc2)c1
REMARK SMILES IDX 23 1 22 2 21 3 20 4 19 5 17 6 18 7 16 8 1 9 2 10 3 11 85 12
REMARK SMILES IDX 4 13 5 14 6 15 7 16 8 18 9 19 10 20 11 21 15 22 12 23 14 24
REMARK SMILES IDX 13 25 24 28 25 29 26 30 27 31 28 32 29 33 30 34 31 35 32 36
REMARK SMILES IDX 84 37 33 38 83 39 34 40 35 41 36 42 77 43 37 44 82 45 76 46
REMARK SMILES IDX 78 47 38 48 81 49 75 50 74 51 39 53 65 54 48 55 64 56 49 57
REMARK SMILES IDX 52 58 63 59 79 60 50 61 51 62 62 64 80 65 53 66 40 67 41 68
REMARK SMILES IDX 46 69 42 70 43 71 45 72 47 73 44 74 66 75 67 76 72 77 68 78
REMARK SMILES IDX 69 79 71 80 73 81 70 82 54 83 55 84 60 85 56 86 57 87 59 88
REMARK SMILES IDX 61 89 58 90
REMARK H PARENT 6 17 12 26 12 27 78 52 52 63
REMARK Flexibility Score: inf
ROOT
ATOM      1  C   UNL A   1      40.638  20.950  26.137  1.00  0.00     0.188 C 
ENDROOT
BRANCH   1   2
ATOM      2  O   UNL A   1      40.313  21.803  27.254  1.00  0.00    -0.376 OA
BRANCH   2   3
ATOM      3  C   UNL A   1      39.793  23.142  27.188  1.00  0.00     0.202 C 
BRANCH   3   4
ATOM      4  C   UNL A   1      38.306  23.729  26.530  1.00  0.00     0.261 C 
BRANCH   4   5
ATOM      5  O   UNL A   1      36.761  22.998  26.138  1.00  0.00    -0.460 OA
BRANCH   5   6
ATOM      6  C   UNL A   1      36.201  22.074  25.159  1.00  0.00     0.340 C 
ATOM      7  O   UNL A   1      36.783  21.493  24.240  1.00  0.00    -0.246 OA
BRANCH   6   8
ATOM      8  C   UNL A   1      34.785  21.787  24.917  1.00  0.00     0.083 A 
ATOM      9  C   UNL A   1      32.803  18.607  24.555  1.00  0.00     0.044 C 
ATOM     10  C   UNL A   1      33.149  20.042  24.780  1.00  0.00    -0.050 A 
ATOM     11  C   UNL A   1      32.146  20.944  25.161  1.00  0.00     0.005 A 
ATOM     12  C   UNL A   1      34.472  20.466  24.648  1.00  0.00     0.021 A 
ATOM     13  C   UNL A   1      32.446  22.271  25.445  1.00  0.00     0.027 A 
ATOM     14  C   UNL A   1      33.755  22.729  25.330  1.00  0.00     0.055 A 
BRANCH  14  15
ATOM     15  N   UNL A   1      34.050  24.067  25.749  1.00  0.00    -0.325 N 
ATOM     16  C   UNL A   1      34.034  25.281  25.112  1.00  0.00     0.227 C 
ATOM     17  H   UNL A   1      34.323  24.127  26.693  1.00  0.00     0.169 HD
ATOM     18  O   UNL A   1      34.102  26.314  25.787  1.00  0.00    -0.275 OA
BRANCH  16  19
ATOM     19  C   UNL A   1      33.931  25.460  23.611  1.00  0.00     0.138 C 
BRANCH  19  20
ATOM     20  C   UNL A   1      32.529  25.599  23.004  1.00  0.00     0.182 C 
ATOM     21  C   UNL A   1      32.424  27.003  22.350  1.00  0.00     0.293 C 
ATOM     22  O   UNL A   1      31.537  25.360  23.999  1.00  0.00    -0.366 OA
ATOM     23  N   UNL A   1      31.054  27.425  22.023  1.00  0.00    -0.342 N 
ATOM     24  C   UNL A   1      30.228  25.801  23.677  1.00  0.00     0.222 C 
ATOM     25  C   UNL A   1      30.236  27.263  23.238  1.00  0.00     0.289 C 
ATOM     26  H   UNL A   1      30.680  26.845  21.273  1.00  0.00     0.346 HD
ATOM     27  H   UNL A   1      31.044  28.397  21.712  1.00  0.00     0.346 HD
ENDBRANCH  19  20
ENDBRANCH  16  19
ENDBRANCH  14  15
ENDBRANCH   6   8
ENDBRANCH   5   6
ENDBRANCH   4   5
ENDBRANCH   3   4
ENDBRANCH   2   3
ENDBRANCH   1   2
BRANCH   1  28
ATOM     28  C   UNL A   1      40.324  19.454  26.111  1.00  0.00     0.188 C 
BRANCH  28  29
ATOM     29  O   UNL A   1      41.502  18.724  25.837  1.00  0.00    -0.376 OA
BRANCH  29  30
ATOM     30  C   UNL A   1      42.720  19.378  26.131  1.00  0.00     0.202 C 
BRANCH  30  31
ATOM     31  C   UNL A   1      43.861  18.964  25.184  1.00  0.00     0.261 C 
BRANCH  31  32
ATOM     32  O   UNL A   1      44.188  20.034  24.261  1.00  0.00    -0.460 OA
BRANCH  32  33
ATOM     33  C   UNL A   1      45.203  20.910  24.624  1.00  0.00     0.338 C 
ATOM     34  O   UNL A   1      46.266  20.589  25.052  1.00  0.00    -0.246 OA
BRANCH  33  35
ATOM     35  C   UNL A   1      44.651  22.324  24.630  1.00  0.00     0.060 A 
ATOM     36  C   UNL A   1      45.404  23.505  24.490  1.00  0.00     0.016 A 
ATOM     37  C   UNL A   1      43.461  22.461  25.241  1.00  0.00     0.016 A 
ATOM     38  C   UNL A   1      45.036  24.740  25.182  1.00  0.00     0.010 A 
ATOM     39  C   UNL A   1      43.412  23.506  26.150  1.00  0.00     0.010 A 
ATOM     40  C   UNL A   1      44.049  24.779  26.170  1.00  0.00    -0.014 A 
BRANCH  40  41
ATOM     41  C   UNL A   1      43.737  26.060  27.267  1.00  0.00     0.031 A 
ATOM     42  C   UNL A   1      42.366  27.141  27.512  1.00  0.00     0.074 A 
ATOM     43  C   UNL A   1      44.788  26.465  28.017  1.00  0.00     0.049 A 
ATOM     44  N   UNL A   1      42.464  28.368  27.996  1.00  0.00    -0.248 NA
ATOM     45  C   UNL A   1      40.889  27.018  27.127  1.00  0.00     0.031 C 
ATOM     46  C   UNL A   1      44.755  27.340  29.186  1.00  0.00     0.029 A 
ATOM     47  N   UNL A   1      46.154  26.233  27.807  1.00  0.00    -0.354 N 
ATOM     48  C   UNL A   1      41.172  28.901  28.122  1.00  0.00     0.074 A 
ATOM     49  C   UNL A   1      40.333  28.204  27.255  1.00  0.00     0.031 C 
ATOM     50  C   UNL A   1      45.989  27.812  29.406  1.00  0.00     0.029 A 
ATOM     51  C   UNL A   1      46.823  27.363  28.312  1.00  0.00     0.049 A 
ATOM     52  H   UNL A   1      46.562  25.440  27.391  1.00  0.00     0.167 HD
ATOM     53  C   UNL A   1      40.777  29.716  29.130  1.00  0.00     0.037 A 
ATOM     54  C   UNL A   1      47.587  28.159  27.515  1.00  0.00     0.037 A 
ATOM     55  C   UNL A   1      41.922  30.437  29.597  1.00  0.00     0.049 A 
ATOM     56  C   UNL A   1      47.151  29.611  27.490  1.00  0.00     0.074 A 
ATOM     57  C   UNL A   1      42.738  30.334  30.699  1.00  0.00     0.029 A 
ATOM     58  N   UNL A   1      42.594  31.199  28.654  1.00  0.00    -0.354 N 
ATOM     59  N   UNL A   1      46.086  30.077  28.088  1.00  0.00    -0.248 NA
ATOM     60  C   UNL A   1      47.869  30.659  26.767  1.00  0.00     0.031 C 
ATOM     61  C   UNL A   1      43.992  30.904  30.334  1.00  0.00     0.029 A 
ATOM     62  C   UNL A   1      43.894  31.415  29.050  1.00  0.00     0.049 A 
ATOM     63  H   UNL A   1      42.197  31.537  27.820  1.00  0.00     0.167 HD
ATOM     64  C   UNL A   1      45.909  31.398  27.764  1.00  0.00     0.074 A 
ATOM     65  C   UNL A   1      47.086  31.729  26.985  1.00  0.00     0.031 C 
ATOM     66  C   UNL A   1      44.791  32.094  28.125  1.00  0.00     0.037 A 
BRANCH  53  67
ATOM     67  C   UNL A   1      39.371  29.724  29.745  1.00  0.00     0.057 A 
ATOM     68  C   UNL A   1      38.946  28.633  30.521  1.00  0.00     0.134 A 
ATOM     69  C   UNL A   1      38.338  30.672  29.499  1.00  0.00     0.134 A 
ATOM     70  F   UNL A   1      39.786  27.635  30.824  1.00  0.00    -0.206 F 
ATOM     71  C   UNL A   1      37.627  28.495  31.000  1.00  0.00     0.040 A 
ATOM     72  C   UNL A   1      37.039  30.577  30.027  1.00  0.00     0.040 A 
ATOM     73  F   UNL A   1      38.481  31.718  28.675  1.00  0.00    -0.206 F 
ATOM     74  C   UNL A   1      36.670  29.472  30.766  1.00  0.00     0.006 A 
ENDBRANCH  53  67
BRANCH  54  75
ATOM     75  C   UNL A   1      48.256  27.407  26.416  1.00  0.00     0.057 A 
ATOM     76  C   UNL A   1      47.678  27.427  25.133  1.00  0.00     0.134 A 
ATOM     77  C   UNL A   1      49.593  27.025  26.494  1.00  0.00     0.134 A 
ATOM     78  F   UNL A   1      46.392  27.782  24.980  1.00  0.00    -0.206 F 
ATOM     79  C   UNL A   1      48.426  27.198  23.971  1.00  0.00     0.040 A 
ATOM     80  C   UNL A   1      50.348  26.770  25.335  1.00  0.00     0.040 A 
ATOM     81  F   UNL A   1      50.217  27.039  27.679  1.00  0.00    -0.206 F 
ATOM     82  C   UNL A   1      49.779  26.902  24.070  1.00  0.00     0.006 A 
ENDBRANCH  54  75
BRANCH  66  83
ATOM     83  C   UNL A   1      44.390  33.473  27.636  1.00  0.00     0.057 A 
ATOM     84  C   UNL A   1      43.906  33.760  26.352  1.00  0.00     0.134 A 
ATOM     85  C   UNL A   1      44.328  34.555  28.549  1.00  0.00     0.134 A 
ATOM     86  F   UNL A   1      43.793  32.812  25.414  1.00  0.00    -0.206 F 
ATOM     87  C   UNL A   1      43.450  35.036  25.987  1.00  0.00     0.040 A 
ATOM     88  C   UNL A   1      43.812  35.810  28.216  1.00  0.00     0.040 A 
ATOM     89  F   UNL A   1      44.736  34.427  29.821  1.00  0.00    -0.206 F 
ATOM     90  C   UNL A   1      43.387  36.062  26.922  1.00  0.00     0.006 A 
ENDBRANCH  66  83
ENDBRANCH  40  41
ENDBRANCH  33  35
ENDBRANCH  32  33
ENDBRANCH  31  32
ENDBRANCH  30  31
ENDBRANCH  29  30
ENDBRANCH  28  29
ENDBRANCH   1  28
TORSDOF 20
ENDMDL
MODEL 3
REMARK VINA RESULT:     -12.1      2.347      4.294
REMARK SMILES Cc1ccc(NC(=O)C[C@@H]2C[NH2+]CCO2)c(C(=O)OCCOCCOCCOC(=O)c2ccc(-c3c4nc(c(-c5c(F)cccc5F)c5ccc([nH]5)c(-c5c(F)cccc5F)c5nc(c(-c6c(F)cccc6F)c6ccc3[nH]6)C=C5)C=C4)cc2)c1
REMARK SMILES IDX 23 1 22 2 21 3 20 4 19 5 17 6 18 7 16 8 1 9 2 10 3 11 85 12
REMARK SMILES IDX 4 13 5 14 6 15 7 16 8 18 9 19 10 20 11 21 15 22 12 23 14 24
REMARK SMILES IDX 13 25 24 28 25 29 26 30 27 31 28 32 29 33 30 34 31 35 32 36
REMARK SMILES IDX 84 37 33 38 83 39 34 40 35 41 36 42 77 43 37 44 82 45 76 46
REMARK SMILES IDX 78 47 38 48 81 49 75 50 74 51 39 53 65 54 48 55 64 56 49 57
REMARK SMILES IDX 52 58 63 59 79 60 50 61 51 62 62 64 80 65 53 66 40 67 41 68
REMARK SMILES IDX 46 69 42 70 43 71 45 72 47 73 44 74 66 75 67 76 72 77 68 78
REMARK SMILES IDX 69 79 71 80 73 81 70 82 54 83 55 84 60 85 56 86 57 87 59 88
REMARK SMILES IDX 61 89 58 90
REMARK H PARENT 6 17 12 26 12 27 78 52 52 63
REMARK Flexibility Score: inf
ROOT
ATOM      1  C   UNL A   1      31.809  28.646  27.242  1.00  0.00     0.188 C 
ENDROOT
BRANCH   1   2
ATOM      2  O   UNL A   1      31.019  27.440  27.312  1.00  0.00    -0.376 OA
BRANCH   2   3
ATOM      3  C   UNL A   1      30.920  26.420  26.304  1.00  0.00     0.202 C 
BRANCH   3   4
ATOM      4  C   UNL A   1      31.072  24.704  26.437  1.00  0.00     0.261 C 
BRANCH   4   5
ATOM      5  O   UNL A   1      32.319  23.544  26.021  1.00  0.00    -0.460 OA
BRANCH   5   6
ATOM      6  C   UNL A   1      33.691  23.224  26.398  1.00  0.00     0.340 C 
ATOM      7  O   UNL A   1      34.121  22.909  27.510  1.00  0.00    -0.246 OA
BRANCH   6   8
ATOM      8  C   UNL A   1      34.899  23.407  25.591  1.00  0.00     0.083 A 
ATOM      9  C   UNL A   1      38.507  24.078  26.430  1.00  0.00     0.044 C 
ATOM     10  C   UNL A   1      37.278  23.677  25.683  1.00  0.00    -0.050 A 
ATOM     11  C   UNL A   1      37.399  23.105  24.409  1.00  0.00     0.005 A 
ATOM     12  C   UNL A   1      36.024  23.838  26.273  1.00  0.00     0.021 A 
ATOM     13  C   UNL A   1      36.280  22.658  23.716  1.00  0.00     0.027 A 
ATOM     14  C   UNL A   1      35.014  22.796  24.274  1.00  0.00     0.055 A 
BRANCH  14  15
ATOM     15  N   UNL A   1      33.897  22.214  23.590  1.00  0.00    -0.325 N 
ATOM     16  C   UNL A   1      33.203  21.042  23.744  1.00  0.00     0.227 C 
ATOM     17  H   UNL A   1      33.558  22.773  22.855  1.00  0.00     0.169 HD
ATOM     18  O   UNL A   1      32.120  20.905  23.164  1.00  0.00    -0.275 OA
BRANCH  16  19
ATOM     19  C   UNL A   1      33.666  19.876  24.593  1.00  0.00     0.138 C 
BRANCH  19  20
ATOM     20  C   UNL A   1      33.229  18.467  24.167  1.00  0.00     0.182 C 
ATOM     21  C   UNL A   1      32.378  17.860  25.315  1.00  0.00     0.293 C 
ATOM     22  O   UNL A   1      34.369  17.682  23.828  1.00  0.00    -0.366 OA
ATOM     23  N   UNL A   1      32.166  16.409  25.217  1.00  0.00    -0.342 N 
ATOM     24  C   UNL A   1      34.151  16.281  23.767  1.00  0.00     0.222 C 
ATOM     25  C   UNL A   1      33.486  15.776  25.045  1.00  0.00     0.289 C 
ATOM     26  H   UNL A   1      31.572  16.196  24.416  1.00  0.00     0.346 HD
ATOM     27  H   UNL A   1      31.708  16.056  26.058  1.00  0.00     0.346 HD
ENDBRANCH  19  20
ENDBRANCH  16  19
ENDBRANCH  14  15
ENDBRANCH   6   8
ENDBRANCH   5   6
ENDBRANCH   4   5
ENDBRANCH   3   4
ENDBRANCH   2   3
ENDBRANCH   1   2
BRANCH   1  28
ATOM     28  C   UNL A   1      32.031  29.423  25.945  1.00  0.00     0.188 C 
BRANCH  28  29
ATOM     29  O   UNL A   1      33.047  30.386  26.133  1.00  0.00    -0.376 OA
BRANCH  29  30
ATOM     30  C   UNL A   1      32.977  31.136  27.330  1.00  0.00     0.202 C 
BRANCH  30  31
ATOM     31  C   UNL A   1      34.363  31.573  27.839  1.00  0.00     0.261 C 
BRANCH  31  32
ATOM     32  O   UNL A   1      34.418  33.009  28.034  1.00  0.00    -0.460 OA
BRANCH  32  33
ATOM     33  C   UNL A   1      34.423  33.482  29.340  1.00  0.00     0.338 C 
ATOM     34  O   UNL A   1      33.505  34.010  29.883  1.00  0.00    -0.246 OA
BRANCH  33  35
ATOM     35  C   UNL A   1      35.846  33.452  29.867  1.00  0.00     0.060 A 
ATOM     36  C   UNL A   1      36.984  33.946  29.203  1.00  0.00     0.016 A 
ATOM     37  C   UNL A   1      36.080  32.515  30.804  1.00  0.00     0.016 A 
ATOM     38  C   UNL A   1      38.293  33.308  29.337  1.00  0.00     0.010 A 
ATOM     39  C   UNL A   1      37.213  31.752  30.566  1.00  0.00     0.010 A 
ATOM     40  C   UNL A   1      38.461  32.068  29.961  1.00  0.00    -0.014 A 
BRANCH  40  41
ATOM     41  C   UNL A   1      39.856  31.071  29.914  1.00  0.00     0.031 A 
ATOM     42  C   UNL A   1      40.141  29.405  29.414  1.00  0.00     0.074 A 
ATOM     43  C   UNL A   1      40.960  31.570  30.518  1.00  0.00     0.049 A 
ATOM     44  N   UNL A   1      41.091  28.630  29.914  1.00  0.00    -0.248 NA
ATOM     45  C   UNL A   1      39.356  28.468  28.490  1.00  0.00     0.031 C 
ATOM     46  C   UNL A   1      42.327  31.068  30.417  1.00  0.00     0.029 A 
ATOM     47  N   UNL A   1      41.050  32.610  31.452  1.00  0.00    -0.354 N 
ATOM     48  C   UNL A   1      41.069  27.404  29.232  1.00  0.00     0.074 A 
ATOM     49  C   UNL A   1      39.802  27.244  28.675  1.00  0.00     0.031 C 
ATOM     50  C   UNL A   1      43.045  31.562  31.433  1.00  0.00     0.029 A 
ATOM     51  C   UNL A   1      42.133  32.287  32.292  1.00  0.00     0.049 A 
ATOM     52  H   UNL A   1      40.474  33.406  31.509  1.00  0.00     0.167 HD
ATOM     53  C   UNL A   1      42.174  26.685  28.919  1.00  0.00     0.037 A 
ATOM     54  C   UNL A   1      41.969  32.088  33.628  1.00  0.00     0.037 A 
ATOM     55  C   UNL A   1      43.184  26.972  29.891  1.00  0.00     0.049 A 
ATOM     56  C   UNL A   1      42.422  30.724  34.110  1.00  0.00     0.074 A 
ATOM     57  C   UNL A   1      44.324  27.742  29.893  1.00  0.00     0.029 A 
ATOM     58  N   UNL A   1      42.855  26.717  31.213  1.00  0.00    -0.354 N 
ATOM     59  N   UNL A   1      42.846  29.764  33.331  1.00  0.00    -0.248 NA
ATOM     60  C   UNL A   1      42.413  30.319  35.515  1.00  0.00     0.031 C 
ATOM     61  C   UNL A   1      44.577  28.095  31.251  1.00  0.00     0.029 A 
ATOM     62  C   UNL A   1      43.639  27.469  32.057  1.00  0.00     0.049 A 
ATOM     63  H   UNL A   1      42.158  26.087  31.506  1.00  0.00     0.167 HD
ATOM     64  C   UNL A   1      43.055  28.625  34.066  1.00  0.00     0.074 A 
ATOM     65  C   UNL A   1      42.829  29.044  35.435  1.00  0.00     0.031 C 
ATOM     66  C   UNL A   1      43.353  27.425  33.484  1.00  0.00     0.037 A 
BRANCH  53  67
ATOM     67  C   UNL A   1      42.334  25.841  27.647  1.00  0.00     0.057 A 
ATOM     68  C   UNL A   1      42.149  24.450  27.709  1.00  0.00     0.134 A 
ATOM     69  C   UNL A   1      42.812  26.287  26.382  1.00  0.00     0.134 A 
ATOM     70  F   UNL A   1      41.729  23.861  28.836  1.00  0.00    -0.206 F 
ATOM     71  C   UNL A   1      42.416  23.588  26.626  1.00  0.00     0.040 A 
ATOM     72  C   UNL A   1      43.018  25.444  25.276  1.00  0.00     0.040 A 
ATOM     73  F   UNL A   1      43.185  27.550  26.141  1.00  0.00    -0.206 F 
ATOM     74  C   UNL A   1      42.840  24.082  25.400  1.00  0.00     0.006 A 
ENDBRANCH  53  67
BRANCH  54  75
ATOM     75  C   UNL A   1      40.884  32.929  34.209  1.00  0.00     0.057 A 
ATOM     76  C   UNL A   1      39.605  32.364  34.373  1.00  0.00     0.134 A 
ATOM     77  C   UNL A   1      41.160  34.078  34.945  1.00  0.00     0.134 A 
ATOM     78  F   UNL A   1      39.267  31.256  33.694  1.00  0.00    -0.206 F 
ATOM     79  C   UNL A   1      38.688  32.848  35.314  1.00  0.00     0.040 A 
ATOM     80  C   UNL A   1      40.236  34.587  35.877  1.00  0.00     0.040 A 
ATOM     81  F   UNL A   1      42.377  34.633  34.877  1.00  0.00    -0.206 F 
ATOM     82  C   UNL A   1      39.019  33.946  36.097  1.00  0.00     0.006 A 
ENDBRANCH  54  75
BRANCH  66  83
ATOM     83  C   UNL A   1      43.381  26.073  34.169  1.00  0.00     0.057 A 
ATOM     84  C   UNL A   1      42.290  25.480  34.820  1.00  0.00     0.134 A 
ATOM     85  C   UNL A   1      44.517  25.237  34.035  1.00  0.00     0.134 A 
ATOM     86  F   UNL A   1      41.108  26.101  34.922  1.00  0.00    -0.206 F 
ATOM     87  C   UNL A   1      42.342  24.179  35.345  1.00  0.00     0.040 A 
ATOM     88  C   UNL A   1      44.556  23.917  34.493  1.00  0.00     0.040 A 
ATOM     89  F   UNL A   1      45.631  25.658  33.418  1.00  0.00    -0.206 F 
ATOM     90  C   UNL A   1      43.471  23.388  35.171  1.00  0.00     0.006 A 
ENDBRANCH  66  83
ENDBRANCH  40  41
ENDBRANCH  33  35
ENDBRANCH  32  33
ENDBRANCH  31  32
ENDBRANCH  30  31
ENDBRANCH  29  30
ENDBRANCH  28  29
ENDBRANCH   1  28
TORSDOF 20
ENDMDL
