MODEL 1
REMARK VINA RESULT:     -11.4      0.000      0.000
REMARK SMILES O=C(OCCOCCOCCOC(=O)[C@H]1O[C@@H](Oc2c(-c3cc(O)c(O)c(O)c3)oc3cc(O)cc(O)c3c2=O)[C@H](O)[C@@H](O)[C@@H]1O)c1ccc(-c2c3nc(c(-c4c(F)cccc4F)c4ccc([nH]4)c(-c4c(F)cccc4F)c4nc(c(-c5c(F)cccc5F)c5ccc2[nH]5)C=C4)C=C3)cc1
REMARK SMILES IDX 8 1 7 2 6 3 5 4 4 5 3 6 2 7 1 8 47 9 48 10 100 11 49 12
REMARK SMILES IDX 99 13 50 14 51 15 52 16 93 17 53 18 98 19 92 20 94 21 54 22
REMARK SMILES IDX 97 23 91 24 90 25 55 27 81 28 64 29 80 30 65 31 68 32 79 33
REMARK SMILES IDX 95 34 66 35 67 36 78 38 96 39 69 40 56 41 57 42 62 43 58 44
REMARK SMILES IDX 59 45 61 46 63 47 60 48 82 49 83 50 88 51 84 52 85 53 87 54
REMARK SMILES IDX 89 55 86 56 70 57 71 58 76 59 72 60 73 61 75 62 77 63 74 64
REMARK SMILES IDX 9 65 10 66 11 67 12 68 13 69 14 70 15 71 16 72 45 73 17 74
REMARK SMILES IDX 43 75 41 76 46 77 18 79 19 80 20 81 39 82 30 83 38 84 40 85
REMARK SMILES IDX 31 86 36 87 32 88 35 89 33 90 21 91 22 92 29 93 23 94 27 95
REMARK SMILES IDX 25 96 24 97 28 99 26 101 37 103 34 105 44 107 42 109
REMARK H PARENT 94 26 68 37 46 78 24 98 28 100 26 102 37 104 34 106 44 108
REMARK H PARENT 42 110
REMARK Flexibility Score: inf
ROOT
ATOM      1  C   UNL A   1      32.613  29.275  24.426  1.00  0.00     0.188 C 
ENDROOT
BRANCH   1   2
ATOM      2  C   UNL A   1      31.382  29.639  25.263  1.00  0.00     0.188 C 
BRANCH   2   3
ATOM      3  O   UNL A   1      31.723  29.908  26.616  1.00  0.00    -0.376 OA
BRANCH   3   4
ATOM      4  C   UNL A   1      32.548  31.029  26.911  1.00  0.00     0.202 C 
BRANCH   4   5
ATOM      5  C   UNL A   1      31.874  32.373  27.199  1.00  0.00     0.261 C 
BRANCH   5   6
ATOM      6  O   UNL A   1      32.758  33.497  27.287  1.00  0.00    -0.460 OA
BRANCH   6   7
ATOM      7  C   UNL A   1      33.174  34.119  28.416  1.00  0.00     0.338 C 
ATOM      8  O   UNL A   1      32.496  35.003  28.908  1.00  0.00    -0.246 OA
BRANCH   7   9
ATOM      9  C   UNL A   1      34.400  33.663  29.109  1.00  0.00     0.060 A 
ATOM     10  C   UNL A   1      34.475  32.549  29.930  1.00  0.00     0.016 A 
ATOM     11  C   UNL A   1      35.573  34.342  28.853  1.00  0.00     0.016 A 
ATOM     12  C   UNL A   1      35.626  32.250  30.656  1.00  0.00     0.010 A 
ATOM     13  C   UNL A   1      36.781  33.862  29.371  1.00  0.00     0.010 A 
ATOM     14  C   UNL A   1      36.841  32.829  30.327  1.00  0.00    -0.014 A 
BRANCH  14  15
ATOM     15  C   UNL A   1      38.161  32.418  30.937  1.00  0.00     0.031 A 
ATOM     16  C   UNL A   1      38.908  31.297  30.242  1.00  0.00     0.074 A 
ATOM     17  C   UNL A   1      38.653  32.932  32.098  1.00  0.00     0.049 A 
ATOM     18  N   UNL A   1      39.696  30.390  30.747  1.00  0.00    -0.248 NA
ATOM     19  C   UNL A   1      38.647  31.119  28.796  1.00  0.00     0.031 C 
ATOM     20  C   UNL A   1      38.101  34.066  32.842  1.00  0.00     0.029 A 
ATOM     21  N   UNL A   1      39.707  32.549  32.912  1.00  0.00    -0.354 N 
ATOM     22  C   UNL A   1      39.986  29.525  29.694  1.00  0.00     0.074 A 
ATOM     23  C   UNL A   1      39.171  29.924  28.572  1.00  0.00     0.031 C 
ATOM     24  C   UNL A   1      38.766  34.265  33.989  1.00  0.00     0.029 A 
ATOM     25  C   UNL A   1      39.752  33.221  34.131  1.00  0.00     0.049 A 
ATOM     26  H   UNL A   1      40.366  31.864  32.651  1.00  0.00     0.167 HD
ATOM     27  C   UNL A   1      40.920  28.547  29.642  1.00  0.00     0.037 A 
ATOM     28  C   UNL A   1      40.382  32.921  35.290  1.00  0.00     0.037 A 
ATOM     29  C   UNL A   1      41.812  28.288  30.737  1.00  0.00     0.049 A 
ATOM     30  C   UNL A   1      41.212  31.661  35.287  1.00  0.00     0.074 A 
ATOM     31  C   UNL A   1      42.922  27.468  30.776  1.00  0.00     0.029 A 
ATOM     32  N   UNL A   1      41.700  28.886  31.986  1.00  0.00    -0.354 N 
ATOM     33  N   UNL A   1      41.474  30.852  34.288  1.00  0.00    -0.248 NA
ATOM     34  C   UNL A   1      41.757  31.227  36.580  1.00  0.00     0.031 C 
ATOM     35  C   UNL A   1      43.470  27.552  32.059  1.00  0.00     0.029 A 
ATOM     36  C   UNL A   1      42.725  28.454  32.803  1.00  0.00     0.049 A 
ATOM     37  H   UNL A   1      40.997  29.523  32.248  1.00  0.00     0.167 HD
ATOM     38  C   UNL A   1      42.287  29.862  34.813  1.00  0.00     0.074 A 
ATOM     39  C   UNL A   1      42.424  30.139  36.228  1.00  0.00     0.031 C 
ATOM     40  C   UNL A   1      42.908  28.842  34.176  1.00  0.00     0.037 A 
BRANCH  27  41
ATOM     41  C   UNL A   1      41.095  27.788  28.355  1.00  0.00     0.057 A 
ATOM     42  C   UNL A   1      40.471  26.549  28.137  1.00  0.00     0.134 A 
ATOM     43  C   UNL A   1      41.856  28.309  27.301  1.00  0.00     0.134 A 
ATOM     44  F   UNL A   1      39.724  25.985  29.099  1.00  0.00    -0.206 F 
ATOM     45  C   UNL A   1      40.631  25.841  26.943  1.00  0.00     0.040 A 
ATOM     46  C   UNL A   1      41.999  27.624  26.089  1.00  0.00     0.040 A 
ATOM     47  F   UNL A   1      42.472  29.495  27.426  1.00  0.00    -0.206 F 
ATOM     48  C   UNL A   1      41.393  26.383  25.912  1.00  0.00     0.006 A 
ENDBRANCH  27  41
BRANCH  28  49
ATOM     49  C   UNL A   1      40.055  33.560  36.616  1.00  0.00     0.057 A 
ATOM     50  C   UNL A   1      38.916  33.200  37.339  1.00  0.00     0.134 A 
ATOM     51  C   UNL A   1      40.732  34.705  37.072  1.00  0.00     0.134 A 
ATOM     52  F   UNL A   1      38.167  32.166  36.929  1.00  0.00    -0.206 F 
ATOM     53  C   UNL A   1      38.457  33.956  38.429  1.00  0.00     0.040 A 
ATOM     54  C   UNL A   1      40.310  35.453  38.177  1.00  0.00     0.040 A 
ATOM     55  F   UNL A   1      41.800  35.162  36.409  1.00  0.00    -0.206 F 
ATOM     56  C   UNL A   1      39.154  35.086  38.852  1.00  0.00     0.006 A 
ENDBRANCH  28  49
BRANCH  40  57
ATOM     57  C   UNL A   1      44.007  28.178  34.937  1.00  0.00     0.057 A 
ATOM     58  C   UNL A   1      43.834  27.010  35.680  1.00  0.00     0.134 A 
ATOM     59  C   UNL A   1      45.285  28.755  34.897  1.00  0.00     0.134 A 
ATOM     60  F   UNL A   1      42.624  26.441  35.786  1.00  0.00    -0.206 F 
ATOM     61  C   UNL A   1      44.901  26.440  36.373  1.00  0.00     0.040 A 
ATOM     62  C   UNL A   1      46.364  28.176  35.555  1.00  0.00     0.040 A 
ATOM     63  F   UNL A   1      45.502  29.882  34.201  1.00  0.00    -0.206 F 
ATOM     64  C   UNL A   1      46.170  27.017  36.302  1.00  0.00     0.006 A 
ENDBRANCH  40  57
ENDBRANCH  14  15
ENDBRANCH   7   9
ENDBRANCH   6   7
ENDBRANCH   5   6
ENDBRANCH   4   5
ENDBRANCH   3   4
ENDBRANCH   2   3
ENDBRANCH   1   2
BRANCH   1  65
ATOM     65  O   UNL A   1      32.400  28.889  23.071  1.00  0.00    -0.376 OA
BRANCH  65  66
ATOM     66  C   UNL A   1      33.493  28.317  22.363  1.00  0.00     0.202 C 
BRANCH  66  67
ATOM     67  C   UNL A   1      33.995  26.921  22.783  1.00  0.00     0.261 C 
BRANCH  67  68
ATOM     68  O   UNL A   1      33.514  25.793  22.020  1.00  0.00    -0.461 OA
BRANCH  68  69
ATOM     69  C   UNL A   1      32.258  25.396  22.345  1.00  0.00     0.338 C 
ATOM     70  O   UNL A   1      31.245  25.726  21.724  1.00  0.00    -0.249 OA
BRANCH  69  71
ATOM     71  C   UNL A   1      32.128  24.677  23.701  1.00  0.00     0.263 C 
ATOM     72  O   UNL A   1      33.146  24.028  24.495  1.00  0.00    -0.322 OA
ATOM     73  C   UNL A   1      31.421  25.714  24.575  1.00  0.00     0.186 C 
ATOM     74  C   UNL A   1      32.531  23.195  25.546  1.00  0.00     0.340 C 
ATOM     75  C   UNL A   1      30.697  24.959  25.663  1.00  0.00     0.181 C 
ATOM     76  C   UNL A   1      31.628  24.051  26.477  1.00  0.00     0.214 C 
BRANCH  73  77
ATOM     77  O   UNL A   1      30.450  26.570  23.952  1.00  0.00    -0.387 OA
ATOM     78  H   UNL A   1      30.860  27.424  23.741  1.00  0.00     0.211 HD
ENDBRANCH  73  77
BRANCH  74  79
ATOM     79  O   UNL A   1      33.337  22.163  26.184  1.00  0.00    -0.454 OA
BRANCH  79  80
ATOM     80  C   UNL A   1      34.611  21.695  25.930  1.00  0.00     0.214 A 
ATOM     81  C   UNL A   1      34.962  20.691  25.091  1.00  0.00     0.181 A 
ATOM     82  C   UNL A   1      35.753  22.670  26.164  1.00  0.00     0.239 A 
ATOM     83  O   UNL A   1      36.255  20.273  24.818  1.00  0.00    -0.452 OA
ATOM     84  C   UNL A   1      37.150  22.179  25.958  1.00  0.00     0.111 A 
ATOM     85  O   UNL A   1      35.509  23.824  26.492  1.00  0.00    -0.285 OA
ATOM     86  C   UNL A   1      37.303  20.928  25.380  1.00  0.00     0.146 A 
ATOM     87  C   UNL A   1      38.306  22.830  26.418  1.00  0.00     0.134 A 
ATOM     88  C   UNL A   1      38.536  20.262  25.374  1.00  0.00     0.094 A 
ATOM     89  C   UNL A   1      39.546  22.167  26.445  1.00  0.00     0.093 A 
ATOM     90  C   UNL A   1      39.635  20.864  25.964  1.00  0.00     0.123 A 
BRANCH  81  91
ATOM     91  C   UNL A   1      34.044  19.838  24.345  1.00  0.00     0.029 A 
ATOM     92  C   UNL A   1      33.201  20.489  23.453  1.00  0.00     0.062 A 
ATOM     93  C   UNL A   1      33.923  18.449  24.547  1.00  0.00     0.062 A 
ATOM     94  C   UNL A   1      32.343  19.727  22.699  1.00  0.00     0.162 A 
ATOM     95  C   UNL A   1      33.027  17.718  23.769  1.00  0.00     0.162 A 
ATOM     96  C   UNL A   1      32.252  18.358  22.827  1.00  0.00     0.200 A 
BRANCH  94  97
ATOM     97  O   UNL A   1      31.710  20.289  21.652  1.00  0.00    -0.504 OA
ATOM     98  H   UNL A   1      30.840  20.020  21.430  1.00  0.00     0.293 HD
ENDBRANCH  94  97
BRANCH  95  99
ATOM     99  O   UNL A   1      32.955  16.360  23.868  1.00  0.00    -0.504 OA
ATOM    100  H   UNL A   1      33.530  15.902  24.450  1.00  0.00     0.293 HD
ENDBRANCH  95  99
BRANCH  96 101
ATOM    101  O   UNL A   1      31.480  17.650  21.946  1.00  0.00    -0.502 OA
ATOM    102  H   UNL A   1      31.547  16.716  21.910  1.00  0.00     0.293 HD
ENDBRANCH  96 101
ENDBRANCH  81  91
BRANCH  87 103
ATOM    103  O   UNL A   1      38.236  24.103  26.894  1.00  0.00    -0.507 OA
ATOM    104  H   UNL A   1      38.148  24.255  27.815  1.00  0.00     0.293 HD
ENDBRANCH  87 103
BRANCH  90 105
ATOM    105  O   UNL A   1      40.778  20.130  26.082  1.00  0.00    -0.508 OA
ATOM    106  H   UNL A   1      40.940  19.638  26.862  1.00  0.00     0.293 HD
ENDBRANCH  90 105
ENDBRANCH  79  80
ENDBRANCH  74  79
BRANCH  75 107
ATOM    107  O   UNL A   1      30.025  25.909  26.491  1.00  0.00    -0.387 OA
ATOM    108  H   UNL A   1      29.381  26.402  25.959  1.00  0.00     0.211 HD
ENDBRANCH  75 107
BRANCH  76 109
ATOM    109  O   UNL A   1      30.754  23.227  27.252  1.00  0.00    -0.384 OA
ATOM    110  H   UNL A   1      31.265  22.772  27.940  1.00  0.00     0.211 HD
ENDBRANCH  76 109
ENDBRANCH  69  71
ENDBRANCH  68  69
ENDBRANCH  67  68
ENDBRANCH  66  67
ENDBRANCH  65  66
ENDBRANCH   1  65
TORSDOF 28
ENDMDL
MODEL 2
REMARK VINA RESULT:     -10.8      2.207      6.469
REMARK SMILES O=C(OCCOCCOCCOC(=O)[C@H]1O[C@@H](Oc2c(-c3cc(O)c(O)c(O)c3)oc3cc(O)cc(O)c3c2=O)[C@H](O)[C@@H](O)[C@@H]1O)c1ccc(-c2c3nc(c(-c4c(F)cccc4F)c4ccc([nH]4)c(-c4c(F)cccc4F)c4nc(c(-c5c(F)cccc5F)c5ccc2[nH]5)C=C4)C=C3)cc1
REMARK SMILES IDX 8 1 7 2 6 3 5 4 4 5 3 6 2 7 1 8 47 9 48 10 100 11 49 12
REMARK SMILES IDX 99 13 50 14 51 15 52 16 93 17 53 18 98 19 92 20 94 21 54 22
REMARK SMILES IDX 97 23 91 24 90 25 55 27 81 28 64 29 80 30 65 31 68 32 79 33
REMARK SMILES IDX 95 34 66 35 67 36 78 38 96 39 69 40 56 41 57 42 62 43 58 44
REMARK SMILES IDX 59 45 61 46 63 47 60 48 82 49 83 50 88 51 84 52 85 53 87 54
REMARK SMILES IDX 89 55 86 56 70 57 71 58 76 59 72 60 73 61 75 62 77 63 74 64
REMARK SMILES IDX 9 65 10 66 11 67 12 68 13 69 14 70 15 71 16 72 45 73 17 74
REMARK SMILES IDX 43 75 41 76 46 77 18 79 19 80 20 81 39 82 30 83 38 84 40 85
REMARK SMILES IDX 31 86 36 87 32 88 35 89 33 90 21 91 22 92 29 93 23 94 27 95
REMARK SMILES IDX 25 96 24 97 28 99 26 101 37 103 34 105 44 107 42 109
REMARK H PARENT 94 26 68 37 46 78 24 98 28 100 26 102 37 104 34 106 44 108
REMARK H PARENT 42 110
REMARK Flexibility Score: inf
ROOT
ATOM      1  C   UNL A   1      32.901  29.108  24.090  1.00  0.00     0.188 C 
ENDROOT
BRANCH   1   2
ATOM      2  C   UNL A   1      31.656  29.525  24.879  1.00  0.00     0.188 C 
BRANCH   2   3
ATOM      3  O   UNL A   1      31.567  28.847  26.124  1.00  0.00    -0.376 OA
BRANCH   3   4
ATOM      4  C   UNL A   1      32.199  29.413  27.266  1.00  0.00     0.202 C 
BRANCH   4   5
ATOM      5  C   UNL A   1      32.960  30.730  27.098  1.00  0.00     0.261 C 
BRANCH   5   6
ATOM      6  O   UNL A   1      33.873  31.051  28.155  1.00  0.00    -0.460 OA
BRANCH   6   7
ATOM      7  C   UNL A   1      35.077  31.661  28.034  1.00  0.00     0.338 C 
ATOM      8  O   UNL A   1      35.142  32.799  27.605  1.00  0.00    -0.246 OA
BRANCH   7   9
ATOM      9  C   UNL A   1      36.305  30.986  28.513  1.00  0.00     0.060 A 
ATOM     10  C   UNL A   1      37.551  31.584  28.603  1.00  0.00     0.016 A 
ATOM     11  C   UNL A   1      36.185  29.695  28.985  1.00  0.00     0.016 A 
ATOM     12  C   UNL A   1      38.691  30.856  28.937  1.00  0.00     0.010 A 
ATOM     13  C   UNL A   1      37.286  29.068  29.578  1.00  0.00     0.010 A 
ATOM     14  C   UNL A   1      38.586  29.610  29.533  1.00  0.00    -0.014 A 
BRANCH  14  15
ATOM     15  C   UNL A   1      39.761  28.844  30.095  1.00  0.00     0.031 A 
ATOM     16  C   UNL A   1      40.433  29.437  31.317  1.00  0.00     0.074 A 
ATOM     17  C   UNL A   1      40.284  27.727  29.517  1.00  0.00     0.049 A 
ATOM     18  N   UNL A   1      41.681  29.376  31.687  1.00  0.00    -0.248 NA
ATOM     19  C   UNL A   1      39.597  30.297  32.185  1.00  0.00     0.031 C 
ATOM     20  C   UNL A   1      39.711  26.987  28.392  1.00  0.00     0.029 A 
ATOM     21  N   UNL A   1      41.455  27.021  29.749  1.00  0.00    -0.354 N 
ATOM     22  C   UNL A   1      41.779  30.215  32.795  1.00  0.00     0.074 A 
ATOM     23  C   UNL A   1      40.511  30.887  32.940  1.00  0.00     0.031 C 
ATOM     24  C   UNL A   1      40.515  25.986  28.007  1.00  0.00     0.029 A 
ATOM     25  C   UNL A   1      41.724  26.045  28.793  1.00  0.00     0.049 A 
ATOM     26  H   UNL A   1      42.043  27.195  30.520  1.00  0.00     0.167 HD
ATOM     27  C   UNL A   1      42.806  30.338  33.667  1.00  0.00     0.037 A 
ATOM     28  C   UNL A   1      42.871  25.403  28.475  1.00  0.00     0.037 A 
ATOM     29  C   UNL A   1      43.991  29.534  33.566  1.00  0.00     0.049 A 
ATOM     30  C   UNL A   1      44.084  25.763  29.299  1.00  0.00     0.074 A 
ATOM     31  C   UNL A   1      45.031  29.405  34.465  1.00  0.00     0.029 A 
ATOM     32  N   UNL A   1      44.267  28.691  32.497  1.00  0.00    -0.354 N 
ATOM     33  N   UNL A   1      44.163  26.558  30.339  1.00  0.00    -0.248 NA
ATOM     34  C   UNL A   1      45.370  25.211  28.856  1.00  0.00     0.031 C 
ATOM     35  C   UNL A   1      45.951  28.500  33.927  1.00  0.00     0.029 A 
ATOM     36  C   UNL A   1      45.462  28.036  32.715  1.00  0.00     0.049 A 
ATOM     37  H   UNL A   1      43.696  28.578  31.704  1.00  0.00     0.167 HD
ATOM     38  C   UNL A   1      45.491  26.532  30.728  1.00  0.00     0.074 A 
ATOM     39  C   UNL A   1      46.190  25.691  29.778  1.00  0.00     0.031 C 
ATOM     40  C   UNL A   1      46.076  27.109  31.804  1.00  0.00     0.037 A 
BRANCH  27  41
ATOM     41  C   UNL A   1      42.645  31.268  34.839  1.00  0.00     0.057 A 
ATOM     42  C   UNL A   1      43.032  32.616  34.771  1.00  0.00     0.134 A 
ATOM     43  C   UNL A   1      42.062  30.834  36.037  1.00  0.00     0.134 A 
ATOM     44  F   UNL A   1      43.597  33.106  33.657  1.00  0.00    -0.206 F 
ATOM     45  C   UNL A   1      42.885  33.483  35.856  1.00  0.00     0.040 A 
ATOM     46  C   UNL A   1      41.881  31.701  37.121  1.00  0.00     0.040 A 
ATOM     47  F   UNL A   1      41.652  29.565  36.176  1.00  0.00    -0.206 F 
ATOM     48  C   UNL A   1      42.300  33.026  37.035  1.00  0.00     0.006 A 
ENDBRANCH  27  41
BRANCH  28  49
ATOM     49  C   UNL A   1      43.078  24.632  27.196  1.00  0.00     0.057 A 
ATOM     50  C   UNL A   1      43.049  23.236  27.172  1.00  0.00     0.134 A 
ATOM     51  C   UNL A   1      43.546  25.255  26.025  1.00  0.00     0.134 A 
ATOM     52  F   UNL A   1      42.689  22.559  28.271  1.00  0.00    -0.206 F 
ATOM     53  C   UNL A   1      43.494  22.502  26.061  1.00  0.00     0.040 A 
ATOM     54  C   UNL A   1      43.962  24.542  24.895  1.00  0.00     0.040 A 
ATOM     55  F   UNL A   1      43.665  26.586  25.974  1.00  0.00    -0.206 F 
ATOM     56  C   UNL A   1      43.953  23.154  24.918  1.00  0.00     0.006 A 
ENDBRANCH  28  49
BRANCH  40  57
ATOM     57  C   UNL A   1      47.430  26.590  32.159  1.00  0.00     0.057 A 
ATOM     58  C   UNL A   1      48.619  27.169  31.714  1.00  0.00     0.134 A 
ATOM     59  C   UNL A   1      47.513  25.465  32.992  1.00  0.00     0.134 A 
ATOM     60  F   UNL A   1      48.596  28.221  30.882  1.00  0.00    -0.206 F 
ATOM     61  C   UNL A   1      49.854  26.634  32.078  1.00  0.00     0.040 A 
ATOM     62  C   UNL A   1      48.738  24.944  33.390  1.00  0.00     0.040 A 
ATOM     63  F   UNL A   1      46.398  24.867  33.442  1.00  0.00    -0.206 F 
ATOM     64  C   UNL A   1      49.914  25.528  32.926  1.00  0.00     0.006 A 
ENDBRANCH  40  57
ENDBRANCH  14  15
ENDBRANCH   7   9
ENDBRANCH   6   7
ENDBRANCH   5   6
ENDBRANCH   4   5
ENDBRANCH   3   4
ENDBRANCH   2   3
ENDBRANCH   1   2
BRANCH   1  65
ATOM     65  O   UNL A   1      32.835  29.171  22.668  1.00  0.00    -0.376 OA
BRANCH  65  66
ATOM     66  C   UNL A   1      32.654  27.954  21.955  1.00  0.00     0.202 C 
BRANCH  66  67
ATOM     67  C   UNL A   1      33.729  26.856  22.084  1.00  0.00     0.261 C 
BRANCH  67  68
ATOM     68  O   UNL A   1      33.305  25.492  21.865  1.00  0.00    -0.461 OA
BRANCH  68  69
ATOM     69  C   UNL A   1      32.069  25.210  22.350  1.00  0.00     0.338 C 
ATOM     70  O   UNL A   1      31.017  25.587  21.830  1.00  0.00    -0.249 OA
BRANCH  69  71
ATOM     71  C   UNL A   1      32.047  24.566  23.750  1.00  0.00     0.263 C 
ATOM     72  O   UNL A   1      33.108  23.898  24.468  1.00  0.00    -0.322 OA
ATOM     73  C   UNL A   1      31.493  25.684  24.635  1.00  0.00     0.186 C 
ATOM     74  C   UNL A   1      32.564  23.154  25.621  1.00  0.00     0.340 C 
ATOM     75  C   UNL A   1      30.850  25.027  25.831  1.00  0.00     0.181 C 
ATOM     76  C   UNL A   1      31.812  24.106  26.592  1.00  0.00     0.214 C 
BRANCH  73  77
ATOM     77  O   UNL A   1      30.508  26.565  24.069  1.00  0.00    -0.387 OA
ATOM     78  H   UNL A   1      30.281  26.264  23.175  1.00  0.00     0.211 HD
ENDBRANCH  73  77
BRANCH  74  79
ATOM     79  O   UNL A   1      33.378  22.109  26.227  1.00  0.00    -0.454 OA
BRANCH  79  80
ATOM     80  C   UNL A   1      34.651  21.652  25.954  1.00  0.00     0.214 A 
ATOM     81  C   UNL A   1      34.999  20.660  25.101  1.00  0.00     0.181 A 
ATOM     82  C   UNL A   1      35.790  22.632  26.186  1.00  0.00     0.239 A 
ATOM     83  O   UNL A   1      36.292  20.253  24.808  1.00  0.00    -0.452 OA
ATOM     84  C   UNL A   1      37.188  22.153  25.959  1.00  0.00     0.111 A 
ATOM     85  O   UNL A   1      35.541  23.781  26.530  1.00  0.00    -0.285 OA
ATOM     86  C   UNL A   1      37.342  20.909  25.366  1.00  0.00     0.146 A 
ATOM     87  C   UNL A   1      38.344  22.806  26.414  1.00  0.00     0.134 A 
ATOM     88  C   UNL A   1      38.579  20.252  25.339  1.00  0.00     0.094 A 
ATOM     89  C   UNL A   1      39.588  22.152  26.419  1.00  0.00     0.093 A 
ATOM     90  C   UNL A   1      39.681  20.855  25.924  1.00  0.00     0.123 A 
BRANCH  81  91
ATOM     91  C   UNL A   1      34.079  19.809  24.355  1.00  0.00     0.029 A 
ATOM     92  C   UNL A   1      33.223  20.464  23.479  1.00  0.00     0.062 A 
ATOM     93  C   UNL A   1      33.968  18.417  24.545  1.00  0.00     0.062 A 
ATOM     94  C   UNL A   1      32.361  19.704  22.726  1.00  0.00     0.162 A 
ATOM     95  C   UNL A   1      33.068  17.688  23.769  1.00  0.00     0.162 A 
ATOM     96  C   UNL A   1      32.280  18.333  22.842  1.00  0.00     0.200 A 
BRANCH  94  97
ATOM     97  O   UNL A   1      31.714  20.273  21.691  1.00  0.00    -0.504 OA
ATOM     98  H   UNL A   1      31.218  21.057  21.823  1.00  0.00     0.293 HD
ENDBRANCH  94  97
BRANCH  95  99
ATOM     99  O   UNL A   1      33.006  16.329  23.854  1.00  0.00    -0.504 OA
ATOM    100  H   UNL A   1      33.706  15.853  24.256  1.00  0.00     0.293 HD
ENDBRANCH  95  99
BRANCH  96 101
ATOM    101  O   UNL A   1      31.503  17.630  21.962  1.00  0.00    -0.502 OA
ATOM    102  H   UNL A   1      31.639  16.710  21.848  1.00  0.00     0.293 HD
ENDBRANCH  96 101
ENDBRANCH  81  91
BRANCH  87 103
ATOM    103  O   UNL A   1      38.271  24.074  26.905  1.00  0.00    -0.507 OA
ATOM    104  H   UNL A   1      37.499  24.588  26.764  1.00  0.00     0.293 HD
ENDBRANCH  87 103
BRANCH  90 105
ATOM    105  O   UNL A   1      40.830  20.127  26.020  1.00  0.00    -0.508 OA
ATOM    106  H   UNL A   1      41.289  20.084  26.836  1.00  0.00     0.293 HD
ENDBRANCH  90 105
ENDBRANCH  79  80
ENDBRANCH  74  79
BRANCH  75 107
ATOM    107  O   UNL A   1      30.321  26.054  26.671  1.00  0.00    -0.387 OA
ATOM    108  H   UNL A   1      29.362  26.115  26.542  1.00  0.00     0.211 HD
ENDBRANCH  75 107
BRANCH  76 109
ATOM    109  O   UNL A   1      30.984  23.374  27.498  1.00  0.00    -0.384 OA
ATOM    110  H   UNL A   1      30.628  22.591  27.050  1.00  0.00     0.211 HD
ENDBRANCH  76 109
ENDBRANCH  69  71
ENDBRANCH  68  69
ENDBRANCH  67  68
ENDBRANCH  66  67
ENDBRANCH  65  66
ENDBRANCH   1  65
TORSDOF 28
ENDMDL
MODEL 3
REMARK VINA RESULT:     -10.6      3.256      4.520
REMARK SMILES O=C(OCCOCCOCCOC(=O)[C@H]1O[C@@H](Oc2c(-c3cc(O)c(O)c(O)c3)oc3cc(O)cc(O)c3c2=O)[C@H](O)[C@@H](O)[C@@H]1O)c1ccc(-c2c3nc(c(-c4c(F)cccc4F)c4ccc([nH]4)c(-c4c(F)cccc4F)c4nc(c(-c5c(F)cccc5F)c5ccc2[nH]5)C=C4)C=C3)cc1
REMARK SMILES IDX 8 1 7 2 6 3 5 4 4 5 3 6 2 7 1 8 47 9 48 10 100 11 49 12
REMARK SMILES IDX 99 13 50 14 51 15 52 16 93 17 53 18 98 19 92 20 94 21 54 22
REMARK SMILES IDX 97 23 91 24 90 25 55 27 81 28 64 29 80 30 65 31 68 32 79 33
REMARK SMILES IDX 95 34 66 35 67 36 78 38 96 39 69 40 56 41 57 42 62 43 58 44
REMARK SMILES IDX 59 45 61 46 63 47 60 48 82 49 83 50 88 51 84 52 85 53 87 54
REMARK SMILES IDX 89 55 86 56 70 57 71 58 76 59 72 60 73 61 75 62 77 63 74 64
REMARK SMILES IDX 9 65 10 66 11 67 12 68 13 69 14 70 15 71 16 72 45 73 17 74
REMARK SMILES IDX 43 75 41 76 46 77 18 79 19 80 20 81 39 82 30 83 38 84 40 85
REMARK SMILES IDX 31 86 36 87 32 88 35 89 33 90 21 91 22 92 29 93 23 94 27 95
REMARK SMILES IDX 25 96 24 97 28 99 26 101 37 103 34 105 44 107 42 109
REMARK H PARENT 94 26 68 37 46 78 24 98 28 100 26 102 37 104 34 106 44 108
REMARK H PARENT 42 110
REMARK Flexibility Score: inf
ROOT
ATOM      1  C   UNL A   1      33.890  28.632  24.486  1.00  0.00     0.188 C 
ENDROOT
BRANCH   1   2
ATOM      2  C   UNL A   1      32.524  29.314  24.615  1.00  0.00     0.188 C 
BRANCH   2   3
ATOM      3  O   UNL A   1      31.823  28.883  25.773  1.00  0.00    -0.376 OA
BRANCH   3   4
ATOM      4  C   UNL A   1      31.803  29.722  26.921  1.00  0.00     0.202 C 
BRANCH   4   5
ATOM      5  C   UNL A   1      32.086  31.215  26.736  1.00  0.00     0.261 C 
BRANCH   5   6
ATOM      6  O   UNL A   1      33.099  31.760  27.591  1.00  0.00    -0.460 OA
BRANCH   6   7
ATOM      7  C   UNL A   1      34.328  31.241  27.830  1.00  0.00     0.338 C 
ATOM      8  O   UNL A   1      34.700  30.255  27.221  1.00  0.00    -0.246 OA
BRANCH   7   9
ATOM      9  C   UNL A   1      35.257  31.927  28.757  1.00  0.00     0.060 A 
ATOM     10  C   UNL A   1      34.959  33.079  29.464  1.00  0.00     0.016 A 
ATOM     11  C   UNL A   1      36.477  31.330  29.000  1.00  0.00     0.016 A 
ATOM     12  C   UNL A   1      35.924  33.746  30.217  1.00  0.00     0.010 A 
ATOM     13  C   UNL A   1      37.329  31.863  29.973  1.00  0.00     0.010 A 
ATOM     14  C   UNL A   1      37.101  33.113  30.581  1.00  0.00    -0.014 A 
BRANCH  14  15
ATOM     15  C   UNL A   1      38.106  33.696  31.548  1.00  0.00     0.031 A 
ATOM     16  C   UNL A   1      39.394  34.224  30.949  1.00  0.00     0.074 A 
ATOM     17  C   UNL A   1      37.949  33.688  32.901  1.00  0.00     0.049 A 
ATOM     18  N   UNL A   1      40.592  34.262  31.462  1.00  0.00    -0.248 NA
ATOM     19  C   UNL A   1      39.336  34.679  29.541  1.00  0.00     0.031 C 
ATOM     20  C   UNL A   1      36.742  33.293  33.628  1.00  0.00     0.029 A 
ATOM     21  N   UNL A   1      38.823  33.970  33.939  1.00  0.00    -0.354 N 
ATOM     22  C   UNL A   1      41.420  34.703  30.433  1.00  0.00     0.074 A 
ATOM     23  C   UNL A   1      40.621  34.769  29.234  1.00  0.00     0.031 C 
ATOM     24  C   UNL A   1      36.943  33.313  34.953  1.00  0.00     0.029 A 
ATOM     25  C   UNL A   1      38.328  33.639  35.198  1.00  0.00     0.049 A 
ATOM     26  H   UNL A   1      39.712  34.369  33.799  1.00  0.00     0.167 HD
ATOM     27  C   UNL A   1      42.709  35.107  30.508  1.00  0.00     0.037 A 
ATOM     28  C   UNL A   1      38.958  33.444  36.380  1.00  0.00     0.037 A 
ATOM     29  C   UNL A   1      43.418  35.166  31.755  1.00  0.00     0.049 A 
ATOM     30  C   UNL A   1      40.454  33.640  36.374  1.00  0.00     0.074 A 
ATOM     31  C   UNL A   1      44.652  35.721  32.027  1.00  0.00     0.029 A 
ATOM     32  N   UNL A   1      42.920  34.670  32.954  1.00  0.00    -0.354 N 
ATOM     33  N   UNL A   1      41.224  34.053  35.395  1.00  0.00    -0.248 NA
ATOM     34  C   UNL A   1      41.174  33.263  37.597  1.00  0.00     0.031 C 
ATOM     35  C   UNL A   1      44.913  35.539  33.388  1.00  0.00     0.029 A 
ATOM     36  C   UNL A   1      43.823  34.909  33.970  1.00  0.00     0.049 A 
ATOM     37  H   UNL A   1      42.053  34.217  33.062  1.00  0.00     0.167 HD
ATOM     38  C   UNL A   1      42.508  34.070  35.913  1.00  0.00     0.074 A 
ATOM     39  C   UNL A   1      42.419  33.569  37.270  1.00  0.00     0.031 C 
ATOM     40  C   UNL A   1      43.654  34.506  35.339  1.00  0.00     0.037 A 
BRANCH  27  41
ATOM     41  C   UNL A   1      43.377  35.614  29.258  1.00  0.00     0.057 A 
ATOM     42  C   UNL A   1      43.493  36.987  28.987  1.00  0.00     0.134 A 
ATOM     43  C   UNL A   1      43.950  34.733  28.332  1.00  0.00     0.134 A 
ATOM     44  F   UNL A   1      42.970  37.893  29.828  1.00  0.00    -0.206 F 
ATOM     45  C   UNL A   1      44.112  37.462  27.828  1.00  0.00     0.040 A 
ATOM     46  C   UNL A   1      44.600  35.198  27.183  1.00  0.00     0.040 A 
ATOM     47  F   UNL A   1      43.895  33.407  28.527  1.00  0.00    -0.206 F 
ATOM     48  C   UNL A   1      44.675  36.564  26.925  1.00  0.00     0.006 A 
ENDBRANCH  27  41
BRANCH  28  49
ATOM     49  C   UNL A   1      38.331  32.755  37.565  1.00  0.00     0.057 A 
ATOM     50  C   UNL A   1      37.908  31.425  37.497  1.00  0.00     0.134 A 
ATOM     51  C   UNL A   1      37.920  33.470  38.704  1.00  0.00     0.134 A 
ATOM     52  F   UNL A   1      38.190  30.692  36.411  1.00  0.00    -0.206 F 
ATOM     53  C   UNL A   1      37.095  30.853  38.487  1.00  0.00     0.040 A 
ATOM     54  C   UNL A   1      37.137  32.907  39.718  1.00  0.00     0.040 A 
ATOM     55  F   UNL A   1      38.226  34.766  38.830  1.00  0.00    -0.206 F 
ATOM     56  C   UNL A   1      36.706  31.593  39.602  1.00  0.00     0.006 A 
ENDBRANCH  28  49
BRANCH  40  57
ATOM     57  C   UNL A   1      44.793  34.748  36.272  1.00  0.00     0.057 A 
ATOM     58  C   UNL A   1      44.950  35.922  37.009  1.00  0.00     0.134 A 
ATOM     59  C   UNL A   1      45.756  33.738  36.422  1.00  0.00     0.134 A 
ATOM     60  F   UNL A   1      44.083  36.935  36.872  1.00  0.00    -0.206 F 
ATOM     61  C   UNL A   1      46.041  36.090  37.862  1.00  0.00     0.040 A 
ATOM     62  C   UNL A   1      46.827  33.880  37.296  1.00  0.00     0.040 A 
ATOM     63  F   UNL A   1      45.653  32.592  35.730  1.00  0.00    -0.206 F 
ATOM     64  C   UNL A   1      46.974  35.064  38.014  1.00  0.00     0.006 A 
ENDBRANCH  40  57
ENDBRANCH  14  15
ENDBRANCH   7   9
ENDBRANCH   6   7
ENDBRANCH   5   6
ENDBRANCH   4   5
ENDBRANCH   3   4
ENDBRANCH   2   3
ENDBRANCH   1   2
BRANCH   1  65
ATOM     65  O   UNL A   1      34.325  28.265  23.180  1.00  0.00    -0.376 OA
BRANCH  65  66
ATOM     66  C   UNL A   1      33.335  27.887  22.231  1.00  0.00     0.202 C 
BRANCH  66  67
ATOM     67  C   UNL A   1      33.081  26.386  21.987  1.00  0.00     0.261 C 
BRANCH  67  68
ATOM     68  O   UNL A   1      31.720  25.920  22.120  1.00  0.00    -0.461 OA
BRANCH  68  69
ATOM     69  C   UNL A   1      31.202  26.064  23.366  1.00  0.00     0.338 C 
ATOM     70  O   UNL A   1      30.396  26.941  23.684  1.00  0.00    -0.249 OA
BRANCH  69  71
ATOM     71  C   UNL A   1      31.861  25.194  24.453  1.00  0.00     0.263 C 
ATOM     72  O   UNL A   1      33.137  25.358  25.110  1.00  0.00    -0.322 OA
ATOM     73  C   UNL A   1      30.774  25.101  25.526  1.00  0.00     0.186 C 
ATOM     74  C   UNL A   1      33.508  24.128  25.835  1.00  0.00     0.340 C 
ATOM     75  C   UNL A   1      31.022  23.830  26.301  1.00  0.00     0.181 C 
ATOM     76  C   UNL A   1      32.433  23.763  26.897  1.00  0.00     0.214 C 
BRANCH  73  77
ATOM     77  O   UNL A   1      29.404  25.060  25.094  1.00  0.00    -0.387 OA
ATOM     78  H   UNL A   1      29.298  24.368  24.422  1.00  0.00     0.211 HD
ENDBRANCH  73  77
BRANCH  74  79
ATOM     79  O   UNL A   1      34.900  23.933  26.219  1.00  0.00    -0.454 OA
BRANCH  79  80
ATOM     80  C   UNL A   1      35.816  22.948  25.912  1.00  0.00     0.214 A 
ATOM     81  C   UNL A   1      35.671  21.949  25.008  1.00  0.00     0.181 A 
ATOM     82  C   UNL A   1      37.278  23.270  26.178  1.00  0.00     0.239 A 
ATOM     83  O   UNL A   1      36.628  20.999  24.684  1.00  0.00    -0.452 OA
ATOM     84  C   UNL A   1      38.293  22.205  25.914  1.00  0.00     0.111 A 
ATOM     85  O   UNL A   1      37.591  24.385  26.578  1.00  0.00    -0.285 OA
ATOM     86  C   UNL A   1      37.856  21.062  25.261  1.00  0.00     0.146 A 
ATOM     87  C   UNL A   1      39.614  22.220  26.387  1.00  0.00     0.134 A 
ATOM     88  C   UNL A   1      38.643  19.905  25.190  1.00  0.00     0.094 A 
ATOM     89  C   UNL A   1      40.408  21.060  26.348  1.00  0.00     0.093 A 
ATOM     90  C   UNL A   1      39.891  19.895  25.791  1.00  0.00     0.123 A 
BRANCH  81  91
ATOM     91  C   UNL A   1      34.470  21.663  24.233  1.00  0.00     0.029 A 
ATOM     92  C   UNL A   1      34.142  22.595  23.257  1.00  0.00     0.062 A 
ATOM     93  C   UNL A   1      33.616  20.570  24.484  1.00  0.00     0.062 A 
ATOM     94  C   UNL A   1      33.039  22.353  22.474  1.00  0.00     0.162 A 
ATOM     95  C   UNL A   1      32.499  20.373  23.674  1.00  0.00     0.162 A 
ATOM     96  C   UNL A   1      32.225  21.255  22.652  1.00  0.00     0.200 A 
BRANCH  94  97
ATOM     97  O   UNL A   1      32.848  23.086  21.362  1.00  0.00    -0.504 OA
ATOM     98  H   UNL A   1      33.305  22.869  20.573  1.00  0.00     0.293 HD
ENDBRANCH  94  97
BRANCH  95  99
ATOM     99  O   UNL A   1      31.708  19.272  23.823  1.00  0.00    -0.504 OA
ATOM    100  H   UNL A   1      30.923  19.188  23.317  1.00  0.00     0.293 HD
ENDBRANCH  95  99
BRANCH  96 101
ATOM    101  O   UNL A   1      31.229  21.004  21.748  1.00  0.00    -0.502 OA
ATOM    102  H   UNL A   1      30.350  21.270  21.933  1.00  0.00     0.293 HD
ENDBRANCH  96 101
ENDBRANCH  81  91
BRANCH  87 103
ATOM    103  O   UNL A   1      40.136  23.351  26.937  1.00  0.00    -0.507 OA
ATOM    104  H   UNL A   1      41.003  23.342  27.292  1.00  0.00     0.293 HD
ENDBRANCH  87 103
BRANCH  90 105
ATOM    105  O   UNL A   1      40.565  18.712  25.841  1.00  0.00    -0.508 OA
ATOM    106  H   UNL A   1      40.109  17.907  25.694  1.00  0.00     0.293 HD
ENDBRANCH  90 105
ENDBRANCH  79  80
ENDBRANCH  74  79
BRANCH  75 107
ATOM    107  O   UNL A   1      30.014  23.720  27.307  1.00  0.00    -0.387 OA
ATOM    108  H   UNL A   1      29.932  24.566  27.775  1.00  0.00     0.211 HD
ENDBRANCH  75 107
BRANCH  76 109
ATOM    109  O   UNL A   1      32.583  22.412  27.342  1.00  0.00    -0.384 OA
ATOM    110  H   UNL A   1      33.494  22.269  27.639  1.00  0.00     0.211 HD
ENDBRANCH  76 109
ENDBRANCH  69  71
ENDBRANCH  68  69
ENDBRANCH  67  68
ENDBRANCH  66  67
ENDBRANCH  65  66
ENDBRANCH   1  65
TORSDOF 28
ENDMDL
