MODEL 1
REMARK VINA RESULT:     -10.6      0.000      0.000
REMARK SMILES C[C@@H](C(=O)OCCOCCOCCOC(=O)c1ccc(-c2c3nc(c(-c4c(F)cccc4F)c4ccc([nH]4)c(-c4c(F)cccc4F)c4nc(c(-c5c(F)cccc5F)c5ccc2[nH]5)C=C4)C=C3)cc1)c1ccc(C[C@H]2CCC[C@@H]2O)cc1F
REMARK SMILES IDX 9 1 8 2 7 3 6 4 5 5 3 6 4 7 2 8 1 9 71 10 72 11 83 12 73 13
REMARK SMILES IDX 82 14 84 15 74 16 75 17 76 18 77 19 80 20 78 21 79 22 81 23
REMARK SMILES IDX 10 25 11 26 12 27 13 28 14 29 15 30 16 31 17 32 18 33 70 34
REMARK SMILES IDX 19 35 69 36 20 37 21 38 22 39 63 40 23 41 68 42 62 43 64 44
REMARK SMILES IDX 24 45 67 46 61 47 60 48 25 50 51 51 34 52 50 53 35 54 38 55
REMARK SMILES IDX 49 56 65 57 36 58 37 59 48 61 66 62 39 63 26 64 27 65 32 66
REMARK SMILES IDX 28 67 29 68 31 69 33 70 30 71 52 72 53 73 58 74 54 75 55 76
REMARK SMILES IDX 57 77 59 78 56 79 40 80 41 81 46 82 42 83 43 84 45 85 47 86
REMARK SMILES IDX 44 87
REMARK H PARENT 81 24 64 49 38 60
REMARK Flexibility Score: inf
ROOT
ATOM      1  C   UNL A   1      40.845  21.169  27.156  1.00  0.00     0.188 C 
ENDROOT
BRANCH   1   2
ATOM      2  O   UNL A   1      39.742  21.857  26.584  1.00  0.00    -0.376 OA
BRANCH   2   3
ATOM      3  C   UNL A   1      39.424  23.156  27.084  1.00  0.00     0.202 C 
BRANCH   3   4
ATOM      4  C   UNL A   1      38.641  24.148  26.196  1.00  0.00     0.261 C 
BRANCH   4   5
ATOM      5  O   UNL A   1      37.217  23.915  26.154  1.00  0.00    -0.463 OA
BRANCH   5   6
ATOM      6  C   UNL A   1      36.711  23.377  25.012  1.00  0.00     0.313 C 
ATOM      7  O   UNL A   1      37.336  22.610  24.287  1.00  0.00    -0.252 OA
BRANCH   6   8
ATOM      8  C   UNL A   1      35.230  23.723  24.763  1.00  0.00     0.129 C 
ATOM      9  C   UNL A   1      34.748  24.968  25.527  1.00  0.00     0.025 C 
BRANCH   8  10
ATOM     10  C   UNL A   1      34.279  22.518  24.811  1.00  0.00     0.002 A 
ATOM     11  C   UNL A   1      34.197  21.678  25.932  1.00  0.00     0.008 A 
ATOM     12  C   UNL A   1      33.543  22.125  23.683  1.00  0.00     0.127 A 
ATOM     13  C   UNL A   1      33.447  20.499  25.914  1.00  0.00     0.004 A 
ATOM     14  C   UNL A   1      32.838  20.918  23.639  1.00  0.00     0.043 A 
ATOM     15  F   UNL A   1      33.549  22.880  22.575  1.00  0.00    -0.207 F 
ATOM     16  C   UNL A   1      32.842  20.056  24.739  1.00  0.00    -0.045 A 
BRANCH  16  17
ATOM     17  C   UNL A   1      32.306  18.646  24.632  1.00  0.00     0.041 C 
BRANCH  17  18
ATOM     18  C   UNL A   1      33.161  17.553  25.310  1.00  0.00     0.022 C 
ATOM     19  C   UNL A   1      32.406  16.250  25.636  1.00  0.00     0.007 C 
ATOM     20  C   UNL A   1      34.414  17.083  24.558  1.00  0.00     0.117 C 
ATOM     21  C   UNL A   1      33.383  15.105  25.353  1.00  0.00     0.003 C 
ATOM     22  C   UNL A   1      34.748  15.760  25.232  1.00  0.00     0.032 C 
BRANCH  20  23
ATOM     23  O   UNL A   1      35.475  18.015  24.633  1.00  0.00    -0.393 OA
ATOM     24  H   UNL A   1      35.507  18.397  25.524  1.00  0.00     0.210 HD
ENDBRANCH  20  23
ENDBRANCH  17  18
ENDBRANCH  16  17
ENDBRANCH   8  10
ENDBRANCH   6   8
ENDBRANCH   5   6
ENDBRANCH   4   5
ENDBRANCH   3   4
ENDBRANCH   2   3
ENDBRANCH   1   2
BRANCH   1  25
ATOM     25  C   UNL A   1      41.516  20.046  26.351  1.00  0.00     0.188 C 
BRANCH  25  26
ATOM     26  O   UNL A   1      42.503  20.475  25.448  1.00  0.00    -0.376 OA
BRANCH  26  27
ATOM     27  C   UNL A   1      43.345  21.558  25.796  1.00  0.00     0.202 C 
BRANCH  27  28
ATOM     28  C   UNL A   1      43.887  22.584  24.778  1.00  0.00     0.261 C 
BRANCH  28  29
ATOM     29  O   UNL A   1      43.370  23.921  24.818  1.00  0.00    -0.460 OA
BRANCH  29  30
ATOM     30  C   UNL A   1      44.217  24.902  25.204  1.00  0.00     0.338 C 
ATOM     31  O   UNL A   1      45.266  25.225  24.665  1.00  0.00    -0.246 OA
BRANCH  30  32
ATOM     32  C   UNL A   1      43.541  25.683  26.263  1.00  0.00     0.060 A 
ATOM     33  C   UNL A   1      43.967  26.994  26.528  1.00  0.00     0.016 A 
ATOM     34  C   UNL A   1      42.478  25.130  26.979  1.00  0.00     0.016 A 
ATOM     35  C   UNL A   1      43.342  27.748  27.523  1.00  0.00     0.010 A 
ATOM     36  C   UNL A   1      41.872  25.875  27.995  1.00  0.00     0.010 A 
ATOM     37  C   UNL A   1      42.319  27.176  28.291  1.00  0.00    -0.014 A 
BRANCH  37  38
ATOM     38  C   UNL A   1      41.844  27.856  29.521  1.00  0.00     0.031 A 
ATOM     39  C   UNL A   1      40.594  28.688  29.439  1.00  0.00     0.074 A 
ATOM     40  C   UNL A   1      42.505  27.750  30.686  1.00  0.00     0.049 A 
ATOM     41  N   UNL A   1      40.027  29.430  30.355  1.00  0.00    -0.248 NA
ATOM     42  C   UNL A   1      39.900  28.693  28.142  1.00  0.00     0.031 C 
ATOM     43  C   UNL A   1      43.714  26.960  30.900  1.00  0.00     0.029 A 
ATOM     44  N   UNL A   1      42.247  28.312  31.912  1.00  0.00    -0.354 N 
ATOM     45  C   UNL A   1      38.930  30.016  29.737  1.00  0.00     0.074 A 
ATOM     46  C   UNL A   1      38.917  29.551  28.366  1.00  0.00     0.031 C 
ATOM     47  C   UNL A   1      44.086  27.077  32.187  1.00  0.00     0.029 A 
ATOM     48  C   UNL A   1      43.166  27.979  32.878  1.00  0.00     0.049 A 
ATOM     49  H   UNL A   1      41.476  28.900  32.083  1.00  0.00     0.167 HD
ATOM     50  C   UNL A   1      38.019  30.868  30.262  1.00  0.00     0.037 A 
ATOM     51  C   UNL A   1      43.258  28.371  34.164  1.00  0.00     0.037 A 
ATOM     52  C   UNL A   1      38.033  31.329  31.625  1.00  0.00     0.049 A 
ATOM     53  C   UNL A   1      42.253  29.354  34.712  1.00  0.00     0.074 A 
ATOM     54  C   UNL A   1      37.140  32.180  32.255  1.00  0.00     0.029 A 
ATOM     55  N   UNL A   1      38.991  30.986  32.567  1.00  0.00    -0.354 N 
ATOM     56  N   UNL A   1      41.203  29.882  34.129  1.00  0.00    -0.248 NA
ATOM     57  C   UNL A   1      42.456  29.808  36.097  1.00  0.00     0.031 C 
ATOM     58  C   UNL A   1      37.592  32.399  33.559  1.00  0.00     0.029 A 
ATOM     59  C   UNL A   1      38.727  31.631  33.764  1.00  0.00     0.049 A 
ATOM     60  H   UNL A   1      39.746  30.374  32.408  1.00  0.00     0.167 HD
ATOM     61  C   UNL A   1      40.612  30.708  35.079  1.00  0.00     0.074 A 
ATOM     62  C   UNL A   1      41.404  30.593  36.284  1.00  0.00     0.031 C 
ATOM     63  C   UNL A   1      39.515  31.498  34.962  1.00  0.00     0.037 A 
BRANCH  50  64
ATOM     64  C   UNL A   1      36.955  31.396  29.342  1.00  0.00     0.057 A 
ATOM     65  C   UNL A   1      35.845  30.629  28.968  1.00  0.00     0.134 A 
ATOM     66  C   UNL A   1      37.033  32.704  28.848  1.00  0.00     0.134 A 
ATOM     67  F   UNL A   1      35.718  29.363  29.393  1.00  0.00    -0.206 F 
ATOM     68  C   UNL A   1      34.862  31.136  28.116  1.00  0.00     0.040 A 
ATOM     69  C   UNL A   1      36.041  33.232  28.021  1.00  0.00     0.040 A 
ATOM     70  F   UNL A   1      38.068  33.495  29.170  1.00  0.00    -0.206 F 
ATOM     71  C   UNL A   1      34.956  32.445  27.646  1.00  0.00     0.006 A 
ENDBRANCH  50  64
BRANCH  51  72
ATOM     72  C   UNL A   1      44.349  27.857  35.036  1.00  0.00     0.057 A 
ATOM     73  C   UNL A   1      44.161  26.726  35.841  1.00  0.00     0.134 A 
ATOM     74  C   UNL A   1      45.587  28.505  35.124  1.00  0.00     0.134 A 
ATOM     75  F   UNL A   1      42.993  26.066  35.818  1.00  0.00    -0.206 F 
ATOM     76  C   UNL A   1      45.150  26.271  36.715  1.00  0.00     0.040 A 
ATOM     77  C   UNL A   1      46.600  28.040  35.966  1.00  0.00     0.040 A 
ATOM     78  F   UNL A   1      45.831  29.603  34.394  1.00  0.00    -0.206 F 
ATOM     79  C   UNL A   1      46.379  26.926  36.772  1.00  0.00     0.006 A 
ENDBRANCH  51  72
BRANCH  63  80
ATOM     80  C   UNL A   1      39.077  32.265  36.180  1.00  0.00     0.057 A 
ATOM     81  C   UNL A   1      39.494  33.581  36.422  1.00  0.00     0.134 A 
ATOM     82  C   UNL A   1      38.186  31.693  37.097  1.00  0.00     0.134 A 
ATOM     83  F   UNL A   1      40.354  34.186  35.590  1.00  0.00    -0.206 F 
ATOM     84  C   UNL A   1      39.062  34.288  37.546  1.00  0.00     0.040 A 
ATOM     85  C   UNL A   1      37.722  32.401  38.207  1.00  0.00     0.040 A 
ATOM     86  F   UNL A   1      37.735  30.441  36.921  1.00  0.00    -0.206 F 
ATOM     87  C   UNL A   1      38.167  33.701  38.439  1.00  0.00     0.006 A 
ENDBRANCH  63  80
ENDBRANCH  37  38
ENDBRANCH  30  32
ENDBRANCH  29  30
ENDBRANCH  28  29
ENDBRANCH  27  28
ENDBRANCH  26  27
ENDBRANCH  25  26
ENDBRANCH   1  25
TORSDOF 21
ENDMDL
MODEL 2
REMARK VINA RESULT:     -10.3      2.151      3.316
REMARK SMILES C[C@@H](C(=O)OCCOCCOCCOC(=O)c1ccc(-c2c3nc(c(-c4c(F)cccc4F)c4ccc([nH]4)c(-c4c(F)cccc4F)c4nc(c(-c5c(F)cccc5F)c5ccc2[nH]5)C=C4)C=C3)cc1)c1ccc(C[C@H]2CCC[C@@H]2O)cc1F
REMARK SMILES IDX 9 1 8 2 7 3 6 4 5 5 3 6 4 7 2 8 1 9 71 10 72 11 83 12 73 13
REMARK SMILES IDX 82 14 84 15 74 16 75 17 76 18 77 19 80 20 78 21 79 22 81 23
REMARK SMILES IDX 10 25 11 26 12 27 13 28 14 29 15 30 16 31 17 32 18 33 70 34
REMARK SMILES IDX 19 35 69 36 20 37 21 38 22 39 63 40 23 41 68 42 62 43 64 44
REMARK SMILES IDX 24 45 67 46 61 47 60 48 25 50 51 51 34 52 50 53 35 54 38 55
REMARK SMILES IDX 49 56 65 57 36 58 37 59 48 61 66 62 39 63 26 64 27 65 32 66
REMARK SMILES IDX 28 67 29 68 31 69 33 70 30 71 52 72 53 73 58 74 54 75 55 76
REMARK SMILES IDX 57 77 59 78 56 79 40 80 41 81 46 82 42 83 43 84 45 85 47 86
REMARK SMILES IDX 44 87
REMARK H PARENT 81 24 64 49 38 60
REMARK Flexibility Score: inf
ROOT
ATOM      1  C   UNL A   1      43.084  18.745  25.881  1.00  0.00     0.188 C 
ENDROOT
BRANCH   1   2
ATOM      2  O   UNL A   1      41.819  19.182  25.405  1.00  0.00    -0.376 OA
BRANCH   2   3
ATOM      3  C   UNL A   1      40.918  19.784  26.335  1.00  0.00     0.202 C 
BRANCH   3   4
ATOM      4  C   UNL A   1      40.530  21.270  26.174  1.00  0.00     0.261 C 
BRANCH   4   5
ATOM      5  O   UNL A   1      39.172  21.576  26.557  1.00  0.00    -0.463 OA
BRANCH   5   6
ATOM      6  C   UNL A   1      38.251  21.658  25.560  1.00  0.00     0.313 C 
ATOM      7  O   UNL A   1      37.787  20.680  24.982  1.00  0.00    -0.252 OA
BRANCH   6   8
ATOM      8  C   UNL A   1      37.747  23.090  25.293  1.00  0.00     0.129 C 
ATOM      9  C   UNL A   1      38.061  24.079  26.429  1.00  0.00     0.025 C 
BRANCH   8  10
ATOM     10  C   UNL A   1      36.318  23.166  24.737  1.00  0.00     0.002 A 
ATOM     11  C   UNL A   1      36.043  23.025  23.367  1.00  0.00     0.008 A 
ATOM     12  C   UNL A   1      35.233  23.510  25.557  1.00  0.00     0.127 A 
ATOM     13  C   UNL A   1      34.765  23.247  22.848  1.00  0.00     0.004 A 
ATOM     14  C   UNL A   1      33.965  23.790  25.036  1.00  0.00     0.043 A 
ATOM     15  F   UNL A   1      35.402  23.646  26.881  1.00  0.00    -0.207 F 
ATOM     16  C   UNL A   1      33.738  23.728  23.659  1.00  0.00    -0.045 A 
BRANCH  16  17
ATOM     17  C   UNL A   1      32.462  24.264  23.050  1.00  0.00     0.041 C 
BRANCH  17  18
ATOM     18  C   UNL A   1      32.365  25.803  22.946  1.00  0.00     0.022 C 
ATOM     19  C   UNL A   1      32.305  26.541  24.297  1.00  0.00     0.007 C 
ATOM     20  C   UNL A   1      33.484  26.519  22.176  1.00  0.00     0.117 C 
ATOM     21  C   UNL A   1      33.139  27.814  24.129  1.00  0.00     0.003 C 
ATOM     22  C   UNL A   1      33.348  27.965  22.633  1.00  0.00     0.032 C 
BRANCH  20  23
ATOM     23  O   UNL A   1      33.358  26.377  20.775  1.00  0.00    -0.393 OA
ATOM     24  H   UNL A   1      33.455  25.442  20.535  1.00  0.00     0.210 HD
ENDBRANCH  20  23
ENDBRANCH  17  18
ENDBRANCH  16  17
ENDBRANCH   8  10
ENDBRANCH   6   8
ENDBRANCH   5   6
ENDBRANCH   4   5
ENDBRANCH   3   4
ENDBRANCH   2   3
ENDBRANCH   1   2
BRANCH   1  25
ATOM     25  C   UNL A   1      44.351  19.437  25.358  1.00  0.00     0.188 C 
BRANCH  25  26
ATOM     26  O   UNL A   1      44.119  20.515  24.487  1.00  0.00    -0.376 OA
BRANCH  26  27
ATOM     27  C   UNL A   1      43.915  21.812  25.019  1.00  0.00     0.202 C 
BRANCH  27  28
ATOM     28  C   UNL A   1      44.447  23.101  24.359  1.00  0.00     0.261 C 
BRANCH  28  29
ATOM     29  O   UNL A   1      43.834  24.349  24.710  1.00  0.00    -0.460 OA
BRANCH  29  30
ATOM     30  C   UNL A   1      44.639  25.321  25.196  1.00  0.00     0.338 C 
ATOM     31  O   UNL A   1      45.705  25.697  24.731  1.00  0.00    -0.246 OA
BRANCH  30  32
ATOM     32  C   UNL A   1      43.895  26.021  26.266  1.00  0.00     0.060 A 
ATOM     33  C   UNL A   1      44.096  27.397  26.455  1.00  0.00     0.016 A 
ATOM     34  C   UNL A   1      42.989  25.326  27.067  1.00  0.00     0.016 A 
ATOM     35  C   UNL A   1      43.404  28.077  27.459  1.00  0.00     0.010 A 
ATOM     36  C   UNL A   1      42.318  26.001  28.092  1.00  0.00     0.010 A 
ATOM     37  C   UNL A   1      42.543  27.372  28.310  1.00  0.00    -0.014 A 
BRANCH  37  38
ATOM     38  C   UNL A   1      42.024  28.016  29.542  1.00  0.00     0.031 A 
ATOM     39  C   UNL A   1      40.741  28.795  29.454  1.00  0.00     0.074 A 
ATOM     40  C   UNL A   1      42.674  27.924  30.714  1.00  0.00     0.049 A 
ATOM     41  N   UNL A   1      40.131  29.502  30.371  1.00  0.00    -0.248 NA
ATOM     42  C   UNL A   1      40.063  28.787  28.147  1.00  0.00     0.031 C 
ATOM     43  C   UNL A   1      43.912  27.183  30.935  1.00  0.00     0.029 A 
ATOM     44  N   UNL A   1      42.377  28.460  31.944  1.00  0.00    -0.354 N 
ATOM     45  C   UNL A   1      39.018  30.048  29.745  1.00  0.00     0.074 A 
ATOM     46  C   UNL A   1      39.042  29.601  28.368  1.00  0.00     0.031 C 
ATOM     47  C   UNL A   1      44.262  27.300  32.229  1.00  0.00     0.029 A 
ATOM     48  C   UNL A   1      43.296  28.154  32.918  1.00  0.00     0.049 A 
ATOM     49  H   UNL A   1      41.579  29.012  32.111  1.00  0.00     0.167 HD
ATOM     50  C   UNL A   1      38.065  30.855  30.267  1.00  0.00     0.037 A 
ATOM     51  C   UNL A   1      43.355  28.533  34.209  1.00  0.00     0.037 A 
ATOM     52  C   UNL A   1      38.042  31.299  31.636  1.00  0.00     0.049 A 
ATOM     53  C   UNL A   1      42.302  29.466  34.756  1.00  0.00     0.074 A 
ATOM     54  C   UNL A   1      37.106  32.104  32.264  1.00  0.00     0.029 A 
ATOM     55  N   UNL A   1      39.002  30.985  32.586  1.00  0.00    -0.354 N 
ATOM     56  N   UNL A   1      41.239  29.957  34.165  1.00  0.00    -0.248 NA
ATOM     57  C   UNL A   1      42.468  29.911  36.148  1.00  0.00     0.031 C 
ATOM     58  C   UNL A   1      37.532  32.326  33.576  1.00  0.00     0.029 A 
ATOM     59  C   UNL A   1      38.695  31.604  33.788  1.00  0.00     0.049 A 
ATOM     60  H   UNL A   1      39.784  30.408  32.430  1.00  0.00     0.167 HD
ATOM     61  C   UNL A   1      40.601  30.745  35.117  1.00  0.00     0.074 A 
ATOM     62  C   UNL A   1      41.382  30.649  36.331  1.00  0.00     0.031 C 
ATOM     63  C   UNL A   1      39.473  31.490  34.994  1.00  0.00     0.037 A 
BRANCH  50  64
ATOM     64  C   UNL A   1      36.992  31.348  29.340  1.00  0.00     0.057 A 
ATOM     65  C   UNL A   1      35.910  30.546  28.957  1.00  0.00     0.134 A 
ATOM     66  C   UNL A   1      37.030  32.659  28.847  1.00  0.00     0.134 A 
ATOM     67  F   UNL A   1      35.821  29.276  29.380  1.00  0.00    -0.206 F 
ATOM     68  C   UNL A   1      34.918  31.022  28.097  1.00  0.00     0.040 A 
ATOM     69  C   UNL A   1      36.028  33.156  28.013  1.00  0.00     0.040 A 
ATOM     70  F   UNL A   1      38.036  33.483  29.178  1.00  0.00    -0.206 F 
ATOM     71  C   UNL A   1      34.972  32.333  27.630  1.00  0.00     0.006 A 
ENDBRANCH  50  64
BRANCH  51  72
ATOM     72  C   UNL A   1      44.456  28.055  35.089  1.00  0.00     0.057 A 
ATOM     73  C   UNL A   1      44.305  26.908  35.879  1.00  0.00     0.134 A 
ATOM     74  C   UNL A   1      45.664  28.754  35.201  1.00  0.00     0.134 A 
ATOM     75  F   UNL A   1      43.167  26.200  35.834  1.00  0.00    -0.206 F 
ATOM     76  C   UNL A   1      45.302  26.485  36.761  1.00  0.00     0.040 A 
ATOM     77  C   UNL A   1      46.685  28.321  36.051  1.00  0.00     0.040 A 
ATOM     78  F   UNL A   1      45.871  29.870  34.487  1.00  0.00    -0.206 F 
ATOM     79  C   UNL A   1      46.501  27.190  36.841  1.00  0.00     0.006 A 
ENDBRANCH  51  72
BRANCH  63  80
ATOM     80  C   UNL A   1      38.988  32.223  36.215  1.00  0.00     0.057 A 
ATOM     81  C   UNL A   1      39.336  33.555  36.472  1.00  0.00     0.134 A 
ATOM     82  C   UNL A   1      38.119  31.598  37.120  1.00  0.00     0.134 A 
ATOM     83  F   UNL A   1      40.171  34.210  35.652  1.00  0.00    -0.206 F 
ATOM     84  C   UNL A   1      38.860  34.230  37.599  1.00  0.00     0.040 A 
ATOM     85  C   UNL A   1      37.612  32.272  38.232  1.00  0.00     0.040 A 
ATOM     86  F   UNL A   1      37.734  30.327  36.929  1.00  0.00    -0.206 F 
ATOM     87  C   UNL A   1      37.989  33.590  38.478  1.00  0.00     0.006 A 
ENDBRANCH  63  80
ENDBRANCH  37  38
ENDBRANCH  30  32
ENDBRANCH  29  30
ENDBRANCH  28  29
ENDBRANCH  27  28
ENDBRANCH  26  27
ENDBRANCH  25  26
ENDBRANCH   1  25
TORSDOF 21
ENDMDL
MODEL 3
REMARK VINA RESULT:     -10.3      1.101      2.205
REMARK SMILES C[C@@H](C(=O)OCCOCCOCCOC(=O)c1ccc(-c2c3nc(c(-c4c(F)cccc4F)c4ccc([nH]4)c(-c4c(F)cccc4F)c4nc(c(-c5c(F)cccc5F)c5ccc2[nH]5)C=C4)C=C3)cc1)c1ccc(C[C@H]2CCC[C@@H]2O)cc1F
REMARK SMILES IDX 9 1 8 2 7 3 6 4 5 5 3 6 4 7 2 8 1 9 71 10 72 11 83 12 73 13
REMARK SMILES IDX 82 14 84 15 74 16 75 17 76 18 77 19 80 20 78 21 79 22 81 23
REMARK SMILES IDX 10 25 11 26 12 27 13 28 14 29 15 30 16 31 17 32 18 33 70 34
REMARK SMILES IDX 19 35 69 36 20 37 21 38 22 39 63 40 23 41 68 42 62 43 64 44
REMARK SMILES IDX 24 45 67 46 61 47 60 48 25 50 51 51 34 52 50 53 35 54 38 55
REMARK SMILES IDX 49 56 65 57 36 58 37 59 48 61 66 62 39 63 26 64 27 65 32 66
REMARK SMILES IDX 28 67 29 68 31 69 33 70 30 71 52 72 53 73 58 74 54 75 55 76
REMARK SMILES IDX 57 77 59 78 56 79 40 80 41 81 46 82 42 83 43 84 45 85 47 86
REMARK SMILES IDX 44 87
REMARK H PARENT 81 24 64 49 38 60
REMARK Flexibility Score: inf
ROOT
ATOM      1  C   UNL A   1      42.777  18.819  26.417  1.00  0.00     0.188 C 
ENDROOT
BRANCH   1   2
ATOM      2  O   UNL A   1      41.464  18.604  25.919  1.00  0.00    -0.376 OA
BRANCH   2   3
ATOM      3  C   UNL A   1      40.560  19.709  25.900  1.00  0.00     0.202 C 
BRANCH   3   4
ATOM      4  C   UNL A   1      40.836  20.939  26.792  1.00  0.00     0.261 C 
BRANCH   4   5
ATOM      5  O   UNL A   1      39.702  21.815  26.967  1.00  0.00    -0.463 OA
BRANCH   5   6
ATOM      6  C   UNL A   1      38.780  21.842  25.968  1.00  0.00     0.313 C 
ATOM      7  O   UNL A   1      38.385  20.839  25.381  1.00  0.00    -0.252 OA
BRANCH   6   8
ATOM      8  C   UNL A   1      38.181  23.238  25.710  1.00  0.00     0.129 C 
ATOM      9  C   UNL A   1      38.589  24.290  26.755  1.00  0.00     0.025 C 
BRANCH   8  10
ATOM     10  C   UNL A   1      36.691  23.231  25.336  1.00  0.00     0.002 A 
ATOM     11  C   UNL A   1      35.680  23.310  26.307  1.00  0.00     0.008 A 
ATOM     12  C   UNL A   1      36.272  23.013  24.016  1.00  0.00     0.127 A 
ATOM     13  C   UNL A   1      34.331  23.150  25.977  1.00  0.00     0.004 A 
ATOM     14  C   UNL A   1      34.929  22.793  23.688  1.00  0.00     0.043 A 
ATOM     15  F   UNL A   1      37.170  22.944  23.023  1.00  0.00    -0.207 F 
ATOM     16  C   UNL A   1      33.950  22.790  24.685  1.00  0.00    -0.045 A 
BRANCH  16  17
ATOM     17  C   UNL A   1      32.544  22.312  24.401  1.00  0.00     0.041 C 
BRANCH  17  18
ATOM     18  C   UNL A   1      32.292  20.805  24.631  1.00  0.00     0.022 C 
ATOM     19  C   UNL A   1      32.129  19.972  23.345  1.00  0.00     0.007 C 
ATOM     20  C   UNL A   1      33.346  20.040  25.443  1.00  0.00     0.117 C 
ATOM     21  C   UNL A   1      32.831  18.637  23.606  1.00  0.00     0.003 C 
ATOM     22  C   UNL A   1      33.053  18.584  25.108  1.00  0.00     0.032 C 
BRANCH  20  23
ATOM     23  O   UNL A   1      33.263  20.305  26.830  1.00  0.00    -0.393 OA
ATOM     24  H   UNL A   1      33.890  19.738  27.305  1.00  0.00     0.210 HD
ENDBRANCH  20  23
ENDBRANCH  17  18
ENDBRANCH  16  17
ENDBRANCH   8  10
ENDBRANCH   6   8
ENDBRANCH   5   6
ENDBRANCH   4   5
ENDBRANCH   3   4
ENDBRANCH   2   3
ENDBRANCH   1   2
BRANCH   1  25
ATOM     25  C   UNL A   1      43.930  18.985  25.416  1.00  0.00     0.188 C 
BRANCH  25  26
ATOM     26  O   UNL A   1      43.844  20.124  24.598  1.00  0.00    -0.376 OA
BRANCH  26  27
ATOM     27  C   UNL A   1      44.063  21.405  25.159  1.00  0.00     0.202 C 
BRANCH  27  28
ATOM     28  C   UNL A   1      44.167  22.699  24.324  1.00  0.00     0.261 C 
BRANCH  28  29
ATOM     29  O   UNL A   1      43.557  23.891  24.837  1.00  0.00    -0.460 OA
BRANCH  29  30
ATOM     30  C   UNL A   1      44.380  24.887  25.235  1.00  0.00     0.338 C 
ATOM     31  O   UNL A   1      45.426  25.236  24.707  1.00  0.00    -0.246 OA
BRANCH  30  32
ATOM     32  C   UNL A   1      43.681  25.646  26.296  1.00  0.00     0.060 A 
ATOM     33  C   UNL A   1      43.962  27.010  26.463  1.00  0.00     0.016 A 
ATOM     34  C   UNL A   1      42.737  25.016  27.109  1.00  0.00     0.016 A 
ATOM     35  C   UNL A   1      43.312  27.745  27.457  1.00  0.00     0.010 A 
ATOM     36  C   UNL A   1      42.109  25.745  28.123  1.00  0.00     0.010 A 
ATOM     37  C   UNL A   1      42.413  27.104  28.321  1.00  0.00    -0.014 A 
BRANCH  37  38
ATOM     38  C   UNL A   1      41.935  27.796  29.543  1.00  0.00     0.031 A 
ATOM     39  C   UNL A   1      40.679  28.618  29.452  1.00  0.00     0.074 A 
ATOM     40  C   UNL A   1      42.598  27.708  30.708  1.00  0.00     0.049 A 
ATOM     41  N   UNL A   1      40.108  29.368  30.360  1.00  0.00    -0.248 NA
ATOM     42  C   UNL A   1      39.983  28.603  28.156  1.00  0.00     0.031 C 
ATOM     43  C   UNL A   1      43.812  26.929  30.931  1.00  0.00     0.029 A 
ATOM     44  N   UNL A   1      42.338  28.284  31.928  1.00  0.00    -0.354 N 
ATOM     45  C   UNL A   1      39.007  29.938  29.736  1.00  0.00     0.074 A 
ATOM     46  C   UNL A   1      38.995  29.457  28.371  1.00  0.00     0.031 C 
ATOM     47  C   UNL A   1      44.185  27.065  32.216  1.00  0.00     0.029 A 
ATOM     48  C   UNL A   1      43.260  27.969  32.897  1.00  0.00     0.049 A 
ATOM     49  H   UNL A   1      41.562  28.868  32.092  1.00  0.00     0.167 HD
ATOM     50  C   UNL A   1      38.090  30.791  30.251  1.00  0.00     0.037 A 
ATOM     51  C   UNL A   1      43.351  28.377  34.178  1.00  0.00     0.037 A 
ATOM     52  C   UNL A   1      38.102  31.269  31.608  1.00  0.00     0.049 A 
ATOM     53  C   UNL A   1      42.339  29.360  34.715  1.00  0.00     0.074 A 
ATOM     54  C   UNL A   1      37.205  32.121  32.229  1.00  0.00     0.029 A 
ATOM     55  N   UNL A   1      39.064  30.943  32.553  1.00  0.00    -0.354 N 
ATOM     56  N   UNL A   1      41.285  29.875  34.127  1.00  0.00    -0.248 NA
ATOM     57  C   UNL A   1      42.541  29.833  36.093  1.00  0.00     0.031 C 
ATOM     58  C   UNL A   1      37.657  32.360  33.530  1.00  0.00     0.029 A 
ATOM     59  C   UNL A   1      38.797  31.602  33.743  1.00  0.00     0.049 A 
ATOM     60  H   UNL A   1      39.823  30.335  32.401  1.00  0.00     0.167 HD
ATOM     61  C   UNL A   1      40.690  30.708  35.067  1.00  0.00     0.074 A 
ATOM     62  C   UNL A   1      41.484  30.613  36.273  1.00  0.00     0.031 C 
ATOM     63  C   UNL A   1      39.588  31.489  34.942  1.00  0.00     0.037 A 
BRANCH  50  64
ATOM     64  C   UNL A   1      37.022  31.300  29.327  1.00  0.00     0.057 A 
ATOM     65  C   UNL A   1      35.901  30.533  28.988  1.00  0.00     0.134 A 
ATOM     66  C   UNL A   1      37.107  32.592  28.791  1.00  0.00     0.134 A 
ATOM     67  F   UNL A   1      35.767  29.282  29.453  1.00  0.00    -0.206 F 
ATOM     68  C   UNL A   1      34.914  31.023  28.130  1.00  0.00     0.040 A 
ATOM     69  C   UNL A   1      36.111  33.104  27.958  1.00  0.00     0.040 A 
ATOM     70  F   UNL A   1      38.152  33.383  29.078  1.00  0.00    -0.206 F 
ATOM     71  C   UNL A   1      35.015  32.315  27.619  1.00  0.00     0.006 A 
ENDBRANCH  50  64
BRANCH  51  72
ATOM     72  C   UNL A   1      44.446  27.882  35.054  1.00  0.00     0.057 A 
ATOM     73  C   UNL A   1      45.696  28.514  35.080  1.00  0.00     0.134 A 
ATOM     74  C   UNL A   1      44.290  26.741  35.851  1.00  0.00     0.134 A 
ATOM     75  F   UNL A   1      45.919  29.603  34.328  1.00  0.00    -0.206 F 
ATOM     76  C   UNL A   1      46.755  28.021  35.845  1.00  0.00     0.040 A 
ATOM     77  C   UNL A   1      45.330  26.258  36.650  1.00  0.00     0.040 A 
ATOM     78  F   UNL A   1      43.126  26.076  35.864  1.00  0.00    -0.206 F 
ATOM     79  C   UNL A   1      46.569  26.892  36.641  1.00  0.00     0.006 A 
ENDBRANCH  51  72
BRANCH  63  80
ATOM     80  C   UNL A   1      39.146  32.268  36.150  1.00  0.00     0.057 A 
ATOM     81  C   UNL A   1      38.252  31.741  37.092  1.00  0.00     0.134 A 
ATOM     82  C   UNL A   1      39.662  33.547  36.398  1.00  0.00     0.134 A 
ATOM     83  F   UNL A   1      37.713  30.526  36.912  1.00  0.00    -0.206 F 
ATOM     84  C   UNL A   1      37.867  32.469  38.220  1.00  0.00     0.040 A 
ATOM     85  C   UNL A   1      39.309  34.271  37.538  1.00  0.00     0.040 A 
ATOM     86  F   UNL A   1      40.532  34.109  35.545  1.00  0.00    -0.206 F 
ATOM     87  C   UNL A   1      38.402  33.735  38.450  1.00  0.00     0.006 A 
ENDBRANCH  63  80
ENDBRANCH  37  38
ENDBRANCH  30  32
ENDBRANCH  29  30
ENDBRANCH  28  29
ENDBRANCH  27  28
ENDBRANCH  26  27
ENDBRANCH  25  26
ENDBRANCH   1  25
TORSDOF 21
ENDMDL
