MODEL 1
REMARK VINA RESULT:     -10.8      0.000      0.000
REMARK SMILES Cc1cc(F)ccc1CCNc1ccc(Cl)c(C(=O)OCCOCCOCCOC(=O)c2ccc(-c3c4nc(c(-c5c(F)cccc5F)c5ccc([nH]5)c(-c5c(F)cccc5F)c5nc(c(-c6c(F)cccc6F)c6ccc3[nH]6)C=C5)C=C4)cc2)n1
REMARK SMILES IDX 24 1 23 2 22 3 21 4 20 5 18 6 19 7 17 8 12 9 13 10 86 11
REMARK SMILES IDX 14 12 15 13 16 14 11 15 10 17 9 18 8 19 1 20 2 21 3 22 4 23
REMARK SMILES IDX 7 24 5 25 6 26 25 27 26 28 27 29 28 30 29 31 30 32 31 33
REMARK SMILES IDX 32 34 33 35 85 36 34 37 84 38 35 39 36 40 37 41 78 42 38 43
REMARK SMILES IDX 83 44 77 45 79 46 39 47 82 48 76 49 75 50 40 52 66 53 49 54
REMARK SMILES IDX 65 55 50 56 53 57 64 58 80 59 51 60 52 61 63 63 81 64 54 65
REMARK SMILES IDX 41 66 42 67 47 68 43 69 44 70 46 71 48 72 45 73 67 74 68 75
REMARK SMILES IDX 73 76 69 77 70 78 72 79 74 80 71 81 55 82 56 83 61 84 57 85
REMARK SMILES IDX 58 86 60 87 62 88 59 89
REMARK H PARENT 11 16 79 51 53 62
REMARK Flexibility Score: inf
ROOT
ATOM      1  C   UNL A   1      45.937  18.622  25.450  1.00  0.00     0.188 C 
ENDROOT
BRANCH   1   2
ATOM      2  O   UNL A   1      44.591  18.179  25.334  1.00  0.00    -0.376 OA
BRANCH   2   3
ATOM      3  C   UNL A   1      43.573  19.134  25.046  1.00  0.00     0.202 C 
BRANCH   3   4
ATOM      4  C   UNL A   1      42.338  19.205  25.952  1.00  0.00     0.261 C 
BRANCH   4   5
ATOM      5  O   UNL A   1      41.921  20.555  26.212  1.00  0.00    -0.458 OA
BRANCH   5   6
ATOM      6  C   UNL A   1      41.030  20.708  27.225  1.00  0.00     0.358 C 
ATOM      7  O   UNL A   1      40.794  19.901  28.111  1.00  0.00    -0.244 OA
BRANCH   6   8
ATOM      8  C   UNL A   1      40.491  22.092  27.225  1.00  0.00     0.169 A 
ATOM      9  C   UNL A   1      38.880  23.478  26.281  1.00  0.00     0.127 A 
ATOM     10  C   UNL A   1      39.419  24.579  26.925  1.00  0.00     0.048 A 
ATOM     11  N   UNL A   1      39.386  22.245  26.435  1.00  0.00    -0.222 NA
ATOM     12  C   UNL A   1      40.514  24.401  27.776  1.00  0.00     0.027 A 
ATOM     13  C   UNL A   1      41.075  23.134  27.930  1.00  0.00     0.074 A 
ATOM     14  Cl  UNL A   1      42.454  22.955  28.941  1.00  0.00    -0.082 Cl
BRANCH   9  15
ATOM     15  N   UNL A   1      37.780  23.539  25.459  1.00  0.00    -0.370 N 
ATOM     16  H   UNL A   1      37.725  24.244  24.774  1.00  0.00     0.162 HD
BRANCH  15  17
ATOM     17  C   UNL A   1      36.691  22.571  25.587  1.00  0.00     0.119 C 
BRANCH  17  18
ATOM     18  C   UNL A   1      35.533  22.908  24.617  1.00  0.00     0.057 C 
BRANCH  18  19
ATOM     19  C   UNL A   1      34.542  21.774  24.402  1.00  0.00    -0.043 A 
ATOM     20  C   UNL A   1      32.829  23.197  23.082  1.00  0.00     0.045 C 
ATOM     21  C   UNL A   1      33.309  21.924  23.723  1.00  0.00    -0.045 A 
ATOM     22  C   UNL A   1      32.462  20.805  23.577  1.00  0.00     0.043 A 
ATOM     23  C   UNL A   1      32.801  19.579  24.124  1.00  0.00     0.123 A 
ATOM     24  C   UNL A   1      34.870  20.499  24.908  1.00  0.00     0.007 A 
ATOM     25  F   UNL A   1      31.971  18.538  23.991  1.00  0.00    -0.207 F 
ATOM     26  C   UNL A   1      33.992  19.425  24.801  1.00  0.00     0.039 A 
ENDBRANCH  18  19
ENDBRANCH  17  18
ENDBRANCH  15  17
ENDBRANCH   9  15
ENDBRANCH   6   8
ENDBRANCH   5   6
ENDBRANCH   4   5
ENDBRANCH   3   4
ENDBRANCH   2   3
ENDBRANCH   1   2
BRANCH   1  27
ATOM     27  C   UNL A   1      46.409  19.839  24.629  1.00  0.00     0.188 C 
BRANCH  27  28
ATOM     28  O   UNL A   1      46.417  21.082  25.286  1.00  0.00    -0.376 OA
BRANCH  28  29
ATOM     29  C   UNL A   1      45.904  22.249  24.664  1.00  0.00     0.202 C 
BRANCH  29  30
ATOM     30  C   UNL A   1      46.274  23.708  24.996  1.00  0.00     0.261 C 
BRANCH  30  31
ATOM     31  O   UNL A   1      45.278  24.717  24.837  1.00  0.00    -0.460 OA
BRANCH  31  32
ATOM     32  C   UNL A   1      45.707  25.991  24.996  1.00  0.00     0.338 C 
ATOM     33  O   UNL A   1      46.575  26.570  24.371  1.00  0.00    -0.246 OA
BRANCH  32  34
ATOM     34  C   UNL A   1      44.824  26.648  25.974  1.00  0.00     0.060 A 
ATOM     35  C   UNL A   1      44.823  28.046  26.050  1.00  0.00     0.016 A 
ATOM     36  C   UNL A   1      44.025  25.883  26.826  1.00  0.00     0.016 A 
ATOM     37  C   UNL A   1      44.028  28.686  26.998  1.00  0.00     0.010 A 
ATOM     38  C   UNL A   1      43.246  26.524  27.789  1.00  0.00     0.010 A 
ATOM     39  C   UNL A   1      43.263  27.926  27.895  1.00  0.00    -0.014 A 
BRANCH  39  40
ATOM     40  C   UNL A   1      42.611  28.585  29.049  1.00  0.00     0.031 A 
ATOM     41  C   UNL A   1      43.370  28.690  30.340  1.00  0.00     0.074 A 
ATOM     42  C   UNL A   1      41.370  29.090  28.942  1.00  0.00     0.049 A 
ATOM     43  N   UNL A   1      43.003  29.215  31.479  1.00  0.00    -0.248 NA
ATOM     44  C   UNL A   1      44.724  28.111  30.350  1.00  0.00     0.031 C 
ATOM     45  C   UNL A   1      40.550  29.070  27.733  1.00  0.00     0.029 A 
ATOM     46  N   UNL A   1      40.598  29.750  29.865  1.00  0.00    -0.354 N 
ATOM     47  C   UNL A   1      44.064  29.003  32.350  1.00  0.00     0.074 A 
ATOM     48  C   UNL A   1      45.089  28.300  31.608  1.00  0.00     0.031 C 
ATOM     49  C   UNL A   1      39.402  29.727  27.976  1.00  0.00     0.029 A 
ATOM     50  C   UNL A   1      39.394  30.184  29.367  1.00  0.00     0.049 A 
ATOM     51  H   UNL A   1      40.880  29.899  30.797  1.00  0.00     0.167 HD
ATOM     52  C   UNL A   1      44.169  29.354  33.653  1.00  0.00     0.037 A 
ATOM     53  C   UNL A   1      38.410  30.883  29.967  1.00  0.00     0.037 A 
ATOM     54  C   UNL A   1      43.147  30.051  34.388  1.00  0.00     0.049 A 
ATOM     55  C   UNL A   1      38.555  31.261  31.420  1.00  0.00     0.074 A 
ATOM     56  C   UNL A   1      43.155  30.444  35.715  1.00  0.00     0.029 A 
ATOM     57  N   UNL A   1      41.931  30.453  33.858  1.00  0.00    -0.354 N 
ATOM     58  N   UNL A   1      39.560  31.055  32.237  1.00  0.00    -0.248 NA
ATOM     59  C   UNL A   1      37.412  31.947  32.041  1.00  0.00     0.031 C 
ATOM     60  C   UNL A   1      41.923  31.042  36.000  1.00  0.00     0.029 A 
ATOM     61  C   UNL A   1      41.170  31.069  34.838  1.00  0.00     0.049 A 
ATOM     62  H   UNL A   1      41.650  30.322  32.923  1.00  0.00     0.167 HD
ATOM     63  C   UNL A   1      39.180  31.599  33.458  1.00  0.00     0.074 A 
ATOM     64  C   UNL A   1      37.859  32.163  33.270  1.00  0.00     0.031 C 
ATOM     65  C   UNL A   1      39.855  31.622  34.633  1.00  0.00     0.037 A 
BRANCH  52  66
ATOM     66  C   UNL A   1      45.415  28.940  34.378  1.00  0.00     0.057 A 
ATOM     67  C   UNL A   1      45.525  27.703  35.027  1.00  0.00     0.134 A 
ATOM     68  C   UNL A   1      46.529  29.790  34.414  1.00  0.00     0.134 A 
ATOM     69  F   UNL A   1      44.489  26.851  35.047  1.00  0.00    -0.206 F 
ATOM     70  C   UNL A   1      46.689  27.337  35.704  1.00  0.00     0.040 A 
ATOM     71  C   UNL A   1      47.707  29.423  35.065  1.00  0.00     0.040 A 
ATOM     72  F   UNL A   1      46.491  30.988  33.812  1.00  0.00    -0.206 F 
ATOM     73  C   UNL A   1      47.787  28.195  35.719  1.00  0.00     0.006 A 
ENDBRANCH  52  66
BRANCH  53  74
ATOM     74  C   UNL A   1      37.201  31.283  29.201  1.00  0.00     0.057 A 
ATOM     75  C   UNL A   1      37.065  32.577  28.683  1.00  0.00     0.134 A 
ATOM     76  C   UNL A   1      36.141  30.393  28.988  1.00  0.00     0.134 A 
ATOM     77  F   UNL A   1      38.028  33.490  28.879  1.00  0.00    -0.206 F 
ATOM     78  C   UNL A   1      35.916  32.975  27.996  1.00  0.00     0.040 A 
ATOM     79  C   UNL A   1      34.999  30.769  28.278  1.00  0.00     0.040 A 
ATOM     80  F   UNL A   1      36.203  29.140  29.461  1.00  0.00    -0.206 F 
ATOM     81  C   UNL A   1      34.881  32.068  27.786  1.00  0.00     0.006 A 
ENDBRANCH  53  74
BRANCH  65  82
ATOM     82  C   UNL A   1      39.187  32.283  35.805  1.00  0.00     0.057 A 
ATOM     83  C   UNL A   1      39.337  33.651  36.064  1.00  0.00     0.134 A 
ATOM     84  C   UNL A   1      38.338  31.554  36.649  1.00  0.00     0.134 A 
ATOM     85  F   UNL A   1      40.141  34.405  35.300  1.00  0.00    -0.206 F 
ATOM     86  C   UNL A   1      38.685  34.266  37.135  1.00  0.00     0.040 A 
ATOM     87  C   UNL A   1      37.661  32.164  37.706  1.00  0.00     0.040 A 
ATOM     88  F   UNL A   1      38.139  30.243  36.448  1.00  0.00    -0.206 F 
ATOM     89  C   UNL A   1      37.838  33.523  37.955  1.00  0.00     0.006 A 
ENDBRANCH  65  82
ENDBRANCH  39  40
ENDBRANCH  32  34
ENDBRANCH  31  32
ENDBRANCH  30  31
ENDBRANCH  29  30
ENDBRANCH  28  29
ENDBRANCH  27  28
ENDBRANCH   1  27
TORSDOF 21
ENDMDL
MODEL 2
REMARK VINA RESULT:     -10.5      2.586      4.329
REMARK SMILES Cc1cc(F)ccc1CCNc1ccc(Cl)c(C(=O)OCCOCCOCCOC(=O)c2ccc(-c3c4nc(c(-c5c(F)cccc5F)c5ccc([nH]5)c(-c5c(F)cccc5F)c5nc(c(-c6c(F)cccc6F)c6ccc3[nH]6)C=C5)C=C4)cc2)n1
REMARK SMILES IDX 24 1 23 2 22 3 21 4 20 5 18 6 19 7 17 8 12 9 13 10 86 11
REMARK SMILES IDX 14 12 15 13 16 14 11 15 10 17 9 18 8 19 1 20 2 21 3 22 4 23
REMARK SMILES IDX 7 24 5 25 6 26 25 27 26 28 27 29 28 30 29 31 30 32 31 33
REMARK SMILES IDX 32 34 33 35 85 36 34 37 84 38 35 39 36 40 37 41 78 42 38 43
REMARK SMILES IDX 83 44 77 45 79 46 39 47 82 48 76 49 75 50 40 52 66 53 49 54
REMARK SMILES IDX 65 55 50 56 53 57 64 58 80 59 51 60 52 61 63 63 81 64 54 65
REMARK SMILES IDX 41 66 42 67 47 68 43 69 44 70 46 71 48 72 45 73 67 74 68 75
REMARK SMILES IDX 73 76 69 77 70 78 72 79 74 80 71 81 55 82 56 83 61 84 57 85
REMARK SMILES IDX 58 86 60 87 62 88 59 89
REMARK H PARENT 11 16 79 51 53 62
REMARK Flexibility Score: inf
ROOT
ATOM      1  C   UNL A   1      39.603  21.650  26.304  1.00  0.00     0.188 C 
ENDROOT
BRANCH   1   2
ATOM      2  O   UNL A   1      38.461  21.524  25.466  1.00  0.00    -0.376 OA
BRANCH   2   3
ATOM      3  C   UNL A   1      38.135  20.243  24.932  1.00  0.00     0.202 C 
BRANCH   3   4
ATOM      4  C   UNL A   1      36.668  19.799  24.898  1.00  0.00     0.261 C 
BRANCH   4   5
ATOM      5  O   UNL A   1      35.760  20.868  25.210  1.00  0.00    -0.458 OA
BRANCH   5   6
ATOM      6  C   UNL A   1      34.456  20.633  24.914  1.00  0.00     0.358 C 
ATOM      7  O   UNL A   1      33.938  19.542  24.734  1.00  0.00    -0.244 OA
BRANCH   6   8
ATOM      8  C   UNL A   1      33.676  21.893  25.013  1.00  0.00     0.169 A 
ATOM      9  C   UNL A   1      32.571  23.518  23.771  1.00  0.00     0.127 A 
ATOM     10  C   UNL A   1      32.359  24.277  24.910  1.00  0.00     0.048 A 
ATOM     11  N   UNL A   1      33.201  22.334  23.810  1.00  0.00    -0.222 NA
ATOM     12  C   UNL A   1      32.800  23.788  26.144  1.00  0.00     0.027 A 
ATOM     13  C   UNL A   1      33.482  22.573  26.206  1.00  0.00     0.074 A 
ATOM     14  Cl  UNL A   1      34.058  22.023  27.730  1.00  0.00    -0.082 Cl
BRANCH   9  15
ATOM     15  N   UNL A   1      32.141  23.889  22.519  1.00  0.00    -0.370 N 
ATOM     16  H   UNL A   1      31.386  23.410  22.104  1.00  0.00     0.162 HD
BRANCH  15  17
ATOM     17  C   UNL A   1      32.787  24.983  21.795  1.00  0.00     0.119 C 
BRANCH  17  18
ATOM     18  C   UNL A   1      31.835  26.197  21.663  1.00  0.00     0.057 C 
BRANCH  18  19
ATOM     19  C   UNL A   1      31.990  27.240  22.760  1.00  0.00    -0.043 A 
ATOM     20  C   UNL A   1      29.686  26.787  23.850  1.00  0.00     0.045 C 
ATOM     21  C   UNL A   1      30.999  27.513  23.732  1.00  0.00    -0.045 A 
ATOM     22  C   UNL A   1      31.244  28.500  24.709  1.00  0.00     0.043 A 
ATOM     23  C   UNL A   1      32.420  29.232  24.702  1.00  0.00     0.123 A 
ATOM     24  C   UNL A   1      33.191  27.977  22.812  1.00  0.00     0.007 A 
ATOM     25  F   UNL A   1      32.621  30.179  25.625  1.00  0.00    -0.207 F 
ATOM     26  C   UNL A   1      33.386  28.986  23.750  1.00  0.00     0.039 A 
ENDBRANCH  18  19
ENDBRANCH  17  18
ENDBRANCH  15  17
ENDBRANCH   9  15
ENDBRANCH   6   8
ENDBRANCH   5   6
ENDBRANCH   4   5
ENDBRANCH   3   4
ENDBRANCH   2   3
ENDBRANCH   1   2
BRANCH   1  27
ATOM     27  C   UNL A   1      40.730  20.601  26.214  1.00  0.00     0.188 C 
BRANCH  27  28
ATOM     28  O   UNL A   1      41.984  20.973  26.729  1.00  0.00    -0.376 OA
BRANCH  28  29
ATOM     29  C   UNL A   1      43.168  20.836  25.960  1.00  0.00     0.202 C 
BRANCH  29  30
ATOM     30  C   UNL A   1      43.770  21.883  25.003  1.00  0.00     0.261 C 
BRANCH  30  31
ATOM     31  O   UNL A   1      43.132  23.154  24.895  1.00  0.00    -0.460 OA
BRANCH  31  32
ATOM     32  C   UNL A   1      43.927  24.228  25.116  1.00  0.00     0.338 C 
ATOM     33  O   UNL A   1      44.969  24.513  24.557  1.00  0.00    -0.246 OA
BRANCH  32  34
ATOM     34  C   UNL A   1      43.236  25.116  26.066  1.00  0.00     0.060 A 
ATOM     35  C   UNL A   1      43.652  26.449  26.168  1.00  0.00     0.016 A 
ATOM     36  C   UNL A   1      42.204  24.623  26.866  1.00  0.00     0.016 A 
ATOM     37  C   UNL A   1      43.041  27.295  27.091  1.00  0.00     0.010 A 
ATOM     38  C   UNL A   1      41.608  25.465  27.806  1.00  0.00     0.010 A 
ATOM     39  C   UNL A   1      42.041  26.796  27.939  1.00  0.00    -0.014 A 
BRANCH  39  40
ATOM     40  C   UNL A   1      41.562  27.616  29.074  1.00  0.00     0.031 A 
ATOM     41  C   UNL A   1      42.336  27.584  30.360  1.00  0.00     0.074 A 
ATOM     42  C   UNL A   1      40.465  28.382  28.955  1.00  0.00     0.049 A 
ATOM     43  N   UNL A   1      42.105  28.209  31.485  1.00  0.00    -0.248 NA
ATOM     44  C   UNL A   1      43.526  26.717  30.384  1.00  0.00     0.031 C 
ATOM     45  C   UNL A   1      39.651  28.513  27.748  1.00  0.00     0.029 A 
ATOM     46  N   UNL A   1      39.868  29.224  29.860  1.00  0.00    -0.354 N 
ATOM     47  C   UNL A   1      43.100  27.790  32.359  1.00  0.00     0.074 A 
ATOM     48  C   UNL A   1      43.935  26.855  31.636  1.00  0.00     0.031 C 
ATOM     49  C   UNL A   1      38.681  29.416  27.975  1.00  0.00     0.029 A 
ATOM     50  C   UNL A   1      38.787  29.903  29.352  1.00  0.00     0.049 A 
ATOM     51  H   UNL A   1      40.183  29.331  30.786  1.00  0.00     0.167 HD
ATOM     52  C   UNL A   1      43.291  28.144  33.651  1.00  0.00     0.037 A 
ATOM     53  C   UNL A   1      37.989  30.820  29.933  1.00  0.00     0.037 A 
ATOM     54  C   UNL A   1      42.456  29.072  34.368  1.00  0.00     0.049 A 
ATOM     55  C   UNL A   1      38.227  31.196  31.374  1.00  0.00     0.074 A 
ATOM     56  C   UNL A   1      42.563  29.490  35.683  1.00  0.00     0.029 A 
ATOM     57  N   UNL A   1      41.357  29.721  33.828  1.00  0.00    -0.354 N 
ATOM     58  N   UNL A   1      39.167  30.793  32.195  1.00  0.00    -0.248 NA
ATOM     59  C   UNL A   1      37.271  32.138  31.978  1.00  0.00     0.031 C 
ATOM     60  C   UNL A   1      41.498  30.356  35.953  1.00  0.00     0.029 A 
ATOM     61  C   UNL A   1      40.761  30.518  34.792  1.00  0.00     0.049 A 
ATOM     62  H   UNL A   1      41.046  29.630  32.898  1.00  0.00     0.167 HD
ATOM     63  C   UNL A   1      38.928  31.442  33.400  1.00  0.00     0.074 A 
ATOM     64  C   UNL A   1      37.765  32.282  33.199  1.00  0.00     0.031 C 
ATOM     65  C   UNL A   1      39.601  31.346  34.574  1.00  0.00     0.037 A 
BRANCH  52  66
ATOM     66  C   UNL A   1      44.418  27.482  34.386  1.00  0.00     0.057 A 
ATOM     67  C   UNL A   1      44.264  26.253  35.040  1.00  0.00     0.134 A 
ATOM     68  C   UNL A   1      45.685  28.080  34.425  1.00  0.00     0.134 A 
ATOM     69  F   UNL A   1      43.072  25.637  35.057  1.00  0.00    -0.206 F 
ATOM     70  C   UNL A   1      45.322  25.654  35.726  1.00  0.00     0.040 A 
ATOM     71  C   UNL A   1      46.757  27.478  35.084  1.00  0.00     0.040 A 
ATOM     72  F   UNL A   1      45.903  29.256  33.818  1.00  0.00    -0.206 F 
ATOM     73  C   UNL A   1      46.574  26.264  35.744  1.00  0.00     0.006 A 
ENDBRANCH  52  66
BRANCH  53  74
ATOM     74  C   UNL A   1      36.894  31.459  29.158  1.00  0.00     0.057 A 
ATOM     75  C   UNL A   1      36.989  32.788  28.727  1.00  0.00     0.134 A 
ATOM     76  C   UNL A   1      35.715  30.769  28.851  1.00  0.00     0.134 A 
ATOM     77  F   UNL A   1      38.077  33.517  29.017  1.00  0.00    -0.206 F 
ATOM     78  C   UNL A   1      35.950  33.411  28.033  1.00  0.00     0.040 A 
ATOM     79  C   UNL A   1      34.679  31.370  28.132  1.00  0.00     0.040 A 
ATOM     80  F   UNL A   1      35.555  29.495  29.237  1.00  0.00    -0.206 F 
ATOM     81  C   UNL A   1      34.793  32.699  27.728  1.00  0.00     0.006 A 
ENDBRANCH  53  74
BRANCH  65  82
ATOM     82  C   UNL A   1      39.107  32.172  35.727  1.00  0.00     0.057 A 
ATOM     83  C   UNL A   1      38.264  31.636  36.710  1.00  0.00     0.134 A 
ATOM     84  C   UNL A   1      39.524  33.500  35.886  1.00  0.00     0.134 A 
ATOM     85  F   UNL A   1      37.822  30.374  36.613  1.00  0.00    -0.206 F 
ATOM     86  C   UNL A   1      37.837  32.400  37.798  1.00  0.00     0.040 A 
ATOM     87  C   UNL A   1      39.124  34.263  36.984  1.00  0.00     0.040 A 
ATOM     88  F   UNL A   1      40.343  34.070  34.990  1.00  0.00    -0.206 F 
ATOM     89  C   UNL A   1      38.273  33.715  37.941  1.00  0.00     0.006 A 
ENDBRANCH  65  82
ENDBRANCH  39  40
ENDBRANCH  32  34
ENDBRANCH  31  32
ENDBRANCH  30  31
ENDBRANCH  29  30
ENDBRANCH  28  29
ENDBRANCH  27  28
ENDBRANCH   1  27
TORSDOF 21
ENDMDL
MODEL 3
REMARK VINA RESULT:     -10.3      2.491      4.427
REMARK SMILES Cc1cc(F)ccc1CCNc1ccc(Cl)c(C(=O)OCCOCCOCCOC(=O)c2ccc(-c3c4nc(c(-c5c(F)cccc5F)c5ccc([nH]5)c(-c5c(F)cccc5F)c5nc(c(-c6c(F)cccc6F)c6ccc3[nH]6)C=C5)C=C4)cc2)n1
REMARK SMILES IDX 24 1 23 2 22 3 21 4 20 5 18 6 19 7 17 8 12 9 13 10 86 11
REMARK SMILES IDX 14 12 15 13 16 14 11 15 10 17 9 18 8 19 1 20 2 21 3 22 4 23
REMARK SMILES IDX 7 24 5 25 6 26 25 27 26 28 27 29 28 30 29 31 30 32 31 33
REMARK SMILES IDX 32 34 33 35 85 36 34 37 84 38 35 39 36 40 37 41 78 42 38 43
REMARK SMILES IDX 83 44 77 45 79 46 39 47 82 48 76 49 75 50 40 52 66 53 49 54
REMARK SMILES IDX 65 55 50 56 53 57 64 58 80 59 51 60 52 61 63 63 81 64 54 65
REMARK SMILES IDX 41 66 42 67 47 68 43 69 44 70 46 71 48 72 45 73 67 74 68 75
REMARK SMILES IDX 73 76 69 77 70 78 72 79 74 80 71 81 55 82 56 83 61 84 57 85
REMARK SMILES IDX 58 86 60 87 62 88 59 89
REMARK H PARENT 11 16 79 51 53 62
REMARK Flexibility Score: inf
ROOT
ATOM      1  C   UNL A   1      40.260  21.861  26.405  1.00  0.00     0.188 C 
ENDROOT
BRANCH   1   2
ATOM      2  O   UNL A   1      38.865  21.967  26.147  1.00  0.00    -0.376 OA
BRANCH   2   3
ATOM      3  C   UNL A   1      38.276  23.262  26.063  1.00  0.00     0.202 C 
BRANCH   3   4
ATOM      4  C   UNL A   1      36.768  23.382  25.815  1.00  0.00     0.261 C 
BRANCH   4   5
ATOM      5  O   UNL A   1      36.272  22.367  24.926  1.00  0.00    -0.458 OA
BRANCH   5   6
ATOM      6  C   UNL A   1      35.960  22.787  23.674  1.00  0.00     0.358 C 
ATOM      7  O   UNL A   1      36.742  22.958  22.751  1.00  0.00    -0.244 OA
BRANCH   6   8
ATOM      8  C   UNL A   1      34.486  22.844  23.507  1.00  0.00     0.169 A 
ATOM      9  C   UNL A   1      32.763  23.956  22.410  1.00  0.00     0.127 A 
ATOM     10  C   UNL A   1      31.817  23.255  23.140  1.00  0.00     0.048 A 
ATOM     11  N   UNL A   1      34.080  23.749  22.567  1.00  0.00    -0.222 NA
ATOM     12  C   UNL A   1      32.244  22.290  24.058  1.00  0.00     0.027 A 
ATOM     13  C   UNL A   1      33.608  22.078  24.258  1.00  0.00     0.074 A 
ATOM     14  Cl  UNL A   1      34.102  20.922  25.432  1.00  0.00    -0.082 Cl
BRANCH   9  15
ATOM     15  N   UNL A   1      32.447  24.893  21.455  1.00  0.00    -0.370 N 
ATOM     16  H   UNL A   1      32.629  24.699  20.507  1.00  0.00     0.162 HD
BRANCH  15  17
ATOM     17  C   UNL A   1      31.845  26.172  21.828  1.00  0.00     0.119 C 
BRANCH  17  18
ATOM     18  C   UNL A   1      32.912  27.147  22.381  1.00  0.00     0.057 C 
BRANCH  18  19
ATOM     19  C   UNL A   1      32.776  27.453  23.865  1.00  0.00    -0.043 A 
ATOM     20  C   UNL A   1      30.787  29.087  23.592  1.00  0.00     0.045 C 
ATOM     21  C   UNL A   1      31.822  28.351  24.399  1.00  0.00    -0.045 A 
ATOM     22  C   UNL A   1      31.778  28.563  25.793  1.00  0.00     0.043 A 
ATOM     23  C   UNL A   1      32.681  27.938  26.637  1.00  0.00     0.123 A 
ATOM     24  C   UNL A   1      33.650  26.803  24.761  1.00  0.00     0.007 A 
ATOM     25  F   UNL A   1      32.635  28.170  27.953  1.00  0.00    -0.207 F 
ATOM     26  C   UNL A   1      33.625  27.072  26.127  1.00  0.00     0.039 A 
ENDBRANCH  18  19
ENDBRANCH  17  18
ENDBRANCH  15  17
ENDBRANCH   9  15
ENDBRANCH   6   8
ENDBRANCH   5   6
ENDBRANCH   4   5
ENDBRANCH   3   4
ENDBRANCH   2   3
ENDBRANCH   1   2
BRANCH   1  27
ATOM     27  C   UNL A   1      40.903  20.465  26.535  1.00  0.00     0.188 C 
BRANCH  27  28
ATOM     28  O   UNL A   1      42.302  20.399  26.413  1.00  0.00    -0.376 OA
BRANCH  28  29
ATOM     29  C   UNL A   1      43.005  21.240  25.512  1.00  0.00     0.202 C 
BRANCH  29  30
ATOM     30  C   UNL A   1      44.461  21.728  25.652  1.00  0.00     0.261 C 
BRANCH  30  31
ATOM     31  O   UNL A   1      44.702  22.970  26.311  1.00  0.00    -0.460 OA
BRANCH  31  32
ATOM     32  C   UNL A   1      44.354  24.078  25.615  1.00  0.00     0.338 C 
ATOM     33  O   UNL A   1      44.482  24.281  24.422  1.00  0.00    -0.246 OA
BRANCH  32  34
ATOM     34  C   UNL A   1      43.626  24.976  26.527  1.00  0.00     0.060 A 
ATOM     35  C   UNL A   1      44.003  26.323  26.589  1.00  0.00     0.016 A 
ATOM     36  C   UNL A   1      42.597  24.481  27.330  1.00  0.00     0.016 A 
ATOM     37  C   UNL A   1      43.357  27.181  27.476  1.00  0.00     0.010 A 
ATOM     38  C   UNL A   1      41.966  25.336  28.234  1.00  0.00     0.010 A 
ATOM     39  C   UNL A   1      42.360  26.682  28.328  1.00  0.00    -0.014 A 
BRANCH  39  40
ATOM     40  C   UNL A   1      41.843  27.525  29.429  1.00  0.00     0.031 A 
ATOM     41  C   UNL A   1      42.589  27.539  30.733  1.00  0.00     0.074 A 
ATOM     42  C   UNL A   1      40.739  28.272  29.266  1.00  0.00     0.049 A 
ATOM     43  N   UNL A   1      42.322  28.191  31.835  1.00  0.00    -0.248 NA
ATOM     44  C   UNL A   1      43.790  26.691  30.807  1.00  0.00     0.031 C 
ATOM     45  C   UNL A   1      39.951  28.357  28.038  1.00  0.00     0.029 A 
ATOM     46  N   UNL A   1      40.109  29.128  30.133  1.00  0.00    -0.354 N 
ATOM     47  C   UNL A   1      43.303  27.810  32.742  1.00  0.00     0.074 A 
ATOM     48  C   UNL A   1      44.168  26.869  32.064  1.00  0.00     0.031 C 
ATOM     49  C   UNL A   1      38.963  29.252  28.218  1.00  0.00     0.029 A 
ATOM     50  C   UNL A   1      39.030  29.777  29.583  1.00  0.00     0.049 A 
ATOM     51  H   UNL A   1      40.402  29.265  31.063  1.00  0.00     0.167 HD
ATOM     52  C   UNL A   1      43.459  28.201  34.029  1.00  0.00     0.037 A 
ATOM     53  C   UNL A   1      38.206  30.698  30.121  1.00  0.00     0.037 A 
ATOM     54  C   UNL A   1      42.596  29.135  34.700  1.00  0.00     0.049 A 
ATOM     55  C   UNL A   1      38.406  31.115  31.557  1.00  0.00     0.074 A 
ATOM     56  C   UNL A   1      42.667  29.590  36.006  1.00  0.00     0.029 A 
ATOM     57  N   UNL A   1      41.499  29.754  34.119  1.00  0.00    -0.354 N 
ATOM     58  N   UNL A   1      39.333  30.748  32.409  1.00  0.00    -0.248 NA
ATOM     59  C   UNL A   1      37.423  32.058  32.113  1.00  0.00     0.031 C 
ATOM     60  C   UNL A   1      41.583  30.447  36.229  1.00  0.00     0.029 A 
ATOM     61  C   UNL A   1      40.871  30.567  35.047  1.00  0.00     0.049 A 
ATOM     62  H   UNL A   1      41.211  29.633  33.185  1.00  0.00     0.167 HD
ATOM     63  C   UNL A   1      39.057  31.426  33.591  1.00  0.00     0.074 A 
ATOM     64  C   UNL A   1      37.887  32.243  33.340  1.00  0.00     0.031 C 
ATOM     65  C   UNL A   1      39.705  31.371  34.781  1.00  0.00     0.037 A 
BRANCH  52  66
ATOM     66  C   UNL A   1      44.580  27.576  34.806  1.00  0.00     0.057 A 
ATOM     67  C   UNL A   1      45.882  28.091  34.785  1.00  0.00     0.134 A 
ATOM     68  C   UNL A   1      44.345  26.445  35.599  1.00  0.00     0.134 A 
ATOM     69  F   UNL A   1      46.178  29.159  34.030  1.00  0.00    -0.206 F 
ATOM     70  C   UNL A   1      46.915  27.491  35.507  1.00  0.00     0.040 A 
ATOM     71  C   UNL A   1      45.363  25.853  36.347  1.00  0.00     0.040 A 
ATOM     72  F   UNL A   1      43.120  25.901  35.665  1.00  0.00    -0.206 F 
ATOM     73  C   UNL A   1      46.655  26.372  36.296  1.00  0.00     0.006 A 
ENDBRANCH  52  66
BRANCH  53  74
ATOM     74  C   UNL A   1      37.120  31.299  29.305  1.00  0.00     0.057 A 
ATOM     75  C   UNL A   1      35.953  30.582  29.009  1.00  0.00     0.134 A 
ATOM     76  C   UNL A   1      37.228  32.592  28.779  1.00  0.00     0.134 A 
ATOM     77  F   UNL A   1      35.799  29.326  29.453  1.00  0.00    -0.206 F 
ATOM     78  C   UNL A   1      34.943  31.123  28.211  1.00  0.00     0.040 A 
ATOM     79  C   UNL A   1      36.213  33.155  28.003  1.00  0.00     0.040 A 
ATOM     80  F   UNL A   1      38.320  33.332  29.019  1.00  0.00    -0.206 F 
ATOM     81  C   UNL A   1      35.069  32.416  27.711  1.00  0.00     0.006 A 
ENDBRANCH  53  74
BRANCH  65  82
ATOM     82  C   UNL A   1      39.172  32.220  35.900  1.00  0.00     0.057 A 
ATOM     83  C   UNL A   1      39.572  33.552  36.070  1.00  0.00     0.134 A 
ATOM     84  C   UNL A   1      38.208  31.717  36.783  1.00  0.00     0.134 A 
ATOM     85  F   UNL A   1      40.497  34.093  35.264  1.00  0.00    -0.206 F 
ATOM     86  C   UNL A   1      39.047  34.346  37.091  1.00  0.00     0.040 A 
ATOM     87  C   UNL A   1      37.657  32.510  37.791  1.00  0.00     0.040 A 
ATOM     88  F   UNL A   1      37.771  30.454  36.668  1.00  0.00    -0.206 F 
ATOM     89  C   UNL A   1      38.081  33.827  37.951  1.00  0.00     0.006 A 
ENDBRANCH  65  82
ENDBRANCH  39  40
ENDBRANCH  32  34
ENDBRANCH  31  32
ENDBRANCH  30  31
ENDBRANCH  29  30
ENDBRANCH  28  29
ENDBRANCH  27  28
ENDBRANCH   1  27
TORSDOF 21
ENDMDL
