MODEL 1
REMARK VINA RESULT:     -11.9      0.000      0.000
REMARK SMILES O=C(OCCOCCOCCOC(=O)[C@H]1CC2=c3ccccc3=N[C@H]2[C@@H](c2ccccc2)[NH2+]1)c1ccc(-c2c3nc(c(-c4c(F)cccc4F)c4ccc([nH]4)c(-c4c(F)cccc4F)c4nc(c(-c5c(F)cccc5F)c5ccc2[nH]5)C=C4)C=C3)cc1
REMARK SMILES IDX 7 1 6 2 5 3 4 4 3 5 2 6 1 7 34 8 35 9 87 10 36 11 86 12
REMARK SMILES IDX 37 13 38 14 39 15 80 16 40 17 85 18 79 19 81 20 41 21 84 22
REMARK SMILES IDX 78 23 77 24 42 26 68 27 51 28 67 29 52 30 55 31 66 32 82 33
REMARK SMILES IDX 53 34 54 35 65 37 83 38 56 39 43 40 44 41 49 42 45 43 46 44
REMARK SMILES IDX 48 45 50 46 47 47 69 48 70 49 75 50 71 51 72 52 74 53 76 54
REMARK SMILES IDX 73 55 57 56 58 57 63 58 59 59 60 60 62 61 64 62 61 63 8 64
REMARK SMILES IDX 9 65 10 66 11 67 12 68 13 69 14 70 15 71 16 72 33 73 17 74
REMARK SMILES IDX 26 75 18 78 25 79 19 80 23 81 24 82 20 83 22 84 21 85 27 86
REMARK SMILES IDX 28 87 32 88 29 89 31 90 30 91
REMARK H PARENT 81 25 55 36 33 76 33 77
REMARK Flexibility Score: inf
ROOT
ATOM      1  C   UNL A   1      32.101  29.738  26.361  1.00  0.00     0.188 C 
ENDROOT
BRANCH   1   2
ATOM      2  O   UNL A   1      31.341  30.770  25.739  1.00  0.00    -0.376 OA
BRANCH   2   3
ATOM      3  C   UNL A   1      31.135  31.955  26.498  1.00  0.00     0.202 C 
BRANCH   3   4
ATOM      4  C   UNL A   1      32.408  32.680  26.943  1.00  0.00     0.261 C 
BRANCH   4   5
ATOM      5  O   UNL A   1      32.157  33.912  27.624  1.00  0.00    -0.460 OA
BRANCH   5   6
ATOM      6  C   UNL A   1      32.920  34.536  28.551  1.00  0.00     0.338 C 
ATOM      7  O   UNL A   1      32.522  35.629  28.961  1.00  0.00    -0.246 OA
BRANCH   6   8
ATOM      8  C   UNL A   1      34.268  34.065  29.034  1.00  0.00     0.060 A 
ATOM      9  C   UNL A   1      34.229  33.131  30.076  1.00  0.00     0.016 A 
ATOM     10  C   UNL A   1      35.540  34.470  28.609  1.00  0.00     0.016 A 
ATOM     11  C   UNL A   1      35.406  32.679  30.682  1.00  0.00     0.010 A 
ATOM     12  C   UNL A   1      36.727  34.007  29.212  1.00  0.00     0.010 A 
ATOM     13  C   UNL A   1      36.682  33.123  30.280  1.00  0.00    -0.014 A 
BRANCH  13  14
ATOM     14  C   UNL A   1      37.897  32.526  30.907  1.00  0.00     0.031 A 
ATOM     15  C   UNL A   1      38.543  32.998  32.195  1.00  0.00     0.074 A 
ATOM     16  C   UNL A   1      38.423  31.461  30.269  1.00  0.00     0.049 A 
ATOM     17  N   UNL A   1      39.404  32.350  32.951  1.00  0.00    -0.248 NA
ATOM     18  C   UNL A   1      38.219  34.337  32.708  1.00  0.00     0.031 C 
ATOM     19  C   UNL A   1      37.993  30.976  28.953  1.00  0.00     0.029 A 
ATOM     20  N   UNL A   1      39.416  30.594  30.632  1.00  0.00    -0.354 N 
ATOM     21  C   UNL A   1      39.619  33.147  34.074  1.00  0.00     0.074 A 
ATOM     22  C   UNL A   1      38.892  34.375  33.858  1.00  0.00     0.031 C 
ATOM     23  C   UNL A   1      38.682  29.877  28.639  1.00  0.00     0.029 A 
ATOM     24  C   UNL A   1      39.654  29.623  29.692  1.00  0.00     0.049 A 
ATOM     25  H   UNL A   1      39.909  30.658  31.481  1.00  0.00     0.167 HD
ATOM     26  C   UNL A   1      40.316  32.841  35.196  1.00  0.00     0.037 A 
ATOM     27  C   UNL A   1      40.577  28.650  29.650  1.00  0.00     0.037 A 
ATOM     28  C   UNL A   1      41.152  31.676  35.342  1.00  0.00     0.049 A 
ATOM     29  C   UNL A   1      41.481  28.458  30.821  1.00  0.00     0.074 A 
ATOM     30  C   UNL A   1      41.887  31.279  36.449  1.00  0.00     0.029 A 
ATOM     31  N   UNL A   1      41.419  30.767  34.338  1.00  0.00    -0.354 N 
ATOM     32  N   UNL A   1      41.487  29.090  31.967  1.00  0.00    -0.248 NA
ATOM     33  C   UNL A   1      42.497  27.408  30.700  1.00  0.00     0.031 C 
ATOM     34  C   UNL A   1      42.643  30.161  36.094  1.00  0.00     0.029 A 
ATOM     35  C   UNL A   1      42.358  29.849  34.777  1.00  0.00     0.049 A 
ATOM     36  H   UNL A   1      41.005  30.770  33.444  1.00  0.00     0.167 HD
ATOM     37  C   UNL A   1      42.494  28.500  32.715  1.00  0.00     0.074 A 
ATOM     38  C   UNL A   1      43.055  27.442  31.900  1.00  0.00     0.031 C 
ATOM     39  C   UNL A   1      42.918  28.808  33.962  1.00  0.00     0.037 A 
BRANCH  26  40
ATOM     40  C   UNL A   1      40.217  33.701  36.423  1.00  0.00     0.057 A 
ATOM     41  C   UNL A   1      39.158  33.597  37.331  1.00  0.00     0.134 A 
ATOM     42  C   UNL A   1      41.016  34.853  36.493  1.00  0.00     0.134 A 
ATOM     43  F   UNL A   1      38.320  32.553  37.280  1.00  0.00    -0.206 F 
ATOM     44  C   UNL A   1      38.898  34.608  38.263  1.00  0.00     0.040 A 
ATOM     45  C   UNL A   1      40.736  35.884  37.387  1.00  0.00     0.040 A 
ATOM     46  F   UNL A   1      42.032  35.030  35.633  1.00  0.00    -0.206 F 
ATOM     47  C   UNL A   1      39.681  35.761  38.283  1.00  0.00     0.006 A 
ENDBRANCH  26  40
BRANCH  27  48
ATOM     48  C   UNL A   1      40.705  27.831  28.423  1.00  0.00     0.057 A 
ATOM     49  C   UNL A   1      40.034  26.605  28.314  1.00  0.00     0.134 A 
ATOM     50  C   UNL A   1      41.505  28.231  27.351  1.00  0.00     0.134 A 
ATOM     51  F   UNL A   1      39.264  26.161  29.319  1.00  0.00    -0.206 F 
ATOM     52  C   UNL A   1      40.169  25.796  27.188  1.00  0.00     0.040 A 
ATOM     53  C   UNL A   1      41.620  27.448  26.201  1.00  0.00     0.040 A 
ATOM     54  F   UNL A   1      42.164  29.399  27.396  1.00  0.00    -0.206 F 
ATOM     55  C   UNL A   1      40.956  26.224  26.123  1.00  0.00     0.006 A 
ENDBRANCH  27  48
BRANCH  39  56
ATOM     56  C   UNL A   1      44.033  27.981  34.521  1.00  0.00     0.057 A 
ATOM     57  C   UNL A   1      45.365  28.390  34.386  1.00  0.00     0.134 A 
ATOM     58  C   UNL A   1      43.783  26.788  35.209  1.00  0.00     0.134 A 
ATOM     59  F   UNL A   1      45.672  29.512  33.719  1.00  0.00    -0.206 F 
ATOM     60  C   UNL A   1      46.409  27.650  34.937  1.00  0.00     0.040 A 
ATOM     61  C   UNL A   1      44.816  26.060  35.797  1.00  0.00     0.040 A 
ATOM     62  F   UNL A   1      42.526  26.348  35.374  1.00  0.00    -0.206 F 
ATOM     63  C   UNL A   1      46.133  26.491  35.661  1.00  0.00     0.006 A 
ENDBRANCH  39  56
ENDBRANCH  13  14
ENDBRANCH   6   8
ENDBRANCH   5   6
ENDBRANCH   4   5
ENDBRANCH   3   4
ENDBRANCH   2   3
ENDBRANCH   1   2
BRANCH   1  64
ATOM     64  C   UNL A   1      31.961  28.295  25.854  1.00  0.00     0.188 C 
BRANCH  64  65
ATOM     65  O   UNL A   1      30.766  27.837  25.244  1.00  0.00    -0.376 OA
BRANCH  65  66
ATOM     66  C   UNL A   1      30.503  26.450  25.165  1.00  0.00     0.202 C 
BRANCH  66  67
ATOM     67  C   UNL A   1      30.310  25.641  26.448  1.00  0.00     0.261 C 
BRANCH  67  68
ATOM     68  O   UNL A   1      31.218  24.555  26.680  1.00  0.00    -0.459 OA
BRANCH  68  69
ATOM     69  C   UNL A   1      30.639  23.316  26.557  1.00  0.00     0.365 C 
ATOM     70  O   UNL A   1      29.996  22.770  27.437  1.00  0.00    -0.245 OA
BRANCH  69  71
ATOM     71  C   UNL A   1      31.039  22.612  25.253  1.00  0.00     0.298 C 
ATOM     72  C   UNL A   1      31.077  23.481  23.903  1.00  0.00     0.111 C 
ATOM     73  N   UNL A   1      32.221  21.738  25.533  1.00  0.00    -0.326 N 
ATOM     74  C   UNL A   1      32.200  23.133  22.763  1.00  0.00    -0.024 C 
ATOM     75  C   UNL A   1      32.575  21.223  24.217  1.00  0.00     0.243 C 
ATOM     76  H   UNL A   1      31.974  20.981  26.169  1.00  0.00     0.347 HD
ATOM     77  H   UNL A   1      32.988  22.238  25.986  1.00  0.00     0.347 HD
ATOM     78  C   UNL A   1      32.929  24.113  22.225  1.00  0.00     0.002 A 
ATOM     79  C   UNL A   1      33.314  22.327  23.450  1.00  0.00     0.196 C 
ATOM     80  C   UNL A   1      32.868  25.006  21.119  1.00  0.00     0.010 A 
ATOM     81  C   UNL A   1      33.642  24.463  23.463  1.00  0.00     0.066 A 
ATOM     82  N   UNL A   1      33.907  23.468  24.272  1.00  0.00    -0.270 NA
ATOM     83  C   UNL A   1      33.271  26.274  21.304  1.00  0.00     0.001 A 
ATOM     84  C   UNL A   1      33.705  25.919  23.688  1.00  0.00     0.028 A 
ATOM     85  C   UNL A   1      33.517  26.759  22.651  1.00  0.00     0.002 A 
BRANCH  75  86
ATOM     86  C   UNL A   1      32.765  19.730  24.106  1.00  0.00     0.012 A 
ATOM     87  C   UNL A   1      33.882  19.197  24.795  1.00  0.00     0.010 A 
ATOM     88  C   UNL A   1      32.153  18.952  23.120  1.00  0.00     0.010 A 
ATOM     89  C   UNL A   1      34.448  17.984  24.423  1.00  0.00     0.001 A 
ATOM     90  C   UNL A   1      32.710  17.717  22.769  1.00  0.00     0.001 A 
ATOM     91  C   UNL A   1      33.868  17.251  23.397  1.00  0.00     0.000 A 
ENDBRANCH  75  86
ENDBRANCH  69  71
ENDBRANCH  68  69
ENDBRANCH  67  68
ENDBRANCH  66  67
ENDBRANCH  65  66
ENDBRANCH  64  65
ENDBRANCH   1  64
TORSDOF 18
ENDMDL
MODEL 2
REMARK VINA RESULT:     -11.8      2.895      8.252
REMARK SMILES O=C(OCCOCCOCCOC(=O)[C@H]1CC2=c3ccccc3=N[C@H]2[C@@H](c2ccccc2)[NH2+]1)c1ccc(-c2c3nc(c(-c4c(F)cccc4F)c4ccc([nH]4)c(-c4c(F)cccc4F)c4nc(c(-c5c(F)cccc5F)c5ccc2[nH]5)C=C4)C=C3)cc1
REMARK SMILES IDX 7 1 6 2 5 3 4 4 3 5 2 6 1 7 34 8 35 9 87 10 36 11 86 12
REMARK SMILES IDX 37 13 38 14 39 15 80 16 40 17 85 18 79 19 81 20 41 21 84 22
REMARK SMILES IDX 78 23 77 24 42 26 68 27 51 28 67 29 52 30 55 31 66 32 82 33
REMARK SMILES IDX 53 34 54 35 65 37 83 38 56 39 43 40 44 41 49 42 45 43 46 44
REMARK SMILES IDX 48 45 50 46 47 47 69 48 70 49 75 50 71 51 72 52 74 53 76 54
REMARK SMILES IDX 73 55 57 56 58 57 63 58 59 59 60 60 62 61 64 62 61 63 8 64
REMARK SMILES IDX 9 65 10 66 11 67 12 68 13 69 14 70 15 71 16 72 33 73 17 74
REMARK SMILES IDX 26 75 18 78 25 79 19 80 23 81 24 82 20 83 22 84 21 85 27 86
REMARK SMILES IDX 28 87 32 88 29 89 31 90 30 91
REMARK H PARENT 81 25 55 36 33 76 33 77
REMARK Flexibility Score: inf
ROOT
ATOM      1  C   UNL A   1      37.276  21.465  25.174  1.00  0.00     0.188 C 
ENDROOT
BRANCH   1   2
ATOM      2  O   UNL A   1      38.233  22.043  26.058  1.00  0.00    -0.376 OA
BRANCH   2   3
ATOM      3  C   UNL A   1      39.493  21.389  26.148  1.00  0.00     0.202 C 
BRANCH   3   4
ATOM      4  C   UNL A   1      40.689  22.304  26.427  1.00  0.00     0.261 C 
BRANCH   4   5
ATOM      5  O   UNL A   1      40.418  23.688  26.190  1.00  0.00    -0.460 OA
BRANCH   5   6
ATOM      6  C   UNL A   1      41.183  24.762  26.493  1.00  0.00     0.338 C 
ATOM      7  O   UNL A   1      42.272  24.853  25.922  1.00  0.00    -0.246 OA
BRANCH   6   8
ATOM      8  C   UNL A   1      40.868  25.789  27.552  1.00  0.00     0.060 A 
ATOM      9  C   UNL A   1      41.818  26.806  27.691  1.00  0.00     0.016 A 
ATOM     10  C   UNL A   1      39.780  25.829  28.435  1.00  0.00     0.016 A 
ATOM     11  C   UNL A   1      41.698  27.770  28.696  1.00  0.00     0.010 A 
ATOM     12  C   UNL A   1      39.653  26.806  29.441  1.00  0.00     0.010 A 
ATOM     13  C   UNL A   1      40.626  27.781  29.610  1.00  0.00    -0.014 A 
BRANCH  13  14
ATOM     14  C   UNL A   1      40.513  28.896  30.595  1.00  0.00     0.031 A 
ATOM     15  C   UNL A   1      39.593  30.095  30.464  1.00  0.00     0.074 A 
ATOM     16  C   UNL A   1      41.284  28.787  31.696  1.00  0.00     0.049 A 
ATOM     17  N   UNL A   1      39.222  30.934  31.407  1.00  0.00    -0.248 NA
ATOM     18  C   UNL A   1      39.023  30.417  29.148  1.00  0.00     0.031 C 
ATOM     19  C   UNL A   1      42.315  27.762  31.899  1.00  0.00     0.029 A 
ATOM     20  N   UNL A   1      41.322  29.525  32.846  1.00  0.00    -0.354 N 
ATOM     21  C   UNL A   1      38.291  31.792  30.825  1.00  0.00     0.074 A 
ATOM     22  C   UNL A   1      38.231  31.452  29.424  1.00  0.00     0.031 C 
ATOM     23  C   UNL A   1      42.851  27.908  33.113  1.00  0.00     0.029 A 
ATOM     24  C   UNL A   1      42.259  29.079  33.743  1.00  0.00     0.049 A 
ATOM     25  H   UNL A   1      40.736  30.298  33.014  1.00  0.00     0.167 HD
ATOM     26  C   UNL A   1      37.527  32.733  31.433  1.00  0.00     0.037 A 
ATOM     27  C   UNL A   1      42.639  29.569  34.932  1.00  0.00     0.037 A 
ATOM     28  C   UNL A   1      37.696  33.161  32.799  1.00  0.00     0.049 A 
ATOM     29  C   UNL A   1      41.913  30.744  35.496  1.00  0.00     0.074 A 
ATOM     30  C   UNL A   1      36.959  34.101  33.503  1.00  0.00     0.029 A 
ATOM     31  N   UNL A   1      38.705  32.734  33.639  1.00  0.00    -0.354 N 
ATOM     32  N   UNL A   1      40.875  31.379  35.013  1.00  0.00    -0.248 NA
ATOM     33  C   UNL A   1      42.401  31.264  36.778  1.00  0.00     0.031 C 
ATOM     34  C   UNL A   1      37.558  34.284  34.749  1.00  0.00     0.029 A 
ATOM     35  C   UNL A   1      38.650  33.439  34.830  1.00  0.00     0.049 A 
ATOM     36  H   UNL A   1      39.364  32.034  33.425  1.00  0.00     0.167 HD
ATOM     37  C   UNL A   1      40.571  32.361  35.943  1.00  0.00     0.074 A 
ATOM     38  C   UNL A   1      41.518  32.216  37.029  1.00  0.00     0.031 C 
ATOM     39  C   UNL A   1      39.597  33.299  35.899  1.00  0.00     0.037 A 
BRANCH  26  40
ATOM     40  C   UNL A   1      36.378  33.377  30.711  1.00  0.00     0.057 A 
ATOM     41  C   UNL A   1      35.058  32.937  30.855  1.00  0.00     0.134 A 
ATOM     42  C   UNL A   1      36.664  34.214  29.621  1.00  0.00     0.134 A 
ATOM     43  F   UNL A   1      34.729  32.089  31.839  1.00  0.00    -0.206 F 
ATOM     44  C   UNL A   1      34.065  33.308  29.941  1.00  0.00     0.040 A 
ATOM     45  C   UNL A   1      35.692  34.549  28.682  1.00  0.00     0.040 A 
ATOM     46  F   UNL A   1      37.916  34.649  29.406  1.00  0.00    -0.206 F 
ATOM     47  C   UNL A   1      34.384  34.105  28.844  1.00  0.00     0.006 A 
ENDBRANCH  26  40
BRANCH  27  48
ATOM     48  C   UNL A   1      43.800  28.964  35.624  1.00  0.00     0.057 A 
ATOM     49  C   UNL A   1      43.612  27.953  36.577  1.00  0.00     0.134 A 
ATOM     50  C   UNL A   1      45.108  29.386  35.375  1.00  0.00     0.134 A 
ATOM     51  F   UNL A   1      42.376  27.518  36.870  1.00  0.00    -0.206 F 
ATOM     52  C   UNL A   1      44.682  27.394  37.271  1.00  0.00     0.040 A 
ATOM     53  C   UNL A   1      46.193  28.809  36.036  1.00  0.00     0.040 A 
ATOM     54  F   UNL A   1      45.349  30.344  34.468  1.00  0.00    -0.206 F 
ATOM     55  C   UNL A   1      45.979  27.816  36.992  1.00  0.00     0.006 A 
ENDBRANCH  27  48
BRANCH  39  56
ATOM     56  C   UNL A   1      39.503  34.231  37.066  1.00  0.00     0.057 A 
ATOM     57  C   UNL A   1      40.063  35.512  37.007  1.00  0.00     0.134 A 
ATOM     58  C   UNL A   1      38.841  33.863  38.244  1.00  0.00     0.134 A 
ATOM     59  F   UNL A   1      40.729  35.918  35.916  1.00  0.00    -0.206 F 
ATOM     60  C   UNL A   1      39.947  36.404  38.071  1.00  0.00     0.040 A 
ATOM     61  C   UNL A   1      38.686  34.759  39.299  1.00  0.00     0.040 A 
ATOM     62  F   UNL A   1      38.280  32.648  38.358  1.00  0.00    -0.206 F 
ATOM     63  C   UNL A   1      39.241  36.034  39.214  1.00  0.00     0.006 A 
ENDBRANCH  39  56
ENDBRANCH  13  14
ENDBRANCH   6   8
ENDBRANCH   5   6
ENDBRANCH   4   5
ENDBRANCH   3   4
ENDBRANCH   2   3
ENDBRANCH   1   2
BRANCH   1  64
ATOM     64  C   UNL A   1      35.788  21.502  25.553  1.00  0.00     0.188 C 
BRANCH  64  65
ATOM     65  O   UNL A   1      35.123  22.724  25.821  1.00  0.00    -0.376 OA
BRANCH  65  66
ATOM     66  C   UNL A   1      33.718  22.806  25.683  1.00  0.00     0.202 C 
BRANCH  66  67
ATOM     67  C   UNL A   1      33.077  24.109  25.203  1.00  0.00     0.261 C 
BRANCH  67  68
ATOM     68  O   UNL A   1      32.715  25.068  26.206  1.00  0.00    -0.459 OA
BRANCH  68  69
ATOM     69  C   UNL A   1      31.362  25.283  26.301  1.00  0.00     0.365 C 
ATOM     70  O   UNL A   1      30.542  24.404  26.502  1.00  0.00    -0.245 OA
BRANCH  69  71
ATOM     71  C   UNL A   1      30.974  26.726  25.949  1.00  0.00     0.298 C 
ATOM     72  C   UNL A   1      31.544  27.911  26.871  1.00  0.00     0.111 C 
ATOM     73  N   UNL A   1      31.098  26.899  24.467  1.00  0.00    -0.326 N 
ATOM     74  C   UNL A   1      31.907  29.352  26.183  1.00  0.00    -0.024 C 
ATOM     75  C   UNL A   1      30.823  28.316  24.272  1.00  0.00     0.243 C 
ATOM     76  H   UNL A   1      30.418  26.321  23.973  1.00  0.00     0.347 HD
ATOM     77  H   UNL A   1      32.011  26.615  24.107  1.00  0.00     0.347 HD
ATOM     78  C   UNL A   1      33.075  29.940  26.448  1.00  0.00     0.002 A 
ATOM     79  C   UNL A   1      32.073  29.109  24.675  1.00  0.00     0.196 C 
ATOM     80  C   UNL A   1      33.619  30.862  27.384  1.00  0.00     0.010 A 
ATOM     81  C   UNL A   1      33.907  28.914  25.800  1.00  0.00     0.066 A 
ATOM     82  N   UNL A   1      33.392  28.344  24.740  1.00  0.00    -0.270 NA
ATOM     83  C   UNL A   1      34.858  30.635  27.853  1.00  0.00     0.001 A 
ATOM     84  C   UNL A   1      35.072  28.530  26.619  1.00  0.00     0.028 A 
ATOM     85  C   UNL A   1      35.500  29.358  27.592  1.00  0.00     0.002 A 
BRANCH  75  86
ATOM     86  C   UNL A   1      29.802  28.665  23.217  1.00  0.00     0.012 A 
ATOM     87  C   UNL A   1      30.162  29.711  22.331  1.00  0.00     0.010 A 
ATOM     88  C   UNL A   1      28.459  28.290  23.297  1.00  0.00     0.010 A 
ATOM     89  C   UNL A   1      29.199  30.443  21.648  1.00  0.00     0.001 A 
ATOM     90  C   UNL A   1      27.495  29.011  22.584  1.00  0.00     0.001 A 
ATOM     91  C   UNL A   1      27.861  30.101  21.789  1.00  0.00     0.000 A 
ENDBRANCH  75  86
ENDBRANCH  69  71
ENDBRANCH  68  69
ENDBRANCH  67  68
ENDBRANCH  66  67
ENDBRANCH  65  66
ENDBRANCH  64  65
ENDBRANCH   1  64
TORSDOF 18
ENDMDL
MODEL 3
REMARK VINA RESULT:     -11.7      2.478      4.707
REMARK SMILES O=C(OCCOCCOCCOC(=O)[C@H]1CC2=c3ccccc3=N[C@H]2[C@@H](c2ccccc2)[NH2+]1)c1ccc(-c2c3nc(c(-c4c(F)cccc4F)c4ccc([nH]4)c(-c4c(F)cccc4F)c4nc(c(-c5c(F)cccc5F)c5ccc2[nH]5)C=C4)C=C3)cc1
REMARK SMILES IDX 7 1 6 2 5 3 4 4 3 5 2 6 1 7 34 8 35 9 87 10 36 11 86 12
REMARK SMILES IDX 37 13 38 14 39 15 80 16 40 17 85 18 79 19 81 20 41 21 84 22
REMARK SMILES IDX 78 23 77 24 42 26 68 27 51 28 67 29 52 30 55 31 66 32 82 33
REMARK SMILES IDX 53 34 54 35 65 37 83 38 56 39 43 40 44 41 49 42 45 43 46 44
REMARK SMILES IDX 48 45 50 46 47 47 69 48 70 49 75 50 71 51 72 52 74 53 76 54
REMARK SMILES IDX 73 55 57 56 58 57 63 58 59 59 60 60 62 61 64 62 61 63 8 64
REMARK SMILES IDX 9 65 10 66 11 67 12 68 13 69 14 70 15 71 16 72 33 73 17 74
REMARK SMILES IDX 26 75 18 78 25 79 19 80 23 81 24 82 20 83 22 84 21 85 27 86
REMARK SMILES IDX 28 87 32 88 29 89 31 90 30 91
REMARK H PARENT 81 25 55 36 33 76 33 77
REMARK Flexibility Score: inf
ROOT
ATOM      1  C   UNL A   1      34.716  34.375  28.125  1.00  0.00     0.188 C 
ENDROOT
BRANCH   1   2
ATOM      2  O   UNL A   1      34.245  35.696  28.373  1.00  0.00    -0.376 OA
BRANCH   2   3
ATOM      3  C   UNL A   1      33.116  35.821  29.229  1.00  0.00     0.202 C 
BRANCH   3   4
ATOM      4  C   UNL A   1      33.110  37.056  30.133  1.00  0.00     0.261 C 
BRANCH   4   5
ATOM      5  O   UNL A   1      32.633  36.796  31.456  1.00  0.00    -0.460 OA
BRANCH   5   6
ATOM      6  C   UNL A   1      32.640  35.631  32.143  1.00  0.00     0.338 C 
ATOM      7  O   UNL A   1      31.555  35.222  32.563  1.00  0.00    -0.246 OA
BRANCH   6   8
ATOM      8  C   UNL A   1      33.872  34.856  32.538  1.00  0.00     0.060 A 
ATOM      9  C   UNL A   1      35.085  35.505  32.282  1.00  0.00     0.016 A 
ATOM     10  C   UNL A   1      33.958  33.567  33.080  1.00  0.00     0.016 A 
ATOM     11  C   UNL A   1      36.306  34.865  32.513  1.00  0.00     0.010 A 
ATOM     12  C   UNL A   1      35.189  32.925  33.323  1.00  0.00     0.010 A 
ATOM     13  C   UNL A   1      36.388  33.551  33.017  1.00  0.00    -0.014 A 
BRANCH  13  14
ATOM     14  C   UNL A   1      37.725  32.968  33.329  1.00  0.00     0.031 A 
ATOM     15  C   UNL A   1      38.606  33.363  34.499  1.00  0.00     0.074 A 
ATOM     16  C   UNL A   1      38.146  31.991  32.500  1.00  0.00     0.049 A 
ATOM     17  N   UNL A   1      39.625  32.700  35.002  1.00  0.00    -0.248 NA
ATOM     18  C   UNL A   1      38.348  34.634  35.189  1.00  0.00     0.031 C 
ATOM     19  C   UNL A   1      37.472  31.597  31.258  1.00  0.00     0.029 A 
ATOM     20  N   UNL A   1      39.222  31.149  32.573  1.00  0.00    -0.354 N 
ATOM     21  C   UNL A   1      40.038  33.409  36.128  1.00  0.00     0.074 A 
ATOM     22  C   UNL A   1      39.240  34.611  36.179  1.00  0.00     0.031 C 
ATOM     23  C   UNL A   1      38.121  30.566  30.710  1.00  0.00     0.029 A 
ATOM     24  C   UNL A   1      39.296  30.276  31.518  1.00  0.00     0.049 A 
ATOM     25  H   UNL A   1      39.877  31.168  33.308  1.00  0.00     0.167 HD
ATOM     26  C   UNL A   1      40.961  33.046  37.053  1.00  0.00     0.037 A 
ATOM     27  C   UNL A   1      40.223  29.360  31.200  1.00  0.00     0.037 A 
ATOM     28  C   UNL A   1      41.849  31.919  36.918  1.00  0.00     0.049 A 
ATOM     29  C   UNL A   1      41.355  29.118  32.142  1.00  0.00     0.074 A 
ATOM     30  C   UNL A   1      42.808  31.469  37.812  1.00  0.00     0.029 A 
ATOM     31  N   UNL A   1      41.935  31.113  35.800  1.00  0.00    -0.354 N 
ATOM     32  N   UNL A   1      41.574  29.650  33.318  1.00  0.00    -0.248 NA
ATOM     33  C   UNL A   1      42.360  28.138  31.721  1.00  0.00     0.031 C 
ATOM     34  C   UNL A   1      43.514  30.427  37.210  1.00  0.00     0.029 A 
ATOM     35  C   UNL A   1      42.975  30.213  35.954  1.00  0.00     0.049 A 
ATOM     36  H   UNL A   1      41.347  31.171  35.012  1.00  0.00     0.167 HD
ATOM     37  C   UNL A   1      42.733  29.053  33.788  1.00  0.00     0.074 A 
ATOM     38  C   UNL A   1      43.150  28.100  32.782  1.00  0.00     0.031 C 
ATOM     39  C   UNL A   1      43.393  29.276  34.949  1.00  0.00     0.037 A 
BRANCH  26  40
ATOM     40  C   UNL A   1      41.086  33.793  38.351  1.00  0.00     0.057 A 
ATOM     41  C   UNL A   1      40.178  33.631  39.401  1.00  0.00     0.134 A 
ATOM     42  C   UNL A   1      41.929  34.914  38.392  1.00  0.00     0.134 A 
ATOM     43  F   UNL A   1      39.303  32.616  39.394  1.00  0.00    -0.206 F 
ATOM     44  C   UNL A   1      40.104  34.559  40.447  1.00  0.00     0.040 A 
ATOM     45  C   UNL A   1      41.830  35.866  39.405  1.00  0.00     0.040 A 
ATOM     46  F   UNL A   1      42.805  35.145  37.401  1.00  0.00    -0.206 F 
ATOM     47  C   UNL A   1      40.922  35.686  40.443  1.00  0.00     0.006 A 
ENDBRANCH  26  40
BRANCH  27  48
ATOM     48  C   UNL A   1      40.125  28.657  29.901  1.00  0.00     0.057 A 
ATOM     49  C   UNL A   1      40.767  29.169  28.765  1.00  0.00     0.134 A 
ATOM     50  C   UNL A   1      39.381  27.484  29.752  1.00  0.00     0.134 A 
ATOM     51  F   UNL A   1      41.484  30.301  28.843  1.00  0.00    -0.206 F 
ATOM     52  C   UNL A   1      40.659  28.550  27.522  1.00  0.00     0.040 A 
ATOM     53  C   UNL A   1      39.294  26.833  28.521  1.00  0.00     0.040 A 
ATOM     54  F   UNL A   1      38.752  26.943  30.806  1.00  0.00    -0.206 F 
ATOM     55  C   UNL A   1      39.928  27.371  27.401  1.00  0.00     0.006 A 
ENDBRANCH  27  48
BRANCH  39  56
ATOM     56  C   UNL A   1      44.626  28.465  35.191  1.00  0.00     0.057 A 
ATOM     57  C   UNL A   1      45.885  28.948  34.817  1.00  0.00     0.134 A 
ATOM     58  C   UNL A   1      44.566  27.213  35.814  1.00  0.00     0.134 A 
ATOM     59  F   UNL A   1      46.009  30.131  34.197  1.00  0.00    -0.206 F 
ATOM     60  C   UNL A   1      47.046  28.220  35.075  1.00  0.00     0.040 A 
ATOM     61  C   UNL A   1      45.722  26.494  36.111  1.00  0.00     0.040 A 
ATOM     62  F   UNL A   1      43.387  26.701  36.200  1.00  0.00    -0.206 F 
ATOM     63  C   UNL A   1      46.967  26.998  35.740  1.00  0.00     0.006 A 
ENDBRANCH  39  56
ENDBRANCH  13  14
ENDBRANCH   6   8
ENDBRANCH   5   6
ENDBRANCH   4   5
ENDBRANCH   3   4
ENDBRANCH   2   3
ENDBRANCH   1   2
BRANCH   1  64
ATOM     64  C   UNL A   1      34.676  33.340  29.259  1.00  0.00     0.188 C 
BRANCH  64  65
ATOM     65  O   UNL A   1      34.444  31.966  28.999  1.00  0.00    -0.376 OA
BRANCH  65  66
ATOM     66  C   UNL A   1      35.197  31.302  28.003  1.00  0.00     0.202 C 
BRANCH  66  67
ATOM     67  C   UNL A   1      35.049  29.790  27.822  1.00  0.00     0.261 C 
BRANCH  67  68
ATOM     68  O   UNL A   1      34.618  29.325  26.535  1.00  0.00    -0.459 OA
BRANCH  68  69
ATOM     69  C   UNL A   1      33.263  29.419  26.339  1.00  0.00     0.365 C 
ATOM     70  O   UNL A   1      32.473  29.799  27.187  1.00  0.00    -0.245 OA
BRANCH  69  71
ATOM     71  C   UNL A   1      32.825  28.826  24.993  1.00  0.00     0.298 C 
ATOM     72  C   UNL A   1      33.762  27.711  24.316  1.00  0.00     0.111 C 
ATOM     73  N   UNL A   1      31.359  28.530  25.064  1.00  0.00    -0.326 N 
ATOM     74  C   UNL A   1      33.067  26.503  23.455  1.00  0.00    -0.024 C 
ATOM     75  C   UNL A   1      31.089  27.872  23.793  1.00  0.00     0.243 C 
ATOM     76  H   UNL A   1      30.817  29.389  25.156  1.00  0.00     0.347 HD
ATOM     77  H   UNL A   1      31.106  27.959  25.872  1.00  0.00     0.347 HD
ATOM     78  C   UNL A   1      33.432  25.237  23.670  1.00  0.00     0.002 A 
ATOM     79  C   UNL A   1      31.593  26.426  23.883  1.00  0.00     0.196 C 
ATOM     80  C   UNL A   1      34.389  24.304  23.184  1.00  0.00     0.010 A 
ATOM     81  C   UNL A   1      32.910  25.165  25.043  1.00  0.00     0.066 A 
ATOM     82  N   UNL A   1      31.821  25.854  25.279  1.00  0.00    -0.270 NA
ATOM     83  C   UNL A   1      34.991  23.493  24.069  1.00  0.00     0.001 A 
ATOM     84  C   UNL A   1      33.858  24.529  25.976  1.00  0.00     0.028 A 
ATOM     85  C   UNL A   1      34.842  23.747  25.491  1.00  0.00     0.002 A 
BRANCH  75  86
ATOM     86  C   UNL A   1      29.923  28.400  22.995  1.00  0.00     0.012 A 
ATOM     87  C   UNL A   1      30.192  29.525  22.177  1.00  0.00     0.010 A 
ATOM     88  C   UNL A   1      28.592  28.091  23.288  1.00  0.00     0.010 A 
ATOM     89  C   UNL A   1      29.178  30.385  21.773  1.00  0.00     0.001 A 
ATOM     90  C   UNL A   1      27.571  28.944  22.854  1.00  0.00     0.001 A 
ATOM     91  C   UNL A   1      27.867  30.101  22.128  1.00  0.00     0.000 A 
ENDBRANCH  75  86
ENDBRANCH  69  71
ENDBRANCH  68  69
ENDBRANCH  67  68
ENDBRANCH  66  67
ENDBRANCH  65  66
ENDBRANCH  64  65
ENDBRANCH   1  64
TORSDOF 18
ENDMDL
