MODEL 1
REMARK VINA RESULT:     -12.3      0.000      0.000
REMARK SMILES O=C(Nc1ccc2c(c1)[C@@H]1C=CC[C@@H]1[C@H](C(=O)OCCOCCOCCOC(=O)c1ccc(-c3c4nc(c(-c5c(F)cccc5F)c5ccc([nH]5)c(-c5c(F)cccc5F)c5nc(c(-c6c(F)cccc6F)c6ccc3[nH]6)C=C5)C=C4)cc1)N2)c1ccccc1
REMARK SMILES IDX 22 1 21 2 20 3 19 4 18 5 16 6 17 7 15 8 4 9 5 10 9 11 6 12
REMARK SMILES IDX 8 13 7 14 10 15 84 16 11 17 14 18 12 20 13 21 3 22 1 23 2 24
REMARK SMILES IDX 85 26 86 27 90 28 87 29 89 30 88 31 23 32 24 33 25 34 26 35
REMARK SMILES IDX 27 36 28 37 29 38 30 39 31 40 83 41 32 42 82 43 33 44 34 45
REMARK SMILES IDX 35 46 76 47 36 48 81 49 75 50 77 51 37 52 80 53 74 54 73 55
REMARK SMILES IDX 38 57 64 58 47 59 63 60 48 61 51 62 62 63 78 64 49 65 50 66
REMARK SMILES IDX 61 68 79 69 52 70 39 71 40 72 45 73 41 74 42 75 44 76 46 77
REMARK SMILES IDX 43 78 65 79 66 80 71 81 67 82 68 83 70 84 72 85 69 86 53 87
REMARK SMILES IDX 54 88 59 89 55 90 56 91 58 92 60 93 57 94
REMARK H PARENT 84 19 3 25 77 56 51 67
REMARK Flexibility Score: inf
ROOT
ATOM      1  C   UNL A   1      39.430  21.761  26.148  1.00  0.00     0.188 C 
ENDROOT
BRANCH   1   2
ATOM      2  O   UNL A   1      38.347  21.631  25.235  1.00  0.00    -0.376 OA
BRANCH   2   3
ATOM      3  C   UNL A   1      37.114  22.251  25.600  1.00  0.00     0.202 C 
BRANCH   3   4
ATOM      4  C   UNL A   1      35.897  21.326  25.749  1.00  0.00     0.261 C 
BRANCH   4   5
ATOM      5  O   UNL A   1      35.233  21.022  24.505  1.00  0.00    -0.462 OA
BRANCH   5   6
ATOM      6  C   UNL A   1      33.981  20.516  24.633  1.00  0.00     0.328 C 
ATOM      7  O   UNL A   1      33.728  19.397  25.084  1.00  0.00    -0.250 OA
BRANCH   6   8
ATOM      8  C   UNL A   1      32.839  21.480  24.252  1.00  0.00     0.194 C 
ATOM      9  C   UNL A   1      31.623  26.056  22.267  1.00  0.00     0.041 A 
ATOM     10  C   UNL A   1      32.712  25.573  21.553  1.00  0.00     0.028 A 
ATOM     11  C   UNL A   1      31.023  25.252  23.245  1.00  0.00     0.032 A 
ATOM     12  C   UNL A   1      33.285  24.362  21.924  1.00  0.00     0.028 A 
ATOM     13  C   UNL A   1      31.603  24.031  23.634  1.00  0.00    -0.015 A 
ATOM     14  C   UNL A   1      32.755  23.598  22.971  1.00  0.00     0.039 A 
ATOM     15  C   UNL A   1      31.004  23.192  24.748  1.00  0.00     0.050 C 
ATOM     16  N   UNL A   1      33.432  22.476  23.369  1.00  0.00    -0.372 N 
ATOM     17  C   UNL A   1      30.701  23.983  25.994  1.00  0.00    -0.023 C 
ATOM     18  C   UNL A   1      31.958  22.108  25.326  1.00  0.00     0.038 C 
ATOM     19  H   UNL A   1      34.352  22.337  23.048  1.00  0.00     0.161 HD
ATOM     20  C   UNL A   1      31.599  23.761  26.961  1.00  0.00    -0.030 C 
ATOM     21  C   UNL A   1      32.642  22.780  26.524  1.00  0.00     0.034 C 
BRANCH   9  22
ATOM     22  N   UNL A   1      31.218  27.373  22.004  1.00  0.00    -0.322 N 
ATOM     23  O   UNL A   1      30.599  29.490  22.521  1.00  0.00    -0.269 OA
ATOM     24  C   UNL A   1      31.171  28.455  22.858  1.00  0.00     0.255 C 
ATOM     25  H   UNL A   1      30.925  27.551  21.080  1.00  0.00     0.170 HD
BRANCH  24  26
ATOM     26  C   UNL A   1      31.895  28.423  24.154  1.00  0.00     0.040 A 
ATOM     27  C   UNL A   1      33.269  28.695  24.230  1.00  0.00     0.014 A 
ATOM     28  C   UNL A   1      31.179  28.117  25.313  1.00  0.00     0.014 A 
ATOM     29  C   UNL A   1      33.936  28.578  25.450  1.00  0.00     0.001 A 
ATOM     30  C   UNL A   1      31.847  28.013  26.534  1.00  0.00     0.001 A 
ATOM     31  C   UNL A   1      33.225  28.229  26.598  1.00  0.00     0.000 A 
ENDBRANCH  24  26
ENDBRANCH   9  22
ENDBRANCH   6   8
ENDBRANCH   5   6
ENDBRANCH   4   5
ENDBRANCH   3   4
ENDBRANCH   2   3
ENDBRANCH   1   2
BRANCH   1  32
ATOM     32  C   UNL A   1      40.221  20.491  26.466  1.00  0.00     0.188 C 
BRANCH  32  33
ATOM     33  O   UNL A   1      41.555  20.690  26.915  1.00  0.00    -0.376 OA
BRANCH  33  34
ATOM     34  C   UNL A   1      42.593  20.315  26.002  1.00  0.00     0.202 C 
BRANCH  34  35
ATOM     35  C   UNL A   1      43.570  21.427  25.560  1.00  0.00     0.261 C 
BRANCH  35  36
ATOM     36  O   UNL A   1      42.962  22.624  25.028  1.00  0.00    -0.460 OA
BRANCH  36  37
ATOM     37  C   UNL A   1      43.685  23.768  25.040  1.00  0.00     0.338 C 
ATOM     38  O   UNL A   1      44.562  24.079  24.252  1.00  0.00    -0.246 OA
BRANCH  37  39
ATOM     39  C   UNL A   1      43.051  24.718  25.999  1.00  0.00     0.060 A 
ATOM     40  C   UNL A   1      43.590  26.010  26.106  1.00  0.00     0.016 A 
ATOM     41  C   UNL A   1      41.899  24.391  26.722  1.00  0.00     0.016 A 
ATOM     42  C   UNL A   1      43.009  26.955  26.958  1.00  0.00     0.010 A 
ATOM     43  C   UNL A   1      41.326  25.333  27.585  1.00  0.00     0.010 A 
ATOM     44  C   UNL A   1      41.896  26.611  27.735  1.00  0.00    -0.014 A 
BRANCH  44  45
ATOM     45  C   UNL A   1      41.457  27.501  28.844  1.00  0.00     0.031 A 
ATOM     46  C   UNL A   1      42.205  27.433  30.149  1.00  0.00     0.074 A 
ATOM     47  C   UNL A   1      40.439  28.373  28.708  1.00  0.00     0.049 A 
ATOM     48  N   UNL A   1      41.987  28.072  31.270  1.00  0.00    -0.248 NA
ATOM     49  C   UNL A   1      43.355  26.516  30.193  1.00  0.00     0.031 C 
ATOM     50  C   UNL A   1      39.652  28.580  27.496  1.00  0.00     0.029 A 
ATOM     51  N   UNL A   1      39.889  29.245  29.619  1.00  0.00    -0.354 N 
ATOM     52  C   UNL A   1      42.968  27.632  32.152  1.00  0.00     0.074 A 
ATOM     53  C   UNL A   1      43.760  26.648  31.447  1.00  0.00     0.031 C 
ATOM     54  C   UNL A   1      38.712  29.512  27.741  1.00  0.00     0.029 A 
ATOM     55  C   UNL A   1      38.810  29.944  29.135  1.00  0.00     0.049 A 
ATOM     56  H   UNL A   1      40.238  29.358  30.533  1.00  0.00     0.167 HD
ATOM     57  C   UNL A   1      43.198  28.018  33.429  1.00  0.00     0.037 A 
ATOM     58  C   UNL A   1      37.984  30.814  29.753  1.00  0.00     0.037 A 
ATOM     59  C   UNL A   1      42.417  28.993  34.140  1.00  0.00     0.049 A 
ATOM     60  C   UNL A   1      38.209  31.163  31.204  1.00  0.00     0.074 A 
ATOM     61  C   UNL A   1      42.589  29.455  35.434  1.00  0.00     0.029 A 
ATOM     62  N   UNL A   1      41.312  29.651  33.624  1.00  0.00    -0.354 N 
ATOM     63  N   UNL A   1      39.155  30.762  32.017  1.00  0.00    -0.248 NA
ATOM     64  C   UNL A   1      37.248  32.092  31.822  1.00  0.00     0.031 C 
ATOM     65  C   UNL A   1      41.554  30.351  35.720  1.00  0.00     0.029 A 
ATOM     66  C   UNL A   1      40.775  30.493  34.585  1.00  0.00     0.049 A 
ATOM     67  H   UNL A   1      40.960  29.535  32.712  1.00  0.00     0.167 HD
ATOM     68  C   UNL A   1      38.924  31.413  33.226  1.00  0.00     0.074 A 
ATOM     69  C   UNL A   1      37.756  32.244  33.036  1.00  0.00     0.031 C 
ATOM     70  C   UNL A   1      39.619  31.330  34.387  1.00  0.00     0.037 A 
BRANCH  57  71
ATOM     71  C   UNL A   1      44.337  27.361  34.152  1.00  0.00     0.057 A 
ATOM     72  C   UNL A   1      45.625  27.911  34.162  1.00  0.00     0.134 A 
ATOM     73  C   UNL A   1      44.132  26.180  34.877  1.00  0.00     0.134 A 
ATOM     74  F   UNL A   1      45.892  29.032  33.474  1.00  0.00    -0.206 F 
ATOM     75  C   UNL A   1      46.673  27.301  34.852  1.00  0.00     0.040 A 
ATOM     76  C   UNL A   1      45.166  25.576  35.593  1.00  0.00     0.040 A 
ATOM     77  F   UNL A   1      42.922  25.602  34.910  1.00  0.00    -0.206 F 
ATOM     78  C   UNL A   1      46.442  26.133  35.578  1.00  0.00     0.006 A 
ENDBRANCH  57  71
BRANCH  58  79
ATOM     79  C   UNL A   1      36.837  31.412  29.017  1.00  0.00     0.057 A 
ATOM     80  C   UNL A   1      36.849  32.755  28.615  1.00  0.00     0.134 A 
ATOM     81  C   UNL A   1      35.678  30.673  28.751  1.00  0.00     0.134 A 
ATOM     82  F   UNL A   1      37.916  33.525  28.870  1.00  0.00    -0.206 F 
ATOM     83  C   UNL A   1      35.744  33.343  27.997  1.00  0.00     0.040 A 
ATOM     84  C   UNL A   1      34.578  31.241  28.108  1.00  0.00     0.040 A 
ATOM     85  F   UNL A   1      35.598  29.385  29.117  1.00  0.00    -0.206 F 
ATOM     86  C   UNL A   1      34.605  32.584  27.737  1.00  0.00     0.006 A 
ENDBRANCH  58  79
BRANCH  70  87
ATOM     87  C   UNL A   1      39.173  32.193  35.534  1.00  0.00     0.057 A 
ATOM     88  C   UNL A   1      39.610  33.514  35.687  1.00  0.00     0.134 A 
ATOM     89  C   UNL A   1      38.250  31.708  36.471  1.00  0.00     0.134 A 
ATOM     90  F   UNL A   1      40.500  34.040  34.830  1.00  0.00    -0.206 F 
ATOM     91  C   UNL A   1      39.166  34.314  36.742  1.00  0.00     0.040 A 
ATOM     92  C   UNL A   1      37.777  32.506  37.514  1.00  0.00     0.040 A 
ATOM     93  F   UNL A   1      37.779  30.455  36.378  1.00  0.00    -0.206 F 
ATOM     94  C   UNL A   1      38.241  33.812  37.656  1.00  0.00     0.006 A 
ENDBRANCH  70  87
ENDBRANCH  44  45
ENDBRANCH  37  39
ENDBRANCH  36  37
ENDBRANCH  35  36
ENDBRANCH  34  35
ENDBRANCH  33  34
ENDBRANCH  32  33
ENDBRANCH   1  32
TORSDOF 19
ENDMDL
MODEL 2
REMARK VINA RESULT:     -11.8      4.253      9.683
REMARK SMILES O=C(Nc1ccc2c(c1)[C@@H]1C=CC[C@@H]1[C@H](C(=O)OCCOCCOCCOC(=O)c1ccc(-c3c4nc(c(-c5c(F)cccc5F)c5ccc([nH]5)c(-c5c(F)cccc5F)c5nc(c(-c6c(F)cccc6F)c6ccc3[nH]6)C=C5)C=C4)cc1)N2)c1ccccc1
REMARK SMILES IDX 22 1 21 2 20 3 19 4 18 5 16 6 17 7 15 8 4 9 5 10 9 11 6 12
REMARK SMILES IDX 8 13 7 14 10 15 84 16 11 17 14 18 12 20 13 21 3 22 1 23 2 24
REMARK SMILES IDX 85 26 86 27 90 28 87 29 89 30 88 31 23 32 24 33 25 34 26 35
REMARK SMILES IDX 27 36 28 37 29 38 30 39 31 40 83 41 32 42 82 43 33 44 34 45
REMARK SMILES IDX 35 46 76 47 36 48 81 49 75 50 77 51 37 52 80 53 74 54 73 55
REMARK SMILES IDX 38 57 64 58 47 59 63 60 48 61 51 62 62 63 78 64 49 65 50 66
REMARK SMILES IDX 61 68 79 69 52 70 39 71 40 72 45 73 41 74 42 75 44 76 46 77
REMARK SMILES IDX 43 78 65 79 66 80 71 81 67 82 68 83 70 84 72 85 69 86 53 87
REMARK SMILES IDX 54 88 59 89 55 90 56 91 58 92 60 93 57 94
REMARK H PARENT 84 19 3 25 77 56 51 67
REMARK Flexibility Score: inf
ROOT
ATOM      1  C   UNL A   1      35.332  32.321  27.828  1.00  0.00     0.188 C 
ENDROOT
BRANCH   1   2
ATOM      2  O   UNL A   1      34.875  30.980  27.951  1.00  0.00    -0.376 OA
BRANCH   2   3
ATOM      3  C   UNL A   1      33.553  30.702  27.487  1.00  0.00     0.202 C 
BRANCH   3   4
ATOM      4  C   UNL A   1      33.396  29.512  26.530  1.00  0.00     0.261 C 
BRANCH   4   5
ATOM      5  O   UNL A   1      32.092  28.894  26.567  1.00  0.00    -0.462 OA
BRANCH   5   6
ATOM      6  C   UNL A   1      31.433  28.880  25.382  1.00  0.00     0.328 C 
ATOM      7  O   UNL A   1      31.224  29.879  24.692  1.00  0.00    -0.250 OA
BRANCH   6   8
ATOM      8  C   UNL A   1      31.014  27.483  24.879  1.00  0.00     0.194 C 
ATOM      9  C   UNL A   1      31.613  22.413  25.421  1.00  0.00     0.041 A 
ATOM     10  C   UNL A   1      31.654  22.972  26.692  1.00  0.00     0.028 A 
ATOM     11  C   UNL A   1      31.335  23.226  24.315  1.00  0.00     0.032 A 
ATOM     12  C   UNL A   1      31.571  24.352  26.832  1.00  0.00     0.028 A 
ATOM     13  C   UNL A   1      31.261  24.625  24.445  1.00  0.00    -0.015 A 
ATOM     14  C   UNL A   1      31.398  25.185  25.719  1.00  0.00     0.039 A 
ATOM     15  C   UNL A   1      31.040  25.520  23.239  1.00  0.00     0.050 C 
ATOM     16  N   UNL A   1      31.443  26.542  25.904  1.00  0.00    -0.372 N 
ATOM     17  C   UNL A   1      31.959  25.206  22.087  1.00  0.00    -0.023 C 
ATOM     18  C   UNL A   1      31.382  27.019  23.473  1.00  0.00     0.038 C 
ATOM     19  H   UNL A   1      31.778  26.893  26.760  1.00  0.00     0.161 HD
ATOM     20  C   UNL A   1      32.944  26.104  21.971  1.00  0.00    -0.030 C 
ATOM     21  C   UNL A   1      32.840  27.169  23.019  1.00  0.00     0.034 C 
BRANCH   9  22
ATOM     22  N   UNL A   1      31.920  21.048  25.311  1.00  0.00    -0.322 N 
ATOM     23  O   UNL A   1      33.075  19.239  24.587  1.00  0.00    -0.269 OA
ATOM     24  C   UNL A   1      33.051  20.451  24.796  1.00  0.00     0.255 C 
ATOM     25  H   UNL A   1      31.232  20.430  25.649  1.00  0.00     0.170 HD
BRANCH  24  26
ATOM     26  C   UNL A   1      34.288  21.242  24.578  1.00  0.00     0.040 A 
ATOM     27  C   UNL A   1      34.325  22.303  23.661  1.00  0.00     0.014 A 
ATOM     28  C   UNL A   1      35.431  20.915  25.312  1.00  0.00     0.014 A 
ATOM     29  C   UNL A   1      35.523  22.975  23.420  1.00  0.00     0.001 A 
ATOM     30  C   UNL A   1      36.625  21.599  25.078  1.00  0.00     0.001 A 
ATOM     31  C   UNL A   1      36.673  22.616  24.123  1.00  0.00     0.000 A 
ENDBRANCH  24  26
ENDBRANCH   9  22
ENDBRANCH   6   8
ENDBRANCH   5   6
ENDBRANCH   4   5
ENDBRANCH   3   4
ENDBRANCH   2   3
ENDBRANCH   1   2
BRANCH   1  32
ATOM     32  C   UNL A   1      34.377  33.421  28.294  1.00  0.00     0.188 C 
BRANCH  32  33
ATOM     33  O   UNL A   1      33.898  33.300  29.627  1.00  0.00    -0.376 OA
BRANCH  33  34
ATOM     34  C   UNL A   1      34.366  34.282  30.559  1.00  0.00     0.202 C 
BRANCH  34  35
ATOM     35  C   UNL A   1      34.444  33.855  32.041  1.00  0.00     0.261 C 
BRANCH  35  36
ATOM     36  O   UNL A   1      34.931  32.517  32.287  1.00  0.00    -0.460 OA
BRANCH  36  37
ATOM     37  C   UNL A   1      36.043  32.371  33.046  1.00  0.00     0.338 C 
ATOM     38  O   UNL A   1      36.129  32.563  34.247  1.00  0.00    -0.246 OA
BRANCH  37  39
ATOM     39  C   UNL A   1      37.077  31.663  32.238  1.00  0.00     0.060 A 
ATOM     40  C   UNL A   1      38.030  30.886  32.915  1.00  0.00     0.016 A 
ATOM     41  C   UNL A   1      37.075  31.686  30.839  1.00  0.00     0.016 A 
ATOM     42  C   UNL A   1      38.997  30.168  32.204  1.00  0.00     0.010 A 
ATOM     43  C   UNL A   1      38.053  30.977  30.129  1.00  0.00     0.010 A 
ATOM     44  C   UNL A   1      39.041  30.240  30.806  1.00  0.00    -0.014 A 
BRANCH  44  45
ATOM     45  C   UNL A   1      40.226  29.723  30.070  1.00  0.00     0.031 A 
ATOM     46  C   UNL A   1      41.375  30.665  29.822  1.00  0.00     0.074 A 
ATOM     47  C   UNL A   1      40.312  28.447  29.646  1.00  0.00     0.049 A 
ATOM     48  N   UNL A   1      42.492  30.465  29.170  1.00  0.00    -0.248 NA
ATOM     49  C   UNL A   1      41.241  32.017  30.387  1.00  0.00     0.031 C 
ATOM     50  C   UNL A   1      39.301  27.414  29.850  1.00  0.00     0.029 A 
ATOM     51  N   UNL A   1      41.307  27.811  28.941  1.00  0.00    -0.354 N 
ATOM     52  C   UNL A   1      43.191  31.665  29.243  1.00  0.00     0.074 A 
ATOM     53  C   UNL A   1      42.358  32.596  29.972  1.00  0.00     0.031 C 
ATOM     54  C   UNL A   1      39.723  26.273  29.273  1.00  0.00     0.029 A 
ATOM     55  C   UNL A   1      41.017  26.504  28.631  1.00  0.00     0.049 A 
ATOM     56  H   UNL A   1      42.149  28.251  28.684  1.00  0.00     0.167 HD
ATOM     57  C   UNL A   1      44.419  31.964  28.758  1.00  0.00     0.037 A 
ATOM     58  C   UNL A   1      41.706  25.606  27.897  1.00  0.00     0.037 A 
ATOM     59  C   UNL A   1      45.255  31.048  28.030  1.00  0.00     0.049 A 
ATOM     60  C   UNL A   1      43.035  25.991  27.292  1.00  0.00     0.074 A 
ATOM     61  C   UNL A   1      46.521  31.264  27.514  1.00  0.00     0.029 A 
ATOM     62  N   UNL A   1      44.908  29.746  27.708  1.00  0.00    -0.354 N 
ATOM     63  N   UNL A   1      43.696  27.118  27.391  1.00  0.00    -0.248 NA
ATOM     64  C   UNL A   1      43.714  24.973  26.474  1.00  0.00     0.031 C 
ATOM     65  C   UNL A   1      46.918  30.110  26.831  1.00  0.00     0.029 A 
ATOM     66  C   UNL A   1      45.925  29.156  26.975  1.00  0.00     0.049 A 
ATOM     67  H   UNL A   1      44.064  29.306  27.962  1.00  0.00     0.167 HD
ATOM     68  C   UNL A   1      44.879  26.933  26.680  1.00  0.00     0.074 A 
ATOM     69  C   UNL A   1      44.850  25.582  26.165  1.00  0.00     0.031 C 
ATOM     70  C   UNL A   1      45.897  27.804  26.476  1.00  0.00     0.037 A 
BRANCH  57  71
ATOM     71  C   UNL A   1      44.926  33.359  28.981  1.00  0.00     0.057 A 
ATOM     72  C   UNL A   1      45.714  33.693  30.089  1.00  0.00     0.134 A 
ATOM     73  C   UNL A   1      44.651  34.372  28.054  1.00  0.00     0.134 A 
ATOM     74  F   UNL A   1      46.000  32.772  31.023  1.00  0.00    -0.206 F 
ATOM     75  C   UNL A   1      46.195  34.989  30.278  1.00  0.00     0.040 A 
ATOM     76  C   UNL A   1      45.149  35.665  28.217  1.00  0.00     0.040 A 
ATOM     77  F   UNL A   1      43.903  34.118  26.969  1.00  0.00    -0.206 F 
ATOM     78  C   UNL A   1      45.919  35.978  29.335  1.00  0.00     0.006 A 
ENDBRANCH  57  71
BRANCH  58  79
ATOM     79  C   UNL A   1      41.152  24.246  27.658  1.00  0.00     0.057 A 
ATOM     80  C   UNL A   1      41.659  23.125  28.328  1.00  0.00     0.134 A 
ATOM     81  C   UNL A   1      40.143  24.027  26.713  1.00  0.00     0.134 A 
ATOM     82  F   UNL A   1      42.648  23.264  29.222  1.00  0.00    -0.206 F 
ATOM     83  C   UNL A   1      41.198  21.836  28.050  1.00  0.00     0.040 A 
ATOM     84  C   UNL A   1      39.654  22.748  26.446  1.00  0.00     0.040 A 
ATOM     85  F   UNL A   1      39.620  25.057  26.030  1.00  0.00    -0.206 F 
ATOM     86  C   UNL A   1      40.189  21.646  27.109  1.00  0.00     0.006 A 
ENDBRANCH  58  79
BRANCH  70  87
ATOM     87  C   UNL A   1      47.091  27.318  25.703  1.00  0.00     0.057 A 
ATOM     88  C   UNL A   1      47.243  27.563  24.333  1.00  0.00     0.134 A 
ATOM     89  C   UNL A   1      48.129  26.635  26.353  1.00  0.00     0.134 A 
ATOM     90  F   UNL A   1      46.283  28.203  23.647  1.00  0.00    -0.206 F 
ATOM     91  C   UNL A   1      48.370  27.128  23.632  1.00  0.00     0.040 A 
ATOM     92  C   UNL A   1      49.274  26.221  25.671  1.00  0.00     0.040 A 
ATOM     93  F   UNL A   1      48.056  26.377  27.668  1.00  0.00    -0.206 F 
ATOM     94  C   UNL A   1      49.394  26.462  24.304  1.00  0.00     0.006 A 
ENDBRANCH  70  87
ENDBRANCH  44  45
ENDBRANCH  37  39
ENDBRANCH  36  37
ENDBRANCH  35  36
ENDBRANCH  34  35
ENDBRANCH  33  34
ENDBRANCH  32  33
ENDBRANCH   1  32
TORSDOF 19
ENDMDL
MODEL 3
REMARK VINA RESULT:     -11.7      0.712      5.872
REMARK SMILES O=C(Nc1ccc2c(c1)[C@@H]1C=CC[C@@H]1[C@H](C(=O)OCCOCCOCCOC(=O)c1ccc(-c3c4nc(c(-c5c(F)cccc5F)c5ccc([nH]5)c(-c5c(F)cccc5F)c5nc(c(-c6c(F)cccc6F)c6ccc3[nH]6)C=C5)C=C4)cc1)N2)c1ccccc1
REMARK SMILES IDX 22 1 21 2 20 3 19 4 18 5 16 6 17 7 15 8 4 9 5 10 9 11 6 12
REMARK SMILES IDX 8 13 7 14 10 15 84 16 11 17 14 18 12 20 13 21 3 22 1 23 2 24
REMARK SMILES IDX 85 26 86 27 90 28 87 29 89 30 88 31 23 32 24 33 25 34 26 35
REMARK SMILES IDX 27 36 28 37 29 38 30 39 31 40 83 41 32 42 82 43 33 44 34 45
REMARK SMILES IDX 35 46 76 47 36 48 81 49 75 50 77 51 37 52 80 53 74 54 73 55
REMARK SMILES IDX 38 57 64 58 47 59 63 60 48 61 51 62 62 63 78 64 49 65 50 66
REMARK SMILES IDX 61 68 79 69 52 70 39 71 40 72 45 73 41 74 42 75 44 76 46 77
REMARK SMILES IDX 43 78 65 79 66 80 71 81 67 82 68 83 70 84 72 85 69 86 53 87
REMARK SMILES IDX 54 88 59 89 55 90 56 91 58 92 60 93 57 94
REMARK H PARENT 84 19 3 25 77 56 51 67
REMARK Flexibility Score: inf
ROOT
ATOM      1  C   UNL A   1      39.642  21.479  26.482  1.00  0.00     0.188 C 
ENDROOT
BRANCH   1   2
ATOM      2  O   UNL A   1      38.491  22.218  26.093  1.00  0.00    -0.376 OA
BRANCH   2   3
ATOM      3  C   UNL A   1      37.700  21.675  25.036  1.00  0.00     0.202 C 
BRANCH   3   4
ATOM      4  C   UNL A   1      36.270  21.247  25.396  1.00  0.00     0.261 C 
BRANCH   4   5
ATOM      5  O   UNL A   1      35.375  21.169  24.266  1.00  0.00    -0.462 OA
BRANCH   5   6
ATOM      6  C   UNL A   1      34.144  20.675  24.544  1.00  0.00     0.328 C 
ATOM      7  O   UNL A   1      33.940  19.602  25.115  1.00  0.00    -0.250 OA
BRANCH   6   8
ATOM      8  C   UNL A   1      32.965  21.598  24.174  1.00  0.00     0.194 C 
ATOM      9  C   UNL A   1      31.570  26.146  22.243  1.00  0.00     0.041 A 
ATOM     10  C   UNL A   1      32.677  25.715  21.525  1.00  0.00     0.028 A 
ATOM     11  C   UNL A   1      31.001  25.307  23.211  1.00  0.00     0.032 A 
ATOM     12  C   UNL A   1      33.298  24.523  21.881  1.00  0.00     0.028 A 
ATOM     13  C   UNL A   1      31.629  24.106  23.586  1.00  0.00    -0.015 A 
ATOM     14  C   UNL A   1      32.798  23.727  22.918  1.00  0.00     0.039 A 
ATOM     15  C   UNL A   1      31.063  23.229  24.688  1.00  0.00     0.050 C 
ATOM     16  N   UNL A   1      33.518  22.627  23.304  1.00  0.00    -0.372 N 
ATOM     17  C   UNL A   1      30.728  23.992  25.944  1.00  0.00    -0.023 C 
ATOM     18  C   UNL A   1      32.059  22.177  25.255  1.00  0.00     0.038 C 
ATOM     19  H   UNL A   1      34.443  22.528  22.982  1.00  0.00     0.161 HD
ATOM     20  C   UNL A   1      31.634  23.795  26.909  1.00  0.00    -0.030 C 
ATOM     21  C   UNL A   1      32.715  22.861  26.461  1.00  0.00     0.034 C 
BRANCH   9  22
ATOM     22  N   UNL A   1      31.113  27.449  21.996  1.00  0.00    -0.322 N 
ATOM     23  O   UNL A   1      30.398  29.529  22.538  1.00  0.00    -0.269 OA
ATOM     24  C   UNL A   1      31.009  28.514  22.867  1.00  0.00     0.255 C 
ATOM     25  H   UNL A   1      30.825  27.630  21.071  1.00  0.00     0.170 HD
BRANCH  24  26
ATOM     26  C   UNL A   1      31.715  28.490  24.172  1.00  0.00     0.040 A 
ATOM     27  C   UNL A   1      33.061  28.871  24.282  1.00  0.00     0.014 A 
ATOM     28  C   UNL A   1      31.012  28.081  25.307  1.00  0.00     0.014 A 
ATOM     29  C   UNL A   1      33.719  28.761  25.507  1.00  0.00     0.001 A 
ATOM     30  C   UNL A   1      31.670  27.984  26.534  1.00  0.00     0.001 A 
ATOM     31  C   UNL A   1      33.025  28.310  26.629  1.00  0.00     0.000 A 
ENDBRANCH  24  26
ENDBRANCH   9  22
ENDBRANCH   6   8
ENDBRANCH   5   6
ENDBRANCH   4   5
ENDBRANCH   3   4
ENDBRANCH   2   3
ENDBRANCH   1   2
BRANCH   1  32
ATOM     32  C   UNL A   1      41.002  22.097  26.155  1.00  0.00     0.188 C 
BRANCH  32  33
ATOM     33  O   UNL A   1      42.011  21.186  25.740  1.00  0.00    -0.376 OA
BRANCH  33  34
ATOM     34  C   UNL A   1      43.356  21.678  25.761  1.00  0.00     0.202 C 
BRANCH  34  35
ATOM     35  C   UNL A   1      43.790  22.580  24.586  1.00  0.00     0.261 C 
BRANCH  35  36
ATOM     36  O   UNL A   1      43.371  23.960  24.664  1.00  0.00    -0.460 OA
BRANCH  36  37
ATOM     37  C   UNL A   1      44.246  24.867  25.159  1.00  0.00     0.338 C 
ATOM     38  O   UNL A   1      45.310  25.192  24.660  1.00  0.00    -0.246 OA
BRANCH  37  39
ATOM     39  C   UNL A   1      43.578  25.616  26.261  1.00  0.00     0.060 A 
ATOM     40  C   UNL A   1      43.909  26.969  26.438  1.00  0.00     0.016 A 
ATOM     41  C   UNL A   1      42.583  25.040  27.059  1.00  0.00     0.016 A 
ATOM     42  C   UNL A   1      43.281  27.731  27.430  1.00  0.00     0.010 A 
ATOM     43  C   UNL A   1      41.965  25.801  28.061  1.00  0.00     0.010 A 
ATOM     44  C   UNL A   1      42.333  27.141  28.275  1.00  0.00    -0.014 A 
BRANCH  44  45
ATOM     45  C   UNL A   1      41.883  27.853  29.502  1.00  0.00     0.031 A 
ATOM     46  C   UNL A   1      40.659  28.727  29.407  1.00  0.00     0.074 A 
ATOM     47  C   UNL A   1      42.514  27.723  30.684  1.00  0.00     0.049 A 
ATOM     48  N   UNL A   1      40.099  29.479  30.320  1.00  0.00    -0.248 NA
ATOM     49  C   UNL A   1      39.978  28.754  28.104  1.00  0.00     0.031 C 
ATOM     50  C   UNL A   1      43.681  26.883  30.937  1.00  0.00     0.029 A 
ATOM     51  N   UNL A   1      42.255  28.314  31.899  1.00  0.00    -0.354 N 
ATOM     52  C   UNL A   1      39.004  30.071  29.700  1.00  0.00     0.074 A 
ATOM     53  C   UNL A   1      38.999  29.617  28.327  1.00  0.00     0.031 C 
ATOM     54  C   UNL A   1      44.046  27.021  32.226  1.00  0.00     0.029 A 
ATOM     55  C   UNL A   1      43.159  27.983  32.880  1.00  0.00     0.049 A 
ATOM     56  H   UNL A   1      41.493  28.918  32.051  1.00  0.00     0.167 HD
ATOM     57  C   UNL A   1      38.079  30.908  30.226  1.00  0.00     0.037 A 
ATOM     58  C   UNL A   1      43.269  28.422  34.151  1.00  0.00     0.037 A 
ATOM     59  C   UNL A   1      38.075  31.368  31.589  1.00  0.00     0.049 A 
ATOM     60  C   UNL A   1      42.275  29.422  34.690  1.00  0.00     0.074 A 
ATOM     61  C   UNL A   1      37.166  32.207  32.211  1.00  0.00     0.029 A 
ATOM     62  N   UNL A   1      39.028  31.036  32.539  1.00  0.00    -0.354 N 
ATOM     63  N   UNL A   1      41.231  29.953  34.103  1.00  0.00    -0.248 NA
ATOM     64  C   UNL A   1      42.478  29.884  36.073  1.00  0.00     0.031 C 
ATOM     65  C   UNL A   1      37.600  32.427  33.522  1.00  0.00     0.029 A 
ATOM     66  C   UNL A   1      38.744  31.677  33.734  1.00  0.00     0.049 A 
ATOM     67  H   UNL A   1      39.793  30.435  32.386  1.00  0.00     0.167 HD
ATOM     68  C   UNL A   1      40.635  30.779  35.052  1.00  0.00     0.074 A 
ATOM     69  C   UNL A   1      41.428  30.671  36.257  1.00  0.00     0.031 C 
ATOM     70  C   UNL A   1      39.529  31.554  34.936  1.00  0.00     0.037 A 
BRANCH  57  71
ATOM     71  C   UNL A   1      36.998  31.403  29.310  1.00  0.00     0.057 A 
ATOM     72  C   UNL A   1      35.907  30.603  28.950  1.00  0.00     0.134 A 
ATOM     73  C   UNL A   1      37.033  32.712  28.812  1.00  0.00     0.134 A 
ATOM     74  F   UNL A   1      35.823  29.334  29.381  1.00  0.00    -0.206 F 
ATOM     75  C   UNL A   1      34.898  31.079  28.112  1.00  0.00     0.040 A 
ATOM     76  C   UNL A   1      36.017  33.208  27.995  1.00  0.00     0.040 A 
ATOM     77  F   UNL A   1      38.050  33.531  29.120  1.00  0.00    -0.206 F 
ATOM     78  C   UNL A   1      34.948  32.389  27.638  1.00  0.00     0.006 A 
ENDBRANCH  57  71
BRANCH  58  79
ATOM     79  C   UNL A   1      44.381  27.944  35.017  1.00  0.00     0.057 A 
ATOM     80  C   UNL A   1      45.559  28.687  35.168  1.00  0.00     0.134 A 
ATOM     81  C   UNL A   1      44.315  26.706  35.668  1.00  0.00     0.134 A 
ATOM     82  F   UNL A   1      45.696  29.866  34.544  1.00  0.00    -0.206 F 
ATOM     83  C   UNL A   1      46.637  28.206  35.914  1.00  0.00     0.040 A 
ATOM     84  C   UNL A   1      45.374  26.227  36.440  1.00  0.00     0.040 A 
ATOM     85  F   UNL A   1      43.219  25.941  35.558  1.00  0.00    -0.206 F 
ATOM     86  C   UNL A   1      46.544  26.974  36.557  1.00  0.00     0.006 A 
ENDBRANCH  58  79
BRANCH  70  87
ATOM     87  C   UNL A   1      39.075  32.314  36.151  1.00  0.00     0.057 A 
ATOM     88  C   UNL A   1      39.461  33.638  36.389  1.00  0.00     0.134 A 
ATOM     89  C   UNL A   1      38.196  31.724  37.070  1.00  0.00     0.134 A 
ATOM     90  F   UNL A   1      40.307  34.261  35.554  1.00  0.00    -0.206 F 
ATOM     91  C   UNL A   1      39.009  34.341  37.509  1.00  0.00     0.040 A 
ATOM     92  C   UNL A   1      37.715  32.425  38.177  1.00  0.00     0.040 A 
ATOM     93  F   UNL A   1      37.775  30.461  36.897  1.00  0.00    -0.206 F 
ATOM     94  C   UNL A   1      38.127  33.736  38.402  1.00  0.00     0.006 A 
ENDBRANCH  70  87
ENDBRANCH  44  45
ENDBRANCH  37  39
ENDBRANCH  36  37
ENDBRANCH  35  36
ENDBRANCH  34  35
ENDBRANCH  33  34
ENDBRANCH  32  33
ENDBRANCH   1  32
TORSDOF 19
ENDMDL
