MODEL 1
REMARK VINA RESULT:     -11.3      0.000      0.000
REMARK SMILES Cc1c(Cl)cc2c(c1C)O[C@@H](C(F)(F)F)C(C(=O)OCCOCCOCCOC(=O)c1ccc(-c3c4nc(c(-c5c(F)cccc5F)c5ccc([nH]5)c(-c5c(F)cccc5F)c5nc(c(-c6c(F)cccc6F)c6ccc3[nH]6)C=C5)C=C4)cc1)=C2
REMARK SMILES IDX 24 1 23 2 22 3 21 4 20 5 19 6 17 7 18 8 16 9 1 10 2 11 3 12
REMARK SMILES IDX 8 13 4 14 5 15 7 16 9 17 6 18 10 19 85 20 11 21 12 22 13 23
REMARK SMILES IDX 14 24 15 25 25 26 26 27 27 28 28 29 29 30 30 31 31 32 32 33
REMARK SMILES IDX 84 34 33 35 83 36 34 37 35 38 36 39 77 40 37 41 82 42 76 43
REMARK SMILES IDX 78 44 38 45 81 46 75 47 74 48 39 50 65 51 48 52 64 53 49 54
REMARK SMILES IDX 52 55 63 56 79 57 50 58 51 59 62 61 80 62 53 63 40 64 41 65
REMARK SMILES IDX 46 66 42 67 43 68 45 69 47 70 44 71 66 72 67 73 72 74 68 75
REMARK SMILES IDX 69 76 71 77 73 78 70 79 54 80 55 81 60 82 56 83 57 84 59 85
REMARK SMILES IDX 61 86 58 87
REMARK H PARENT 78 49 52 60
REMARK Flexibility Score: inf
ROOT
ATOM      1  C   UNL A   1      43.663  19.041  25.438  1.00  0.00     0.188 C 
ENDROOT
BRANCH   1   2
ATOM      2  C   UNL A   1      42.285  19.303  26.075  1.00  0.00     0.188 C 
BRANCH   2   3
ATOM      3  O   UNL A   1      41.492  20.389  25.622  1.00  0.00    -0.376 OA
BRANCH   3   4
ATOM      4  C   UNL A   1      40.208  20.611  26.192  1.00  0.00     0.202 C 
BRANCH   4   5
ATOM      5  C   UNL A   1      39.679  22.042  26.388  1.00  0.00     0.261 C 
BRANCH   5   6
ATOM      6  O   UNL A   1      38.339  22.261  25.908  1.00  0.00    -0.460 OA
BRANCH   6   7
ATOM      7  C   UNL A   1      37.768  23.429  26.272  1.00  0.00     0.338 C 
ATOM      8  O   UNL A   1      38.348  24.410  26.713  1.00  0.00    -0.246 OA
BRANCH   7   9
ATOM      9  C   UNL A   1      36.334  23.450  25.926  1.00  0.00     0.087 C 
ATOM     10  C   UNL A   1      30.089  25.310  25.766  1.00  0.00     0.046 C 
ATOM     11  C   UNL A   1      31.580  25.114  25.645  1.00  0.00    -0.026 A 
ATOM     12  C   UNL A   1      32.425  26.187  25.297  1.00  0.00     0.045 A 
ATOM     13  C   UNL A   1      32.162  23.840  25.870  1.00  0.00    -0.004 A 
ATOM     14  Cl  UNL A   1      31.814  27.762  24.921  1.00  0.00    -0.084 Cl
ATOM     15  C   UNL A   1      33.812  26.028  25.255  1.00  0.00     0.032 A 
ATOM     16  C   UNL A   1      33.568  23.708  25.869  1.00  0.00     0.131 A 
ATOM     17  C   UNL A   1      31.337  22.601  26.118  1.00  0.00     0.049 C 
ATOM     18  C   UNL A   1      34.387  24.797  25.570  1.00  0.00     0.019 A 
ATOM     19  O   UNL A   1      34.078  22.496  26.264  1.00  0.00    -0.475 OA
ATOM     20  C   UNL A   1      35.828  24.670  25.697  1.00  0.00     0.027 C 
ATOM     21  C   UNL A   1      35.485  22.211  26.016  1.00  0.00     0.316 C 
BRANCH  21  22
ATOM     22  C   UNL A   1      35.566  21.233  24.829  1.00  0.00     0.430 C 
ATOM     23  F   UNL A   1      36.366  20.175  25.087  1.00  0.00    -0.167 F 
ATOM     24  F   UNL A   1      34.351  20.770  24.465  1.00  0.00    -0.167 F 
ATOM     25  F   UNL A   1      36.076  21.855  23.733  1.00  0.00    -0.167 F 
ENDBRANCH  21  22
ENDBRANCH   7   9
ENDBRANCH   6   7
ENDBRANCH   5   6
ENDBRANCH   4   5
ENDBRANCH   3   4
ENDBRANCH   2   3
ENDBRANCH   1   2
BRANCH   1  26
ATOM     26  O   UNL A   1      44.168  20.062  24.620  1.00  0.00    -0.376 OA
BRANCH  26  27
ATOM     27  C   UNL A   1      45.294  20.819  25.026  1.00  0.00     0.202 C 
BRANCH  27  28
ATOM     28  C   UNL A   1      45.276  22.003  26.014  1.00  0.00     0.261 C 
BRANCH  28  29
ATOM     29  O   UNL A   1      44.083  22.784  26.122  1.00  0.00    -0.460 OA
BRANCH  29  30
ATOM     30  C   UNL A   1      44.104  23.998  25.518  1.00  0.00     0.338 C 
ATOM     31  O   UNL A   1      44.462  24.260  24.388  1.00  0.00    -0.246 OA
BRANCH  30  32
ATOM     32  C   UNL A   1      43.422  24.953  26.414  1.00  0.00     0.060 A 
ATOM     33  C   UNL A   1      43.899  26.270  26.492  1.00  0.00     0.016 A 
ATOM     34  C   UNL A   1      42.322  24.547  27.171  1.00  0.00     0.016 A 
ATOM     35  C   UNL A   1      43.277  27.186  27.338  1.00  0.00     0.010 A 
ATOM     36  C   UNL A   1      41.720  25.458  28.040  1.00  0.00     0.010 A 
ATOM     37  C   UNL A   1      42.208  26.773  28.145  1.00  0.00    -0.014 A 
BRANCH  37  38
ATOM     38  C   UNL A   1      41.733  27.651  29.238  1.00  0.00     0.031 A 
ATOM     39  C   UNL A   1      42.463  27.612  30.551  1.00  0.00     0.074 A 
ATOM     40  C   UNL A   1      40.688  28.480  29.068  1.00  0.00     0.049 A 
ATOM     41  N   UNL A   1      42.198  28.236  31.668  1.00  0.00    -0.248 NA
ATOM     42  C   UNL A   1      43.656  26.752  30.608  1.00  0.00     0.031 C 
ATOM     43  C   UNL A   1      39.936  28.650  27.826  1.00  0.00     0.029 A 
ATOM     44  N   UNL A   1      40.078  29.333  29.953  1.00  0.00    -0.354 N 
ATOM     45  C   UNL A   1      43.190  27.846  32.559  1.00  0.00     0.074 A 
ATOM     46  C   UNL A   1      44.041  26.905  31.866  1.00  0.00     0.031 C 
ATOM     47  C   UNL A   1      38.958  29.550  28.032  1.00  0.00     0.029 A 
ATOM     48  C   UNL A   1      38.993  29.990  29.427  1.00  0.00     0.049 A 
ATOM     49  H   UNL A   1      40.389  29.462  30.878  1.00  0.00     0.167 HD
ATOM     50  C   UNL A   1      43.380  28.248  33.837  1.00  0.00     0.037 A 
ATOM     51  C   UNL A   1      38.119  30.831  30.012  1.00  0.00     0.037 A 
ATOM     52  C   UNL A   1      42.526  29.177  34.526  1.00  0.00     0.049 A 
ATOM     53  C   UNL A   1      38.289  31.182  31.469  1.00  0.00     0.074 A 
ATOM     54  C   UNL A   1      42.635  29.643  35.824  1.00  0.00     0.029 A 
ATOM     55  N   UNL A   1      41.405  29.779  33.976  1.00  0.00    -0.354 N 
ATOM     56  N   UNL A   1      39.231  30.813  32.305  1.00  0.00    -0.248 NA
ATOM     57  C   UNL A   1      37.274  32.062  32.066  1.00  0.00     0.031 C 
ATOM     58  C   UNL A   1      41.548  30.483  36.078  1.00  0.00     0.029 A 
ATOM     59  C   UNL A   1      40.796  30.589  34.918  1.00  0.00     0.049 A 
ATOM     60  H   UNL A   1      41.089  29.648  33.053  1.00  0.00     0.167 HD
ATOM     61  C   UNL A   1      38.938  31.437  33.512  1.00  0.00     0.074 A 
ATOM     62  C   UNL A   1      37.738  32.219  33.298  1.00  0.00     0.031 C 
ATOM     63  C   UNL A   1      39.605  31.369  34.691  1.00  0.00     0.037 A 
BRANCH  50  64
ATOM     64  C   UNL A   1      44.548  27.671  34.580  1.00  0.00     0.057 A 
ATOM     65  C   UNL A   1      44.435  26.497  35.335  1.00  0.00     0.134 A 
ATOM     66  C   UNL A   1      45.814  28.265  34.493  1.00  0.00     0.134 A 
ATOM     67  F   UNL A   1      43.247  25.888  35.472  1.00  0.00    -0.206 F 
ATOM     68  C   UNL A   1      45.536  25.940  35.988  1.00  0.00     0.040 A 
ATOM     69  C   UNL A   1      46.927  27.702  35.118  1.00  0.00     0.040 A 
ATOM     70  F   UNL A   1      45.992  29.390  33.785  1.00  0.00    -0.206 F 
ATOM     71  C   UNL A   1      46.790  26.537  35.870  1.00  0.00     0.006 A 
ENDBRANCH  50  64
BRANCH  51  72
ATOM     72  C   UNL A   1      36.997  31.404  29.223  1.00  0.00     0.057 A 
ATOM     73  C   UNL A   1      35.866  30.639  28.916  1.00  0.00     0.134 A 
ATOM     74  C   UNL A   1      37.026  32.724  28.757  1.00  0.00     0.134 A 
ATOM     75  F   UNL A   1      35.788  29.360  29.311  1.00  0.00    -0.206 F 
ATOM     76  C   UNL A   1      34.809  31.162  28.168  1.00  0.00     0.040 A 
ATOM     77  C   UNL A   1      35.966  33.269  28.031  1.00  0.00     0.040 A 
ATOM     78  F   UNL A   1      38.083  33.510  29.012  1.00  0.00    -0.206 F 
ATOM     79  C   UNL A   1      34.854  32.484  27.731  1.00  0.00     0.006 A 
ENDBRANCH  51  72
BRANCH  63  80
ATOM     80  C   UNL A   1      39.077  32.176  35.844  1.00  0.00     0.057 A 
ATOM     81  C   UNL A   1      38.231  31.619  36.809  1.00  0.00     0.134 A 
ATOM     82  C   UNL A   1      39.491  33.501  36.036  1.00  0.00     0.134 A 
ATOM     83  F   UNL A   1      37.790  30.358  36.681  1.00  0.00    -0.206 F 
ATOM     84  C   UNL A   1      37.804  32.353  37.917  1.00  0.00     0.040 A 
ATOM     85  C   UNL A   1      39.096  34.236  37.154  1.00  0.00     0.040 A 
ATOM     86  F   UNL A   1      40.315  34.093  35.157  1.00  0.00    -0.206 F 
ATOM     87  C   UNL A   1      38.246  33.663  38.097  1.00  0.00     0.006 A 
ENDBRANCH  63  80
ENDBRANCH  37  38
ENDBRANCH  30  32
ENDBRANCH  29  30
ENDBRANCH  28  29
ENDBRANCH  27  28
ENDBRANCH  26  27
ENDBRANCH   1  26
TORSDOF 18
ENDMDL
MODEL 2
REMARK VINA RESULT:     -11.0      1.134      6.306
REMARK SMILES Cc1c(Cl)cc2c(c1C)O[C@@H](C(F)(F)F)C(C(=O)OCCOCCOCCOC(=O)c1ccc(-c3c4nc(c(-c5c(F)cccc5F)c5ccc([nH]5)c(-c5c(F)cccc5F)c5nc(c(-c6c(F)cccc6F)c6ccc3[nH]6)C=C5)C=C4)cc1)=C2
REMARK SMILES IDX 24 1 23 2 22 3 21 4 20 5 19 6 17 7 18 8 16 9 1 10 2 11 3 12
REMARK SMILES IDX 8 13 4 14 5 15 7 16 9 17 6 18 10 19 85 20 11 21 12 22 13 23
REMARK SMILES IDX 14 24 15 25 25 26 26 27 27 28 28 29 29 30 30 31 31 32 32 33
REMARK SMILES IDX 84 34 33 35 83 36 34 37 35 38 36 39 77 40 37 41 82 42 76 43
REMARK SMILES IDX 78 44 38 45 81 46 75 47 74 48 39 50 65 51 48 52 64 53 49 54
REMARK SMILES IDX 52 55 63 56 79 57 50 58 51 59 62 61 80 62 53 63 40 64 41 65
REMARK SMILES IDX 46 66 42 67 43 68 45 69 47 70 44 71 66 72 67 73 72 74 68 75
REMARK SMILES IDX 69 76 71 77 73 78 70 79 54 80 55 81 60 82 56 83 57 84 59 85
REMARK SMILES IDX 61 86 58 87
REMARK H PARENT 78 49 52 60
REMARK Flexibility Score: inf
ROOT
ATOM      1  C   UNL A   1      41.754  20.854  27.092  1.00  0.00     0.188 C 
ENDROOT
BRANCH   1   2
ATOM      2  C   UNL A   1      40.473  21.704  27.196  1.00  0.00     0.188 C 
BRANCH   2   3
ATOM      3  O   UNL A   1      39.807  22.127  26.017  1.00  0.00    -0.376 OA
BRANCH   3   4
ATOM      4  C   UNL A   1      38.426  21.834  25.842  1.00  0.00     0.202 C 
BRANCH   4   5
ATOM      5  C   UNL A   1      37.458  22.917  25.339  1.00  0.00     0.261 C 
BRANCH   5   6
ATOM      6  O   UNL A   1      36.503  23.375  26.314  1.00  0.00    -0.460 OA
BRANCH   6   7
ATOM      7  C   UNL A   1      35.270  22.832  26.231  1.00  0.00     0.338 C 
ATOM      8  O   UNL A   1      34.890  21.815  26.792  1.00  0.00    -0.246 OA
BRANCH   7   9
ATOM      9  C   UNL A   1      34.351  23.712  25.484  1.00  0.00     0.087 C 
ATOM     10  C   UNL A   1      30.286  28.633  24.169  1.00  0.00     0.046 C 
ATOM     11  C   UNL A   1      31.430  27.697  24.471  1.00  0.00    -0.026 A 
ATOM     12  C   UNL A   1      32.651  28.187  24.976  1.00  0.00     0.045 A 
ATOM     13  C   UNL A   1      31.302  26.303  24.242  1.00  0.00    -0.004 A 
ATOM     14  Cl  UNL A   1      32.944  29.875  25.214  1.00  0.00    -0.084 Cl
ATOM     15  C   UNL A   1      33.686  27.316  25.325  1.00  0.00     0.032 A 
ATOM     16  C   UNL A   1      32.339  25.434  24.644  1.00  0.00     0.131 A 
ATOM     17  C   UNL A   1      30.087  25.695  23.583  1.00  0.00     0.049 C 
ATOM     18  C   UNL A   1      33.521  25.938  25.189  1.00  0.00     0.019 A 
ATOM     19  O   UNL A   1      32.089  24.087  24.560  1.00  0.00    -0.475 OA
ATOM     20  C   UNL A   1      34.521  25.023  25.709  1.00  0.00     0.027 C 
ATOM     21  C   UNL A   1      33.202  23.156  24.688  1.00  0.00     0.316 C 
BRANCH  21  22
ATOM     22  C   UNL A   1      33.533  22.620  23.283  1.00  0.00     0.430 C 
ATOM     23  F   UNL A   1      32.830  23.248  22.313  1.00  0.00    -0.167 F 
ATOM     24  F   UNL A   1      34.846  22.725  22.992  1.00  0.00    -0.167 F 
ATOM     25  F   UNL A   1      33.231  21.298  23.193  1.00  0.00    -0.167 F 
ENDBRANCH  21  22
ENDBRANCH   7   9
ENDBRANCH   6   7
ENDBRANCH   5   6
ENDBRANCH   4   5
ENDBRANCH   3   4
ENDBRANCH   2   3
ENDBRANCH   1   2
BRANCH   1  26
ATOM     26  O   UNL A   1      42.381  20.836  25.838  1.00  0.00    -0.376 OA
BRANCH  26  27
ATOM     27  C   UNL A   1      43.611  21.508  25.638  1.00  0.00     0.202 C 
BRANCH  27  28
ATOM     28  C   UNL A   1      43.898  22.558  24.544  1.00  0.00     0.261 C 
BRANCH  28  29
ATOM     29  O   UNL A   1      43.383  23.881  24.716  1.00  0.00    -0.460 OA
BRANCH  29  30
ATOM     30  C   UNL A   1      44.260  24.810  25.172  1.00  0.00     0.338 C 
ATOM     31  O   UNL A   1      45.354  25.083  24.723  1.00  0.00    -0.246 OA
BRANCH  30  32
ATOM     32  C   UNL A   1      43.573  25.597  26.217  1.00  0.00     0.060 A 
ATOM     33  C   UNL A   1      43.978  26.919  26.447  1.00  0.00     0.016 A 
ATOM     34  C   UNL A   1      42.539  25.027  26.961  1.00  0.00     0.016 A 
ATOM     35  C   UNL A   1      43.351  27.677  27.434  1.00  0.00     0.010 A 
ATOM     36  C   UNL A   1      41.933  25.778  27.970  1.00  0.00     0.010 A 
ATOM     37  C   UNL A   1      42.352  27.096  28.226  1.00  0.00    -0.014 A 
BRANCH  37  38
ATOM     38  C   UNL A   1      41.885  27.794  29.447  1.00  0.00     0.031 A 
ATOM     39  C   UNL A   1      40.664  28.663  29.347  1.00  0.00     0.074 A 
ATOM     40  C   UNL A   1      42.518  27.646  30.624  1.00  0.00     0.049 A 
ATOM     41  N   UNL A   1      40.105  29.419  30.255  1.00  0.00    -0.248 NA
ATOM     42  C   UNL A   1      39.980  28.680  28.043  1.00  0.00     0.031 C 
ATOM     43  C   UNL A   1      43.676  26.787  30.860  1.00  0.00     0.029 A 
ATOM     44  N   UNL A   1      42.271  28.225  31.844  1.00  0.00    -0.354 N 
ATOM     45  C   UNL A   1      39.006  29.998  29.634  1.00  0.00     0.074 A 
ATOM     46  C   UNL A   1      38.995  29.537  28.264  1.00  0.00     0.031 C 
ATOM     47  C   UNL A   1      44.044  26.900  32.149  1.00  0.00     0.029 A 
ATOM     48  C   UNL A   1      43.171  27.867  32.816  1.00  0.00     0.049 A 
ATOM     49  H   UNL A   1      41.518  28.839  32.005  1.00  0.00     0.167 HD
ATOM     50  C   UNL A   1      38.080  30.831  30.165  1.00  0.00     0.037 A 
ATOM     51  C   UNL A   1      43.288  28.289  34.090  1.00  0.00     0.037 A 
ATOM     52  C   UNL A   1      38.099  31.295  31.526  1.00  0.00     0.049 A 
ATOM     53  C   UNL A   1      42.307  29.300  34.629  1.00  0.00     0.074 A 
ATOM     54  C   UNL A   1      37.207  32.144  32.155  1.00  0.00     0.029 A 
ATOM     55  N   UNL A   1      39.059  30.953  32.465  1.00  0.00    -0.354 N 
ATOM     56  N   UNL A   1      41.267  29.841  34.039  1.00  0.00    -0.248 NA
ATOM     57  C   UNL A   1      42.516  29.763  36.009  1.00  0.00     0.031 C 
ATOM     58  C   UNL A   1      37.658  32.361  33.460  1.00  0.00     0.029 A 
ATOM     59  C   UNL A   1      38.798  31.598  33.662  1.00  0.00     0.049 A 
ATOM     60  H   UNL A   1      39.815  30.343  32.305  1.00  0.00     0.167 HD
ATOM     61  C   UNL A   1      40.686  30.681  34.981  1.00  0.00     0.074 A 
ATOM     62  C   UNL A   1      41.480  30.570  36.187  1.00  0.00     0.031 C 
ATOM     63  C   UNL A   1      39.592  31.473  34.859  1.00  0.00     0.037 A 
BRANCH  50  64
ATOM     64  C   UNL A   1      36.979  31.307  29.266  1.00  0.00     0.057 A 
ATOM     65  C   UNL A   1      35.878  30.497  28.955  1.00  0.00     0.134 A 
ATOM     66  C   UNL A   1      36.989  32.610  28.751  1.00  0.00     0.134 A 
ATOM     67  F   UNL A   1      35.816  29.234  29.403  1.00  0.00    -0.206 F 
ATOM     68  C   UNL A   1      34.834  30.962  28.155  1.00  0.00     0.040 A 
ATOM     69  C   UNL A   1      35.937  33.095  27.974  1.00  0.00     0.040 A 
ATOM     70  F   UNL A   1      38.012  33.437  29.012  1.00  0.00    -0.206 F 
ATOM     71  C   UNL A   1      34.856  32.269  27.671  1.00  0.00     0.006 A 
ENDBRANCH  50  64
BRANCH  51  72
ATOM     72  C   UNL A   1      44.377  27.760  34.952  1.00  0.00     0.057 A 
ATOM     73  C   UNL A   1      45.687  28.239  34.835  1.00  0.00     0.134 A 
ATOM     74  C   UNL A   1      44.139  26.764  35.908  1.00  0.00     0.134 A 
ATOM     75  F   UNL A   1      45.985  29.173  33.920  1.00  0.00    -0.206 F 
ATOM     76  C   UNL A   1      46.722  27.744  35.632  1.00  0.00     0.040 A 
ATOM     77  C   UNL A   1      45.158  26.279  36.730  1.00  0.00     0.040 A 
ATOM     78  F   UNL A   1      42.907  26.258  36.067  1.00  0.00    -0.206 F 
ATOM     79  C   UNL A   1      46.455  26.767  36.589  1.00  0.00     0.006 A 
ENDBRANCH  51  72
BRANCH  63  80
ATOM     80  C   UNL A   1      39.162  32.268  36.059  1.00  0.00     0.057 A 
ATOM     81  C   UNL A   1      39.574  33.590  36.255  1.00  0.00     0.134 A 
ATOM     82  C   UNL A   1      38.254  31.731  36.983  1.00  0.00     0.134 A 
ATOM     83  F   UNL A   1      40.448  34.163  35.413  1.00  0.00    -0.206 F 
ATOM     84  C   UNL A   1      39.112  34.347  37.334  1.00  0.00     0.040 A 
ATOM     85  C   UNL A   1      37.762  32.486  38.048  1.00  0.00     0.040 A 
ATOM     86  F   UNL A   1      37.805  30.474  36.846  1.00  0.00    -0.206 F 
ATOM     87  C   UNL A   1      38.194  33.798  38.228  1.00  0.00     0.006 A 
ENDBRANCH  63  80
ENDBRANCH  37  38
ENDBRANCH  30  32
ENDBRANCH  29  30
ENDBRANCH  28  29
ENDBRANCH  27  28
ENDBRANCH  26  27
ENDBRANCH   1  26
TORSDOF 18
ENDMDL
MODEL 3
REMARK VINA RESULT:     -11.0      3.780      8.615
REMARK SMILES Cc1c(Cl)cc2c(c1C)O[C@@H](C(F)(F)F)C(C(=O)OCCOCCOCCOC(=O)c1ccc(-c3c4nc(c(-c5c(F)cccc5F)c5ccc([nH]5)c(-c5c(F)cccc5F)c5nc(c(-c6c(F)cccc6F)c6ccc3[nH]6)C=C5)C=C4)cc1)=C2
REMARK SMILES IDX 24 1 23 2 22 3 21 4 20 5 19 6 17 7 18 8 16 9 1 10 2 11 3 12
REMARK SMILES IDX 8 13 4 14 5 15 7 16 9 17 6 18 10 19 85 20 11 21 12 22 13 23
REMARK SMILES IDX 14 24 15 25 25 26 26 27 27 28 28 29 29 30 30 31 31 32 32 33
REMARK SMILES IDX 84 34 33 35 83 36 34 37 35 38 36 39 77 40 37 41 82 42 76 43
REMARK SMILES IDX 78 44 38 45 81 46 75 47 74 48 39 50 65 51 48 52 64 53 49 54
REMARK SMILES IDX 52 55 63 56 79 57 50 58 51 59 62 61 80 62 53 63 40 64 41 65
REMARK SMILES IDX 46 66 42 67 43 68 45 69 47 70 44 71 66 72 67 73 72 74 68 75
REMARK SMILES IDX 69 76 71 77 73 78 70 79 54 80 55 81 60 82 56 83 57 84 59 85
REMARK SMILES IDX 61 86 58 87
REMARK H PARENT 78 49 52 60
REMARK Flexibility Score: inf
ROOT
ATOM      1  C   UNL A   1      32.526  29.734  27.159  1.00  0.00     0.188 C 
ENDROOT
BRANCH   1   2
ATOM      2  C   UNL A   1      31.703  29.070  26.038  1.00  0.00     0.188 C 
BRANCH   2   3
ATOM      3  O   UNL A   1      32.035  29.311  24.680  1.00  0.00    -0.376 OA
BRANCH   3   4
ATOM      4  C   UNL A   1      33.298  28.891  24.177  1.00  0.00     0.202 C 
BRANCH   4   5
ATOM      5  C   UNL A   1      33.513  28.710  22.665  1.00  0.00     0.261 C 
BRANCH   5   6
ATOM      6  O   UNL A   1      33.504  27.343  22.213  1.00  0.00    -0.460 OA
BRANCH   6   7
ATOM      7  C   UNL A   1      32.354  26.665  22.414  1.00  0.00     0.338 C 
ATOM      8  O   UNL A   1      31.265  26.931  21.930  1.00  0.00    -0.246 OA
BRANCH   7   9
ATOM      9  C   UNL A   1      32.594  25.433  23.190  1.00  0.00     0.087 C 
ATOM     10  C   UNL A   1      35.035  19.634  24.892  1.00  0.00     0.046 C 
ATOM     11  C   UNL A   1      34.730  21.075  24.568  1.00  0.00    -0.026 A 
ATOM     12  C   UNL A   1      35.767  22.001  24.340  1.00  0.00     0.045 A 
ATOM     13  C   UNL A   1      33.388  21.531  24.496  1.00  0.00    -0.004 A 
ATOM     14  Cl  UNL A   1      37.438  21.573  24.483  1.00  0.00    -0.084 Cl
ATOM     15  C   UNL A   1      35.489  23.319  23.968  1.00  0.00     0.032 A 
ATOM     16  C   UNL A   1      33.124  22.852  24.074  1.00  0.00     0.131 A 
ATOM     17  C   UNL A   1      32.211  20.656  24.851  1.00  0.00     0.049 C 
ATOM     18  C   UNL A   1      34.169  23.738  23.805  1.00  0.00     0.019 A 
ATOM     19  O   UNL A   1      31.810  23.184  23.855  1.00  0.00    -0.475 OA
ATOM     20  C   UNL A   1      33.877  25.049  23.254  1.00  0.00     0.027 C 
ATOM     21  C   UNL A   1      31.456  24.588  23.697  1.00  0.00     0.316 C 
BRANCH  21  22
ATOM     22  C   UNL A   1      30.780  25.054  25.000  1.00  0.00     0.430 C 
ATOM     23  F   UNL A   1      30.355  24.018  25.758  1.00  0.00    -0.167 F 
ATOM     24  F   UNL A   1      31.594  25.825  25.750  1.00  0.00    -0.167 F 
ATOM     25  F   UNL A   1      29.688  25.815  24.724  1.00  0.00    -0.167 F 
ENDBRANCH  21  22
ENDBRANCH   7   9
ENDBRANCH   6   7
ENDBRANCH   5   6
ENDBRANCH   4   5
ENDBRANCH   3   4
ENDBRANCH   2   3
ENDBRANCH   1   2
BRANCH   1  26
ATOM     26  O   UNL A   1      32.870  31.079  26.956  1.00  0.00    -0.376 OA
BRANCH  26  27
ATOM     27  C   UNL A   1      31.874  32.085  26.960  1.00  0.00     0.202 C 
BRANCH  27  28
ATOM     28  C   UNL A   1      32.116  33.592  27.183  1.00  0.00     0.261 C 
BRANCH  28  29
ATOM     29  O   UNL A   1      32.406  34.048  28.507  1.00  0.00    -0.460 OA
BRANCH  29  30
ATOM     30  C   UNL A   1      33.524  34.803  28.649  1.00  0.00     0.338 C 
ATOM     31  O   UNL A   1      33.607  36.014  28.658  1.00  0.00    -0.246 OA
BRANCH  30  32
ATOM     32  C   UNL A   1      34.635  33.893  28.994  1.00  0.00     0.060 A 
ATOM     33  C   UNL A   1      34.345  32.679  29.634  1.00  0.00     0.016 A 
ATOM     34  C   UNL A   1      35.951  34.242  28.689  1.00  0.00     0.016 A 
ATOM     35  C   UNL A   1      35.378  31.810  29.978  1.00  0.00     0.010 A 
ATOM     36  C   UNL A   1      36.988  33.384  29.063  1.00  0.00     0.010 A 
ATOM     37  C   UNL A   1      36.708  32.177  29.728  1.00  0.00    -0.014 A 
BRANCH  37  38
ATOM     38  C   UNL A   1      37.810  31.399  30.339  1.00  0.00     0.031 A 
ATOM     39  C   UNL A   1      38.147  31.654  31.781  1.00  0.00     0.074 A 
ATOM     40  C   UNL A   1      38.488  30.474  29.637  1.00  0.00     0.049 A 
ATOM     41  N   UNL A   1      39.104  31.148  32.512  1.00  0.00    -0.248 NA
ATOM     42  C   UNL A   1      37.283  32.610  32.494  1.00  0.00     0.031 C 
ATOM     43  C   UNL A   1      38.217  30.096  28.252  1.00  0.00     0.029 A 
ATOM     44  N   UNL A   1      39.550  29.684  30.003  1.00  0.00    -0.354 N 
ATOM     45  C   UNL A   1      38.958  31.721  33.769  1.00  0.00     0.074 A 
ATOM     46  C   UNL A   1      37.843  32.639  33.693  1.00  0.00     0.031 C 
ATOM     47  C   UNL A   1      39.098  29.150  27.881  1.00  0.00     0.029 A 
ATOM     48  C   UNL A   1      40.015  28.884  28.989  1.00  0.00     0.049 A 
ATOM     49  H   UNL A   1      39.941  29.693  30.906  1.00  0.00     0.167 HD
ATOM     50  C   UNL A   1      39.680  31.491  34.890  1.00  0.00     0.037 A 
ATOM     51  C   UNL A   1      41.073  28.049  28.957  1.00  0.00     0.037 A 
ATOM     52  C   UNL A   1      40.794  30.584  34.960  1.00  0.00     0.049 A 
ATOM     53  C   UNL A   1      41.928  27.890  30.188  1.00  0.00     0.074 A 
ATOM     54  C   UNL A   1      41.591  30.287  36.050  1.00  0.00     0.029 A 
ATOM     55  N   UNL A   1      41.268  29.831  33.897  1.00  0.00    -0.354 N 
ATOM     56  N   UNL A   1      41.783  28.431  31.374  1.00  0.00    -0.248 NA
ATOM     57  C   UNL A   1      43.099  27.007  30.076  1.00  0.00     0.031 C 
ATOM     58  C   UNL A   1      42.584  29.396  35.634  1.00  0.00     0.029 A 
ATOM     59  C   UNL A   1      42.368  29.092  34.298  1.00  0.00     0.049 A 
ATOM     60  H   UNL A   1      40.883  29.825  32.992  1.00  0.00     0.167 HD
ATOM     61  C   UNL A   1      42.820  27.933  32.153  1.00  0.00     0.074 A 
ATOM     62  C   UNL A   1      43.583  27.036  31.310  1.00  0.00     0.031 C 
ATOM     63  C   UNL A   1      43.115  28.195  33.451  1.00  0.00     0.037 A 
BRANCH  50  64
ATOM     64  C   UNL A   1      39.300  32.246  36.129  1.00  0.00     0.057 A 
ATOM     65  C   UNL A   1      39.860  33.493  36.434  1.00  0.00     0.134 A 
ATOM     66  C   UNL A   1      38.321  31.747  36.998  1.00  0.00     0.134 A 
ATOM     67  F   UNL A   1      40.814  34.020  35.651  1.00  0.00    -0.206 F 
ATOM     68  C   UNL A   1      39.469  34.211  37.564  1.00  0.00     0.040 A 
ATOM     69  C   UNL A   1      37.902  32.468  38.116  1.00  0.00     0.040 A 
ATOM     70  F   UNL A   1      37.744  30.558  36.763  1.00  0.00    -0.206 F 
ATOM     71  C   UNL A   1      38.478  33.704  38.404  1.00  0.00     0.006 A 
ENDBRANCH  50  64
BRANCH  51  72
ATOM     72  C   UNL A   1      41.388  27.297  27.715  1.00  0.00     0.057 A 
ATOM     73  C   UNL A   1      40.928  25.988  27.527  1.00  0.00     0.134 A 
ATOM     74  C   UNL A   1      42.155  27.862  26.689  1.00  0.00     0.134 A 
ATOM     75  F   UNL A   1      40.211  25.380  28.483  1.00  0.00    -0.206 F 
ATOM     76  C   UNL A   1      41.225  25.267  26.368  1.00  0.00     0.040 A 
ATOM     77  C   UNL A   1      42.437  27.164  25.514  1.00  0.00     0.040 A 
ATOM     78  F   UNL A   1      42.630  29.111  26.808  1.00  0.00    -0.206 F 
ATOM     79  C   UNL A   1      41.974  25.859  25.354  1.00  0.00     0.006 A 
ENDBRANCH  51  72
BRANCH  63  80
ATOM     80  C   UNL A   1      44.294  27.491  34.060  1.00  0.00     0.057 A 
ATOM     81  C   UNL A   1      45.560  28.084  34.116  1.00  0.00     0.134 A 
ATOM     82  C   UNL A   1      44.139  26.241  34.676  1.00  0.00     0.134 A 
ATOM     83  F   UNL A   1      45.779  29.276  33.540  1.00  0.00    -0.206 F 
ATOM     84  C   UNL A   1      46.634  27.455  34.749  1.00  0.00     0.040 A 
ATOM     85  C   UNL A   1      45.196  25.615  35.337  1.00  0.00     0.040 A 
ATOM     86  F   UNL A   1      42.948  25.623  34.673  1.00  0.00    -0.206 F 
ATOM     87  C   UNL A   1      46.450  26.222  35.372  1.00  0.00     0.006 A 
ENDBRANCH  63  80
ENDBRANCH  37  38
ENDBRANCH  30  32
ENDBRANCH  29  30
ENDBRANCH  28  29
ENDBRANCH  27  28
ENDBRANCH  26  27
ENDBRANCH   1  26
TORSDOF 18
ENDMDL
