MODEL 1
REMARK VINA RESULT:     -10.5      0.000      0.000
REMARK SMILES C[C@@H](CS(=O)(=O)[C@@H]1CCC[C@H](S(C)(=O)=O)C1)C(=O)OCCOCCOCCOC(=O)c1ccc(-c2c3nc(c(-c4c(F)cccc4F)c4ccc([nH]4)c(-c4c(F)cccc4F)c4nc(c(-c5c(F)cccc5F)c5ccc2[nH]5)C=C4)C=C3)cc1
REMARK SMILES IDX 23 1 22 2 21 3 20 4 19 5 17 6 18 7 2 8 1 9 3 10 4 11 5 12
REMARK SMILES IDX 6 13 7 14 8 15 16 16 9 17 11 18 10 19 12 20 13 21 14 22
REMARK SMILES IDX 15 23 24 24 25 25 26 26 27 27 28 28 29 29 30 30 31 31 32 32
REMARK SMILES IDX 84 33 33 34 83 35 34 36 35 37 36 38 77 39 37 40 82 41 76 42
REMARK SMILES IDX 78 43 38 44 81 45 75 46 74 47 39 49 65 50 48 51 64 52 49 53
REMARK SMILES IDX 52 54 63 55 79 56 50 57 51 58 62 60 80 61 53 62 40 63 41 64
REMARK SMILES IDX 46 65 42 66 43 67 45 68 47 69 44 70 66 71 67 72 72 73 68 74
REMARK SMILES IDX 69 75 71 76 73 77 70 78 54 79 55 80 60 81 56 82 57 83 59 84
REMARK SMILES IDX 61 85 58 86
REMARK H PARENT 78 48 52 59
REMARK Flexibility Score: inf
ROOT
ATOM      1  C   UNL A   1      44.599  20.365  24.685  1.00  0.00     0.188 C 
ENDROOT
BRANCH   1   2
ATOM      2  O   UNL A   1      44.408  19.198  25.450  1.00  0.00    -0.376 OA
BRANCH   2   3
ATOM      3  C   UNL A   1      43.105  18.737  25.755  1.00  0.00     0.202 C 
BRANCH   3   4
ATOM      4  C   UNL A   1      42.121  19.450  26.694  1.00  0.00     0.261 C 
BRANCH   4   5
ATOM      5  O   UNL A   1      41.195  20.395  26.137  1.00  0.00    -0.463 OA
BRANCH   5   6
ATOM      6  C   UNL A   1      39.953  19.929  25.888  1.00  0.00     0.309 C 
ATOM      7  O   UNL A   1      39.688  18.768  25.604  1.00  0.00    -0.252 OA
BRANCH   6   8
ATOM      8  C   UNL A   1      38.881  21.007  25.941  1.00  0.00     0.111 C 
ATOM      9  C   UNL A   1      39.295  22.472  26.003  1.00  0.00     0.021 C 
BRANCH   8  10
ATOM     10  C   UNL A   1      37.704  20.732  25.020  1.00  0.00     0.152 C 
BRANCH  10  11
ATOM     11  S   UNL A   1      36.279  21.805  24.936  1.00  0.00     0.154 S 
ATOM     12  O   UNL A   1      36.107  22.515  26.182  1.00  0.00    -0.229 OA
ATOM     13  O   UNL A   1      36.531  22.586  23.733  1.00  0.00    -0.229 OA
BRANCH  11  14
ATOM     14  C   UNL A   1      34.780  20.834  24.583  1.00  0.00     0.110 C 
ATOM     15  C   UNL A   1      33.687  21.238  25.597  1.00  0.00     0.020 C 
ATOM     16  C   UNL A   1      34.937  19.307  24.654  1.00  0.00     0.039 C 
ATOM     17  C   UNL A   1      32.363  20.525  25.350  1.00  0.00     0.003 C 
ATOM     18  C   UNL A   1      33.604  18.626  24.269  1.00  0.00     0.109 C 
ATOM     19  C   UNL A   1      32.516  19.011  25.269  1.00  0.00     0.020 C 
BRANCH  18  20
ATOM     20  S   UNL A   1      33.775  16.844  24.089  1.00  0.00     0.150 S 
ATOM     21  C   UNL A   1      35.198  16.420  25.074  1.00  0.00     0.158 C 
ATOM     22  O   UNL A   1      32.632  16.245  24.753  1.00  0.00    -0.229 OA
ATOM     23  O   UNL A   1      34.105  16.538  22.712  1.00  0.00    -0.229 OA
ENDBRANCH  18  20
ENDBRANCH  11  14
ENDBRANCH  10  11
ENDBRANCH   8  10
ENDBRANCH   6   8
ENDBRANCH   5   6
ENDBRANCH   4   5
ENDBRANCH   3   4
ENDBRANCH   2   3
ENDBRANCH   1   2
BRANCH   1  24
ATOM     24  C   UNL A   1      46.030  20.883  24.461  1.00  0.00     0.188 C 
BRANCH  24  25
ATOM     25  O   UNL A   1      46.593  21.790  25.382  1.00  0.00    -0.376 OA
BRANCH  25  26
ATOM     26  C   UNL A   1      45.710  22.669  26.066  1.00  0.00     0.202 C 
BRANCH  26  27
ATOM     27  C   UNL A   1      45.518  24.108  25.560  1.00  0.00     0.261 C 
BRANCH  27  28
ATOM     28  O   UNL A   1      44.478  24.247  24.572  1.00  0.00    -0.460 OA
BRANCH  28  29
ATOM     29  C   UNL A   1      43.228  23.896  24.970  1.00  0.00     0.338 C 
ATOM     30  O   UNL A   1      42.623  22.866  24.721  1.00  0.00    -0.246 OA
BRANCH  29  31
ATOM     31  C   UNL A   1      42.717  24.913  25.911  1.00  0.00     0.060 A 
ATOM     32  C   UNL A   1      42.858  26.278  25.607  1.00  0.00     0.016 A 
ATOM     33  C   UNL A   1      42.127  24.515  27.107  1.00  0.00     0.016 A 
ATOM     34  C   UNL A   1      42.402  27.249  26.505  1.00  0.00     0.010 A 
ATOM     35  C   UNL A   1      41.701  25.486  28.016  1.00  0.00     0.010 A 
ATOM     36  C   UNL A   1      41.849  26.857  27.730  1.00  0.00    -0.014 A 
BRANCH  36  37
ATOM     37  C   UNL A   1      41.545  27.845  28.795  1.00  0.00     0.031 A 
ATOM     38  C   UNL A   1      42.327  27.781  30.077  1.00  0.00     0.074 A 
ATOM     39  C   UNL A   1      40.543  28.732  28.660  1.00  0.00     0.049 A 
ATOM     40  N   UNL A   1      42.115  28.393  31.213  1.00  0.00    -0.248 NA
ATOM     41  C   UNL A   1      43.502  26.894  30.080  1.00  0.00     0.031 C 
ATOM     42  C   UNL A   1      39.736  28.922  27.458  1.00  0.00     0.029 A 
ATOM     43  N   UNL A   1      40.008  29.613  29.569  1.00  0.00    -0.354 N 
ATOM     44  C   UNL A   1      43.108  27.944  32.075  1.00  0.00     0.074 A 
ATOM     45  C   UNL A   1      43.920  27.004  31.333  1.00  0.00     0.031 C 
ATOM     46  C   UNL A   1      38.781  29.833  27.715  1.00  0.00     0.029 A 
ATOM     47  C   UNL A   1      38.878  30.252  29.113  1.00  0.00     0.049 A 
ATOM     48  H   UNL A   1      40.394  29.772  30.461  1.00  0.00     0.167 HD
ATOM     49  C   UNL A   1      43.314  28.280  33.369  1.00  0.00     0.037 A 
ATOM     50  C   UNL A   1      37.998  31.038  29.763  1.00  0.00     0.037 A 
ATOM     51  C   UNL A   1      42.506  29.220  34.100  1.00  0.00     0.049 A 
ATOM     52  C   UNL A   1      38.207  31.337  31.228  1.00  0.00     0.074 A 
ATOM     53  C   UNL A   1      42.672  29.666  35.400  1.00  0.00     0.029 A 
ATOM     54  N   UNL A   1      41.372  29.841  33.604  1.00  0.00    -0.354 N 
ATOM     55  N   UNL A   1      39.176  30.949  32.022  1.00  0.00    -0.248 NA
ATOM     56  C   UNL A   1      37.195  32.176  31.889  1.00  0.00     0.031 C 
ATOM     57  C   UNL A   1      41.598  30.504  35.712  1.00  0.00     0.029 A 
ATOM     58  C   UNL A   1      40.801  30.632  34.587  1.00  0.00     0.049 A 
ATOM     59  H   UNL A   1      41.024  29.737  32.689  1.00  0.00     0.167 HD
ATOM     60  C   UNL A   1      38.904  31.518  33.263  1.00  0.00     0.074 A 
ATOM     61  C   UNL A   1      37.691  32.290  33.114  1.00  0.00     0.031 C 
ATOM     62  C   UNL A   1      39.598  31.408  34.423  1.00  0.00     0.037 A 
BRANCH  49  63
ATOM     63  C   UNL A   1      44.435  27.601  34.099  1.00  0.00     0.057 A 
ATOM     64  C   UNL A   1      45.756  28.060  34.033  1.00  0.00     0.134 A 
ATOM     65  C   UNL A   1      44.172  26.508  34.936  1.00  0.00     0.134 A 
ATOM     66  F   UNL A   1      46.077  29.095  33.242  1.00  0.00    -0.206 F 
ATOM     67  C   UNL A   1      46.777  27.447  34.760  1.00  0.00     0.040 A 
ATOM     68  C   UNL A   1      45.179  25.904  35.689  1.00  0.00     0.040 A 
ATOM     69  F   UNL A   1      42.926  26.022  35.050  1.00  0.00    -0.206 F 
ATOM     70  C   UNL A   1      46.488  26.372  35.599  1.00  0.00     0.006 A 
ENDBRANCH  49  63
BRANCH  50  71
ATOM     71  C   UNL A   1      36.797  31.565  29.059  1.00  0.00     0.057 A 
ATOM     72  C   UNL A   1      36.730  32.896  28.631  1.00  0.00     0.134 A 
ATOM     73  C   UNL A   1      35.667  30.764  28.847  1.00  0.00     0.134 A 
ATOM     74  F   UNL A   1      37.768  33.722  28.833  1.00  0.00    -0.206 F 
ATOM     75  C   UNL A   1      35.578  33.419  28.041  1.00  0.00     0.040 A 
ATOM     76  C   UNL A   1      34.520  31.266  28.229  1.00  0.00     0.040 A 
ATOM     77  F   UNL A   1      35.662  29.482  29.237  1.00  0.00    -0.206 F 
ATOM     78  C   UNL A   1      34.469  32.600  27.835  1.00  0.00     0.006 A 
ENDBRANCH  50  71
BRANCH  62  79
ATOM     79  C   UNL A   1      39.090  32.164  35.617  1.00  0.00     0.057 A 
ATOM     80  C   UNL A   1      39.358  33.526  35.801  1.00  0.00     0.134 A 
ATOM     81  C   UNL A   1      38.263  31.535  36.558  1.00  0.00     0.134 A 
ATOM     82  F   UNL A   1      40.152  34.185  34.944  1.00  0.00    -0.206 F 
ATOM     83  C   UNL A   1      38.833  34.232  36.885  1.00  0.00     0.040 A 
ATOM     84  C   UNL A   1      37.708  32.238  37.629  1.00  0.00     0.040 A 
ATOM     85  F   UNL A   1      37.956  30.235  36.437  1.00  0.00    -0.206 F 
ATOM     86  C   UNL A   1      37.997  33.591  37.797  1.00  0.00     0.006 A 
ENDBRANCH  62  79
ENDBRANCH  36  37
ENDBRANCH  29  31
ENDBRANCH  28  29
ENDBRANCH  27  28
ENDBRANCH  26  27
ENDBRANCH  25  26
ENDBRANCH  24  25
ENDBRANCH   1  24
TORSDOF 21
ENDMDL
MODEL 2
REMARK VINA RESULT:     -10.1      3.593      8.635
REMARK SMILES C[C@@H](CS(=O)(=O)[C@@H]1CCC[C@H](S(C)(=O)=O)C1)C(=O)OCCOCCOCCOC(=O)c1ccc(-c2c3nc(c(-c4c(F)cccc4F)c4ccc([nH]4)c(-c4c(F)cccc4F)c4nc(c(-c5c(F)cccc5F)c5ccc2[nH]5)C=C4)C=C3)cc1
REMARK SMILES IDX 23 1 22 2 21 3 20 4 19 5 17 6 18 7 2 8 1 9 3 10 4 11 5 12
REMARK SMILES IDX 6 13 7 14 8 15 16 16 9 17 11 18 10 19 12 20 13 21 14 22
REMARK SMILES IDX 15 23 24 24 25 25 26 26 27 27 28 28 29 29 30 30 31 31 32 32
REMARK SMILES IDX 84 33 33 34 83 35 34 36 35 37 36 38 77 39 37 40 82 41 76 42
REMARK SMILES IDX 78 43 38 44 81 45 75 46 74 47 39 49 65 50 48 51 64 52 49 53
REMARK SMILES IDX 52 54 63 55 79 56 50 57 51 58 62 60 80 61 53 62 40 63 41 64
REMARK SMILES IDX 46 65 42 66 43 67 45 68 47 69 44 70 66 71 67 72 72 73 68 74
REMARK SMILES IDX 69 75 71 76 73 77 70 78 54 79 55 80 60 81 56 82 57 83 59 84
REMARK SMILES IDX 61 85 58 86
REMARK H PARENT 78 48 52 59
REMARK Flexibility Score: inf
ROOT
ATOM      1  C   UNL A   1      33.588  29.302  26.021  1.00  0.00     0.188 C 
ENDROOT
BRANCH   1   2
ATOM      2  O   UNL A   1      33.837  27.982  26.441  1.00  0.00    -0.376 OA
BRANCH   2   3
ATOM      3  C   UNL A   1      33.073  26.905  25.935  1.00  0.00     0.202 C 
BRANCH   3   4
ATOM      4  C   UNL A   1      33.166  26.361  24.501  1.00  0.00     0.261 C 
BRANCH   4   5
ATOM      5  O   UNL A   1      34.403  25.778  24.063  1.00  0.00    -0.463 OA
BRANCH   5   6
ATOM      6  C   UNL A   1      34.359  24.468  23.745  1.00  0.00     0.309 C 
ATOM      7  O   UNL A   1      33.804  24.009  22.754  1.00  0.00    -0.252 OA
BRANCH   6   8
ATOM      8  C   UNL A   1      35.033  23.572  24.774  1.00  0.00     0.111 C 
ATOM      9  C   UNL A   1      36.531  23.703  25.012  1.00  0.00     0.021 C 
BRANCH   8  10
ATOM     10  C   UNL A   1      34.215  23.390  26.041  1.00  0.00     0.152 C 
BRANCH  10  11
ATOM     11  S   UNL A   1      33.332  21.880  26.406  1.00  0.00     0.154 S 
ATOM     12  O   UNL A   1      33.884  21.243  27.580  1.00  0.00    -0.229 OA
ATOM     13  O   UNL A   1      31.945  22.318  26.456  1.00  0.00    -0.229 OA
BRANCH  11  14
ATOM     14  C   UNL A   1      33.432  20.735  24.995  1.00  0.00     0.110 C 
ATOM     15  C   UNL A   1      32.163  20.910  24.133  1.00  0.00     0.020 C 
ATOM     16  C   UNL A   1      33.550  19.244  25.348  1.00  0.00     0.039 C 
ATOM     17  C   UNL A   1      32.174  20.036  22.884  1.00  0.00     0.003 C 
ATOM     18  C   UNL A   1      33.691  18.410  24.055  1.00  0.00     0.109 C 
ATOM     19  C   UNL A   1      32.438  18.567  23.197  1.00  0.00     0.020 C 
BRANCH  18  20
ATOM     20  S   UNL A   1      34.081  16.686  24.393  1.00  0.00     0.150 S 
ATOM     21  C   UNL A   1      32.716  16.092  25.371  1.00  0.00     0.158 C 
ATOM     22  O   UNL A   1      34.005  15.983  23.125  1.00  0.00    -0.229 OA
ATOM     23  O   UNL A   1      35.262  16.624  25.230  1.00  0.00    -0.229 OA
ENDBRANCH  18  20
ENDBRANCH  11  14
ENDBRANCH  10  11
ENDBRANCH   8  10
ENDBRANCH   6   8
ENDBRANCH   5   6
ENDBRANCH   4   5
ENDBRANCH   3   4
ENDBRANCH   2   3
ENDBRANCH   1   2
BRANCH   1  24
ATOM     24  C   UNL A   1      32.591  30.163  26.817  1.00  0.00     0.188 C 
BRANCH  24  25
ATOM     25  O   UNL A   1      31.656  30.961  26.126  1.00  0.00    -0.376 OA
BRANCH  25  26
ATOM     26  C   UNL A   1      31.409  32.269  26.625  1.00  0.00     0.202 C 
BRANCH  26  27
ATOM     27  C   UNL A   1      32.560  33.085  27.235  1.00  0.00     0.261 C 
BRANCH  27  28
ATOM     28  O   UNL A   1      32.153  33.969  28.298  1.00  0.00    -0.460 OA
BRANCH  28  29
ATOM     29  C   UNL A   1      33.069  34.891  28.690  1.00  0.00     0.338 C 
ATOM     30  O   UNL A   1      32.937  36.103  28.748  1.00  0.00    -0.246 OA
BRANCH  29  31
ATOM     31  C   UNL A   1      34.269  34.195  29.197  1.00  0.00     0.060 A 
ATOM     32  C   UNL A   1      34.146  33.269  30.248  1.00  0.00     0.016 A 
ATOM     33  C   UNL A   1      35.517  34.481  28.653  1.00  0.00     0.016 A 
ATOM     34  C   UNL A   1      35.279  32.625  30.754  1.00  0.00     0.010 A 
ATOM     35  C   UNL A   1      36.652  33.860  29.181  1.00  0.00     0.010 A 
ATOM     36  C   UNL A   1      36.544  32.942  30.243  1.00  0.00    -0.014 A 
BRANCH  36  37
ATOM     37  C   UNL A   1      37.786  32.444  30.884  1.00  0.00     0.031 A 
ATOM     38  C   UNL A   1      38.470  31.245  30.289  1.00  0.00     0.074 A 
ATOM     39  C   UNL A   1      38.257  32.994  32.018  1.00  0.00     0.049 A 
ATOM     40  N   UNL A   1      39.438  30.512  30.776  1.00  0.00    -0.248 NA
ATOM     41  C   UNL A   1      37.985  30.805  28.970  1.00  0.00     0.031 C 
ATOM     42  C   UNL A   1      37.711  34.180  32.673  1.00  0.00     0.029 A 
ATOM     43  N   UNL A   1      39.283  32.596  32.840  1.00  0.00    -0.354 N 
ATOM     44  C   UNL A   1      39.658  29.508  29.841  1.00  0.00     0.074 A 
ATOM     45  C   UNL A   1      38.719  29.722  28.760  1.00  0.00     0.031 C 
ATOM     46  C   UNL A   1      38.381  34.390  33.819  1.00  0.00     0.029 A 
ATOM     47  C   UNL A   1      39.368  33.327  34.002  1.00  0.00     0.049 A 
ATOM     48  H   UNL A   1      39.896  31.858  32.621  1.00  0.00     0.167 HD
ATOM     49  C   UNL A   1      40.554  28.496  29.886  1.00  0.00     0.037 A 
ATOM     50  C   UNL A   1      40.117  33.127  35.105  1.00  0.00     0.037 A 
ATOM     51  C   UNL A   1      41.489  28.291  30.962  1.00  0.00     0.049 A 
ATOM     52  C   UNL A   1      41.056  31.947  35.164  1.00  0.00     0.074 A 
ATOM     53  C   UNL A   1      42.474  27.325  31.070  1.00  0.00     0.029 A 
ATOM     54  N   UNL A   1      41.541  29.050  32.119  1.00  0.00    -0.354 N 
ATOM     55  N   UNL A   1      41.294  31.032  34.256  1.00  0.00    -0.248 NA
ATOM     56  C   UNL A   1      41.823  31.765  36.407  1.00  0.00     0.031 C 
ATOM     57  C   UNL A   1      43.076  27.457  32.325  1.00  0.00     0.029 A 
ATOM     58  C   UNL A   1      42.512  28.546  32.968  1.00  0.00     0.049 A 
ATOM     59  H   UNL A   1      40.974  29.832  32.309  1.00  0.00     0.167 HD
ATOM     60  C   UNL A   1      42.254  30.187  34.805  1.00  0.00     0.074 A 
ATOM     61  C   UNL A   1      42.567  30.706  36.118  1.00  0.00     0.031 C 
ATOM     62  C   UNL A   1      42.824  29.080  34.270  1.00  0.00     0.037 A 
BRANCH  49  63
ATOM     63  C   UNL A   1      40.549  27.503  28.762  1.00  0.00     0.057 A 
ATOM     64  C   UNL A   1      39.701  26.390  28.752  1.00  0.00     0.134 A 
ATOM     65  C   UNL A   1      41.365  27.704  27.640  1.00  0.00     0.134 A 
ATOM     66  F   UNL A   1      38.903  26.134  29.800  1.00  0.00    -0.206 F 
ATOM     67  C   UNL A   1      39.674  25.505  27.673  1.00  0.00     0.040 A 
ATOM     68  C   UNL A   1      41.328  26.842  26.545  1.00  0.00     0.040 A 
ATOM     69  F   UNL A   1      42.198  28.755  27.583  1.00  0.00    -0.206 F 
ATOM     70  C   UNL A   1      40.481  25.735  26.561  1.00  0.00     0.006 A 
ENDBRANCH  49  63
BRANCH  50  71
ATOM     71  C   UNL A   1      39.982  34.031  36.279  1.00  0.00     0.057 A 
ATOM     72  C   UNL A   1      40.860  35.103  36.478  1.00  0.00     0.134 A 
ATOM     73  C   UNL A   1      39.005  33.812  37.260  1.00  0.00     0.134 A 
ATOM     74  F   UNL A   1      41.836  35.347  35.591  1.00  0.00    -0.206 F 
ATOM     75  C   UNL A   1      40.789  35.907  37.617  1.00  0.00     0.040 A 
ATOM     76  C   UNL A   1      38.902  34.628  38.388  1.00  0.00     0.040 A 
ATOM     77  F   UNL A   1      38.135  32.799  37.135  1.00  0.00    -0.206 F 
ATOM     78  C   UNL A   1      39.804  35.673  38.574  1.00  0.00     0.006 A 
ENDBRANCH  50  71
BRANCH  62  79
ATOM     79  C   UNL A   1      43.870  28.369  35.080  1.00  0.00     0.057 A 
ATOM     80  C   UNL A   1      45.219  28.741  35.040  1.00  0.00     0.134 A 
ATOM     81  C   UNL A   1      43.509  27.343  35.966  1.00  0.00     0.134 A 
ATOM     82  F   UNL A   1      45.634  29.707  34.206  1.00  0.00    -0.206 F 
ATOM     83  C   UNL A   1      46.174  28.111  35.840  1.00  0.00     0.040 A 
ATOM     84  C   UNL A   1      44.450  26.727  36.792  1.00  0.00     0.040 A 
ATOM     85  F   UNL A   1      42.232  26.944  36.063  1.00  0.00    -0.206 F 
ATOM     86  C   UNL A   1      45.788  27.108  36.728  1.00  0.00     0.006 A 
ENDBRANCH  62  79
ENDBRANCH  36  37
ENDBRANCH  29  31
ENDBRANCH  28  29
ENDBRANCH  27  28
ENDBRANCH  26  27
ENDBRANCH  25  26
ENDBRANCH  24  25
ENDBRANCH   1  24
TORSDOF 21
ENDMDL
MODEL 3
REMARK VINA RESULT:     -10.0      1.421      2.371
REMARK SMILES C[C@@H](CS(=O)(=O)[C@@H]1CCC[C@H](S(C)(=O)=O)C1)C(=O)OCCOCCOCCOC(=O)c1ccc(-c2c3nc(c(-c4c(F)cccc4F)c4ccc([nH]4)c(-c4c(F)cccc4F)c4nc(c(-c5c(F)cccc5F)c5ccc2[nH]5)C=C4)C=C3)cc1
REMARK SMILES IDX 23 1 22 2 21 3 20 4 19 5 17 6 18 7 2 8 1 9 3 10 4 11 5 12
REMARK SMILES IDX 6 13 7 14 8 15 16 16 9 17 11 18 10 19 12 20 13 21 14 22
REMARK SMILES IDX 15 23 24 24 25 25 26 26 27 27 28 28 29 29 30 30 31 31 32 32
REMARK SMILES IDX 84 33 33 34 83 35 34 36 35 37 36 38 77 39 37 40 82 41 76 42
REMARK SMILES IDX 78 43 38 44 81 45 75 46 74 47 39 49 65 50 48 51 64 52 49 53
REMARK SMILES IDX 52 54 63 55 79 56 50 57 51 58 62 60 80 61 53 62 40 63 41 64
REMARK SMILES IDX 46 65 42 66 43 67 45 68 47 69 44 70 66 71 67 72 72 73 68 74
REMARK SMILES IDX 69 75 71 76 73 77 70 78 54 79 55 80 60 81 56 82 57 83 59 84
REMARK SMILES IDX 61 85 58 86
REMARK H PARENT 78 48 52 59
REMARK Flexibility Score: inf
ROOT
ATOM      1  C   UNL A   1      44.676  20.546  24.751  1.00  0.00     0.188 C 
ENDROOT
BRANCH   1   2
ATOM      2  O   UNL A   1      44.478  19.321  25.414  1.00  0.00    -0.376 OA
BRANCH   2   3
ATOM      3  C   UNL A   1      43.183  18.767  25.541  1.00  0.00     0.202 C 
BRANCH   3   4
ATOM      4  C   UNL A   1      42.066  19.343  26.424  1.00  0.00     0.261 C 
BRANCH   4   5
ATOM      5  O   UNL A   1      41.186  20.332  25.868  1.00  0.00    -0.463 OA
BRANCH   5   6
ATOM      6  C   UNL A   1      39.884  19.986  25.790  1.00  0.00     0.309 C 
ATOM      7  O   UNL A   1      39.474  18.857  25.549  1.00  0.00    -0.252 OA
BRANCH   6   8
ATOM      8  C   UNL A   1      38.934  21.159  25.985  1.00  0.00     0.111 C 
ATOM      9  C   UNL A   1      39.503  22.542  26.275  1.00  0.00     0.021 C 
BRANCH   8  10
ATOM     10  C   UNL A   1      37.768  21.158  25.010  1.00  0.00     0.152 C 
BRANCH  10  11
ATOM     11  S   UNL A   1      36.596  22.502  24.913  1.00  0.00     0.154 S 
ATOM     12  O   UNL A   1      37.074  23.645  25.656  1.00  0.00    -0.229 OA
ATOM     13  O   UNL A   1      36.395  22.656  23.479  1.00  0.00    -0.229 OA
BRANCH  11  14
ATOM     14  C   UNL A   1      34.984  21.981  25.580  1.00  0.00     0.110 C 
ATOM     15  C   UNL A   1      34.575  20.661  24.892  1.00  0.00     0.020 C 
ATOM     16  C   UNL A   1      33.828  22.977  25.395  1.00  0.00     0.039 C 
ATOM     17  C   UNL A   1      33.261  20.101  25.425  1.00  0.00     0.003 C 
ATOM     18  C   UNL A   1      32.550  22.425  26.066  1.00  0.00     0.109 C 
ATOM     19  C   UNL A   1      32.129  21.122  25.389  1.00  0.00     0.020 C 
BRANCH  18  20
ATOM     20  S   UNL A   1      31.222  23.639  26.107  1.00  0.00     0.150 S 
ATOM     21  C   UNL A   1      32.026  25.184  26.479  1.00  0.00     0.158 C 
ATOM     22  O   UNL A   1      30.723  23.759  24.750  1.00  0.00    -0.229 OA
ATOM     23  O   UNL A   1      30.343  23.339  27.220  1.00  0.00    -0.229 OA
ENDBRANCH  18  20
ENDBRANCH  11  14
ENDBRANCH  10  11
ENDBRANCH   8  10
ENDBRANCH   6   8
ENDBRANCH   5   6
ENDBRANCH   4   5
ENDBRANCH   3   4
ENDBRANCH   2   3
ENDBRANCH   1   2
BRANCH   1  24
ATOM     24  C   UNL A   1      46.113  21.035  24.500  1.00  0.00     0.188 C 
BRANCH  24  25
ATOM     25  O   UNL A   1      46.666  22.028  25.335  1.00  0.00    -0.376 OA
BRANCH  25  26
ATOM     26  C   UNL A   1      45.767  22.908  25.997  1.00  0.00     0.202 C 
BRANCH  26  27
ATOM     27  C   UNL A   1      45.529  24.320  25.438  1.00  0.00     0.261 C 
BRANCH  27  28
ATOM     28  O   UNL A   1      44.399  24.415  24.547  1.00  0.00    -0.460 OA
BRANCH  28  29
ATOM     29  C   UNL A   1      43.211  23.984  25.044  1.00  0.00     0.338 C 
ATOM     30  O   UNL A   1      42.674  22.902  24.872  1.00  0.00    -0.246 OA
BRANCH  29  31
ATOM     31  C   UNL A   1      42.687  24.994  25.986  1.00  0.00     0.060 A 
ATOM     32  C   UNL A   1      42.853  26.361  25.708  1.00  0.00     0.016 A 
ATOM     33  C   UNL A   1      42.057  24.585  27.158  1.00  0.00     0.016 A 
ATOM     34  C   UNL A   1      42.384  27.325  26.607  1.00  0.00     0.010 A 
ATOM     35  C   UNL A   1      41.617  25.548  28.070  1.00  0.00     0.010 A 
ATOM     36  C   UNL A   1      41.791  26.921  27.810  1.00  0.00    -0.014 A 
BRANCH  36  37
ATOM     37  C   UNL A   1      41.470  27.897  28.880  1.00  0.00     0.031 A 
ATOM     38  C   UNL A   1      42.247  27.833  30.166  1.00  0.00     0.074 A 
ATOM     39  C   UNL A   1      40.457  28.771  28.748  1.00  0.00     0.049 A 
ATOM     40  N   UNL A   1      42.021  28.433  31.305  1.00  0.00    -0.248 NA
ATOM     41  C   UNL A   1      43.433  26.961  30.167  1.00  0.00     0.031 C 
ATOM     42  C   UNL A   1      39.653  28.960  27.543  1.00  0.00     0.029 A 
ATOM     43  N   UNL A   1      39.906  29.638  29.661  1.00  0.00    -0.354 N 
ATOM     44  C   UNL A   1      43.016  27.991  32.168  1.00  0.00     0.074 A 
ATOM     45  C   UNL A   1      43.844  27.067  31.424  1.00  0.00     0.031 C 
ATOM     46  C   UNL A   1      38.685  29.857  27.803  1.00  0.00     0.029 A 
ATOM     47  C   UNL A   1      38.770  30.265  29.205  1.00  0.00     0.049 A 
ATOM     48  H   UNL A   1      40.286  29.795  30.556  1.00  0.00     0.167 HD
ATOM     49  C   UNL A   1      43.212  28.319  33.466  1.00  0.00     0.037 A 
ATOM     50  C   UNL A   1      37.877  31.035  29.857  1.00  0.00     0.037 A 
ATOM     51  C   UNL A   1      42.388  29.242  34.200  1.00  0.00     0.049 A 
ATOM     52  C   UNL A   1      38.075  31.326  31.325  1.00  0.00     0.074 A 
ATOM     53  C   UNL A   1      42.542  29.681  35.505  1.00  0.00     0.029 A 
ATOM     54  N   UNL A   1      41.248  29.853  33.704  1.00  0.00    -0.354 N 
ATOM     55  N   UNL A   1      39.045  30.944  32.121  1.00  0.00    -0.248 NA
ATOM     56  C   UNL A   1      37.049  32.146  31.988  1.00  0.00     0.031 C 
ATOM     57  C   UNL A   1      41.456  30.502  35.818  1.00  0.00     0.029 A 
ATOM     58  C   UNL A   1      40.663  30.629  34.690  1.00  0.00     0.049 A 
ATOM     59  H   UNL A   1      40.906  29.751  32.786  1.00  0.00     0.167 HD
ATOM     60  C   UNL A   1      38.760  31.499  33.364  1.00  0.00     0.074 A 
ATOM     61  C   UNL A   1      37.538  32.257  33.216  1.00  0.00     0.031 C 
ATOM     62  C   UNL A   1      39.450  31.389  34.527  1.00  0.00     0.037 A 
BRANCH  49  63
ATOM     63  C   UNL A   1      44.339  27.649  34.197  1.00  0.00     0.057 A 
ATOM     64  C   UNL A   1      45.657  28.112  34.122  1.00  0.00     0.134 A 
ATOM     65  C   UNL A   1      44.083  26.560  35.041  1.00  0.00     0.134 A 
ATOM     66  F   UNL A   1      45.971  29.144  33.324  1.00  0.00    -0.206 F 
ATOM     67  C   UNL A   1      46.683  27.508  34.850  1.00  0.00     0.040 A 
ATOM     68  C   UNL A   1      45.095  25.965  35.794  1.00  0.00     0.040 A 
ATOM     69  F   UNL A   1      42.839  26.070  35.163  1.00  0.00    -0.206 F 
ATOM     70  C   UNL A   1      46.402  26.438  35.696  1.00  0.00     0.006 A 
ENDBRANCH  49  63
BRANCH  50  71
ATOM     71  C   UNL A   1      36.672  31.552  29.151  1.00  0.00     0.057 A 
ATOM     72  C   UNL A   1      35.589  30.717  28.855  1.00  0.00     0.134 A 
ATOM     73  C   UNL A   1      36.600  32.879  28.708  1.00  0.00     0.134 A 
ATOM     74  F   UNL A   1      35.610  29.428  29.225  1.00  0.00    -0.206 F 
ATOM     75  C   UNL A   1      34.490  31.174  28.125  1.00  0.00     0.040 A 
ATOM     76  C   UNL A   1      35.493  33.358  28.005  1.00  0.00     0.040 A 
ATOM     77  F   UNL A   1      37.606  33.731  28.953  1.00  0.00    -0.206 F 
ATOM     78  C   UNL A   1      34.439  32.500  27.702  1.00  0.00     0.006 A 
ENDBRANCH  50  71
BRANCH  62  79
ATOM     79  C   UNL A   1      38.927  32.129  35.724  1.00  0.00     0.057 A 
ATOM     80  C   UNL A   1      38.153  31.498  36.706  1.00  0.00     0.134 A 
ATOM     81  C   UNL A   1      39.261  33.475  35.932  1.00  0.00     0.134 A 
ATOM     82  F   UNL A   1      37.787  30.216  36.564  1.00  0.00    -0.206 F 
ATOM     83  C   UNL A   1      37.720  32.181  37.844  1.00  0.00     0.040 A 
ATOM     84  C   UNL A   1      38.859  34.159  37.080  1.00  0.00     0.040 A 
ATOM     85  F   UNL A   1      40.009  34.138  35.037  1.00  0.00    -0.206 F 
ATOM     86  C   UNL A   1      38.082  33.513  38.039  1.00  0.00     0.006 A 
ENDBRANCH  62  79
ENDBRANCH  36  37
ENDBRANCH  29  31
ENDBRANCH  28  29
ENDBRANCH  27  28
ENDBRANCH  26  27
ENDBRANCH  25  26
ENDBRANCH  24  25
ENDBRANCH   1  24
TORSDOF 21
ENDMDL
