MODEL 1
REMARK VINA RESULT:     -11.4      0.000      0.000
REMARK SMILES Cc1ccc(/[NH+]=C2/S[C@@H](CC(=O)Nc3ccc(C(=O)OCCOCCOCCOC(=O)c4ccc(-c5c6nc(c(-c7c(F)cccc7F)c7ccc([nH]7)c(-c7c(F)cccc7F)c7nc(c(-c8c(F)cccc8F)c8ccc5[nH]8)C=C7)C=C6)cc4)cc3)C(=O)N2C)cc1
REMARK SMILES IDX 24 1 23 2 22 3 21 4 20 5 18 6 19 7 17 8 14 9 15 10 87 11
REMARK SMILES IDX 16 12 86 13 13 14 11 15 12 16 10 18 9 19 6 20 7 21 8 23
REMARK SMILES IDX 90 24 88 25 91 26 89 27 5 28 1 29 2 30 3 31 93 32 4 33 92 34
REMARK SMILES IDX 25 35 26 36 27 37 28 38 29 39 30 40 31 41 32 42 33 43 85 44
REMARK SMILES IDX 34 45 84 46 35 47 36 48 37 49 78 50 38 51 83 52 77 53 79 54
REMARK SMILES IDX 39 55 82 56 76 57 75 58 40 60 66 61 49 62 65 63 50 64 53 65
REMARK SMILES IDX 64 66 80 67 51 68 52 69 63 71 81 72 54 73 41 74 42 75 47 76
REMARK SMILES IDX 43 77 44 78 46 79 48 80 45 81 67 82 68 83 73 84 69 85 70 86
REMARK SMILES IDX 72 87 74 88 71 89 55 90 56 91 61 92 57 93 58 94 60 95 62 96
REMARK SMILES IDX 59 97
REMARK H PARENT 13 17 6 22 79 59 53 70
REMARK Flexibility Score: inf
ROOT
ATOM      1  C   UNL A   1      42.279  19.694  26.604  1.00  0.00     0.188 C 
ENDROOT
BRANCH   1   2
ATOM      2  O   UNL A   1      40.849  19.751  26.614  1.00  0.00    -0.376 OA
BRANCH   2   3
ATOM      3  C   UNL A   1      40.174  20.969  26.274  1.00  0.00     0.202 C 
BRANCH   3   4
ATOM      4  C   UNL A   1      40.604  22.503  26.635  1.00  0.00     0.261 C 
BRANCH   4   5
ATOM      5  O   UNL A   1      39.901  23.588  27.419  1.00  0.00    -0.460 OA
BRANCH   5   6
ATOM      6  C   UNL A   1      39.037  24.287  26.638  1.00  0.00     0.338 C 
ATOM      7  O   UNL A   1      39.448  25.427  26.508  1.00  0.00    -0.246 OA
BRANCH   6   8
ATOM      8  C   UNL A   1      37.666  23.652  25.760  1.00  0.00     0.060 A 
ATOM      9  C   UNL A   1      35.422  22.207  24.544  1.00  0.00     0.041 A 
ATOM     10  C   UNL A   1      35.575  22.632  25.860  1.00  0.00     0.027 A 
ATOM     11  C   UNL A   1      36.393  22.602  23.706  1.00  0.00     0.027 A 
ATOM     12  C   UNL A   1      36.613  23.322  26.498  1.00  0.00     0.018 A 
ATOM     13  C   UNL A   1      37.433  23.331  24.307  1.00  0.00     0.018 A 
BRANCH   9  14
ATOM     14  N   UNL A   1      34.359  21.400  24.116  1.00  0.00    -0.326 N 
ATOM     15  C   UNL A   1      33.083  21.323  24.626  1.00  0.00     0.226 C 
ATOM     16  O   UNL A   1      32.361  20.378  24.302  1.00  0.00    -0.275 OA
ATOM     17  H   UNL A   1      34.550  20.812  23.350  1.00  0.00     0.169 HD
BRANCH  15  18
ATOM     18  C   UNL A   1      32.521  22.487  25.448  1.00  0.00     0.128 C 
BRANCH  18  19
ATOM     19  C   UNL A   1      31.051  22.943  25.188  1.00  0.00     0.183 C 
ATOM     20  N   UNL A   1      30.332  26.069  22.977  1.00  0.00    -0.235 N 
ATOM     21  C   UNL A   1      30.408  25.227  23.956  1.00  0.00     0.319 C 
ATOM     22  H   UNL A   1      30.539  25.652  22.109  1.00  0.00     0.313 HD
ATOM     23  S   UNL A   1      30.846  23.569  23.473  1.00  0.00    -0.022 SA
ATOM     24  N   UNL A   1      30.291  25.279  25.333  1.00  0.00    -0.193 N 
ATOM     25  C   UNL A   1      30.469  24.077  26.044  1.00  0.00     0.324 C 
ATOM     26  C   UNL A   1      30.260  26.483  26.162  1.00  0.00     0.301 C 
ATOM     27  O   UNL A   1      30.293  23.969  27.254  1.00  0.00    -0.245 OA
BRANCH  20  28
ATOM     28  C   UNL A   1      30.027  27.434  22.855  1.00  0.00     0.125 A 
ATOM     29  C   UNL A   1      28.812  31.620  22.648  1.00  0.00     0.044 C 
ATOM     30  C   UNL A   1      29.196  30.171  22.711  1.00  0.00    -0.051 A 
ATOM     31  C   UNL A   1      28.296  29.177  23.094  1.00  0.00     0.008 A 
ATOM     32  C   UNL A   1      30.514  29.798  22.460  1.00  0.00     0.008 A 
ATOM     33  C   UNL A   1      28.703  27.829  23.131  1.00  0.00     0.052 A 
ATOM     34  C   UNL A   1      30.924  28.464  22.602  1.00  0.00     0.052 A 
ENDBRANCH  20  28
ENDBRANCH  18  19
ENDBRANCH  15  18
ENDBRANCH   9  14
ENDBRANCH   6   8
ENDBRANCH   5   6
ENDBRANCH   4   5
ENDBRANCH   3   4
ENDBRANCH   2   3
ENDBRANCH   1   2
BRANCH   1  35
ATOM     35  C   UNL A   1      43.018  19.192  25.374  1.00  0.00     0.188 C 
BRANCH  35  36
ATOM     36  O   UNL A   1      44.375  18.926  25.711  1.00  0.00    -0.376 OA
BRANCH  36  37
ATOM     37  C   UNL A   1      45.268  18.993  24.610  1.00  0.00     0.202 C 
BRANCH  37  38
ATOM     38  C   UNL A   1      46.416  19.982  24.856  1.00  0.00     0.261 C 
BRANCH  38  39
ATOM     39  O   UNL A   1      45.920  21.149  25.557  1.00  0.00    -0.460 OA
BRANCH  39  40
ATOM     40  C   UNL A   1      45.705  22.286  24.795  1.00  0.00     0.338 C 
ATOM     41  O   UNL A   1      46.412  22.676  23.920  1.00  0.00    -0.246 OA
BRANCH  40  42
ATOM     42  C   UNL A   1      44.609  23.106  25.435  1.00  0.00     0.060 A 
ATOM     43  C   UNL A   1      44.076  24.292  24.913  1.00  0.00     0.016 A 
ATOM     44  C   UNL A   1      44.363  22.889  26.740  1.00  0.00     0.016 A 
ATOM     45  C   UNL A   1      43.635  25.394  25.766  1.00  0.00     0.010 A 
ATOM     46  C   UNL A   1      44.036  24.008  27.507  1.00  0.00     0.010 A 
ATOM     47  C   UNL A   1      43.761  25.395  27.150  1.00  0.00    -0.014 A 
BRANCH  47  48
ATOM     48  C   UNL A   1      43.665  26.894  28.155  1.00  0.00     0.031 A 
ATOM     49  C   UNL A   1      42.315  27.962  28.647  1.00  0.00     0.074 A 
ATOM     50  C   UNL A   1      44.712  27.129  28.954  1.00  0.00     0.049 A 
ATOM     51  N   UNL A   1      41.767  29.022  28.054  1.00  0.00    -0.248 NA
ATOM     52  C   UNL A   1      41.426  27.645  29.839  1.00  0.00     0.031 C 
ATOM     53  C   UNL A   1      44.765  28.024  30.095  1.00  0.00     0.029 A 
ATOM     54  N   UNL A   1      46.025  26.741  28.742  1.00  0.00    -0.354 N 
ATOM     55  C   UNL A   1      40.511  29.280  28.726  1.00  0.00     0.074 A 
ATOM     56  C   UNL A   1      40.225  28.050  29.405  1.00  0.00     0.031 C 
ATOM     57  C   UNL A   1      46.041  28.403  30.253  1.00  0.00     0.029 A 
ATOM     58  C   UNL A   1      46.787  27.864  29.127  1.00  0.00     0.049 A 
ATOM     59  H   UNL A   1      46.352  25.878  28.399  1.00  0.00     0.167 HD
ATOM     60  C   UNL A   1      40.183  30.328  29.583  1.00  0.00     0.037 A 
ATOM     61  C   UNL A   1      47.373  28.582  28.121  1.00  0.00     0.037 A 
ATOM     62  C   UNL A   1      41.393  30.889  30.111  1.00  0.00     0.049 A 
ATOM     63  C   UNL A   1      46.724  29.950  27.916  1.00  0.00     0.074 A 
ATOM     64  C   UNL A   1      42.199  30.700  31.219  1.00  0.00     0.029 A 
ATOM     65  N   UNL A   1      42.146  31.519  29.190  1.00  0.00    -0.354 N 
ATOM     66  N   UNL A   1      45.724  30.419  28.623  1.00  0.00    -0.248 NA
ATOM     67  C   UNL A   1      47.129  30.893  26.872  1.00  0.00     0.031 C 
ATOM     68  C   UNL A   1      43.497  31.211  30.877  1.00  0.00     0.029 A 
ATOM     69  C   UNL A   1      43.425  31.732  29.595  1.00  0.00     0.049 A 
ATOM     70  H   UNL A   1      41.803  31.798  28.310  1.00  0.00     0.167 HD
ATOM     71  C   UNL A   1      45.328  31.631  28.121  1.00  0.00     0.074 A 
ATOM     72  C   UNL A   1      46.249  31.896  27.038  1.00  0.00     0.031 C 
ATOM     73  C   UNL A   1      44.244  32.327  28.565  1.00  0.00     0.037 A 
BRANCH  60  74
ATOM     74  C   UNL A   1      38.830  30.439  30.313  1.00  0.00     0.057 A 
ATOM     75  C   UNL A   1      37.666  30.917  29.678  1.00  0.00     0.134 A 
ATOM     76  C   UNL A   1      38.644  30.076  31.666  1.00  0.00     0.134 A 
ATOM     77  F   UNL A   1      37.657  31.217  28.372  1.00  0.00    -0.206 F 
ATOM     78  C   UNL A   1      36.448  31.115  30.352  1.00  0.00     0.040 A 
ATOM     79  C   UNL A   1      37.435  30.289  32.359  1.00  0.00     0.040 A 
ATOM     80  F   UNL A   1      39.646  29.527  32.370  1.00  0.00    -0.206 F 
ATOM     81  C   UNL A   1      36.334  30.825  31.704  1.00  0.00     0.006 A 
ENDBRANCH  60  74
BRANCH  61  82
ATOM     82  C   UNL A   1      47.971  27.651  27.095  1.00  0.00     0.057 A 
ATOM     83  C   UNL A   1      49.152  26.961  27.476  1.00  0.00     0.134 A 
ATOM     84  C   UNL A   1      47.267  27.104  26.018  1.00  0.00     0.134 A 
ATOM     85  F   UNL A   1      49.903  27.424  28.490  1.00  0.00    -0.206 F 
ATOM     86  C   UNL A   1      49.489  25.702  26.970  1.00  0.00     0.040 A 
ATOM     87  C   UNL A   1      47.652  25.877  25.437  1.00  0.00     0.040 A 
ATOM     88  F   UNL A   1      46.102  27.634  25.618  1.00  0.00    -0.206 F 
ATOM     89  C   UNL A   1      48.723  25.146  25.959  1.00  0.00     0.006 A 
ENDBRANCH  61  82
BRANCH  73  90
ATOM     90  C   UNL A   1      43.776  33.634  27.957  1.00  0.00     0.057 A 
ATOM     91  C   UNL A   1      43.536  33.725  26.590  1.00  0.00     0.134 A 
ATOM     92  C   UNL A   1      43.727  34.863  28.665  1.00  0.00     0.134 A 
ATOM     93  F   UNL A   1      43.565  32.628  25.819  1.00  0.00    -0.206 F 
ATOM     94  C   UNL A   1      43.271  34.952  25.968  1.00  0.00     0.040 A 
ATOM     95  C   UNL A   1      43.557  36.099  28.047  1.00  0.00     0.040 A 
ATOM     96  F   UNL A   1      43.814  34.927  30.003  1.00  0.00    -0.206 F 
ATOM     97  C   UNL A   1      43.313  36.145  26.689  1.00  0.00     0.006 A 
ENDBRANCH  73  90
ENDBRANCH  47  48
ENDBRANCH  40  42
ENDBRANCH  39  40
ENDBRANCH  38  39
ENDBRANCH  37  38
ENDBRANCH  36  37
ENDBRANCH  35  36
ENDBRANCH   1  35
TORSDOF 21
ENDMDL
MODEL 2
REMARK VINA RESULT:     -11.3      3.961     10.495
REMARK SMILES Cc1ccc(/[NH+]=C2/S[C@@H](CC(=O)Nc3ccc(C(=O)OCCOCCOCCOC(=O)c4ccc(-c5c6nc(c(-c7c(F)cccc7F)c7ccc([nH]7)c(-c7c(F)cccc7F)c7nc(c(-c8c(F)cccc8F)c8ccc5[nH]8)C=C7)C=C6)cc4)cc3)C(=O)N2C)cc1
REMARK SMILES IDX 24 1 23 2 22 3 21 4 20 5 18 6 19 7 17 8 14 9 15 10 87 11
REMARK SMILES IDX 16 12 86 13 13 14 11 15 12 16 10 18 9 19 6 20 7 21 8 23
REMARK SMILES IDX 90 24 88 25 91 26 89 27 5 28 1 29 2 30 3 31 93 32 4 33 92 34
REMARK SMILES IDX 25 35 26 36 27 37 28 38 29 39 30 40 31 41 32 42 33 43 85 44
REMARK SMILES IDX 34 45 84 46 35 47 36 48 37 49 78 50 38 51 83 52 77 53 79 54
REMARK SMILES IDX 39 55 82 56 76 57 75 58 40 60 66 61 49 62 65 63 50 64 53 65
REMARK SMILES IDX 64 66 80 67 51 68 52 69 63 71 81 72 54 73 41 74 42 75 47 76
REMARK SMILES IDX 43 77 44 78 46 79 48 80 45 81 67 82 68 83 73 84 69 85 70 86
REMARK SMILES IDX 72 87 74 88 71 89 55 90 56 91 61 92 57 93 58 94 60 95 62 96
REMARK SMILES IDX 59 97
REMARK H PARENT 13 17 6 22 79 59 53 70
REMARK Flexibility Score: inf
ROOT
ATOM      1  C   UNL A   1      34.407  28.256  26.267  1.00  0.00     0.188 C 
ENDROOT
BRANCH   1   2
ATOM      2  O   UNL A   1      34.016  28.845  25.021  1.00  0.00    -0.376 OA
BRANCH   2   3
ATOM      3  C   UNL A   1      32.667  29.289  24.827  1.00  0.00     0.202 C 
BRANCH   3   4
ATOM      4  C   UNL A   1      31.281  28.547  25.267  1.00  0.00     0.261 C 
BRANCH   4   5
ATOM      5  O   UNL A   1      30.641  27.254  24.811  1.00  0.00    -0.460 OA
BRANCH   5   6
ATOM      6  C   UNL A   1      30.809  26.266  25.728  1.00  0.00     0.338 C 
ATOM      7  O   UNL A   1      30.606  26.716  26.842  1.00  0.00    -0.246 OA
BRANCH   6   8
ATOM      8  C   UNL A   1      31.061  24.567  25.407  1.00  0.00     0.060 A 
ATOM      9  C   UNL A   1      31.901  21.779  25.053  1.00  0.00     0.041 A 
ATOM     10  C   UNL A   1      31.713  22.490  26.235  1.00  0.00     0.027 A 
ATOM     11  C   UNL A   1      31.553  22.437  23.936  1.00  0.00     0.027 A 
ATOM     12  C   UNL A   1      31.315  23.812  26.470  1.00  0.00     0.018 A 
ATOM     13  C   UNL A   1      31.112  23.755  24.140  1.00  0.00     0.018 A 
BRANCH   9  14
ATOM     14  N   UNL A   1      32.441  20.487  25.013  1.00  0.00    -0.326 N 
ATOM     15  C   UNL A   1      33.763  20.108  25.079  1.00  0.00     0.226 C 
ATOM     16  O   UNL A   1      34.076  18.958  24.767  1.00  0.00    -0.275 OA
ATOM     17  H   UNL A   1      31.790  19.754  24.927  1.00  0.00     0.169 HD
BRANCH  15  18
ATOM     18  C   UNL A   1      34.795  21.057  25.695  1.00  0.00     0.128 C 
BRANCH  18  19
ATOM     19  C   UNL A   1      35.945  21.600  24.789  1.00  0.00     0.183 C 
ATOM     20  N   UNL A   1      39.657  21.260  25.924  1.00  0.00    -0.235 N 
ATOM     21  C   UNL A   1      38.502  21.717  25.561  1.00  0.00     0.319 C 
ATOM     22  H   UNL A   1      39.746  20.294  25.754  1.00  0.00     0.313 HD
ATOM     23  S   UNL A   1      37.413  20.497  24.854  1.00  0.00    -0.022 SA
ATOM     24  N   UNL A   1      37.840  22.929  25.625  1.00  0.00    -0.193 N 
ATOM     25  C   UNL A   1      36.535  22.983  25.098  1.00  0.00     0.324 C 
ATOM     26  C   UNL A   1      38.234  24.100  26.407  1.00  0.00     0.301 C 
ATOM     27  O   UNL A   1      35.881  24.017  25.003  1.00  0.00    -0.245 OA
BRANCH  20  28
ATOM     28  C   UNL A   1      40.812  21.810  26.502  1.00  0.00     0.125 A 
ATOM     29  C   UNL A   1      44.266  23.469  28.590  1.00  0.00     0.044 C 
ATOM     30  C   UNL A   1      43.057  22.918  27.893  1.00  0.00    -0.051 A 
ATOM     31  C   UNL A   1      41.836  22.745  28.544  1.00  0.00     0.008 A 
ATOM     32  C   UNL A   1      43.162  22.484  26.574  1.00  0.00     0.008 A 
ATOM     33  C   UNL A   1      40.727  22.229  27.845  1.00  0.00     0.052 A 
ATOM     34  C   UNL A   1      42.074  21.878  25.927  1.00  0.00     0.052 A 
ENDBRANCH  20  28
ENDBRANCH  18  19
ENDBRANCH  15  18
ENDBRANCH   9  14
ENDBRANCH   6   8
ENDBRANCH   5   6
ENDBRANCH   4   5
ENDBRANCH   3   4
ENDBRANCH   2   3
ENDBRANCH   1   2
BRANCH   1  35
ATOM     35  C   UNL A   1      34.672  29.133  27.480  1.00  0.00     0.188 C 
BRANCH  35  36
ATOM     36  O   UNL A   1      34.392  30.490  27.155  1.00  0.00    -0.376 OA
BRANCH  36  37
ATOM     37  C   UNL A   1      35.152  31.430  27.898  1.00  0.00     0.202 C 
BRANCH  37  38
ATOM     38  C   UNL A   1      34.262  32.374  28.718  1.00  0.00     0.261 C 
BRANCH  38  39
ATOM     39  O   UNL A   1      35.082  33.338  29.423  1.00  0.00    -0.460 OA
BRANCH  39  40
ATOM     40  C   UNL A   1      34.715  33.630  30.726  1.00  0.00     0.338 C 
ATOM     41  O   UNL A   1      33.774  34.283  31.050  1.00  0.00    -0.246 OA
BRANCH  40  42
ATOM     42  C   UNL A   1      35.846  33.249  31.652  1.00  0.00     0.060 A 
ATOM     43  C   UNL A   1      37.031  33.977  31.826  1.00  0.00     0.016 A 
ATOM     44  C   UNL A   1      35.887  31.973  32.077  1.00  0.00     0.016 A 
ATOM     45  C   UNL A   1      38.318  33.330  32.074  1.00  0.00     0.010 A 
ATOM     46  C   UNL A   1      37.152  31.398  32.203  1.00  0.00     0.010 A 
ATOM     47  C   UNL A   1      38.497  31.953  32.096  1.00  0.00    -0.014 A 
BRANCH  47  48
ATOM     48  C   UNL A   1      40.112  31.158  31.931  1.00  0.00     0.031 A 
ATOM     49  C   UNL A   1      40.727  29.822  30.909  1.00  0.00     0.074 A 
ATOM     50  C   UNL A   1      41.152  31.844  32.415  1.00  0.00     0.049 A 
ATOM     51  N   UNL A   1      40.743  28.503  31.097  1.00  0.00    -0.248 NA
ATOM     52  C   UNL A   1      41.192  30.046  29.480  1.00  0.00     0.031 C 
ATOM     53  C   UNL A   1      42.558  31.635  32.119  1.00  0.00     0.029 A 
ATOM     54  N   UNL A   1      41.138  32.754  33.460  1.00  0.00    -0.354 N 
ATOM     55  C   UNL A   1      41.047  27.898  29.816  1.00  0.00     0.074 A 
ATOM     56  C   UNL A   1      40.759  28.935  28.870  1.00  0.00     0.031 C 
ATOM     57  C   UNL A   1      43.263  32.089  33.165  1.00  0.00     0.029 A 
ATOM     58  C   UNL A   1      42.305  32.460  34.194  1.00  0.00     0.049 A 
ATOM     59  H   UNL A   1      40.464  33.447  33.647  1.00  0.00     0.167 HD
ATOM     60  C   UNL A   1      42.218  27.262  29.412  1.00  0.00     0.037 A 
ATOM     61  C   UNL A   1      42.131  31.843  35.402  1.00  0.00     0.037 A 
ATOM     62  C   UNL A   1      43.292  27.686  30.264  1.00  0.00     0.049 A 
ATOM     63  C   UNL A   1      42.593  30.388  35.396  1.00  0.00     0.074 A 
ATOM     64  C   UNL A   1      44.250  28.683  30.267  1.00  0.00     0.029 A 
ATOM     65  N   UNL A   1      43.177  27.258  31.534  1.00  0.00    -0.354 N 
ATOM     66  N   UNL A   1      43.120  29.773  34.364  1.00  0.00    -0.248 NA
ATOM     67  C   UNL A   1      42.470  29.490  36.546  1.00  0.00     0.031 C 
ATOM     68  C   UNL A   1      44.660  28.856  31.633  1.00  0.00     0.029 A 
ATOM     69  C   UNL A   1      43.973  27.933  32.404  1.00  0.00     0.049 A 
ATOM     70  H   UNL A   1      42.576  26.526  31.807  1.00  0.00     0.167 HD
ATOM     71  C   UNL A   1      43.337  28.455  34.669  1.00  0.00     0.074 A 
ATOM     72  C   UNL A   1      42.934  28.329  36.052  1.00  0.00     0.031 C 
ATOM     73  C   UNL A   1      43.775  27.524  33.775  1.00  0.00     0.037 A 
BRANCH  60  74
ATOM     74  C   UNL A   1      42.452  26.740  27.981  1.00  0.00     0.057 A 
ATOM     75  C   UNL A   1      43.695  26.861  27.327  1.00  0.00     0.134 A 
ATOM     76  C   UNL A   1      41.452  26.104  27.212  1.00  0.00     0.134 A 
ATOM     77  F   UNL A   1      44.768  27.359  27.955  1.00  0.00    -0.206 F 
ATOM     78  C   UNL A   1      43.901  26.477  25.990  1.00  0.00     0.040 A 
ATOM     79  C   UNL A   1      41.639  25.734  25.864  1.00  0.00     0.040 A 
ATOM     80  F   UNL A   1      40.245  25.847  27.738  1.00  0.00    -0.206 F 
ATOM     81  C   UNL A   1      42.865  25.934  25.243  1.00  0.00     0.006 A 
ENDBRANCH  60  74
BRANCH  61  82
ATOM     82  C   UNL A   1      40.976  32.470  36.146  1.00  0.00     0.057 A 
ATOM     83  C   UNL A   1      41.204  33.756  36.705  1.00  0.00     0.134 A 
ATOM     84  C   UNL A   1      39.636  32.109  35.976  1.00  0.00     0.134 A 
ATOM     85  F   UNL A   1      42.461  34.180  36.922  1.00  0.00    -0.206 F 
ATOM     86  C   UNL A   1      40.185  34.697  36.876  1.00  0.00     0.040 A 
ATOM     87  C   UNL A   1      38.592  33.022  36.233  1.00  0.00     0.040 A 
ATOM     88  F   UNL A   1      39.306  30.947  35.393  1.00  0.00    -0.206 F 
ATOM     89  C   UNL A   1      38.873  34.337  36.618  1.00  0.00     0.006 A 
ENDBRANCH  61  82
BRANCH  73  90
ATOM     90  C   UNL A   1      43.947  26.055  34.106  1.00  0.00     0.057 A 
ATOM     91  C   UNL A   1      45.151  25.413  33.842  1.00  0.00     0.134 A 
ATOM     92  C   UNL A   1      42.885  25.208  34.518  1.00  0.00     0.134 A 
ATOM     93  F   UNL A   1      46.221  26.112  33.436  1.00  0.00    -0.206 F 
ATOM     94  C   UNL A   1      45.291  24.025  33.971  1.00  0.00     0.040 A 
ATOM     95  C   UNL A   1      42.984  23.819  34.562  1.00  0.00     0.040 A 
ATOM     96  F   UNL A   1      41.700  25.687  34.928  1.00  0.00    -0.206 F 
ATOM     97  C   UNL A   1      44.200  23.222  34.301  1.00  0.00     0.006 A 
ENDBRANCH  73  90
ENDBRANCH  47  48
ENDBRANCH  40  42
ENDBRANCH  39  40
ENDBRANCH  38  39
ENDBRANCH  37  38
ENDBRANCH  36  37
ENDBRANCH  35  36
ENDBRANCH   1  35
TORSDOF 21
ENDMDL
MODEL 3
REMARK VINA RESULT:     -11.2      2.378      5.050
REMARK SMILES Cc1ccc(/[NH+]=C2/S[C@@H](CC(=O)Nc3ccc(C(=O)OCCOCCOCCOC(=O)c4ccc(-c5c6nc(c(-c7c(F)cccc7F)c7ccc([nH]7)c(-c7c(F)cccc7F)c7nc(c(-c8c(F)cccc8F)c8ccc5[nH]8)C=C7)C=C6)cc4)cc3)C(=O)N2C)cc1
REMARK SMILES IDX 24 1 23 2 22 3 21 4 20 5 18 6 19 7 17 8 14 9 15 10 87 11
REMARK SMILES IDX 16 12 86 13 13 14 11 15 12 16 10 18 9 19 6 20 7 21 8 23
REMARK SMILES IDX 90 24 88 25 91 26 89 27 5 28 1 29 2 30 3 31 93 32 4 33 92 34
REMARK SMILES IDX 25 35 26 36 27 37 28 38 29 39 30 40 31 41 32 42 33 43 85 44
REMARK SMILES IDX 34 45 84 46 35 47 36 48 37 49 78 50 38 51 83 52 77 53 79 54
REMARK SMILES IDX 39 55 82 56 76 57 75 58 40 60 66 61 49 62 65 63 50 64 53 65
REMARK SMILES IDX 64 66 80 67 51 68 52 69 63 71 81 72 54 73 41 74 42 75 47 76
REMARK SMILES IDX 43 77 44 78 46 79 48 80 45 81 67 82 68 83 73 84 69 85 70 86
REMARK SMILES IDX 72 87 74 88 71 89 55 90 56 91 61 92 57 93 58 94 60 95 62 96
REMARK SMILES IDX 59 97
REMARK H PARENT 13 17 6 22 79 59 53 70
REMARK Flexibility Score: inf
ROOT
ATOM      1  C   UNL A   1      36.546  20.974  25.366  1.00  0.00     0.188 C 
ENDROOT
BRANCH   1   2
ATOM      2  O   UNL A   1      35.500  21.548  26.158  1.00  0.00    -0.376 OA
BRANCH   2   3
ATOM      3  C   UNL A   1      34.141  21.129  25.969  1.00  0.00     0.202 C 
BRANCH   3   4
ATOM      4  C   UNL A   1      33.112  21.535  24.767  1.00  0.00     0.261 C 
BRANCH   4   5
ATOM      5  O   UNL A   1      33.336  21.801  23.295  1.00  0.00    -0.460 OA
BRANCH   5   6
ATOM      6  C   UNL A   1      33.938  23.002  23.093  1.00  0.00     0.338 C 
ATOM      7  O   UNL A   1      35.131  22.826  22.920  1.00  0.00    -0.246 OA
BRANCH   6   8
ATOM      8  C   UNL A   1      33.152  24.550  22.888  1.00  0.00     0.060 A 
ATOM      9  C   UNL A   1      31.460  26.939  22.717  1.00  0.00     0.041 A 
ATOM     10  C   UNL A   1      31.875  26.243  23.849  1.00  0.00     0.027 A 
ATOM     11  C   UNL A   1      31.991  26.508  21.562  1.00  0.00     0.027 A 
ATOM     12  C   UNL A   1      32.678  25.106  23.997  1.00  0.00     0.018 A 
ATOM     13  C   UNL A   1      32.833  25.390  21.679  1.00  0.00     0.018 A 
BRANCH   9  14
ATOM     14  N   UNL A   1      30.534  27.990  22.759  1.00  0.00    -0.326 N 
ATOM     15  C   UNL A   1      30.501  29.069  23.613  1.00  0.00     0.226 C 
ATOM     16  O   UNL A   1      29.478  29.753  23.681  1.00  0.00    -0.275 OA
ATOM     17  H   UNL A   1      29.813  27.952  22.090  1.00  0.00     0.169 HD
BRANCH  15  18
ATOM     18  C   UNL A   1      31.780  29.507  24.335  1.00  0.00     0.128 C 
BRANCH  18  19
ATOM     19  C   UNL A   1      31.777  29.555  25.895  1.00  0.00     0.183 C 
ATOM     20  N   UNL A   1      33.653  32.409  27.768  1.00  0.00    -0.235 N 
ATOM     21  C   UNL A   1      33.261  31.260  27.322  1.00  0.00     0.319 C 
ATOM     22  H   UNL A   1      33.007  33.126  27.573  1.00  0.00     0.313 HD
ATOM     23  S   UNL A   1      31.679  31.286  26.502  1.00  0.00    -0.022 SA
ATOM     24  N   UNL A   1      33.780  29.981  27.259  1.00  0.00    -0.193 N 
ATOM     25  C   UNL A   1      32.987  28.988  26.652  1.00  0.00     0.324 C 
ATOM     26  C   UNL A   1      35.164  29.586  27.517  1.00  0.00     0.301 C 
ATOM     27  O   UNL A   1      33.288  27.799  26.622  1.00  0.00    -0.245 OA
BRANCH  20  28
ATOM     28  C   UNL A   1      34.780  32.880  28.462  1.00  0.00     0.125 A 
ATOM     29  C   UNL A   1      38.116  34.295  30.893  1.00  0.00     0.044 C 
ATOM     30  C   UNL A   1      36.947  33.828  30.077  1.00  0.00    -0.051 A 
ATOM     31  C   UNL A   1      35.666  33.703  30.614  1.00  0.00     0.008 A 
ATOM     32  C   UNL A   1      37.145  33.426  28.758  1.00  0.00     0.008 A 
ATOM     33  C   UNL A   1      34.598  33.267  29.805  1.00  0.00     0.052 A 
ATOM     34  C   UNL A   1      36.090  32.897  28.001  1.00  0.00     0.052 A 
ENDBRANCH  20  28
ENDBRANCH  18  19
ENDBRANCH  15  18
ENDBRANCH   9  14
ENDBRANCH   6   8
ENDBRANCH   5   6
ENDBRANCH   4   5
ENDBRANCH   3   4
ENDBRANCH   2   3
ENDBRANCH   1   2
BRANCH   1  35
ATOM     35  C   UNL A   1      37.786  21.785  25.029  1.00  0.00     0.188 C 
BRANCH  35  36
ATOM     36  O   UNL A   1      38.764  21.602  26.047  1.00  0.00    -0.376 OA
BRANCH  36  37
ATOM     37  C   UNL A   1      39.715  20.589  25.758  1.00  0.00     0.202 C 
BRANCH  37  38
ATOM     38  C   UNL A   1      40.972  20.711  26.631  1.00  0.00     0.261 C 
BRANCH  38  39
ATOM     39  O   UNL A   1      41.680  21.934  26.310  1.00  0.00    -0.460 OA
BRANCH  39  40
ATOM     40  C   UNL A   1      42.929  21.793  25.729  1.00  0.00     0.338 C 
ATOM     41  O   UNL A   1      43.258  20.909  25.002  1.00  0.00    -0.246 OA
BRANCH  40  42
ATOM     42  C   UNL A   1      43.888  22.757  26.387  1.00  0.00     0.060 A 
ATOM     43  C   UNL A   1      44.116  22.858  27.766  1.00  0.00     0.016 A 
ATOM     44  C   UNL A   1      44.295  23.812  25.658  1.00  0.00     0.016 A 
ATOM     45  C   UNL A   1      44.399  24.133  28.421  1.00  0.00     0.010 A 
ATOM     46  C   UNL A   1      44.456  25.018  26.342  1.00  0.00     0.010 A 
ATOM     47  C   UNL A   1      44.406  25.354  27.760  1.00  0.00    -0.014 A 
BRANCH  47  48
ATOM     48  C   UNL A   1      44.286  26.945  28.610  1.00  0.00     0.031 A 
ATOM     49  C   UNL A   1      42.913  28.014  29.033  1.00  0.00     0.074 A 
ATOM     50  C   UNL A   1      45.346  27.295  29.346  1.00  0.00     0.049 A 
ATOM     51  N   UNL A   1      42.311  28.988  28.352  1.00  0.00    -0.248 NA
ATOM     52  C   UNL A   1      42.070  27.793  30.278  1.00  0.00     0.031 C 
ATOM     53  C   UNL A   1      45.399  28.304  30.387  1.00  0.00     0.029 A 
ATOM     54  N   UNL A   1      46.666  26.930  29.132  1.00  0.00    -0.354 N 
ATOM     55  C   UNL A   1      41.066  29.274  29.035  1.00  0.00     0.074 A 
ATOM     56  C   UNL A   1      40.844  28.112  29.844  1.00  0.00     0.031 C 
ATOM     57  C   UNL A   1      46.666  28.739  30.464  1.00  0.00     0.029 A 
ATOM     58  C   UNL A   1      47.397  28.111  29.376  1.00  0.00     0.049 A 
ATOM     59  H   UNL A   1      47.013  26.047  28.869  1.00  0.00     0.167 HD
ATOM     60  C   UNL A   1      40.726  30.394  29.790  1.00  0.00     0.037 A 
ATOM     61  C   UNL A   1      47.928  28.740  28.284  1.00  0.00     0.037 A 
ATOM     62  C   UNL A   1      41.930  31.045  30.219  1.00  0.00     0.049 A 
ATOM     63  C   UNL A   1      47.226  30.058  27.961  1.00  0.00     0.074 A 
ATOM     64  C   UNL A   1      42.773  30.998  31.313  1.00  0.00     0.029 A 
ATOM     65  N   UNL A   1      42.633  31.600  29.215  1.00  0.00    -0.354 N 
ATOM     66  N   UNL A   1      46.231  30.564  28.648  1.00  0.00    -0.248 NA
ATOM     67  C   UNL A   1      47.567  30.900  26.814  1.00  0.00     0.031 C 
ATOM     68  C   UNL A   1      44.042  31.513  30.880  1.00  0.00     0.029 A 
ATOM     69  C   UNL A   1      43.915  31.895  29.554  1.00  0.00     0.049 A 
ATOM     70  H   UNL A   1      42.256  31.775  28.322  1.00  0.00     0.167 HD
ATOM     71  C   UNL A   1      45.777  31.705  28.038  1.00  0.00     0.074 A 
ATOM     72  C   UNL A   1      46.657  31.887  26.905  1.00  0.00     0.031 C 
ATOM     73  C   UNL A   1      44.683  32.407  28.443  1.00  0.00     0.037 A 
BRANCH  60  74
ATOM     74  C   UNL A   1      39.391  30.535  30.548  1.00  0.00     0.057 A 
ATOM     75  C   UNL A   1      39.325  30.992  31.880  1.00  0.00     0.134 A 
ATOM     76  C   UNL A   1      38.137  30.221  29.979  1.00  0.00     0.134 A 
ATOM     77  F   UNL A   1      40.418  31.414  32.528  1.00  0.00    -0.206 F 
ATOM     78  C   UNL A   1      38.129  31.036  32.619  1.00  0.00     0.040 A 
ATOM     79  C   UNL A   1      36.933  30.241  30.715  1.00  0.00     0.040 A 
ATOM     80  F   UNL A   1      38.042  29.853  28.692  1.00  0.00    -0.206 F 
ATOM     81  C   UNL A   1      36.929  30.637  32.046  1.00  0.00     0.006 A 
ENDBRANCH  60  74
BRANCH  61  82
ATOM     82  C   UNL A   1      48.530  27.728  27.340  1.00  0.00     0.057 A 
ATOM     83  C   UNL A   1      47.809  27.471  26.143  1.00  0.00     0.134 A 
ATOM     84  C   UNL A   1      49.878  27.358  27.330  1.00  0.00     0.134 A 
ATOM     85  F   UNL A   1      46.503  27.776  26.067  1.00  0.00    -0.206 F 
ATOM     86  C   UNL A   1      48.432  27.080  24.955  1.00  0.00     0.040 A 
ATOM     87  C   UNL A   1      50.497  26.874  26.159  1.00  0.00     0.040 A 
ATOM     88  F   UNL A   1      50.669  27.617  28.381  1.00  0.00    -0.206 F 
ATOM     89  C   UNL A   1      49.789  26.799  24.955  1.00  0.00     0.006 A 
ENDBRANCH  61  82
BRANCH  73  90
ATOM     90  C   UNL A   1      44.151  33.628  27.720  1.00  0.00     0.057 A 
ATOM     91  C   UNL A   1      43.835  34.782  28.429  1.00  0.00     0.134 A 
ATOM     92  C   UNL A   1      43.770  33.634  26.352  1.00  0.00     0.134 A 
ATOM     93  F   UNL A   1      44.139  34.885  29.731  1.00  0.00    -0.206 F 
ATOM     94  C   UNL A   1      43.182  35.864  27.825  1.00  0.00     0.040 A 
ATOM     95  C   UNL A   1      43.040  34.663  25.763  1.00  0.00     0.040 A 
ATOM     96  F   UNL A   1      44.114  32.650  25.506  1.00  0.00    -0.206 F 
ATOM     97  C   UNL A   1      42.755  35.794  26.500  1.00  0.00     0.006 A 
ENDBRANCH  73  90
ENDBRANCH  47  48
ENDBRANCH  40  42
ENDBRANCH  39  40
ENDBRANCH  38  39
ENDBRANCH  37  38
ENDBRANCH  36  37
ENDBRANCH  35  36
ENDBRANCH   1  35
TORSDOF 21
ENDMDL
