MODEL 1
REMARK VINA RESULT:      -9.8      0.000      0.000
REMARK SMILES C[C@@H](NS(=O)(=O)c1ccccc1)C(=O)OCCOCCOCCOC(=O)c1ccc(-c2c3nc(c(-c4c(F)cccc4F)c4ccc([nH]4)c(-c4c(F)cccc4F)c4nc(c(-c5c(F)cccc5F)c5ccc2[nH]5)C=C4)C=C3)cc1
REMARK SMILES IDX 19 1 18 2 17 3 16 4 15 5 13 6 14 7 2 8 1 9 3 10 4 12 5 13
REMARK SMILES IDX 6 14 7 15 8 16 12 17 9 18 11 19 10 20 20 21 21 22 22 23
REMARK SMILES IDX 23 24 24 25 25 26 26 27 27 28 28 29 80 30 29 31 79 32 30 33
REMARK SMILES IDX 31 34 32 35 73 36 33 37 78 38 72 39 74 40 34 41 77 42 71 43
REMARK SMILES IDX 70 44 35 46 61 47 44 48 60 49 45 50 48 51 59 52 75 53 46 54
REMARK SMILES IDX 47 55 58 57 76 58 49 59 36 60 37 61 42 62 38 63 39 64 41 65
REMARK SMILES IDX 43 66 40 67 62 68 63 69 68 70 64 71 65 72 67 73 69 74 66 75
REMARK SMILES IDX 50 76 51 77 56 78 52 79 53 80 55 81 57 82 54 83
REMARK H PARENT 3 11 74 45 48 56
REMARK Flexibility Score: inf
ROOT
ATOM      1  C   UNL A   1      32.094  28.709  24.511  1.00  0.00     0.188 C 
ENDROOT
BRANCH   1   2
ATOM      2  O   UNL A   1      31.300  27.638  24.987  1.00  0.00    -0.376 OA
BRANCH   2   3
ATOM      3  C   UNL A   1      31.582  26.373  24.418  1.00  0.00     0.202 C 
BRANCH   3   4
ATOM      4  C   UNL A   1      31.998  25.277  25.400  1.00  0.00     0.261 C 
BRANCH   4   5
ATOM      5  O   UNL A   1      31.127  24.752  26.427  1.00  0.00    -0.462 OA
BRANCH   5   6
ATOM      6  C   UNL A   1      31.053  23.489  26.902  1.00  0.00     0.323 C 
ATOM      7  O   UNL A   1      30.140  23.007  27.553  1.00  0.00    -0.250 OA
BRANCH   6   8
ATOM      8  C   UNL A   1      32.318  22.715  26.559  1.00  0.00     0.176 C 
ATOM      9  C   UNL A   1      33.141  22.417  27.813  1.00  0.00     0.038 C 
BRANCH   8  10
ATOM     10  N   UNL A   1      31.931  21.470  25.861  1.00  0.00    -0.197 NA
ATOM     11  H   UNL A   1      30.911  21.429  25.853  1.00  0.00     0.142 HD
BRANCH  10  12
ATOM     12  S   UNL A   1      32.458  21.270  24.263  1.00  0.00     0.241 S 
ATOM     13  O   UNL A   1      32.245  19.890  23.904  1.00  0.00    -0.207 OA
ATOM     14  O   UNL A   1      31.834  22.347  23.522  1.00  0.00    -0.207 OA
BRANCH  12  15
ATOM     15  C   UNL A   1      34.208  21.600  24.303  1.00  0.00     0.082 A 
ATOM     16  C   UNL A   1      34.715  22.757  23.701  1.00  0.00     0.022 A 
ATOM     17  C   UNL A   1      35.069  20.729  24.974  1.00  0.00     0.022 A 
ATOM     18  C   UNL A   1      36.092  22.981  23.665  1.00  0.00     0.001 A 
ATOM     19  C   UNL A   1      36.444  20.981  24.971  1.00  0.00     0.001 A 
ATOM     20  C   UNL A   1      36.957  22.088  24.291  1.00  0.00     0.000 A 
ENDBRANCH  12  15
ENDBRANCH  10  12
ENDBRANCH   8  10
ENDBRANCH   6   8
ENDBRANCH   5   6
ENDBRANCH   4   5
ENDBRANCH   3   4
ENDBRANCH   2   3
ENDBRANCH   1   2
BRANCH   1  21
ATOM     21  C   UNL A   1      32.299  29.820  25.555  1.00  0.00     0.188 C 
BRANCH  21  22
ATOM     22  O   UNL A   1      33.552  29.954  26.207  1.00  0.00    -0.376 OA
BRANCH  22  23
ATOM     23  C   UNL A   1      33.610  30.755  27.374  1.00  0.00     0.202 C 
BRANCH  23  24
ATOM     24  C   UNL A   1      32.744  32.028  27.457  1.00  0.00     0.261 C 
BRANCH  24  25
ATOM     25  O   UNL A   1      33.416  33.291  27.271  1.00  0.00    -0.460 OA
BRANCH  25  26
ATOM     26  C   UNL A   1      33.362  34.173  28.302  1.00  0.00     0.338 C 
ATOM     27  O   UNL A   1      32.442  34.923  28.573  1.00  0.00    -0.246 OA
BRANCH  26  28
ATOM     28  C   UNL A   1      34.518  33.951  29.215  1.00  0.00     0.060 A 
ATOM     29  C   UNL A   1      35.811  34.282  28.770  1.00  0.00     0.016 A 
ATOM     30  C   UNL A   1      34.347  33.386  30.478  1.00  0.00     0.016 A 
ATOM     31  C   UNL A   1      36.931  34.039  29.571  1.00  0.00     0.010 A 
ATOM     32  C   UNL A   1      35.474  33.100  31.262  1.00  0.00     0.010 A 
ATOM     33  C   UNL A   1      36.772  33.396  30.801  1.00  0.00    -0.014 A 
BRANCH  33  34
ATOM     34  C   UNL A   1      37.949  32.819  31.503  1.00  0.00     0.031 A 
ATOM     35  C   UNL A   1      38.594  31.595  30.911  1.00  0.00     0.074 A 
ATOM     36  C   UNL A   1      38.429  33.339  32.646  1.00  0.00     0.049 A 
ATOM     37  N   UNL A   1      39.512  30.808  31.412  1.00  0.00    -0.248 NA
ATOM     38  C   UNL A   1      38.125  31.200  29.574  1.00  0.00     0.031 C 
ATOM     39  C   UNL A   1      37.947  34.555  33.293  1.00  0.00     0.029 A 
ATOM     40  N   UNL A   1      39.420  32.880  33.482  1.00  0.00    -0.354 N 
ATOM     41  C   UNL A   1      39.707  29.810  30.467  1.00  0.00     0.074 A 
ATOM     42  C   UNL A   1      38.801  30.080  29.371  1.00  0.00     0.031 C 
ATOM     43  C   UNL A   1      38.613  34.724  34.450  1.00  0.00     0.029 A 
ATOM     44  C   UNL A   1      39.536  33.605  34.643  1.00  0.00     0.049 A 
ATOM     45  H   UNL A   1      39.989  32.105  33.270  1.00  0.00     0.167 HD
ATOM     46  C   UNL A   1      40.561  28.760  30.507  1.00  0.00     0.037 A 
ATOM     47  C   UNL A   1      40.266  33.367  35.751  1.00  0.00     0.037 A 
ATOM     48  C   UNL A   1      41.463  28.495  31.597  1.00  0.00     0.049 A 
ATOM     49  C   UNL A   1      41.155  32.150  35.815  1.00  0.00     0.074 A 
ATOM     50  C   UNL A   1      42.389  27.474  31.718  1.00  0.00     0.029 A 
ATOM     51  N   UNL A   1      41.542  29.248  32.758  1.00  0.00    -0.354 N 
ATOM     52  N   UNL A   1      41.348  31.218  34.912  1.00  0.00    -0.248 NA
ATOM     53  C   UNL A   1      41.925  31.950  37.051  1.00  0.00     0.031 C 
ATOM     54  C   UNL A   1      42.981  27.571  32.981  1.00  0.00     0.029 A 
ATOM     55  C   UNL A   1      42.476  28.693  33.617  1.00  0.00     0.049 A 
ATOM     56  H   UNL A   1      41.013  30.058  32.944  1.00  0.00     0.167 HD
ATOM     57  C   UNL A   1      42.281  30.343  35.457  1.00  0.00     0.074 A 
ATOM     58  C   UNL A   1      42.620  30.856  36.768  1.00  0.00     0.031 C 
ATOM     59  C   UNL A   1      42.814  29.218  34.917  1.00  0.00     0.037 A 
BRANCH  46  60
ATOM     60  C   UNL A   1      40.519  27.790  29.361  1.00  0.00     0.057 A 
ATOM     61  C   UNL A   1      39.603  26.731  29.310  1.00  0.00     0.134 A 
ATOM     62  C   UNL A   1      41.407  27.928  28.286  1.00  0.00     0.134 A 
ATOM     63  F   UNL A   1      38.735  26.532  30.313  1.00  0.00    -0.206 F 
ATOM     64  C   UNL A   1      39.595  25.824  28.248  1.00  0.00     0.040 A 
ATOM     65  C   UNL A   1      41.387  27.048  27.203  1.00  0.00     0.040 A 
ATOM     66  F   UNL A   1      42.306  28.923  28.267  1.00  0.00    -0.206 F 
ATOM     67  C   UNL A   1      40.486  25.986  27.187  1.00  0.00     0.006 A 
ENDBRANCH  46  60
BRANCH  47  68
ATOM     68  C   UNL A   1      40.159  34.284  36.916  1.00  0.00     0.057 A 
ATOM     69  C   UNL A   1      39.171  34.110  37.893  1.00  0.00     0.134 A 
ATOM     70  C   UNL A   1      41.038  35.363  37.075  1.00  0.00     0.134 A 
ATOM     71  F   UNL A   1      38.280  33.114  37.782  1.00  0.00    -0.206 F 
ATOM     72  C   UNL A   1      39.055  34.980  38.979  1.00  0.00     0.040 A 
ATOM     73  C   UNL A   1      40.950  36.225  38.170  1.00  0.00     0.040 A 
ATOM     74  F   UNL A   1      42.003  35.590  36.172  1.00  0.00    -0.206 F 
ATOM     75  C   UNL A   1      39.952  36.037  39.123  1.00  0.00     0.006 A 
ENDBRANCH  47  68
BRANCH  59  76
ATOM     76  C   UNL A   1      43.854  28.480  35.712  1.00  0.00     0.057 A 
ATOM     77  C   UNL A   1      43.517  27.487  36.640  1.00  0.00     0.134 A 
ATOM     78  C   UNL A   1      45.217  28.717  35.487  1.00  0.00     0.134 A 
ATOM     79  F   UNL A   1      42.231  27.216  36.910  1.00  0.00    -0.206 F 
ATOM     80  C   UNL A   1      44.499  26.764  37.323  1.00  0.00     0.040 A 
ATOM     81  C   UNL A   1      46.206  27.983  36.143  1.00  0.00     0.040 A 
ATOM     82  F   UNL A   1      45.610  29.647  34.604  1.00  0.00    -0.206 F 
ATOM     83  C   UNL A   1      45.847  27.005  37.067  1.00  0.00     0.006 A 
ENDBRANCH  59  76
ENDBRANCH  33  34
ENDBRANCH  26  28
ENDBRANCH  25  26
ENDBRANCH  24  25
ENDBRANCH  23  24
ENDBRANCH  22  23
ENDBRANCH  21  22
ENDBRANCH   1  21
TORSDOF 20
ENDMDL
MODEL 2
REMARK VINA RESULT:      -9.6      4.482      8.737
REMARK SMILES C[C@@H](NS(=O)(=O)c1ccccc1)C(=O)OCCOCCOCCOC(=O)c1ccc(-c2c3nc(c(-c4c(F)cccc4F)c4ccc([nH]4)c(-c4c(F)cccc4F)c4nc(c(-c5c(F)cccc5F)c5ccc2[nH]5)C=C4)C=C3)cc1
REMARK SMILES IDX 19 1 18 2 17 3 16 4 15 5 13 6 14 7 2 8 1 9 3 10 4 12 5 13
REMARK SMILES IDX 6 14 7 15 8 16 12 17 9 18 11 19 10 20 20 21 21 22 22 23
REMARK SMILES IDX 23 24 24 25 25 26 26 27 27 28 28 29 80 30 29 31 79 32 30 33
REMARK SMILES IDX 31 34 32 35 73 36 33 37 78 38 72 39 74 40 34 41 77 42 71 43
REMARK SMILES IDX 70 44 35 46 61 47 44 48 60 49 45 50 48 51 59 52 75 53 46 54
REMARK SMILES IDX 47 55 58 57 76 58 49 59 36 60 37 61 42 62 38 63 39 64 41 65
REMARK SMILES IDX 43 66 40 67 62 68 63 69 68 70 64 71 65 72 67 73 69 74 66 75
REMARK SMILES IDX 50 76 51 77 56 78 52 79 53 80 55 81 57 82 54 83
REMARK H PARENT 3 11 74 45 48 56
REMARK Flexibility Score: inf
ROOT
ATOM      1  C   UNL A   1      34.097  32.158  27.660  1.00  0.00     0.188 C 
ENDROOT
BRANCH   1   2
ATOM      2  O   UNL A   1      34.297  30.938  28.351  1.00  0.00    -0.376 OA
BRANCH   2   3
ATOM      3  C   UNL A   1      35.242  30.059  27.767  1.00  0.00     0.202 C 
BRANCH   3   4
ATOM      4  C   UNL A   1      34.686  29.063  26.748  1.00  0.00     0.261 C 
BRANCH   4   5
ATOM      5  O   UNL A   1      33.319  29.080  26.279  1.00  0.00    -0.462 OA
BRANCH   5   6
ATOM      6  C   UNL A   1      32.379  28.115  26.393  1.00  0.00     0.323 C 
ATOM      7  O   UNL A   1      32.134  27.450  27.388  1.00  0.00    -0.250 OA
BRANCH   6   8
ATOM      8  C   UNL A   1      31.659  27.910  25.069  1.00  0.00     0.176 C 
ATOM      9  C   UNL A   1      31.299  29.248  24.422  1.00  0.00     0.038 C 
BRANCH   8  10
ATOM     10  N   UNL A   1      32.525  27.100  24.184  1.00  0.00    -0.197 NA
ATOM     11  H   UNL A   1      33.484  27.206  24.517  1.00  0.00     0.142 HD
BRANCH  10  12
ATOM     12  S   UNL A   1      32.205  25.440  24.079  1.00  0.00     0.241 S 
ATOM     13  O   UNL A   1      31.348  25.091  25.184  1.00  0.00    -0.207 OA
ATOM     14  O   UNL A   1      31.793  25.222  22.706  1.00  0.00    -0.207 OA
BRANCH  12  15
ATOM     15  C   UNL A   1      33.783  24.645  24.289  1.00  0.00     0.082 A 
ATOM     16  C   UNL A   1      34.482  24.785  25.494  1.00  0.00     0.022 A 
ATOM     17  C   UNL A   1      34.304  23.843  23.271  1.00  0.00     0.022 A 
ATOM     18  C   UNL A   1      35.753  24.225  25.635  1.00  0.00     0.001 A 
ATOM     19  C   UNL A   1      35.559  23.250  23.435  1.00  0.00     0.001 A 
ATOM     20  C   UNL A   1      36.295  23.466  24.602  1.00  0.00     0.000 A 
ENDBRANCH  12  15
ENDBRANCH  10  12
ENDBRANCH   8  10
ENDBRANCH   6   8
ENDBRANCH   5   6
ENDBRANCH   4   5
ENDBRANCH   3   4
ENDBRANCH   2   3
ENDBRANCH   1   2
BRANCH   1  21
ATOM     21  C   UNL A   1      35.153  33.223  28.000  1.00  0.00     0.188 C 
BRANCH  21  22
ATOM     22  O   UNL A   1      34.771  34.402  28.692  1.00  0.00    -0.376 OA
BRANCH  22  23
ATOM     23  C   UNL A   1      33.932  34.263  29.826  1.00  0.00     0.202 C 
BRANCH  23  24
ATOM     24  C   UNL A   1      34.545  34.388  31.235  1.00  0.00     0.261 C 
BRANCH  24  25
ATOM     25  O   UNL A   1      35.917  33.970  31.392  1.00  0.00    -0.460 OA
BRANCH  25  26
ATOM     26  C   UNL A   1      36.144  32.906  32.205  1.00  0.00     0.338 C 
ATOM     27  O   UNL A   1      35.527  32.614  33.214  1.00  0.00    -0.246 OA
BRANCH  26  28
ATOM     28  C   UNL A   1      37.137  31.993  31.573  1.00  0.00     0.060 A 
ATOM     29  C   UNL A   1      37.969  31.215  32.400  1.00  0.00     0.016 A 
ATOM     30  C   UNL A   1      37.286  31.929  30.189  1.00  0.00     0.016 A 
ATOM     31  C   UNL A   1      38.954  30.386  31.853  1.00  0.00     0.010 A 
ATOM     32  C   UNL A   1      38.304  31.134  29.643  1.00  0.00     0.010 A 
ATOM     33  C   UNL A   1      39.162  30.384  30.471  1.00  0.00    -0.014 A 
BRANCH  33  34
ATOM     34  C   UNL A   1      40.403  29.796  29.901  1.00  0.00     0.031 A 
ATOM     35  C   UNL A   1      41.583  30.707  29.690  1.00  0.00     0.074 A 
ATOM     36  C   UNL A   1      40.491  28.501  29.553  1.00  0.00     0.049 A 
ATOM     37  N   UNL A   1      42.707  30.486  29.059  1.00  0.00    -0.248 NA
ATOM     38  C   UNL A   1      41.466  32.057  30.261  1.00  0.00     0.031 C 
ATOM     39  C   UNL A   1      39.454  27.495  29.762  1.00  0.00     0.029 A 
ATOM     40  N   UNL A   1      41.501  27.820  28.916  1.00  0.00    -0.354 N 
ATOM     41  C   UNL A   1      43.417  31.677  29.130  1.00  0.00     0.074 A 
ATOM     42  C   UNL A   1      42.591  32.621  29.850  1.00  0.00     0.031 C 
ATOM     43  C   UNL A   1      39.865  26.332  29.222  1.00  0.00     0.029 A 
ATOM     44  C   UNL A   1      41.171  26.526  28.594  1.00  0.00     0.049 A 
ATOM     45  H   UNL A   1      42.376  28.221  28.710  1.00  0.00     0.167 HD
ATOM     46  C   UNL A   1      44.646  31.962  28.638  1.00  0.00     0.037 A 
ATOM     47  C   UNL A   1      41.826  25.619  27.841  1.00  0.00     0.037 A 
ATOM     48  C   UNL A   1      45.468  31.020  27.924  1.00  0.00     0.049 A 
ATOM     49  C   UNL A   1      43.160  25.976  27.232  1.00  0.00     0.074 A 
ATOM     50  C   UNL A   1      46.741  31.203  27.412  1.00  0.00     0.029 A 
ATOM     51  N   UNL A   1      45.092  29.722  27.611  1.00  0.00    -0.354 N 
ATOM     52  N   UNL A   1      43.834  27.098  27.315  1.00  0.00    -0.248 NA
ATOM     53  C   UNL A   1      43.822  24.942  26.422  1.00  0.00     0.031 C 
ATOM     54  C   UNL A   1      47.107  30.038  26.732  1.00  0.00     0.029 A 
ATOM     55  C   UNL A   1      46.094  29.105  26.880  1.00  0.00     0.049 A 
ATOM     56  H   UNL A   1      44.240  29.303  27.870  1.00  0.00     0.167 HD
ATOM     57  C   UNL A   1      45.009  26.894  26.598  1.00  0.00     0.074 A 
ATOM     58  C   UNL A   1      44.958  25.540  26.089  1.00  0.00     0.031 C 
ATOM     59  C   UNL A   1      46.039  27.751  26.387  1.00  0.00     0.037 A 
BRANCH  46  60
ATOM     60  C   UNL A   1      45.152  33.366  28.809  1.00  0.00     0.057 A 
ATOM     61  C   UNL A   1      44.872  34.380  27.883  1.00  0.00     0.134 A 
ATOM     62  C   UNL A   1      45.924  33.707  29.926  1.00  0.00     0.134 A 
ATOM     63  F   UNL A   1      44.150  34.118  26.783  1.00  0.00    -0.206 F 
ATOM     64  C   UNL A   1      45.371  35.674  28.046  1.00  0.00     0.040 A 
ATOM     65  C   UNL A   1      46.401  35.005  30.117  1.00  0.00     0.040 A 
ATOM     66  F   UNL A   1      46.226  32.788  30.855  1.00  0.00    -0.206 F 
ATOM     67  C   UNL A   1      46.133  35.991  29.169  1.00  0.00     0.006 A 
ENDBRANCH  46  60
BRANCH  47  68
ATOM     68  C   UNL A   1      41.211  24.291  27.583  1.00  0.00     0.057 A 
ATOM     69  C   UNL A   1      41.659  23.140  28.240  1.00  0.00     0.134 A 
ATOM     70  C   UNL A   1      40.164  24.141  26.663  1.00  0.00     0.134 A 
ATOM     71  F   UNL A   1      42.677  23.212  29.110  1.00  0.00    -0.206 F 
ATOM     72  C   UNL A   1      41.096  21.887  27.987  1.00  0.00     0.040 A 
ATOM     73  C   UNL A   1      39.575  22.900  26.420  1.00  0.00     0.040 A 
ATOM     74  F   UNL A   1      39.693  25.204  25.994  1.00  0.00    -0.206 F 
ATOM     75  C   UNL A   1      40.045  21.767  27.080  1.00  0.00     0.006 A 
ENDBRANCH  47  68
BRANCH  59  76
ATOM     76  C   UNL A   1      47.223  27.249  25.610  1.00  0.00     0.057 A 
ATOM     77  C   UNL A   1      47.367  27.482  24.237  1.00  0.00     0.134 A 
ATOM     78  C   UNL A   1      48.271  26.589  26.265  1.00  0.00     0.134 A 
ATOM     79  F   UNL A   1      46.398  28.101  23.546  1.00  0.00    -0.206 F 
ATOM     80  C   UNL A   1      48.506  27.066  23.542  1.00  0.00     0.040 A 
ATOM     81  C   UNL A   1      49.425  26.193  25.587  1.00  0.00     0.040 A 
ATOM     82  F   UNL A   1      48.203  26.342  27.582  1.00  0.00    -0.206 F 
ATOM     83  C   UNL A   1      49.543  26.429  24.220  1.00  0.00     0.006 A 
ENDBRANCH  59  76
ENDBRANCH  33  34
ENDBRANCH  26  28
ENDBRANCH  25  26
ENDBRANCH  24  25
ENDBRANCH  23  24
ENDBRANCH  22  23
ENDBRANCH  21  22
ENDBRANCH   1  21
TORSDOF 20
ENDMDL
MODEL 3
REMARK VINA RESULT:      -9.5      6.155     10.408
REMARK SMILES C[C@@H](NS(=O)(=O)c1ccccc1)C(=O)OCCOCCOCCOC(=O)c1ccc(-c2c3nc(c(-c4c(F)cccc4F)c4ccc([nH]4)c(-c4c(F)cccc4F)c4nc(c(-c5c(F)cccc5F)c5ccc2[nH]5)C=C4)C=C3)cc1
REMARK SMILES IDX 19 1 18 2 17 3 16 4 15 5 13 6 14 7 2 8 1 9 3 10 4 12 5 13
REMARK SMILES IDX 6 14 7 15 8 16 12 17 9 18 11 19 10 20 20 21 21 22 22 23
REMARK SMILES IDX 23 24 24 25 25 26 26 27 27 28 28 29 80 30 29 31 79 32 30 33
REMARK SMILES IDX 31 34 32 35 73 36 33 37 78 38 72 39 74 40 34 41 77 42 71 43
REMARK SMILES IDX 70 44 35 46 61 47 44 48 60 49 45 50 48 51 59 52 75 53 46 54
REMARK SMILES IDX 47 55 58 57 76 58 49 59 36 60 37 61 42 62 38 63 39 64 41 65
REMARK SMILES IDX 43 66 40 67 62 68 63 69 68 70 64 71 65 72 67 73 69 74 66 75
REMARK SMILES IDX 50 76 51 77 56 78 52 79 53 80 55 81 57 82 54 83
REMARK H PARENT 3 11 74 45 48 56
REMARK Flexibility Score: inf
ROOT
ATOM      1  C   UNL A   1      44.137  18.802  25.889  1.00  0.00     0.188 C 
ENDROOT
BRANCH   1   2
ATOM      2  O   UNL A   1      45.265  18.115  25.378  1.00  0.00    -0.376 OA
BRANCH   2   3
ATOM      3  C   UNL A   1      46.475  18.852  25.376  1.00  0.00     0.202 C 
BRANCH   3   4
ATOM      4  C   UNL A   1      46.440  20.188  24.634  1.00  0.00     0.261 C 
BRANCH   4   5
ATOM      5  O   UNL A   1      46.088  21.442  25.261  1.00  0.00    -0.462 OA
BRANCH   5   6
ATOM      6  C   UNL A   1      45.065  22.274  24.961  1.00  0.00     0.323 C 
ATOM      7  O   UNL A   1      44.246  22.130  24.068  1.00  0.00    -0.250 OA
BRANCH   6   8
ATOM      8  C   UNL A   1      45.082  23.492  25.874  1.00  0.00     0.176 C 
ATOM      9  C   UNL A   1      44.033  23.367  26.980  1.00  0.00     0.038 C 
BRANCH   8  10
ATOM     10  N   UNL A   1      46.442  23.639  26.436  1.00  0.00    -0.197 NA
ATOM     11  H   UNL A   1      47.105  23.451  25.683  1.00  0.00     0.142 HD
BRANCH  10  12
ATOM     12  S   UNL A   1      46.854  25.136  27.112  1.00  0.00     0.241 S 
ATOM     13  O   UNL A   1      46.034  26.140  26.479  1.00  0.00    -0.207 OA
ATOM     14  O   UNL A   1      46.817  24.927  28.545  1.00  0.00    -0.207 OA
BRANCH  12  15
ATOM     15  C   UNL A   1      48.555  25.402  26.660  1.00  0.00     0.082 A 
ATOM     16  C   UNL A   1      49.580  24.936  27.491  1.00  0.00     0.022 A 
ATOM     17  C   UNL A   1      48.869  26.034  25.455  1.00  0.00     0.022 A 
ATOM     18  C   UNL A   1      50.914  25.208  27.178  1.00  0.00     0.001 A 
ATOM     19  C   UNL A   1      50.208  26.266  25.127  1.00  0.00     0.001 A 
ATOM     20  C   UNL A   1      51.226  25.881  26.001  1.00  0.00     0.000 A 
ENDBRANCH  12  15
ENDBRANCH  10  12
ENDBRANCH   8  10
ENDBRANCH   6   8
ENDBRANCH   5   6
ENDBRANCH   4   5
ENDBRANCH   3   4
ENDBRANCH   2   3
ENDBRANCH   1   2
BRANCH   1  21
ATOM     21  C   UNL A   1      42.865  17.938  25.914  1.00  0.00     0.188 C 
BRANCH  21  22
ATOM     22  O   UNL A   1      41.594  18.548  25.752  1.00  0.00    -0.376 OA
BRANCH  22  23
ATOM     23  C   UNL A   1      41.223  19.563  26.669  1.00  0.00     0.202 C 
BRANCH  23  24
ATOM     24  C   UNL A   1      41.317  21.039  26.235  1.00  0.00     0.261 C 
BRANCH  24  25
ATOM     25  O   UNL A   1      40.668  22.013  27.079  1.00  0.00    -0.460 OA
BRANCH  25  26
ATOM     26  C   UNL A   1      39.631  22.701  26.536  1.00  0.00     0.338 C 
ATOM     27  O   UNL A   1      38.686  22.234  25.925  1.00  0.00    -0.246 OA
BRANCH  26  28
ATOM     28  C   UNL A   1      39.684  24.123  26.976  1.00  0.00     0.060 A 
ATOM     29  C   UNL A   1      40.279  25.077  26.129  1.00  0.00     0.016 A 
ATOM     30  C   UNL A   1      39.198  24.516  28.221  1.00  0.00     0.016 A 
ATOM     31  C   UNL A   1      40.403  26.412  26.524  1.00  0.00     0.010 A 
ATOM     32  C   UNL A   1      39.363  25.846  28.636  1.00  0.00     0.010 A 
ATOM     33  C   UNL A   1      39.993  26.792  27.804  1.00  0.00    -0.014 A 
BRANCH  33  34
ATOM     34  C   UNL A   1      40.423  28.097  28.373  1.00  0.00     0.031 A 
ATOM     35  C   UNL A   1      41.884  28.289  28.676  1.00  0.00     0.074 A 
ATOM     36  C   UNL A   1      39.551  29.086  28.639  1.00  0.00     0.049 A 
ATOM     37  N   UNL A   1      42.483  29.253  29.325  1.00  0.00    -0.248 NA
ATOM     38  C   UNL A   1      42.788  27.235  28.190  1.00  0.00     0.031 C 
ATOM     39  C   UNL A   1      38.123  29.063  28.335  1.00  0.00     0.029 A 
ATOM     40  N   UNL A   1      39.747  30.296  29.261  1.00  0.00    -0.354 N 
ATOM     41  C   UNL A   1      43.828  28.908  29.351  1.00  0.00     0.074 A 
ATOM     42  C   UNL A   1      43.954  27.639  28.669  1.00  0.00     0.031 C 
ATOM     43  C   UNL A   1      37.562  30.190  28.811  1.00  0.00     0.029 A 
ATOM     44  C   UNL A   1      38.582  30.989  29.489  1.00  0.00     0.049 A 
ATOM     45  H   UNL A   1      40.635  30.634  29.519  1.00  0.00     0.167 HD
ATOM     46  C   UNL A   1      44.866  29.585  29.898  1.00  0.00     0.037 A 
ATOM     47  C   UNL A   1      38.360  32.112  30.202  1.00  0.00     0.037 A 
ATOM     48  C   UNL A   1      44.740  30.849  30.574  1.00  0.00     0.049 A 
ATOM     49  C   UNL A   1      39.515  32.814  30.872  1.00  0.00     0.074 A 
ATOM     50  C   UNL A   1      45.736  31.629  31.134  1.00  0.00     0.029 A 
ATOM     51  N   UNL A   1      43.541  31.512  30.791  1.00  0.00    -0.354 N 
ATOM     52  N   UNL A   1      40.787  32.492  30.881  1.00  0.00    -0.248 NA
ATOM     53  C   UNL A   1      39.204  34.033  31.634  1.00  0.00     0.031 C 
ATOM     54  C   UNL A   1      45.132  32.730  31.749  1.00  0.00     0.029 A 
ATOM     55  C   UNL A   1      43.769  32.673  31.511  1.00  0.00     0.049 A 
ATOM     56  H   UNL A   1      42.659  31.202  30.481  1.00  0.00     0.167 HD
ATOM     57  C   UNL A   1      41.428  33.482  31.618  1.00  0.00     0.074 A 
ATOM     58  C   UNL A   1      40.407  34.419  32.037  1.00  0.00     0.031 C 
ATOM     59  C   UNL A   1      42.746  33.606  31.915  1.00  0.00     0.037 A 
BRANCH  46  60
ATOM     60  C   UNL A   1      46.222  28.942  29.832  1.00  0.00     0.057 A 
ATOM     61  C   UNL A   1      46.724  28.145  30.870  1.00  0.00     0.134 A 
ATOM     62  C   UNL A   1      47.034  29.118  28.704  1.00  0.00     0.134 A 
ATOM     63  F   UNL A   1      46.005  27.948  31.986  1.00  0.00    -0.206 F 
ATOM     64  C   UNL A   1      47.997  27.576  30.803  1.00  0.00     0.040 A 
ATOM     65  C   UNL A   1      48.294  28.526  28.610  1.00  0.00     0.040 A 
ATOM     66  F   UNL A   1      46.614  29.863  27.671  1.00  0.00    -0.206 F 
ATOM     67  C   UNL A   1      48.784  27.761  29.667  1.00  0.00     0.006 A 
ENDBRANCH  46  60
BRANCH  47  68
ATOM     68  C   UNL A   1      36.974  32.625  30.356  1.00  0.00     0.057 A 
ATOM     69  C   UNL A   1      36.418  33.515  29.429  1.00  0.00     0.134 A 
ATOM     70  C   UNL A   1      36.174  32.245  31.442  1.00  0.00     0.134 A 
ATOM     71  F   UNL A   1      37.143  33.941  28.385  1.00  0.00    -0.206 F 
ATOM     72  C   UNL A   1      35.123  34.015  29.580  1.00  0.00     0.040 A 
ATOM     73  C   UNL A   1      34.869  32.715  31.591  1.00  0.00     0.040 A 
ATOM     74  F   UNL A   1      36.648  31.400  32.369  1.00  0.00    -0.206 F 
ATOM     75  C   UNL A   1      34.342  33.608  30.660  1.00  0.00     0.006 A 
ENDBRANCH  47  68
BRANCH  59  76
ATOM     76  C   UNL A   1      43.181  34.816  32.693  1.00  0.00     0.057 A 
ATOM     77  C   UNL A   1      43.501  36.027  32.068  1.00  0.00     0.134 A 
ATOM     78  C   UNL A   1      43.205  34.786  34.094  1.00  0.00     0.134 A 
ATOM     79  F   UNL A   1      43.507  36.123  30.730  1.00  0.00    -0.206 F 
ATOM     80  C   UNL A   1      43.840  37.163  32.809  1.00  0.00     0.040 A 
ATOM     81  C   UNL A   1      43.515  35.921  34.845  1.00  0.00     0.040 A 
ATOM     82  F   UNL A   1      42.898  33.661  34.757  1.00  0.00    -0.206 F 
ATOM     83  C   UNL A   1      43.838  37.113  34.202  1.00  0.00     0.006 A 
ENDBRANCH  59  76
ENDBRANCH  33  34
ENDBRANCH  26  28
ENDBRANCH  25  26
ENDBRANCH  24  25
ENDBRANCH  23  24
ENDBRANCH  22  23
ENDBRANCH  21  22
ENDBRANCH   1  21
TORSDOF 20
ENDMDL
