MODEL 1
REMARK VINA RESULT:     -10.9      0.000      0.000
REMARK SMILES O=C(C[C@H](C(=O)OCCOCCOCCOC(=O)c1ccc(-c2c3nc(c(-c4c(F)cccc4F)c4ccc([nH]4)c(-c4c(F)cccc4F)c4nc(c(-c5c(F)cccc5F)c5ccc2[nH]5)C=C4)C=C3)cc1)c1ccccc1)Nc1ccc(Cl)cc1Cl
REMARK SMILES IDX 11 1 10 2 9 3 8 4 7 5 5 6 6 7 4 8 3 9 2 10 1 11 79 12 80 14
REMARK SMILES IDX 81 15 86 16 82 17 85 18 87 19 83 20 84 21 73 22 74 23 78 24
REMARK SMILES IDX 75 25 77 26 76 27 12 28 13 29 14 30 15 31 16 32 17 33 18 34
REMARK SMILES IDX 19 35 20 36 72 37 21 38 71 39 22 40 23 41 24 42 65 43 25 44
REMARK SMILES IDX 70 45 64 46 66 47 26 48 69 49 63 50 62 51 27 53 53 54 36 55
REMARK SMILES IDX 52 56 37 57 40 58 51 59 67 60 38 61 39 62 50 64 68 65 41 66
REMARK SMILES IDX 28 67 29 68 34 69 30 70 31 71 33 72 35 73 32 74 54 75 55 76
REMARK SMILES IDX 60 77 56 78 57 79 59 80 61 81 58 82 42 83 43 84 48 85 44 86
REMARK SMILES IDX 45 87 47 88 49 89 46 90
REMARK H PARENT 79 13 66 52 40 63
REMARK Flexibility Score: inf
ROOT
ATOM      1  C   UNL A   1      33.179  31.959  27.458  1.00  0.00     0.188 C 
ENDROOT
BRANCH   1   2
ATOM      2  O   UNL A   1      33.801  30.678  27.475  1.00  0.00    -0.376 OA
BRANCH   2   3
ATOM      3  C   UNL A   1      33.120  29.571  26.901  1.00  0.00     0.202 C 
BRANCH   3   4
ATOM      4  C   UNL A   1      31.845  29.900  26.125  1.00  0.00     0.261 C 
BRANCH   4   5
ATOM      5  O   UNL A   1      31.378  28.791  25.333  1.00  0.00    -0.463 OA
BRANCH   5   6
ATOM      6  C   UNL A   1      31.538  28.879  23.988  1.00  0.00     0.314 C 
ATOM      7  O   UNL A   1      32.598  29.154  23.433  1.00  0.00    -0.252 OA
BRANCH   6   8
ATOM      8  C   UNL A   1      30.271  28.570  23.191  1.00  0.00     0.138 C 
BRANCH   8   9
ATOM      9  C   UNL A   1      29.560  27.363  23.842  1.00  0.00     0.120 C 
BRANCH   9  10
ATOM     10  C   UNL A   1      30.313  26.030  23.956  1.00  0.00     0.225 C 
ATOM     11  O   UNL A   1      30.457  25.346  22.948  1.00  0.00    -0.275 OA
ATOM     12  N   UNL A   1      30.793  25.732  25.205  1.00  0.00    -0.325 N 
ATOM     13  H   UNL A   1      30.214  26.032  25.941  1.00  0.00     0.169 HD
BRANCH  12  14
ATOM     14  C   UNL A   1      31.973  25.070  25.629  1.00  0.00     0.060 A 
ATOM     15  C   UNL A   1      33.148  25.678  25.131  1.00  0.00     0.029 A 
ATOM     16  C   UNL A   1      32.112  23.868  26.343  1.00  0.00     0.066 A 
ATOM     17  C   UNL A   1      34.411  25.121  25.330  1.00  0.00     0.023 A 
ATOM     18  C   UNL A   1      33.392  23.327  26.566  1.00  0.00     0.043 A 
ATOM     19  Cl  UNL A   1      30.818  22.877  26.903  1.00  0.00    -0.082 Cl
ATOM     20  C   UNL A   1      34.528  23.947  26.056  1.00  0.00     0.042 A 
ATOM     21  Cl  UNL A   1      36.076  23.239  26.289  1.00  0.00    -0.084 Cl
ENDBRANCH  12  14
ENDBRANCH   9  10
ENDBRANCH   8   9
BRANCH   8  22
ATOM     22  C   UNL A   1      29.391  29.775  22.841  1.00  0.00    -0.033 A 
ATOM     23  C   UNL A   1      29.377  30.873  23.718  1.00  0.00     0.004 A 
ATOM     24  C   UNL A   1      28.684  29.893  21.629  1.00  0.00     0.004 A 
ATOM     25  C   UNL A   1      28.720  32.058  23.378  1.00  0.00     0.000 A 
ATOM     26  C   UNL A   1      28.040  31.085  21.285  1.00  0.00     0.000 A 
ATOM     27  C   UNL A   1      28.066  32.168  22.155  1.00  0.00     0.000 A 
ENDBRANCH   8  22
ENDBRANCH   6   8
ENDBRANCH   5   6
ENDBRANCH   4   5
ENDBRANCH   3   4
ENDBRANCH   2   3
ENDBRANCH   1   2
BRANCH   1  28
ATOM     28  C   UNL A   1      33.917  33.156  28.077  1.00  0.00     0.188 C 
BRANCH  28  29
ATOM     29  O   UNL A   1      34.358  32.915  29.404  1.00  0.00    -0.376 OA
BRANCH  29  30
ATOM     30  C   UNL A   1      34.362  34.050  30.256  1.00  0.00     0.202 C 
BRANCH  30  31
ATOM     31  C   UNL A   1      34.349  33.630  31.726  1.00  0.00     0.261 C 
BRANCH  31  32
ATOM     32  O   UNL A   1      34.866  32.309  31.971  1.00  0.00    -0.460 OA
BRANCH  32  33
ATOM     33  C   UNL A   1      35.943  32.215  32.778  1.00  0.00     0.338 C 
ATOM     34  O   UNL A   1      36.010  32.537  33.956  1.00  0.00    -0.246 OA
BRANCH  33  35
ATOM     35  C   UNL A   1      37.004  31.487  32.051  1.00  0.00     0.060 A 
ATOM     36  C   UNL A   1      37.869  30.648  32.765  1.00  0.00     0.016 A 
ATOM     37  C   UNL A   1      37.144  31.632  30.669  1.00  0.00     0.016 A 
ATOM     38  C   UNL A   1      38.897  29.974  32.099  1.00  0.00     0.010 A 
ATOM     39  C   UNL A   1      38.180  30.970  30.006  1.00  0.00     0.010 A 
ATOM     40  C   UNL A   1      39.081  30.160  30.721  1.00  0.00    -0.014 A 
BRANCH  40  41
ATOM     41  C   UNL A   1      40.300  29.652  30.044  1.00  0.00     0.031 A 
ATOM     42  C   UNL A   1      41.446  30.600  29.816  1.00  0.00     0.074 A 
ATOM     43  C   UNL A   1      40.387  28.383  29.610  1.00  0.00     0.049 A 
ATOM     44  N   UNL A   1      42.569  30.410  29.173  1.00  0.00    -0.248 NA
ATOM     45  C   UNL A   1      41.294  31.948  30.385  1.00  0.00     0.031 C 
ATOM     46  C   UNL A   1      39.365  27.356  29.785  1.00  0.00     0.029 A 
ATOM     47  N   UNL A   1      41.388  27.753  28.911  1.00  0.00    -0.354 N 
ATOM     48  C   UNL A   1      43.257  31.613  29.257  1.00  0.00     0.074 A 
ATOM     49  C   UNL A   1      42.410  32.536  29.984  1.00  0.00     0.031 C 
ATOM     50  C   UNL A   1      39.784  26.223  29.194  1.00  0.00     0.029 A 
ATOM     51  C   UNL A   1      41.087  26.456  28.573  1.00  0.00     0.049 A 
ATOM     52  H   UNL A   1      42.238  28.188  28.676  1.00  0.00     0.167 HD
ATOM     53  C   UNL A   1      44.486  31.923  28.780  1.00  0.00     0.037 A 
ATOM     54  C   UNL A   1      41.776  25.568  27.828  1.00  0.00     0.037 A 
ATOM     55  C   UNL A   1      45.329  31.014  28.049  1.00  0.00     0.049 A 
ATOM     56  C   UNL A   1      43.110  25.955  27.244  1.00  0.00     0.074 A 
ATOM     57  C   UNL A   1      46.599  31.231  27.545  1.00  0.00     0.029 A 
ATOM     58  N   UNL A   1      44.980  29.716  27.709  1.00  0.00    -0.354 N 
ATOM     59  N   UNL A   1      43.766  27.085  27.352  1.00  0.00    -0.248 NA
ATOM     60  C   UNL A   1      43.798  24.939  26.433  1.00  0.00     0.031 C 
ATOM     61  C   UNL A   1      46.999  30.080  26.857  1.00  0.00     0.029 A 
ATOM     62  C   UNL A   1      45.998  29.129  26.975  1.00  0.00     0.049 A 
ATOM     63  H   UNL A   1      44.133  29.276  27.952  1.00  0.00     0.167 HD
ATOM     64  C   UNL A   1      44.951  26.909  26.646  1.00  0.00     0.074 A 
ATOM     65  C   UNL A   1      44.928  25.559  26.122  1.00  0.00     0.031 C 
ATOM     66  C   UNL A   1      45.967  27.785  26.454  1.00  0.00     0.037 A 
BRANCH  53  67
ATOM     67  C   UNL A   1      44.973  33.324  29.010  1.00  0.00     0.057 A 
ATOM     68  C   UNL A   1      44.685  34.365  28.118  1.00  0.00     0.134 A 
ATOM     69  C   UNL A   1      45.741  33.634  30.140  1.00  0.00     0.134 A 
ATOM     70  F   UNL A   1      43.968  34.131  27.009  1.00  0.00    -0.206 F 
ATOM     71  C   UNL A   1      45.169  35.658  28.325  1.00  0.00     0.040 A 
ATOM     72  C   UNL A   1      46.207  34.928  30.372  1.00  0.00     0.040 A 
ATOM     73  F   UNL A   1      46.049  32.684  31.036  1.00  0.00    -0.206 F 
ATOM     74  C   UNL A   1      45.929  35.942  29.458  1.00  0.00     0.006 A 
ENDBRANCH  53  67
BRANCH  54  75
ATOM     75  C   UNL A   1      41.206  24.221  27.576  1.00  0.00     0.057 A 
ATOM     76  C   UNL A   1      40.172  24.033  26.652  1.00  0.00     0.134 A 
ATOM     77  C   UNL A   1      41.674  23.093  28.261  1.00  0.00     0.134 A 
ATOM     78  F   UNL A   1      39.660  25.080  25.989  1.00  0.00    -0.206 F 
ATOM     79  C   UNL A   1      39.619  22.771  26.422  1.00  0.00     0.040 A 
ATOM     80  C   UNL A   1      41.147  21.823  28.024  1.00  0.00     0.040 A 
ATOM     81  F   UNL A   1      42.659  23.210  29.164  1.00  0.00    -0.206 F 
ATOM     82  C   UNL A   1      40.112  21.660  27.105  1.00  0.00     0.006 A 
ENDBRANCH  54  75
BRANCH  66  83
ATOM     83  C   UNL A   1      47.153  27.310  25.666  1.00  0.00     0.057 A 
ATOM     84  C   UNL A   1      47.286  27.572  24.296  1.00  0.00     0.134 A 
ATOM     85  C   UNL A   1      48.199  26.623  26.295  1.00  0.00     0.134 A 
ATOM     86  F   UNL A   1      46.314  28.217  23.630  1.00  0.00    -0.206 F 
ATOM     87  C   UNL A   1      48.406  27.151  23.577  1.00  0.00     0.040 A 
ATOM     88  C   UNL A   1      49.335  26.218  25.593  1.00  0.00     0.040 A 
ATOM     89  F   UNL A   1      48.142  26.348  27.607  1.00  0.00    -0.206 F 
ATOM     90  C   UNL A   1      49.439  26.478  24.228  1.00  0.00     0.006 A 
ENDBRANCH  66  83
ENDBRANCH  40  41
ENDBRANCH  33  35
ENDBRANCH  32  33
ENDBRANCH  31  32
ENDBRANCH  30  31
ENDBRANCH  29  30
ENDBRANCH  28  29
ENDBRANCH   1  28
TORSDOF 21
ENDMDL
MODEL 2
REMARK VINA RESULT:     -10.8      3.770      5.897
REMARK SMILES O=C(C[C@H](C(=O)OCCOCCOCCOC(=O)c1ccc(-c2c3nc(c(-c4c(F)cccc4F)c4ccc([nH]4)c(-c4c(F)cccc4F)c4nc(c(-c5c(F)cccc5F)c5ccc2[nH]5)C=C4)C=C3)cc1)c1ccccc1)Nc1ccc(Cl)cc1Cl
REMARK SMILES IDX 11 1 10 2 9 3 8 4 7 5 5 6 6 7 4 8 3 9 2 10 1 11 79 12 80 14
REMARK SMILES IDX 81 15 86 16 82 17 85 18 87 19 83 20 84 21 73 22 74 23 78 24
REMARK SMILES IDX 75 25 77 26 76 27 12 28 13 29 14 30 15 31 16 32 17 33 18 34
REMARK SMILES IDX 19 35 20 36 72 37 21 38 71 39 22 40 23 41 24 42 65 43 25 44
REMARK SMILES IDX 70 45 64 46 66 47 26 48 69 49 63 50 62 51 27 53 53 54 36 55
REMARK SMILES IDX 52 56 37 57 40 58 51 59 67 60 38 61 39 62 50 64 68 65 41 66
REMARK SMILES IDX 28 67 29 68 34 69 30 70 31 71 33 72 35 73 32 74 54 75 55 76
REMARK SMILES IDX 60 77 56 78 57 79 59 80 61 81 58 82 42 83 43 84 48 85 44 86
REMARK SMILES IDX 45 87 47 88 49 89 46 90
REMARK H PARENT 79 13 66 52 40 63
REMARK Flexibility Score: inf
ROOT
ATOM      1  C   UNL A   1      34.276  29.961  27.669  1.00  0.00     0.188 C 
ENDROOT
BRANCH   1   2
ATOM      2  O   UNL A   1      34.717  28.838  26.912  1.00  0.00    -0.376 OA
BRANCH   2   3
ATOM      3  C   UNL A   1      33.762  27.880  26.476  1.00  0.00     0.202 C 
BRANCH   3   4
ATOM      4  C   UNL A   1      33.658  27.680  24.964  1.00  0.00     0.261 C 
BRANCH   4   5
ATOM      5  O   UNL A   1      32.322  27.896  24.469  1.00  0.00    -0.463 OA
BRANCH   5   6
ATOM      6  C   UNL A   1      32.045  27.448  23.218  1.00  0.00     0.314 C 
ATOM      7  O   UNL A   1      32.873  27.354  22.317  1.00  0.00    -0.252 OA
BRANCH   6   8
ATOM      8  C   UNL A   1      30.589  27.027  23.019  1.00  0.00     0.138 C 
BRANCH   8   9
ATOM      9  C   UNL A   1      30.216  26.004  24.114  1.00  0.00     0.120 C 
BRANCH   9  10
ATOM     10  C   UNL A   1      30.832  24.599  24.059  1.00  0.00     0.225 C 
ATOM     11  O   UNL A   1      30.422  23.808  23.217  1.00  0.00    -0.275 OA
ATOM     12  N   UNL A   1      31.832  24.360  24.967  1.00  0.00    -0.325 N 
ATOM     13  H   UNL A   1      31.703  24.806  25.834  1.00  0.00     0.169 HD
BRANCH  12  14
ATOM     14  C   UNL A   1      33.018  23.589  24.881  1.00  0.00     0.060 A 
ATOM     15  C   UNL A   1      34.155  24.368  24.571  1.00  0.00     0.029 A 
ATOM     16  C   UNL A   1      33.178  22.193  24.938  1.00  0.00     0.066 A 
ATOM     17  C   UNL A   1      35.402  23.795  24.326  1.00  0.00     0.023 A 
ATOM     18  C   UNL A   1      34.446  21.623  24.719  1.00  0.00     0.043 A 
ATOM     19  Cl  UNL A   1      31.910  21.044  25.142  1.00  0.00    -0.082 Cl
ATOM     20  C   UNL A   1      35.543  22.418  24.409  1.00  0.00     0.042 A 
ATOM     21  Cl  UNL A   1      37.069  21.698  24.086  1.00  0.00    -0.084 Cl
ENDBRANCH  12  14
ENDBRANCH   9  10
ENDBRANCH   8   9
BRANCH   8  22
ATOM     22  C   UNL A   1      29.592  28.165  22.776  1.00  0.00    -0.033 A 
ATOM     23  C   UNL A   1      28.257  27.984  23.179  1.00  0.00     0.004 A 
ATOM     24  C   UNL A   1      29.962  29.428  22.276  1.00  0.00     0.004 A 
ATOM     25  C   UNL A   1      27.342  29.038  23.126  1.00  0.00     0.000 A 
ATOM     26  C   UNL A   1      29.048  30.484  22.238  1.00  0.00     0.000 A 
ATOM     27  C   UNL A   1      27.741  30.290  22.671  1.00  0.00     0.000 A 
ENDBRANCH   8  22
ENDBRANCH   6   8
ENDBRANCH   5   6
ENDBRANCH   4   5
ENDBRANCH   3   4
ENDBRANCH   2   3
ENDBRANCH   1   2
BRANCH   1  28
ATOM     28  C   UNL A   1      33.573  31.120  26.945  1.00  0.00     0.188 C 
BRANCH  28  29
ATOM     29  O   UNL A   1      32.158  31.014  26.965  1.00  0.00    -0.376 OA
BRANCH  29  30
ATOM     30  C   UNL A   1      31.460  32.249  26.985  1.00  0.00     0.202 C 
BRANCH  30  31
ATOM     31  C   UNL A   1      32.434  33.426  27.065  1.00  0.00     0.261 C 
BRANCH  31  32
ATOM     32  O   UNL A   1      32.330  34.201  28.273  1.00  0.00    -0.460 OA
BRANCH  32  33
ATOM     33  C   UNL A   1      33.421  34.905  28.643  1.00  0.00     0.338 C 
ATOM     34  O   UNL A   1      33.507  36.120  28.761  1.00  0.00    -0.246 OA
BRANCH  33  35
ATOM     35  C   UNL A   1      34.469  33.950  29.059  1.00  0.00     0.060 A 
ATOM     36  C   UNL A   1      34.191  33.032  30.079  1.00  0.00     0.016 A 
ATOM     37  C   UNL A   1      35.722  33.961  28.441  1.00  0.00     0.016 A 
ATOM     38  C   UNL A   1      35.180  32.141  30.506  1.00  0.00     0.010 A 
ATOM     39  C   UNL A   1      36.714  33.080  28.878  1.00  0.00     0.010 A 
ATOM     40  C   UNL A   1      36.459  32.185  29.932  1.00  0.00    -0.014 A 
BRANCH  40  41
ATOM     41  C   UNL A   1      37.584  31.423  30.529  1.00  0.00     0.031 A 
ATOM     42  C   UNL A   1      37.994  31.732  31.943  1.00  0.00     0.074 A 
ATOM     43  C   UNL A   1      38.253  30.491  29.829  1.00  0.00     0.049 A 
ATOM     44  N   UNL A   1      38.996  31.263  32.642  1.00  0.00    -0.248 NA
ATOM     45  C   UNL A   1      37.165  32.713  32.659  1.00  0.00     0.031 C 
ATOM     46  C   UNL A   1      37.947  30.075  28.464  1.00  0.00     0.029 A 
ATOM     47  N   UNL A   1      39.349  29.738  30.177  1.00  0.00    -0.354 N 
ATOM     48  C   UNL A   1      38.920  31.893  33.877  1.00  0.00     0.074 A 
ATOM     49  C   UNL A   1      37.794  32.802  33.820  1.00  0.00     0.031 C 
ATOM     50  C   UNL A   1      38.845  29.150  28.080  1.00  0.00     0.029 A 
ATOM     51  C   UNL A   1      39.806  28.935  29.161  1.00  0.00     0.049 A 
ATOM     52  H   UNL A   1      39.765  29.772  31.067  1.00  0.00     0.167 HD
ATOM     53  C   UNL A   1      39.709  31.727  34.965  1.00  0.00     0.037 A 
ATOM     54  C   UNL A   1      40.889  28.135  29.105  1.00  0.00     0.037 A 
ATOM     55  C   UNL A   1      40.834  30.831  35.025  1.00  0.00     0.049 A 
ATOM     56  C   UNL A   1      41.798  28.017  30.301  1.00  0.00     0.074 A 
ATOM     57  C   UNL A   1      41.679  30.579  36.092  1.00  0.00     0.029 A 
ATOM     58  N   UNL A   1      41.278  30.051  33.969  1.00  0.00    -0.354 N 
ATOM     59  N   UNL A   1      41.702  28.594  31.474  1.00  0.00    -0.248 NA
ATOM     60  C   UNL A   1      42.967  27.135  30.162  1.00  0.00     0.031 C 
ATOM     61  C   UNL A   1      42.665  29.681  35.665  1.00  0.00     0.029 A 
ATOM     62  C   UNL A   1      42.404  29.337  34.348  1.00  0.00     0.049 A 
ATOM     63  H   UNL A   1      40.856  30.009  33.080  1.00  0.00     0.167 HD
ATOM     64  C   UNL A   1      42.780  28.128  32.219  1.00  0.00     0.074 A 
ATOM     65  C   UNL A   1      43.511  27.212  31.369  1.00  0.00     0.031 C 
ATOM     66  C   UNL A   1      43.128  28.429  33.494  1.00  0.00     0.037 A 
BRANCH  53  67
ATOM     67  C   UNL A   1      39.393  32.563  36.170  1.00  0.00     0.057 A 
ATOM     68  C   UNL A   1      39.985  33.816  36.378  1.00  0.00     0.134 A 
ATOM     69  C   UNL A   1      38.485  32.108  37.134  1.00  0.00     0.134 A 
ATOM     70  F   UNL A   1      40.875  34.301  35.500  1.00  0.00    -0.206 F 
ATOM     71  C   UNL A   1      39.708  34.572  37.518  1.00  0.00     0.040 A 
ATOM     72  C   UNL A   1      38.180  32.867  38.264  1.00  0.00     0.040 A 
ATOM     73  F   UNL A   1      37.880  30.919  36.994  1.00  0.00    -0.206 F 
ATOM     74  C   UNL A   1      38.800  34.099  38.463  1.00  0.00     0.006 A 
ENDBRANCH  53  67
BRANCH  54  75
ATOM     75  C   UNL A   1      41.188  27.388  27.857  1.00  0.00     0.057 A 
ATOM     76  C   UNL A   1      41.932  27.969  26.824  1.00  0.00     0.134 A 
ATOM     77  C   UNL A   1      40.727  26.080  27.663  1.00  0.00     0.134 A 
ATOM     78  F   UNL A   1      42.374  29.231  26.938  1.00  0.00    -0.206 F 
ATOM     79  C   UNL A   1      42.202  27.280  25.641  1.00  0.00     0.040 A 
ATOM     80  C   UNL A   1      41.009  25.370  26.496  1.00  0.00     0.040 A 
ATOM     81  F   UNL A   1      40.002  25.471  28.613  1.00  0.00    -0.206 F 
ATOM     82  C   UNL A   1      41.745  25.973  25.478  1.00  0.00     0.006 A 
ENDBRANCH  54  75
BRANCH  66  83
ATOM     83  C   UNL A   1      44.338  27.746  34.062  1.00  0.00     0.057 A 
ATOM     84  C   UNL A   1      45.609  28.334  34.020  1.00  0.00     0.134 A 
ATOM     85  C   UNL A   1      44.223  26.505  34.702  1.00  0.00     0.134 A 
ATOM     86  F   UNL A   1      45.791  29.517  33.412  1.00  0.00    -0.206 F 
ATOM     87  C   UNL A   1      46.724  27.704  34.577  1.00  0.00     0.040 A 
ATOM     88  C   UNL A   1      45.326  25.876  35.283  1.00  0.00     0.040 A 
ATOM     89  F   UNL A   1      43.034  25.890  34.788  1.00  0.00    -0.206 F 
ATOM     90  C   UNL A   1      46.582  26.474  35.217  1.00  0.00     0.006 A 
ENDBRANCH  66  83
ENDBRANCH  40  41
ENDBRANCH  33  35
ENDBRANCH  32  33
ENDBRANCH  31  32
ENDBRANCH  30  31
ENDBRANCH  29  30
ENDBRANCH  28  29
ENDBRANCH   1  28
TORSDOF 21
ENDMDL
MODEL 3
REMARK VINA RESULT:     -10.8      1.172      2.069
REMARK SMILES O=C(C[C@H](C(=O)OCCOCCOCCOC(=O)c1ccc(-c2c3nc(c(-c4c(F)cccc4F)c4ccc([nH]4)c(-c4c(F)cccc4F)c4nc(c(-c5c(F)cccc5F)c5ccc2[nH]5)C=C4)C=C3)cc1)c1ccccc1)Nc1ccc(Cl)cc1Cl
REMARK SMILES IDX 11 1 10 2 9 3 8 4 7 5 5 6 6 7 4 8 3 9 2 10 1 11 79 12 80 14
REMARK SMILES IDX 81 15 86 16 82 17 85 18 87 19 83 20 84 21 73 22 74 23 78 24
REMARK SMILES IDX 75 25 77 26 76 27 12 28 13 29 14 30 15 31 16 32 17 33 18 34
REMARK SMILES IDX 19 35 20 36 72 37 21 38 71 39 22 40 23 41 24 42 65 43 25 44
REMARK SMILES IDX 70 45 64 46 66 47 26 48 69 49 63 50 62 51 27 53 53 54 36 55
REMARK SMILES IDX 52 56 37 57 40 58 51 59 67 60 38 61 39 62 50 64 68 65 41 66
REMARK SMILES IDX 28 67 29 68 34 69 30 70 31 71 33 72 35 73 32 74 54 75 55 76
REMARK SMILES IDX 60 77 56 78 57 79 59 80 61 81 58 82 42 83 43 84 48 85 44 86
REMARK SMILES IDX 45 87 47 88 49 89 46 90
REMARK H PARENT 79 13 66 52 40 63
REMARK Flexibility Score: inf
ROOT
ATOM      1  C   UNL A   1      33.560  31.115  27.081  1.00  0.00     0.188 C 
ENDROOT
BRANCH   1   2
ATOM      2  O   UNL A   1      34.568  30.319  27.696  1.00  0.00    -0.376 OA
BRANCH   2   3
ATOM      3  C   UNL A   1      34.800  29.003  27.214  1.00  0.00     0.202 C 
BRANCH   3   4
ATOM      4  C   UNL A   1      33.710  28.417  26.317  1.00  0.00     0.261 C 
BRANCH   4   5
ATOM      5  O   UNL A   1      32.629  27.834  27.070  1.00  0.00    -0.463 OA
BRANCH   5   6
ATOM      6  C   UNL A   1      31.627  27.251  26.366  1.00  0.00     0.314 C 
ATOM      7  O   UNL A   1      30.656  26.697  26.872  1.00  0.00    -0.252 OA
BRANCH   6   8
ATOM      8  C   UNL A   1      31.785  27.367  24.850  1.00  0.00     0.138 C 
BRANCH   8   9
ATOM      9  C   UNL A   1      31.744  25.949  24.239  1.00  0.00     0.120 C 
BRANCH   9  10
ATOM     10  C   UNL A   1      32.311  24.774  25.048  1.00  0.00     0.225 C 
ATOM     11  O   UNL A   1      31.539  23.916  25.461  1.00  0.00    -0.275 OA
ATOM     12  N   UNL A   1      33.672  24.779  25.216  1.00  0.00    -0.325 N 
ATOM     13  H   UNL A   1      34.062  25.677  25.315  1.00  0.00     0.169 HD
BRANCH  12  14
ATOM     14  C   UNL A   1      34.619  23.726  25.271  1.00  0.00     0.060 A 
ATOM     15  C   UNL A   1      35.390  23.624  24.091  1.00  0.00     0.029 A 
ATOM     16  C   UNL A   1      34.793  22.736  26.253  1.00  0.00     0.066 A 
ATOM     17  C   UNL A   1      36.299  22.585  23.888  1.00  0.00     0.023 A 
ATOM     18  C   UNL A   1      35.734  21.707  26.055  1.00  0.00     0.043 A 
ATOM     19  Cl  UNL A   1      33.856  22.571  27.690  1.00  0.00    -0.082 Cl
ATOM     20  C   UNL A   1      36.471  21.632  24.879  1.00  0.00     0.042 A 
ATOM     21  Cl  UNL A   1      37.571  20.335  24.631  1.00  0.00    -0.084 Cl
ENDBRANCH  12  14
ENDBRANCH   9  10
ENDBRANCH   8   9
BRANCH   8  22
ATOM     22  C   UNL A   1      30.922  28.432  24.167  1.00  0.00    -0.033 A 
ATOM     23  C   UNL A   1      30.072  28.037  23.119  1.00  0.00     0.004 A 
ATOM     24  C   UNL A   1      30.845  29.767  24.607  1.00  0.00     0.004 A 
ATOM     25  C   UNL A   1      29.151  28.928  22.565  1.00  0.00     0.000 A 
ATOM     26  C   UNL A   1      29.912  30.653  24.060  1.00  0.00     0.000 A 
ATOM     27  C   UNL A   1      29.060  30.230  23.046  1.00  0.00     0.000 A 
ENDBRANCH   8  22
ENDBRANCH   6   8
ENDBRANCH   5   6
ENDBRANCH   4   5
ENDBRANCH   3   4
ENDBRANCH   2   3
ENDBRANCH   1   2
BRANCH   1  28
ATOM     28  C   UNL A   1      33.157  32.446  27.734  1.00  0.00     0.188 C 
BRANCH  28  29
ATOM     29  O   UNL A   1      34.228  33.081  28.414  1.00  0.00    -0.376 OA
BRANCH  29  30
ATOM     30  C   UNL A   1      33.855  34.167  29.248  1.00  0.00     0.202 C 
BRANCH  30  31
ATOM     31  C   UNL A   1      34.414  33.988  30.660  1.00  0.00     0.261 C 
BRANCH  31  32
ATOM     32  O   UNL A   1      34.562  32.617  31.071  1.00  0.00    -0.460 OA
BRANCH  32  33
ATOM     33  C   UNL A   1      35.449  32.368  32.058  1.00  0.00     0.338 C 
ATOM     34  O   UNL A   1      35.303  32.591  33.252  1.00  0.00    -0.246 OA
BRANCH  33  35
ATOM     35  C   UNL A   1      36.579  31.609  31.483  1.00  0.00     0.060 A 
ATOM     36  C   UNL A   1      37.538  31.057  32.342  1.00  0.00     0.016 A 
ATOM     37  C   UNL A   1      36.691  31.443  30.101  1.00  0.00     0.016 A 
ATOM     38  C   UNL A   1      38.630  30.361  31.816  1.00  0.00     0.010 A 
ATOM     39  C   UNL A   1      37.791  30.760  29.575  1.00  0.00     0.010 A 
ATOM     40  C   UNL A   1      38.782  30.240  30.427  1.00  0.00    -0.014 A 
BRANCH  40  41
ATOM     41  C   UNL A   1      40.045  29.723  29.845  1.00  0.00     0.031 A 
ATOM     42  C   UNL A   1      41.202  30.670  29.676  1.00  0.00     0.074 A 
ATOM     43  C   UNL A   1      40.164  28.446  29.445  1.00  0.00     0.049 A 
ATOM     44  N   UNL A   1      42.367  30.470  29.115  1.00  0.00    -0.248 NA
ATOM     45  C   UNL A   1      41.009  32.029  30.205  1.00  0.00     0.031 C 
ATOM     46  C   UNL A   1      39.135  27.418  29.571  1.00  0.00     0.029 A 
ATOM     47  N   UNL A   1      41.212  27.804  28.829  1.00  0.00    -0.354 N 
ATOM     48  C   UNL A   1      43.045  31.678  29.220  1.00  0.00     0.074 A 
ATOM     49  C   UNL A   1      42.149  32.612  29.868  1.00  0.00     0.031 C 
ATOM     50  C   UNL A   1      39.595  26.274  29.034  1.00  0.00     0.029 A 
ATOM     51  C   UNL A   1      40.938  26.500  28.498  1.00  0.00     0.049 A 
ATOM     52  H   UNL A   1      42.075  28.237  28.643  1.00  0.00     0.167 HD
ATOM     53  C   UNL A   1      44.303  31.982  28.821  1.00  0.00     0.037 A 
ATOM     54  C   UNL A   1      41.677  25.599  27.821  1.00  0.00     0.037 A 
ATOM     55  C   UNL A   1      45.195  31.060  28.169  1.00  0.00     0.049 A 
ATOM     56  C   UNL A   1      43.047  25.978  27.321  1.00  0.00     0.074 A 
ATOM     57  C   UNL A   1      46.497  31.272  27.748  1.00  0.00     0.029 A 
ATOM     58  N   UNL A   1      44.873  29.755  27.832  1.00  0.00    -0.354 N 
ATOM     59  N   UNL A   1      43.692  27.112  27.449  1.00  0.00    -0.248 NA
ATOM     60  C   UNL A   1      43.791  24.948  26.579  1.00  0.00     0.031 C 
ATOM     61  C   UNL A   1      46.945  30.108  27.112  1.00  0.00     0.029 A 
ATOM     62  C   UNL A   1      45.940  29.156  27.182  1.00  0.00     0.049 A 
ATOM     63  H   UNL A   1      44.013  29.317  28.027  1.00  0.00     0.167 HD
ATOM     64  C   UNL A   1      44.922  26.926  26.829  1.00  0.00     0.074 A 
ATOM     65  C   UNL A   1      44.938  25.565  26.333  1.00  0.00     0.031 C 
ATOM     66  C   UNL A   1      45.947  27.802  26.688  1.00  0.00     0.037 A 
BRANCH  53  67
ATOM     67  C   UNL A   1      44.771  33.388  29.055  1.00  0.00     0.057 A 
ATOM     68  C   UNL A   1      45.461  33.756  30.217  1.00  0.00     0.134 A 
ATOM     69  C   UNL A   1      44.527  34.387  28.103  1.00  0.00     0.134 A 
ATOM     70  F   UNL A   1      45.711  32.850  31.174  1.00  0.00    -0.206 F 
ATOM     71  C   UNL A   1      45.864  35.074  30.440  1.00  0.00     0.040 A 
ATOM     72  C   UNL A   1      44.949  35.701  28.303  1.00  0.00     0.040 A 
ATOM     73  F   UNL A   1      43.875  34.101  26.966  1.00  0.00    -0.206 F 
ATOM     74  C   UNL A   1      45.612  36.050  29.478  1.00  0.00     0.006 A 
ENDBRANCH  53  67
BRANCH  54  75
ATOM     75  C   UNL A   1      41.128  24.244  27.558  1.00  0.00     0.057 A 
ATOM     76  C   UNL A   1      40.118  24.043  26.611  1.00  0.00     0.134 A 
ATOM     77  C   UNL A   1      41.593  23.123  28.256  1.00  0.00     0.134 A 
ATOM     78  F   UNL A   1      39.610  25.083  25.934  1.00  0.00    -0.206 F 
ATOM     79  C   UNL A   1      39.585  22.774  26.372  1.00  0.00     0.040 A 
ATOM     80  C   UNL A   1      41.086  21.847  28.011  1.00  0.00     0.040 A 
ATOM     81  F   UNL A   1      42.555  23.253  29.182  1.00  0.00    -0.206 F 
ATOM     82  C   UNL A   1      40.075  21.671  27.068  1.00  0.00     0.006 A 
ENDBRANCH  54  75
BRANCH  66  83
ATOM     83  C   UNL A   1      47.185  27.314  25.993  1.00  0.00     0.057 A 
ATOM     84  C   UNL A   1      48.219  26.670  26.685  1.00  0.00     0.134 A 
ATOM     85  C   UNL A   1      47.324  27.450  24.605  1.00  0.00     0.134 A 
ATOM     86  F   UNL A   1      48.153  26.517  28.017  1.00  0.00    -0.206 F 
ATOM     87  C   UNL A   1      49.354  26.194  26.025  1.00  0.00     0.040 A 
ATOM     88  C   UNL A   1      48.443  26.957  23.931  1.00  0.00     0.040 A 
ATOM     89  F   UNL A   1      46.368  28.048  23.880  1.00  0.00    -0.206 F 
ATOM     90  C   UNL A   1      49.464  26.332  24.642  1.00  0.00     0.006 A 
ENDBRANCH  66  83
ENDBRANCH  40  41
ENDBRANCH  33  35
ENDBRANCH  32  33
ENDBRANCH  31  32
ENDBRANCH  30  31
ENDBRANCH  29  30
ENDBRANCH  28  29
ENDBRANCH   1  28
TORSDOF 21
ENDMDL
