MODEL 1
REMARK VINA RESULT:     -11.4      0.000      0.000
REMARK SMILES C[N@@H+]1CCN(C(=O)c2ccc3[nH]c4c(c3c2)CSCC4)C[C@H]1C(=O)OCCOCCOCCOC(=O)c1ccc(-c2c3nc(c(-c4c(F)cccc4F)c4ccc([nH]4)c(-c4c(F)cccc4F)c4nc(c(-c5c(F)cccc5F)c5ccc2[nH]5)C=C4)C=C3)cc1
REMARK SMILES IDX 29 1 28 2 27 3 26 4 25 5 23 6 24 7 22 8 1 9 2 10 3 11 4 13
REMARK SMILES IDX 21 14 5 15 6 16 7 17 8 18 9 19 16 20 10 21 15 22 11 23 14 24
REMARK SMILES IDX 12 25 13 26 17 27 20 29 18 30 19 31 30 32 31 33 32 34 33 35
REMARK SMILES IDX 34 36 35 37 36 38 37 39 38 40 90 41 39 42 89 43 40 44 41 45
REMARK SMILES IDX 42 46 83 47 43 48 88 49 82 50 84 51 44 52 87 53 81 54 80 55
REMARK SMILES IDX 45 57 71 58 54 59 70 60 55 61 58 62 69 63 85 64 56 65 57 66
REMARK SMILES IDX 68 68 86 69 59 70 46 71 47 72 52 73 48 74 49 75 51 76 53 77
REMARK SMILES IDX 50 78 72 79 73 80 78 81 74 82 75 83 77 84 79 85 76 86 60 87
REMARK SMILES IDX 61 88 66 89 62 90 63 91 65 92 67 93 64 94
REMARK H PARENT 2 12 12 28 84 56 58 67
REMARK Flexibility Score: inf
ROOT
ATOM      1  C   UNL A   1      40.642  22.096  26.156  1.00  0.00     0.188 C 
ENDROOT
BRANCH   1   2
ATOM      2  O   UNL A   1      39.266  22.131  26.424  1.00  0.00    -0.376 OA
BRANCH   2   3
ATOM      3  C   UNL A   1      38.617  23.401  26.498  1.00  0.00     0.202 C 
BRANCH   3   4
ATOM      4  C   UNL A   1      37.328  23.655  25.660  1.00  0.00     0.261 C 
BRANCH   4   5
ATOM      5  O   UNL A   1      37.210  23.266  24.214  1.00  0.00    -0.459 OA
BRANCH   5   6
ATOM      6  C   UNL A   1      35.932  23.051  23.827  1.00  0.00     0.366 C 
ATOM      7  O   UNL A   1      35.695  23.333  22.651  1.00  0.00    -0.245 OA
BRANCH   6   8
ATOM      8  C   UNL A   1      34.712  22.565  24.733  1.00  0.00     0.314 C 
ATOM      9  C   UNL A   1      35.424  20.230  25.002  1.00  0.00     0.333 C 
ATOM     10  N   UNL A   1      34.662  21.344  25.578  1.00  0.00    -0.323 N 
ATOM     11  C   UNL A   1      33.156  20.964  25.763  1.00  0.00     0.284 C 
ATOM     12  H   UNL A   1      35.101  21.536  26.479  1.00  0.00     0.348 HD
ATOM     13  C   UNL A   1      31.865  22.088  25.692  1.00  0.00     0.181 C 
ATOM     14  C   UNL A   1      33.651  23.526  25.349  1.00  0.00     0.197 C 
ATOM     15  N   UNL A   1      32.169  23.316  24.886  1.00  0.00    -0.326 N 
BRANCH  15  16
ATOM     16  C   UNL A   1      30.953  24.221  24.108  1.00  0.00     0.254 C 
ATOM     17  O   UNL A   1      30.499  23.587  23.128  1.00  0.00    -0.269 OA
BRANCH  16  18
ATOM     18  C   UNL A   1      30.099  25.924  24.322  1.00  0.00     0.040 A 
ATOM     19  C   UNL A   1      29.687  27.065  23.557  1.00  0.00     0.016 A 
ATOM     20  C   UNL A   1      30.790  26.627  25.252  1.00  0.00     0.024 A 
ATOM     21  C   UNL A   1      30.156  28.512  23.571  1.00  0.00     0.027 A 
ATOM     22  C   UNL A   1      31.529  28.090  25.399  1.00  0.00     0.004 A 
ATOM     23  C   UNL A   1      31.022  29.026  24.551  1.00  0.00     0.046 A 
ATOM     24  C   UNL A   1      32.755  28.798  26.053  1.00  0.00    -0.009 A 
ATOM     25  N   UNL A   1      31.448  30.256  25.025  1.00  0.00    -0.358 N 
ATOM     26  C   UNL A   1      32.399  30.131  26.024  1.00  0.00     0.021 A 
ATOM     27  C   UNL A   1      34.030  28.365  26.806  1.00  0.00     0.107 C 
ATOM     28  H   UNL A   1      31.114  31.120  24.690  1.00  0.00     0.166 HD
ATOM     29  C   UNL A   1      32.961  31.242  26.893  1.00  0.00     0.065 C 
ATOM     30  S   UNL A   1      35.190  29.701  27.262  1.00  0.00    -0.157 SA
ATOM     31  C   UNL A   1      33.938  30.770  27.995  1.00  0.00     0.076 C 
ENDBRANCH  16  18
ENDBRANCH  15  16
ENDBRANCH   6   8
ENDBRANCH   5   6
ENDBRANCH   4   5
ENDBRANCH   3   4
ENDBRANCH   2   3
ENDBRANCH   1   2
BRANCH   1  32
ATOM     32  C   UNL A   1      41.620  21.788  27.286  1.00  0.00     0.188 C 
BRANCH  32  33
ATOM     33  O   UNL A   1      42.869  21.152  27.119  1.00  0.00    -0.376 OA
BRANCH  33  34
ATOM     34  C   UNL A   1      43.197  20.855  25.768  1.00  0.00     0.202 C 
BRANCH  34  35
ATOM     35  C   UNL A   1      44.253  21.730  25.024  1.00  0.00     0.261 C 
BRANCH  35  36
ATOM     36  O   UNL A   1      43.747  22.964  24.467  1.00  0.00    -0.460 OA
BRANCH  36  37
ATOM     37  C   UNL A   1      44.246  24.121  25.017  1.00  0.00     0.338 C 
ATOM     38  O   UNL A   1      45.176  24.732  24.629  1.00  0.00    -0.246 OA
BRANCH  37  39
ATOM     39  C   UNL A   1      43.165  24.701  25.907  1.00  0.00     0.060 A 
ATOM     40  C   UNL A   1      41.989  25.369  25.513  1.00  0.00     0.016 A 
ATOM     41  C   UNL A   1      43.584  24.858  27.205  1.00  0.00     0.016 A 
ATOM     42  C   UNL A   1      41.420  26.410  26.326  1.00  0.00     0.010 A 
ATOM     43  C   UNL A   1      43.019  25.882  27.957  1.00  0.00     0.010 A 
ATOM     44  C   UNL A   1      42.046  26.816  27.515  1.00  0.00    -0.014 A 
BRANCH  44  45
ATOM     45  C   UNL A   1      41.437  27.797  28.593  1.00  0.00     0.031 A 
ATOM     46  C   UNL A   1      42.621  29.062  28.040  1.00  0.00     0.074 A 
ATOM     47  C   UNL A   1      40.210  27.846  29.575  1.00  0.00     0.049 A 
ATOM     48  N   UNL A   1      43.790  29.434  28.538  1.00  0.00    -0.248 NA
ATOM     49  C   UNL A   1      42.452  29.756  26.727  1.00  0.00     0.031 C 
ATOM     50  C   UNL A   1      38.902  27.206  30.253  1.00  0.00     0.029 A 
ATOM     51  N   UNL A   1      39.807  28.954  30.339  1.00  0.00    -0.354 N 
ATOM     52  C   UNL A   1      44.284  30.527  27.801  1.00  0.00     0.074 A 
ATOM     53  C   UNL A   1      43.553  30.496  26.575  1.00  0.00     0.031 C 
ATOM     54  C   UNL A   1      37.983  28.210  30.778  1.00  0.00     0.029 A 
ATOM     55  C   UNL A   1      38.593  29.606  30.721  1.00  0.00     0.049 A 
ATOM     56  H   UNL A   1      40.587  29.417  30.722  1.00  0.00     0.167 HD
ATOM     57  C   UNL A   1      45.069  31.546  28.281  1.00  0.00     0.037 A 
ATOM     58  C   UNL A   1      38.387  31.106  31.126  1.00  0.00     0.037 A 
ATOM     59  C   UNL A   1      45.191  31.551  29.716  1.00  0.00     0.049 A 
ATOM     60  C   UNL A   1      39.604  32.452  31.852  1.00  0.00     0.074 A 
ATOM     61  C   UNL A   1      46.166  31.230  30.624  1.00  0.00     0.029 A 
ATOM     62  N   UNL A   1      44.159  32.166  30.399  1.00  0.00    -0.354 N 
ATOM     63  N   UNL A   1      40.508  32.392  32.918  1.00  0.00    -0.248 NA
ATOM     64  C   UNL A   1      40.247  33.462  30.922  1.00  0.00     0.031 C 
ATOM     65  C   UNL A   1      45.708  31.730  31.883  1.00  0.00     0.029 A 
ATOM     66  C   UNL A   1      44.350  32.106  31.757  1.00  0.00     0.049 A 
ATOM     67  H   UNL A   1      43.384  32.591  29.966  1.00  0.00     0.167 HD
ATOM     68  C   UNL A   1      41.903  32.678  32.458  1.00  0.00     0.074 A 
ATOM     69  C   UNL A   1      41.553  33.549  31.309  1.00  0.00     0.031 C 
ATOM     70  C   UNL A   1      43.192  32.010  32.722  1.00  0.00     0.037 A 
BRANCH  57  71
ATOM     71  C   UNL A   1      45.525  32.883  27.658  1.00  0.00     0.057 A 
ATOM     72  C   UNL A   1      46.791  33.140  27.124  1.00  0.00     0.134 A 
ATOM     73  C   UNL A   1      44.525  33.811  27.250  1.00  0.00     0.134 A 
ATOM     74  F   UNL A   1      47.863  32.413  27.448  1.00  0.00    -0.206 F 
ATOM     75  C   UNL A   1      47.014  34.139  26.157  1.00  0.00     0.040 A 
ATOM     76  C   UNL A   1      44.718  34.759  26.237  1.00  0.00     0.040 A 
ATOM     77  F   UNL A   1      43.297  33.798  27.793  1.00  0.00    -0.206 F 
ATOM     78  C   UNL A   1      45.967  34.904  25.663  1.00  0.00     0.006 A 
ENDBRANCH  57  71
BRANCH  58  79
ATOM     79  C   UNL A   1      37.134  31.827  30.639  1.00  0.00     0.057 A 
ATOM     80  C   UNL A   1      37.109  32.560  29.445  1.00  0.00     0.134 A 
ATOM     81  C   UNL A   1      36.015  32.014  31.472  1.00  0.00     0.134 A 
ATOM     82  F   UNL A   1      38.096  32.462  28.554  1.00  0.00    -0.206 F 
ATOM     83  C   UNL A   1      36.086  33.465  29.129  1.00  0.00     0.040 A 
ATOM     84  C   UNL A   1      34.976  32.904  31.164  1.00  0.00     0.040 A 
ATOM     85  F   UNL A   1      35.907  31.369  32.642  1.00  0.00    -0.206 F 
ATOM     86  C   UNL A   1      35.020  33.652  29.997  1.00  0.00     0.006 A 
ENDBRANCH  58  79
BRANCH  70  87
ATOM     87  C   UNL A   1      43.643  30.814  33.780  1.00  0.00     0.057 A 
ATOM     88  C   UNL A   1      44.193  30.987  35.046  1.00  0.00     0.134 A 
ATOM     89  C   UNL A   1      43.680  29.406  33.414  1.00  0.00     0.134 A 
ATOM     90  F   UNL A   1      44.607  32.196  35.440  1.00  0.00    -0.206 F 
ATOM     91  C   UNL A   1      44.434  29.891  35.944  1.00  0.00     0.040 A 
ATOM     92  C   UNL A   1      43.856  28.317  34.303  1.00  0.00     0.040 A 
ATOM     93  F   UNL A   1      43.413  28.979  32.170  1.00  0.00    -0.206 F 
ATOM     94  C   UNL A   1      44.157  28.564  35.614  1.00  0.00     0.006 A 
ENDBRANCH  70  87
ENDBRANCH  44  45
ENDBRANCH  37  39
ENDBRANCH  36  37
ENDBRANCH  35  36
ENDBRANCH  34  35
ENDBRANCH  33  34
ENDBRANCH  32  33
ENDBRANCH   1  32
TORSDOF 19
ENDMDL
MODEL 2
REMARK VINA RESULT:     -11.3      3.744      9.288
REMARK SMILES C[N@@H+]1CCN(C(=O)c2ccc3[nH]c4c(c3c2)CSCC4)C[C@H]1C(=O)OCCOCCOCCOC(=O)c1ccc(-c2c3nc(c(-c4c(F)cccc4F)c4ccc([nH]4)c(-c4c(F)cccc4F)c4nc(c(-c5c(F)cccc5F)c5ccc2[nH]5)C=C4)C=C3)cc1
REMARK SMILES IDX 29 1 28 2 27 3 26 4 25 5 23 6 24 7 22 8 1 9 2 10 3 11 4 13
REMARK SMILES IDX 21 14 5 15 6 16 7 17 8 18 9 19 16 20 10 21 15 22 11 23 14 24
REMARK SMILES IDX 12 25 13 26 17 27 20 29 18 30 19 31 30 32 31 33 32 34 33 35
REMARK SMILES IDX 34 36 35 37 36 38 37 39 38 40 90 41 39 42 89 43 40 44 41 45
REMARK SMILES IDX 42 46 83 47 43 48 88 49 82 50 84 51 44 52 87 53 81 54 80 55
REMARK SMILES IDX 45 57 71 58 54 59 70 60 55 61 58 62 69 63 85 64 56 65 57 66
REMARK SMILES IDX 68 68 86 69 59 70 46 71 47 72 52 73 48 74 49 75 51 76 53 77
REMARK SMILES IDX 50 78 72 79 73 80 78 81 74 82 75 83 77 84 79 85 76 86 60 87
REMARK SMILES IDX 61 88 66 89 62 90 63 91 65 92 67 93 64 94
REMARK H PARENT 2 12 12 28 84 56 58 67
REMARK Flexibility Score: inf
ROOT
ATOM      1  C   UNL A   1      32.818  31.301  27.251  1.00  0.00     0.188 C 
ENDROOT
BRANCH   1   2
ATOM      2  O   UNL A   1      32.422  30.072  26.704  1.00  0.00    -0.376 OA
BRANCH   2   3
ATOM      3  C   UNL A   1      33.252  28.930  26.918  1.00  0.00     0.202 C 
BRANCH   3   4
ATOM      4  C   UNL A   1      33.861  28.181  25.695  1.00  0.00     0.261 C 
BRANCH   4   5
ATOM      5  O   UNL A   1      34.089  28.846  24.368  1.00  0.00    -0.459 OA
BRANCH   5   6
ATOM      6  C   UNL A   1      33.367  28.290  23.368  1.00  0.00     0.366 C 
ATOM      7  O   UNL A   1      33.760  28.568  22.234  1.00  0.00    -0.245 OA
BRANCH   6   8
ATOM      8  C   UNL A   1      32.044  27.408  23.499  1.00  0.00     0.314 C 
ATOM      9  C   UNL A   1      30.428  29.171  22.939  1.00  0.00     0.333 C 
ATOM     10  N   UNL A   1      30.702  27.729  22.947  1.00  0.00    -0.323 N 
ATOM     11  C   UNL A   1      29.647  26.958  23.805  1.00  0.00     0.284 C 
ATOM     12  H   UNL A   1      30.659  27.439  21.970  1.00  0.00     0.348 HD
ATOM     13  C   UNL A   1      29.971  25.501  24.648  1.00  0.00     0.181 C 
ATOM     14  C   UNL A   1      32.047  25.860  23.678  1.00  0.00     0.197 C 
ATOM     15  N   UNL A   1      31.416  25.312  25.004  1.00  0.00    -0.326 N 
BRANCH  15  16
ATOM     16  C   UNL A   1      31.912  24.382  26.343  1.00  0.00     0.254 C 
ATOM     17  O   UNL A   1      31.047  24.428  27.248  1.00  0.00    -0.269 OA
BRANCH  16  18
ATOM     18  C   UNL A   1      33.413  23.297  26.837  1.00  0.00     0.040 A 
ATOM     19  C   UNL A   1      34.832  23.213  26.652  1.00  0.00     0.016 A 
ATOM     20  C   UNL A   1      33.152  22.021  26.461  1.00  0.00     0.024 A 
ATOM     21  C   UNL A   1      35.699  22.183  25.942  1.00  0.00     0.027 A 
ATOM     22  C   UNL A   1      33.846  20.830  25.562  1.00  0.00     0.004 A 
ATOM     23  C   UNL A   1      35.198  20.958  25.470  1.00  0.00     0.046 A 
ATOM     24  C   UNL A   1      33.511  19.653  24.597  1.00  0.00    -0.009 A 
ATOM     25  N   UNL A   1      35.678  19.734  25.032  1.00  0.00    -0.358 N 
ATOM     26  C   UNL A   1      34.660  18.888  24.624  1.00  0.00     0.021 A 
ATOM     27  C   UNL A   1      32.261  19.124  23.863  1.00  0.00     0.107 C 
ATOM     28  H   UNL A   1      36.633  19.494  25.012  1.00  0.00     0.166 HD
ATOM     29  C   UNL A   1      34.786  17.421  24.253  1.00  0.00     0.065 C 
ATOM     30  S   UNL A   1      32.522  17.703  22.745  1.00  0.00    -0.157 SA
ATOM     31  C   UNL A   1      33.447  16.716  23.937  1.00  0.00     0.076 C 
ENDBRANCH  16  18
ENDBRANCH  15  16
ENDBRANCH   6   8
ENDBRANCH   5   6
ENDBRANCH   4   5
ENDBRANCH   3   4
ENDBRANCH   2   3
ENDBRANCH   1   2
BRANCH   1  32
ATOM     32  C   UNL A   1      34.289  31.537  27.578  1.00  0.00     0.188 C 
BRANCH  32  33
ATOM     33  O   UNL A   1      34.841  32.781  27.953  1.00  0.00    -0.376 OA
BRANCH  33  34
ATOM     34  C   UNL A   1      33.997  33.569  28.782  1.00  0.00     0.202 C 
BRANCH  34  35
ATOM     35  C   UNL A   1      34.443  33.899  30.240  1.00  0.00     0.261 C 
BRANCH  35  36
ATOM     36  O   UNL A   1      34.405  32.787  31.161  1.00  0.00    -0.460 OA
BRANCH  36  37
ATOM     37  C   UNL A   1      35.600  32.456  31.756  1.00  0.00     0.338 C 
ATOM     38  O   UNL A   1      35.829  32.463  32.912  1.00  0.00    -0.246 OA
BRANCH  37  39
ATOM     39  C   UNL A   1      36.410  31.679  30.737  1.00  0.00     0.060 A 
ATOM     40  C   UNL A   1      36.191  30.364  30.283  1.00  0.00     0.016 A 
ATOM     41  C   UNL A   1      37.648  32.232  30.522  1.00  0.00     0.016 A 
ATOM     42  C   UNL A   1      37.290  29.522  29.892  1.00  0.00     0.010 A 
ATOM     43  C   UNL A   1      38.689  31.386  30.155  1.00  0.00     0.010 A 
ATOM     44  C   UNL A   1      38.614  29.977  29.992  1.00  0.00    -0.014 A 
BRANCH  44  45
ATOM     45  C   UNL A   1      39.891  29.243  29.420  1.00  0.00     0.031 A 
ATOM     46  C   UNL A   1      40.257  28.670  31.108  1.00  0.00     0.074 A 
ATOM     47  C   UNL A   1      40.517  28.896  28.020  1.00  0.00     0.049 A 
ATOM     48  N   UNL A   1      41.087  29.142  32.024  1.00  0.00    -0.248 NA
ATOM     49  C   UNL A   1      39.436  27.601  31.755  1.00  0.00     0.031 C 
ATOM     50  C   UNL A   1      40.535  28.951  26.415  1.00  0.00     0.029 A 
ATOM     51  N   UNL A   1      41.626  28.063  27.795  1.00  0.00    -0.354 N 
ATOM     52  C   UNL A   1      41.079  28.289  33.144  1.00  0.00     0.074 A 
ATOM     53  C   UNL A   1      39.875  27.533  33.014  1.00  0.00     0.031 C 
ATOM     54  C   UNL A   1      41.290  27.857  25.816  1.00  0.00     0.029 A 
ATOM     55  C   UNL A   1      42.032  27.048  26.874  1.00  0.00     0.049 A 
ATOM     56  H   UNL A   1      42.328  28.225  28.467  1.00  0.00     0.167 HD
ATOM     57  C   UNL A   1      42.133  28.046  33.991  1.00  0.00     0.037 A 
ATOM     58  C   UNL A   1      43.062  25.889  27.104  1.00  0.00     0.037 A 
ATOM     59  C   UNL A   1      43.385  28.578  33.519  1.00  0.00     0.049 A 
ATOM     60  C   UNL A   1      44.566  25.690  28.336  1.00  0.00     0.074 A 
ATOM     61  C   UNL A   1      44.195  29.634  33.848  1.00  0.00     0.029 A 
ATOM     62  N   UNL A   1      44.065  27.785  32.614  1.00  0.00    -0.354 N 
ATOM     63  N   UNL A   1      45.622  26.556  28.641  1.00  0.00    -0.248 NA
ATOM     64  C   UNL A   1      44.381  24.916  29.627  1.00  0.00     0.031 C 
ATOM     65  C   UNL A   1      45.423  29.417  33.148  1.00  0.00     0.029 A 
ATOM     66  C   UNL A   1      45.234  28.378  32.206  1.00  0.00     0.049 A 
ATOM     67  H   UNL A   1      43.751  26.906  32.301  1.00  0.00     0.167 HD
ATOM     68  C   UNL A   1      45.637  26.896  30.098  1.00  0.00     0.074 A 
ATOM     69  C   UNL A   1      45.007  25.648  30.595  1.00  0.00     0.031 C 
ATOM     70  C   UNL A   1      45.789  28.176  30.816  1.00  0.00     0.037 A 
BRANCH  57  71
ATOM     71  C   UNL A   1      42.333  27.018  35.124  1.00  0.00     0.057 A 
ATOM     72  C   UNL A   1      41.981  27.207  36.465  1.00  0.00     0.134 A 
ATOM     73  C   UNL A   1      42.543  25.655  34.768  1.00  0.00     0.134 A 
ATOM     74  F   UNL A   1      41.809  28.422  36.992  1.00  0.00    -0.206 F 
ATOM     75  C   UNL A   1      41.717  26.133  37.335  1.00  0.00     0.040 A 
ATOM     76  C   UNL A   1      42.213  24.579  35.603  1.00  0.00     0.040 A 
ATOM     77  F   UNL A   1      43.035  25.316  33.566  1.00  0.00    -0.206 F 
ATOM     78  C   UNL A   1      41.766  24.819  36.888  1.00  0.00     0.006 A 
ENDBRANCH  57  71
BRANCH  58  79
ATOM     79  C   UNL A   1      42.751  24.512  26.525  1.00  0.00     0.057 A 
ATOM     80  C   UNL A   1      41.983  23.566  27.216  1.00  0.00     0.134 A 
ATOM     81  C   UNL A   1      43.420  24.017  25.390  1.00  0.00     0.134 A 
ATOM     82  F   UNL A   1      41.281  23.903  28.299  1.00  0.00    -0.206 F 
ATOM     83  C   UNL A   1      41.935  22.212  26.852  1.00  0.00     0.040 A 
ATOM     84  C   UNL A   1      43.370  22.670  25.003  1.00  0.00     0.040 A 
ATOM     85  F   UNL A   1      44.183  24.817  24.633  1.00  0.00    -0.206 F 
ATOM     86  C   UNL A   1      42.642  21.756  25.750  1.00  0.00     0.006 A 
ENDBRANCH  58  79
BRANCH  70  87
ATOM     87  C   UNL A   1      46.204  29.703  30.318  1.00  0.00     0.057 A 
ATOM     88  C   UNL A   1      45.420  30.577  29.572  1.00  0.00     0.134 A 
ATOM     89  C   UNL A   1      47.548  30.243  30.460  1.00  0.00     0.134 A 
ATOM     90  F   UNL A   1      44.291  30.147  29.000  1.00  0.00    -0.206 F 
ATOM     91  C   UNL A   1      45.816  31.931  29.296  1.00  0.00     0.040 A 
ATOM     92  C   UNL A   1      47.933  31.590  30.249  1.00  0.00     0.040 A 
ATOM     93  F   UNL A   1      48.568  29.518  30.946  1.00  0.00    -0.206 F 
ATOM     94  C   UNL A   1      47.024  32.473  29.734  1.00  0.00     0.006 A 
ENDBRANCH  70  87
ENDBRANCH  44  45
ENDBRANCH  37  39
ENDBRANCH  36  37
ENDBRANCH  35  36
ENDBRANCH  34  35
ENDBRANCH  33  34
ENDBRANCH  32  33
ENDBRANCH   1  32
TORSDOF 19
ENDMDL
MODEL 3
REMARK VINA RESULT:     -11.1      3.774      8.508
REMARK SMILES C[N@@H+]1CCN(C(=O)c2ccc3[nH]c4c(c3c2)CSCC4)C[C@H]1C(=O)OCCOCCOCCOC(=O)c1ccc(-c2c3nc(c(-c4c(F)cccc4F)c4ccc([nH]4)c(-c4c(F)cccc4F)c4nc(c(-c5c(F)cccc5F)c5ccc2[nH]5)C=C4)C=C3)cc1
REMARK SMILES IDX 29 1 28 2 27 3 26 4 25 5 23 6 24 7 22 8 1 9 2 10 3 11 4 13
REMARK SMILES IDX 21 14 5 15 6 16 7 17 8 18 9 19 16 20 10 21 15 22 11 23 14 24
REMARK SMILES IDX 12 25 13 26 17 27 20 29 18 30 19 31 30 32 31 33 32 34 33 35
REMARK SMILES IDX 34 36 35 37 36 38 37 39 38 40 90 41 39 42 89 43 40 44 41 45
REMARK SMILES IDX 42 46 83 47 43 48 88 49 82 50 84 51 44 52 87 53 81 54 80 55
REMARK SMILES IDX 45 57 71 58 54 59 70 60 55 61 58 62 69 63 85 64 56 65 57 66
REMARK SMILES IDX 68 68 86 69 59 70 46 71 47 72 52 73 48 74 49 75 51 76 53 77
REMARK SMILES IDX 50 78 72 79 73 80 78 81 74 82 75 83 77 84 79 85 76 86 60 87
REMARK SMILES IDX 61 88 66 89 62 90 63 91 65 92 67 93 64 94
REMARK H PARENT 2 12 12 28 84 56 58 67
REMARK Flexibility Score: inf
ROOT
ATOM      1  C   UNL A   1      32.053  29.047  27.077  1.00  0.00     0.188 C 
ENDROOT
BRANCH   1   2
ATOM      2  O   UNL A   1      31.688  28.033  26.180  1.00  0.00    -0.376 OA
BRANCH   2   3
ATOM      3  C   UNL A   1      31.951  26.677  26.540  1.00  0.00     0.202 C 
BRANCH   3   4
ATOM      4  C   UNL A   1      31.039  25.542  25.984  1.00  0.00     0.261 C 
BRANCH   4   5
ATOM      5  O   UNL A   1      30.309  24.578  26.875  1.00  0.00    -0.459 OA
BRANCH   5   6
ATOM      6  C   UNL A   1      30.504  23.286  26.527  1.00  0.00     0.366 C 
ATOM      7  O   UNL A   1      29.564  22.534  26.791  1.00  0.00    -0.245 OA
BRANCH   6   8
ATOM      8  C   UNL A   1      31.822  22.634  25.905  1.00  0.00     0.314 C 
ATOM      9  C   UNL A   1      32.959  22.134  28.024  1.00  0.00     0.333 C 
ATOM     10  N   UNL A   1      32.804  21.771  26.610  1.00  0.00    -0.323 N 
ATOM     11  C   UNL A   1      34.163  21.888  25.845  1.00  0.00     0.284 C 
ATOM     12  H   UNL A   1      32.470  20.807  26.611  1.00  0.00     0.348 HD
ATOM     13  C   UNL A   1      34.299  22.269  24.179  1.00  0.00     0.181 C 
ATOM     14  C   UNL A   1      31.990  22.290  24.395  1.00  0.00     0.197 C 
ATOM     15  N   UNL A   1      33.135  23.042  23.633  1.00  0.00    -0.326 N 
BRANCH  15  16
ATOM     16  C   UNL A   1      33.281  24.089  22.297  1.00  0.00     0.254 C 
ATOM     17  O   UNL A   1      33.293  23.434  21.230  1.00  0.00    -0.269 OA
BRANCH  16  18
ATOM     18  C   UNL A   1      33.428  25.975  21.985  1.00  0.00     0.040 A 
ATOM     19  C   UNL A   1      34.018  27.153  22.552  1.00  0.00     0.016 A 
ATOM     20  C   UNL A   1      32.175  26.485  21.890  1.00  0.00     0.024 A 
ATOM     21  C   UNL A   1      33.397  28.399  23.165  1.00  0.00     0.027 A 
ATOM     22  C   UNL A   1      31.267  27.672  22.579  1.00  0.00     0.004 A 
ATOM     23  C   UNL A   1      32.021  28.679  23.100  1.00  0.00     0.046 A 
ATOM     24  C   UNL A   1      29.814  28.017  23.026  1.00  0.00    -0.009 A 
ATOM     25  N   UNL A   1      31.164  29.749  23.296  1.00  0.00    -0.358 N 
ATOM     26  C   UNL A   1      29.836  29.394  23.126  1.00  0.00     0.021 A 
ATOM     27  C   UNL A   1      28.477  27.263  23.174  1.00  0.00     0.107 C 
ATOM     28  H   UNL A   1      31.464  30.658  23.529  1.00  0.00     0.166 HD
ATOM     29  C   UNL A   1      28.639  30.328  23.086  1.00  0.00     0.065 C 
ATOM     30  S   UNL A   1      27.084  28.220  23.870  1.00  0.00    -0.157 SA
ATOM     31  C   UNL A   1      27.290  29.639  22.777  1.00  0.00     0.076 C 
ENDBRANCH  16  18
ENDBRANCH  15  16
ENDBRANCH   6   8
ENDBRANCH   5   6
ENDBRANCH   4   5
ENDBRANCH   3   4
ENDBRANCH   2   3
ENDBRANCH   1   2
BRANCH   1  32
ATOM     32  C   UNL A   1      33.118  30.061  26.671  1.00  0.00     0.188 C 
BRANCH  32  33
ATOM     33  O   UNL A   1      33.180  31.393  27.133  1.00  0.00    -0.376 OA
BRANCH  33  34
ATOM     34  C   UNL A   1      34.205  31.633  28.090  1.00  0.00     0.202 C 
BRANCH  34  35
ATOM     35  C   UNL A   1      35.054  32.938  27.994  1.00  0.00     0.261 C 
BRANCH  35  36
ATOM     36  O   UNL A   1      36.452  32.787  28.326  1.00  0.00    -0.460 OA
BRANCH  36  37
ATOM     37  C   UNL A   1      36.765  32.871  29.663  1.00  0.00     0.338 C 
ATOM     38  O   UNL A   1      36.123  33.400  30.498  1.00  0.00    -0.246 OA
BRANCH  37  39
ATOM     39  C   UNL A   1      37.819  31.819  29.945  1.00  0.00     0.060 A 
ATOM     40  C   UNL A   1      39.153  32.022  30.349  1.00  0.00     0.016 A 
ATOM     41  C   UNL A   1      37.489  30.594  29.420  1.00  0.00     0.016 A 
ATOM     42  C   UNL A   1      40.194  31.111  29.952  1.00  0.00     0.010 A 
ATOM     43  C   UNL A   1      38.522  29.746  29.038  1.00  0.00     0.010 A 
ATOM     44  C   UNL A   1      39.913  30.019  29.117  1.00  0.00    -0.014 A 
BRANCH  44  45
ATOM     45  C   UNL A   1      40.907  28.842  28.766  1.00  0.00     0.031 A 
ATOM     46  C   UNL A   1      41.022  28.474  30.544  1.00  0.00     0.074 A 
ATOM     47  C   UNL A   1      41.430  28.090  27.488  1.00  0.00     0.049 A 
ATOM     48  N   UNL A   1      41.933  28.813  31.443  1.00  0.00    -0.248 NA
ATOM     49  C   UNL A   1      39.887  27.835  31.275  1.00  0.00     0.031 C 
ATOM     50  C   UNL A   1      41.513  27.868  25.899  1.00  0.00     0.029 A 
ATOM     51  N   UNL A   1      42.224  26.930  27.479  1.00  0.00    -0.354 N 
ATOM     52  C   UNL A   1      41.621  28.203  32.673  1.00  0.00     0.074 A 
ATOM     53  C   UNL A   1      40.244  27.845  32.561  1.00  0.00     0.031 C 
ATOM     54  C   UNL A   1      41.898  26.511  25.533  1.00  0.00     0.029 A 
ATOM     55  C   UNL A   1      42.314  25.701  26.756  1.00  0.00     0.049 A 
ATOM     56  H   UNL A   1      42.921  26.978  28.174  1.00  0.00     0.167 HD
ATOM     57  C   UNL A   1      42.518  27.792  33.629  1.00  0.00     0.037 A 
ATOM     58  C   UNL A   1      42.914  24.336  27.239  1.00  0.00     0.037 A 
ATOM     59  C   UNL A   1      43.888  27.825  33.185  1.00  0.00     0.049 A 
ATOM     60  C   UNL A   1      44.241  23.891  28.603  1.00  0.00     0.074 A 
ATOM     61  C   UNL A   1      44.981  28.619  33.417  1.00  0.00     0.029 A 
ATOM     62  N   UNL A   1      44.307  26.721  32.467  1.00  0.00    -0.354 N 
ATOM     63  N   UNL A   1      45.508  24.426  28.859  1.00  0.00    -0.248 NA
ATOM     64  C   UNL A   1      43.783  23.439  29.976  1.00  0.00     0.031 C 
ATOM     65  C   UNL A   1      46.096  27.919  32.859  1.00  0.00     0.029 A 
ATOM     66  C   UNL A   1      45.615  26.848  32.070  1.00  0.00     0.049 A 
ATOM     67  H   UNL A   1      43.739  25.943  32.264  1.00  0.00     0.167 HD
ATOM     68  C   UNL A   1      45.588  24.984  30.246  1.00  0.00     0.074 A 
ATOM     69  C   UNL A   1      44.579  24.093  30.871  1.00  0.00     0.031 C 
ATOM     70  C   UNL A   1      46.117  26.255  30.775  1.00  0.00     0.037 A 
BRANCH  57  71
ATOM     71  C   UNL A   1      42.348  26.957  34.916  1.00  0.00     0.057 A 
ATOM     72  C   UNL A   1      41.779  27.411  36.110  1.00  0.00     0.134 A 
ATOM     73  C   UNL A   1      42.422  25.538  34.812  1.00  0.00     0.134 A 
ATOM     74  F   UNL A   1      41.688  28.710  36.408  1.00  0.00    -0.206 F 
ATOM     75  C   UNL A   1      41.202  26.538  37.051  1.00  0.00     0.040 A 
ATOM     76  C   UNL A   1      41.787  24.665  35.706  1.00  0.00     0.040 A 
ATOM     77  F   UNL A   1      43.079  24.945  33.803  1.00  0.00    -0.206 F 
ATOM     78  C   UNL A   1      41.144  25.170  36.820  1.00  0.00     0.006 A 
ENDBRANCH  57  71
BRANCH  58  79
ATOM     79  C   UNL A   1      42.200  23.046  26.848  1.00  0.00     0.057 A 
ATOM     80  C   UNL A   1      40.933  22.712  27.345  1.00  0.00     0.134 A 
ATOM     81  C   UNL A   1      42.865  22.003  26.177  1.00  0.00     0.134 A 
ATOM     82  F   UNL A   1      40.183  23.611  27.985  1.00  0.00    -0.206 F 
ATOM     83  C   UNL A   1      40.392  21.423  27.248  1.00  0.00     0.040 A 
ATOM     84  C   UNL A   1      42.332  20.712  26.056  1.00  0.00     0.040 A 
ATOM     85  F   UNL A   1      44.082  22.188  25.645  1.00  0.00    -0.206 F 
ATOM     86  C   UNL A   1      41.098  20.411  26.614  1.00  0.00     0.006 A 
ENDBRANCH  58  79
BRANCH  70  87
ATOM     87  C   UNL A   1      47.010  27.474  30.089  1.00  0.00     0.057 A 
ATOM     88  C   UNL A   1      48.397  27.569  30.053  1.00  0.00     0.134 A 
ATOM     89  C   UNL A   1      46.417  28.706  29.593  1.00  0.00     0.134 A 
ATOM     90  F   UNL A   1      49.149  26.741  30.785  1.00  0.00    -0.206 F 
ATOM     91  C   UNL A   1      49.086  28.599  29.324  1.00  0.00     0.040 A 
ATOM     92  C   UNL A   1      47.073  29.697  28.821  1.00  0.00     0.040 A 
ATOM     93  F   UNL A   1      45.107  28.974  29.714  1.00  0.00    -0.206 F 
ATOM     94  C   UNL A   1      48.421  29.598  28.611  1.00  0.00     0.006 A 
ENDBRANCH  70  87
ENDBRANCH  44  45
ENDBRANCH  37  39
ENDBRANCH  36  37
ENDBRANCH  35  36
ENDBRANCH  34  35
ENDBRANCH  33  34
ENDBRANCH  32  33
ENDBRANCH   1  32
TORSDOF 19
ENDMDL
