MODEL 1
REMARK VINA RESULT:     -10.6      0.000      0.000
REMARK SMILES C[C@@H]1CN(C(=O)NC[C@@H]2CCC[C@@H]2C(=O)OCCOCCOCCOC(=O)c2ccc(-c3c4nc(c(-c5c(F)cccc5F)c5ccc([nH]5)c(-c5c(F)cccc5F)c5nc(c(-c6c(F)cccc6F)c6ccc3[nH]6)C=C5)C=C4)cc2)C[C@@H]1C
REMARK SMILES IDX 20 1 19 2 18 3 17 4 16 5 14 6 15 7 13 8 9 9 10 10 11 11
REMARK SMILES IDX 12 12 8 13 7 14 5 15 6 16 4 18 1 19 2 20 3 21 83 22 82 23
REMARK SMILES IDX 84 24 21 25 22 26 23 27 24 28 25 29 26 30 27 31 28 32 29 33
REMARK SMILES IDX 81 34 30 35 80 36 31 37 32 38 33 39 74 40 34 41 79 42 73 43
REMARK SMILES IDX 75 44 35 45 78 46 72 47 71 48 36 50 62 51 45 52 61 53 46 54
REMARK SMILES IDX 49 55 60 56 76 57 47 58 48 59 59 61 77 62 50 63 37 64 38 65
REMARK SMILES IDX 43 66 39 67 40 68 42 69 44 70 41 71 63 72 64 73 69 74 65 75
REMARK SMILES IDX 66 76 68 77 70 78 67 79 51 80 52 81 57 82 53 83 54 84 56 85
REMARK SMILES IDX 58 86 55 87
REMARK H PARENT 7 17 75 49 49 60
REMARK Flexibility Score: inf
ROOT
ATOM      1  C   UNL A   1      39.434  21.885  26.104  1.00  0.00     0.188 C 
ENDROOT
BRANCH   1   2
ATOM      2  O   UNL A   1      38.023  21.835  25.939  1.00  0.00    -0.376 OA
BRANCH   2   3
ATOM      3  C   UNL A   1      37.457  21.690  24.644  1.00  0.00     0.202 C 
BRANCH   3   4
ATOM      4  C   UNL A   1      36.139  22.418  24.330  1.00  0.00     0.261 C 
BRANCH   4   5
ATOM      5  O   UNL A   1      34.958  21.598  24.158  1.00  0.00    -0.463 OA
BRANCH   5   6
ATOM      6  C   UNL A   1      33.849  22.249  23.728  1.00  0.00     0.309 C 
ATOM      7  O   UNL A   1      33.698  22.614  22.565  1.00  0.00    -0.252 OA
BRANCH   6   8
ATOM      8  C   UNL A   1      32.830  22.612  24.819  1.00  0.00     0.104 C 
ATOM      9  C   UNL A   1      32.839  23.856  25.756  1.00  0.00     0.022 C 
ATOM     10  C   UNL A   1      33.423  23.397  27.107  1.00  0.00     0.006 C 
ATOM     11  C   UNL A   1      33.718  21.914  26.961  1.00  0.00     0.001 C 
ATOM     12  C   UNL A   1      32.796  21.454  25.846  1.00  0.00     0.016 C 
BRANCH   9  13
ATOM     13  C   UNL A   1      33.390  25.224  25.308  1.00  0.00     0.122 C 
BRANCH  13  14
ATOM     14  N   UNL A   1      33.605  25.248  23.868  1.00  0.00    -0.338 N 
ATOM     15  C   UNL A   1      33.259  26.035  22.838  1.00  0.00     0.317 C 
ATOM     16  O   UNL A   1      33.918  25.854  21.808  1.00  0.00    -0.249 OA
ATOM     17  H   UNL A   1      34.151  24.484  23.571  1.00  0.00     0.165 HD
BRANCH  15  18
ATOM     18  N   UNL A   1      32.275  26.967  22.881  1.00  0.00    -0.324 N 
ATOM     19  C   UNL A   1      28.941  28.684  22.993  1.00  0.00     0.010 C 
ATOM     20  C   UNL A   1      30.356  28.337  22.564  1.00  0.00     0.010 C 
ATOM     21  C   UNL A   1      30.819  26.876  22.759  1.00  0.00     0.125 C 
ATOM     22  C   UNL A   1      31.423  29.142  23.317  1.00  0.00     0.010 C 
ATOM     23  C   UNL A   1      32.681  28.368  22.946  1.00  0.00     0.125 C 
ATOM     24  C   UNL A   1      31.231  29.197  24.836  1.00  0.00     0.010 C 
ENDBRANCH  15  18
ENDBRANCH  13  14
ENDBRANCH   9  13
ENDBRANCH   6   8
ENDBRANCH   5   6
ENDBRANCH   4   5
ENDBRANCH   3   4
ENDBRANCH   2   3
ENDBRANCH   1   2
BRANCH   1  25
ATOM     25  C   UNL A   1      40.217  20.595  26.357  1.00  0.00     0.188 C 
BRANCH  25  26
ATOM     26  O   UNL A   1      41.500  20.789  26.902  1.00  0.00    -0.376 OA
BRANCH  26  27
ATOM     27  C   UNL A   1      42.629  20.368  26.167  1.00  0.00     0.202 C 
BRANCH  27  28
ATOM     28  C   UNL A   1      43.456  21.427  25.424  1.00  0.00     0.261 C 
BRANCH  28  29
ATOM     29  O   UNL A   1      42.796  22.662  25.084  1.00  0.00    -0.460 OA
BRANCH  29  30
ATOM     30  C   UNL A   1      43.549  23.776  25.158  1.00  0.00     0.338 C 
ATOM     31  O   UNL A   1      44.463  24.083  24.408  1.00  0.00    -0.246 OA
BRANCH  30  32
ATOM     32  C   UNL A   1      42.964  24.736  26.103  1.00  0.00     0.060 A 
ATOM     33  C   UNL A   1      43.447  26.054  26.082  1.00  0.00     0.016 A 
ATOM     34  C   UNL A   1      42.003  24.343  27.029  1.00  0.00     0.016 A 
ATOM     35  C   UNL A   1      42.962  26.991  26.984  1.00  0.00     0.010 A 
ATOM     36  C   UNL A   1      41.537  25.278  27.955  1.00  0.00     0.010 A 
ATOM     37  C   UNL A   1      42.024  26.599  27.943  1.00  0.00    -0.014 A 
BRANCH  37  38
ATOM     38  C   UNL A   1      41.651  27.536  29.023  1.00  0.00     0.031 A 
ATOM     39  C   UNL A   1      42.433  27.510  30.302  1.00  0.00     0.074 A 
ATOM     40  C   UNL A   1      40.646  28.411  28.852  1.00  0.00     0.049 A 
ATOM     41  N   UNL A   1      42.202  28.131  31.428  1.00  0.00    -0.248 NA
ATOM     42  C   UNL A   1      43.641  26.668  30.309  1.00  0.00     0.031 C 
ATOM     43  C   UNL A   1      39.877  28.586  27.620  1.00  0.00     0.029 A 
ATOM     44  N   UNL A   1      40.092  29.308  29.728  1.00  0.00    -0.354 N 
ATOM     45  C   UNL A   1      43.220  27.737  32.287  1.00  0.00     0.074 A 
ATOM     46  C   UNL A   1      44.062  26.814  31.557  1.00  0.00     0.031 C 
ATOM     47  C   UNL A   1      38.935  29.522  27.826  1.00  0.00     0.029 A 
ATOM     48  C   UNL A   1      39.001  29.967  29.216  1.00  0.00     0.049 A 
ATOM     49  H   UNL A   1      40.442  29.465  30.635  1.00  0.00     0.167 HD
ATOM     50  C   UNL A   1      43.428  28.114  33.571  1.00  0.00     0.037 A 
ATOM     51  C   UNL A   1      38.130  30.796  29.821  1.00  0.00     0.037 A 
ATOM     52  C   UNL A   1      42.581  29.034  34.284  1.00  0.00     0.049 A 
ATOM     53  C   UNL A   1      38.321  31.118  31.280  1.00  0.00     0.074 A 
ATOM     54  C   UNL A   1      42.694  29.477  35.589  1.00  0.00     0.029 A 
ATOM     55  N   UNL A   1      41.458  29.648  33.747  1.00  0.00    -0.354 N 
ATOM     56  N   UNL A   1      39.268  30.726  32.099  1.00  0.00    -0.248 NA
ATOM     57  C   UNL A   1      37.316  31.992  31.901  1.00  0.00     0.031 C 
ATOM     58  C   UNL A   1      41.607  30.316  35.860  1.00  0.00     0.029 A 
ATOM     59  C   UNL A   1      40.854  30.447  34.705  1.00  0.00     0.049 A 
ATOM     60  H   UNL A   1      41.138  29.534  32.824  1.00  0.00     0.167 HD
ATOM     61  C   UNL A   1      38.993  31.331  33.319  1.00  0.00     0.074 A 
ATOM     62  C   UNL A   1      37.797  32.125  33.130  1.00  0.00     0.031 C 
ATOM     63  C   UNL A   1      39.669  31.240  34.491  1.00  0.00     0.037 A 
BRANCH  50  64
ATOM     64  C   UNL A   1      44.586  27.491  34.295  1.00  0.00     0.057 A 
ATOM     65  C   UNL A   1      44.448  26.327  35.063  1.00  0.00     0.134 A 
ATOM     66  C   UNL A   1      45.863  28.060  34.209  1.00  0.00     0.134 A 
ATOM     67  F   UNL A   1      43.248  25.744  35.203  1.00  0.00    -0.206 F 
ATOM     68  C   UNL A   1      45.534  25.766  35.739  1.00  0.00     0.040 A 
ATOM     69  C   UNL A   1      46.961  27.492  34.856  1.00  0.00     0.040 A 
ATOM     70  F   UNL A   1      46.066  29.174  33.490  1.00  0.00    -0.206 F 
ATOM     71  C   UNL A   1      46.796  26.346  35.630  1.00  0.00     0.006 A 
ENDBRANCH  50  64
BRANCH  51  72
ATOM     72  C   UNL A   1      36.977  31.350  29.066  1.00  0.00     0.057 A 
ATOM     73  C   UNL A   1      36.974  32.675  28.615  1.00  0.00     0.134 A 
ATOM     74  C   UNL A   1      35.839  30.578  28.801  1.00  0.00     0.134 A 
ATOM     75  F   UNL A   1      38.025  33.473  28.858  1.00  0.00    -0.206 F 
ATOM     76  C   UNL A   1      35.875  33.218  27.947  1.00  0.00     0.040 A 
ATOM     77  C   UNL A   1      34.745  31.098  28.109  1.00  0.00     0.040 A 
ATOM     78  F   UNL A   1      35.777  29.301  29.206  1.00  0.00    -0.206 F 
ATOM     79  C   UNL A   1      34.758  32.426  27.688  1.00  0.00     0.006 A 
ENDBRANCH  51  72
BRANCH  63  80
ATOM     80  C   UNL A   1      39.162  32.060  35.644  1.00  0.00     0.057 A 
ATOM     81  C   UNL A   1      38.321  31.523  36.627  1.00  0.00     0.134 A 
ATOM     82  C   UNL A   1      39.560  33.395  35.793  1.00  0.00     0.134 A 
ATOM     83  F   UNL A   1      37.894  30.254  36.538  1.00  0.00    -0.206 F 
ATOM     84  C   UNL A   1      37.872  32.293  37.702  1.00  0.00     0.040 A 
ATOM     85  C   UNL A   1      39.144  34.165  36.879  1.00  0.00     0.040 A 
ATOM     86  F   UNL A   1      40.374  33.969  34.894  1.00  0.00    -0.206 F 
ATOM     87  C   UNL A   1      38.291  33.615  37.834  1.00  0.00     0.006 A 
ENDBRANCH  63  80
ENDBRANCH  37  38
ENDBRANCH  30  32
ENDBRANCH  29  30
ENDBRANCH  28  29
ENDBRANCH  27  28
ENDBRANCH  26  27
ENDBRANCH  25  26
ENDBRANCH   1  25
TORSDOF 20
ENDMDL
MODEL 2
REMARK VINA RESULT:     -10.5      4.823      7.023
REMARK SMILES C[C@@H]1CN(C(=O)NC[C@@H]2CCC[C@@H]2C(=O)OCCOCCOCCOC(=O)c2ccc(-c3c4nc(c(-c5c(F)cccc5F)c5ccc([nH]5)c(-c5c(F)cccc5F)c5nc(c(-c6c(F)cccc6F)c6ccc3[nH]6)C=C5)C=C4)cc2)C[C@@H]1C
REMARK SMILES IDX 20 1 19 2 18 3 17 4 16 5 14 6 15 7 13 8 9 9 10 10 11 11
REMARK SMILES IDX 12 12 8 13 7 14 5 15 6 16 4 18 1 19 2 20 3 21 83 22 82 23
REMARK SMILES IDX 84 24 21 25 22 26 23 27 24 28 25 29 26 30 27 31 28 32 29 33
REMARK SMILES IDX 81 34 30 35 80 36 31 37 32 38 33 39 74 40 34 41 79 42 73 43
REMARK SMILES IDX 75 44 35 45 78 46 72 47 71 48 36 50 62 51 45 52 61 53 46 54
REMARK SMILES IDX 49 55 60 56 76 57 47 58 48 59 59 61 77 62 50 63 37 64 38 65
REMARK SMILES IDX 43 66 39 67 40 68 42 69 44 70 41 71 63 72 64 73 69 74 65 75
REMARK SMILES IDX 66 76 68 77 70 78 67 79 51 80 52 81 57 82 53 83 54 84 56 85
REMARK SMILES IDX 58 86 55 87
REMARK H PARENT 7 17 75 49 49 60
REMARK Flexibility Score: inf
ROOT
ATOM      1  C   UNL A   1      40.204  22.838  27.081  1.00  0.00     0.188 C 
ENDROOT
BRANCH   1   2
ATOM      2  O   UNL A   1      38.937  22.628  26.471  1.00  0.00    -0.376 OA
BRANCH   2   3
ATOM      3  C   UNL A   1      38.102  23.733  26.152  1.00  0.00     0.202 C 
BRANCH   3   4
ATOM      4  C   UNL A   1      36.902  23.504  25.218  1.00  0.00     0.261 C 
BRANCH   4   5
ATOM      5  O   UNL A   1      35.615  23.994  25.667  1.00  0.00    -0.463 OA
BRANCH   5   6
ATOM      6  C   UNL A   1      34.663  23.048  25.863  1.00  0.00     0.309 C 
ATOM      7  O   UNL A   1      34.170  22.814  26.963  1.00  0.00    -0.252 OA
BRANCH   6   8
ATOM      8  C   UNL A   1      34.315  22.194  24.633  1.00  0.00     0.104 C 
ATOM      9  C   UNL A   1      32.911  21.964  23.999  1.00  0.00     0.022 C 
ATOM     10  C   UNL A   1      32.405  20.600  24.511  1.00  0.00     0.006 C 
ATOM     11  C   UNL A   1      33.505  20.044  25.398  1.00  0.00     0.001 C 
ATOM     12  C   UNL A   1      34.766  20.741  24.917  1.00  0.00     0.016 C 
BRANCH   9  13
ATOM     13  C   UNL A   1      31.813  23.045  24.011  1.00  0.00     0.122 C 
BRANCH  13  14
ATOM     14  N   UNL A   1      31.284  23.232  25.355  1.00  0.00    -0.338 N 
ATOM     15  C   UNL A   1      30.895  24.262  26.121  1.00  0.00     0.317 C 
ATOM     16  O   UNL A   1      30.217  23.945  27.105  1.00  0.00    -0.249 OA
ATOM     17  H   UNL A   1      31.186  22.373  25.828  1.00  0.00     0.165 HD
BRANCH  15  18
ATOM     18  N   UNL A   1      31.195  25.560  25.872  1.00  0.00    -0.324 N 
ATOM     19  C   UNL A   1      31.094  29.118  24.684  1.00  0.00     0.010 C 
ATOM     20  C   UNL A   1      31.611  27.714  24.952  1.00  0.00     0.010 C 
ATOM     21  C   UNL A   1      30.568  26.577  25.026  1.00  0.00     0.125 C 
ATOM     22  C   UNL A   1      32.349  27.596  26.290  1.00  0.00     0.010 C 
ATOM     23  C   UNL A   1      32.437  26.081  26.435  1.00  0.00     0.125 C 
ATOM     24  C   UNL A   1      31.622  28.227  27.483  1.00  0.00     0.010 C 
ENDBRANCH  15  18
ENDBRANCH  13  14
ENDBRANCH   9  13
ENDBRANCH   6   8
ENDBRANCH   5   6
ENDBRANCH   4   5
ENDBRANCH   3   4
ENDBRANCH   2   3
ENDBRANCH   1   2
BRANCH   1  25
ATOM     25  C   UNL A   1      40.952  21.660  27.707  1.00  0.00     0.188 C 
BRANCH  25  26
ATOM     26  O   UNL A   1      41.924  21.076  26.873  1.00  0.00    -0.376 OA
BRANCH  26  27
ATOM     27  C   UNL A   1      41.658  19.824  26.281  1.00  0.00     0.202 C 
BRANCH  27  28
ATOM     28  C   UNL A   1      42.837  19.004  25.738  1.00  0.00     0.261 C 
BRANCH  28  29
ATOM     29  O   UNL A   1      43.367  19.380  24.452  1.00  0.00    -0.460 OA
BRANCH  29  30
ATOM     30  C   UNL A   1      44.695  19.599  24.400  1.00  0.00     0.338 C 
ATOM     31  O   UNL A   1      45.538  18.833  23.956  1.00  0.00    -0.246 OA
BRANCH  30  32
ATOM     32  C   UNL A   1      45.003  21.003  24.699  1.00  0.00     0.060 A 
ATOM     33  C   UNL A   1      45.422  21.320  26.001  1.00  0.00     0.016 A 
ATOM     34  C   UNL A   1      44.831  22.000  23.743  1.00  0.00     0.016 A 
ATOM     35  C   UNL A   1      45.682  22.637  26.351  1.00  0.00     0.010 A 
ATOM     36  C   UNL A   1      45.065  23.327  24.104  1.00  0.00     0.010 A 
ATOM     37  C   UNL A   1      45.478  23.651  25.410  1.00  0.00    -0.014 A 
BRANCH  37  38
ATOM     38  C   UNL A   1      45.565  25.065  25.832  1.00  0.00     0.031 A 
ATOM     39  C   UNL A   1      46.891  25.760  25.752  1.00  0.00     0.074 A 
ATOM     40  C   UNL A   1      44.472  25.720  26.257  1.00  0.00     0.049 A 
ATOM     41  N   UNL A   1      47.238  26.939  26.195  1.00  0.00    -0.248 NA
ATOM     42  C   UNL A   1      47.972  25.023  25.077  1.00  0.00     0.031 C 
ATOM     43  C   UNL A   1      43.117  25.171  26.292  1.00  0.00     0.029 A 
ATOM     44  N   UNL A   1      44.337  26.989  26.755  1.00  0.00    -0.354 N 
ATOM     45  C   UNL A   1      48.582  27.077  25.877  1.00  0.00     0.074 A 
ATOM     46  C   UNL A   1      48.992  25.858  25.215  1.00  0.00     0.031 C 
ATOM     47  C   UNL A   1      42.288  26.096  26.805  1.00  0.00     0.029 A 
ATOM     48  C   UNL A   1      43.063  27.274  27.185  1.00  0.00     0.049 A 
ATOM     49  H   UNL A   1      45.079  27.635  26.801  1.00  0.00     0.167 HD
ATOM     50  C   UNL A   1      49.398  28.131  26.120  1.00  0.00     0.037 A 
ATOM     51  C   UNL A   1      42.596  28.345  27.851  1.00  0.00     0.037 A 
ATOM     52  C   UNL A   1      48.975  29.338  26.779  1.00  0.00     0.049 A 
ATOM     53  C   UNL A   1      43.546  29.460  28.204  1.00  0.00     0.074 A 
ATOM     54  C   UNL A   1      49.721  30.461  27.085  1.00  0.00     0.029 A 
ATOM     55  N   UNL A   1      47.687  29.573  27.241  1.00  0.00    -0.354 N 
ATOM     56  N   UNL A   1      44.823  29.579  27.926  1.00  0.00    -0.248 NA
ATOM     57  C   UNL A   1      42.992  30.583  28.971  1.00  0.00     0.031 C 
ATOM     58  C   UNL A   1      48.899  31.355  27.780  1.00  0.00     0.029 A 
ATOM     59  C   UNL A   1      47.625  30.815  27.851  1.00  0.00     0.049 A 
ATOM     60  H   UNL A   1      46.931  28.951  27.148  1.00  0.00     0.167 HD
ATOM     61  C   UNL A   1      45.215  30.803  28.452  1.00  0.00     0.074 A 
ATOM     62  C   UNL A   1      44.039  31.393  29.057  1.00  0.00     0.031 C 
ATOM     63  C   UNL A   1      46.438  31.390  28.437  1.00  0.00     0.037 A 
BRANCH  50  64
ATOM     64  C   UNL A   1      50.837  27.997  25.713  1.00  0.00     0.057 A 
ATOM     65  C   UNL A   1      51.849  27.702  26.636  1.00  0.00     0.134 A 
ATOM     66  C   UNL A   1      51.212  28.153  24.373  1.00  0.00     0.134 A 
ATOM     67  F   UNL A   1      51.562  27.560  27.939  1.00  0.00    -0.206 F 
ATOM     68  C   UNL A   1      53.185  27.592  26.243  1.00  0.00     0.040 A 
ATOM     69  C   UNL A   1      52.538  28.017  23.963  1.00  0.00     0.040 A 
ATOM     70  F   UNL A   1      50.293  28.437  23.438  1.00  0.00    -0.206 F 
ATOM     71  C   UNL A   1      53.531  27.743  24.902  1.00  0.00     0.006 A 
ENDBRANCH  50  64
BRANCH  51  72
ATOM     72  C   UNL A   1      41.170  28.404  28.265  1.00  0.00     0.057 A 
ATOM     73  C   UNL A   1      40.767  27.993  29.541  1.00  0.00     0.134 A 
ATOM     74  C   UNL A   1      40.172  28.846  27.386  1.00  0.00     0.134 A 
ATOM     75  F   UNL A   1      41.672  27.537  30.420  1.00  0.00    -0.206 F 
ATOM     76  C   UNL A   1      39.424  27.999  29.921  1.00  0.00     0.040 A 
ATOM     77  C   UNL A   1      38.830  28.886  27.764  1.00  0.00     0.040 A 
ATOM     78  F   UNL A   1      40.491  29.254  26.149  1.00  0.00    -0.206 F 
ATOM     79  C   UNL A   1      38.451  28.452  29.032  1.00  0.00     0.006 A 
ENDBRANCH  51  72
BRANCH  63  80
ATOM     80  C   UNL A   1      46.554  32.759  29.044  1.00  0.00     0.057 A 
ATOM     81  C   UNL A   1      46.908  32.951  30.385  1.00  0.00     0.134 A 
ATOM     82  C   UNL A   1      46.350  33.901  28.260  1.00  0.00     0.134 A 
ATOM     83  F   UNL A   1      47.106  31.899  31.195  1.00  0.00    -0.206 F 
ATOM     84  C   UNL A   1      47.028  34.230  30.932  1.00  0.00     0.040 A 
ATOM     85  C   UNL A   1      46.498  35.185  28.785  1.00  0.00     0.040 A 
ATOM     86  F   UNL A   1      46.020  33.789  26.964  1.00  0.00    -0.206 F 
ATOM     87  C   UNL A   1      46.831  35.352  30.128  1.00  0.00     0.006 A 
ENDBRANCH  63  80
ENDBRANCH  37  38
ENDBRANCH  30  32
ENDBRANCH  29  30
ENDBRANCH  28  29
ENDBRANCH  27  28
ENDBRANCH  26  27
ENDBRANCH  25  26
ENDBRANCH   1  25
TORSDOF 20
ENDMDL
MODEL 3
REMARK VINA RESULT:     -10.4      4.489      9.247
REMARK SMILES C[C@@H]1CN(C(=O)NC[C@@H]2CCC[C@@H]2C(=O)OCCOCCOCCOC(=O)c2ccc(-c3c4nc(c(-c5c(F)cccc5F)c5ccc([nH]5)c(-c5c(F)cccc5F)c5nc(c(-c6c(F)cccc6F)c6ccc3[nH]6)C=C5)C=C4)cc2)C[C@@H]1C
REMARK SMILES IDX 20 1 19 2 18 3 17 4 16 5 14 6 15 7 13 8 9 9 10 10 11 11
REMARK SMILES IDX 12 12 8 13 7 14 5 15 6 16 4 18 1 19 2 20 3 21 83 22 82 23
REMARK SMILES IDX 84 24 21 25 22 26 23 27 24 28 25 29 26 30 27 31 28 32 29 33
REMARK SMILES IDX 81 34 30 35 80 36 31 37 32 38 33 39 74 40 34 41 79 42 73 43
REMARK SMILES IDX 75 44 35 45 78 46 72 47 71 48 36 50 62 51 45 52 61 53 46 54
REMARK SMILES IDX 49 55 60 56 76 57 47 58 48 59 59 61 77 62 50 63 37 64 38 65
REMARK SMILES IDX 43 66 39 67 40 68 42 69 44 70 41 71 63 72 64 73 69 74 65 75
REMARK SMILES IDX 66 76 68 77 70 78 67 79 51 80 52 81 57 82 53 83 54 84 56 85
REMARK SMILES IDX 58 86 55 87
REMARK H PARENT 7 17 75 49 49 60
REMARK Flexibility Score: inf
ROOT
ATOM      1  C   UNL A   1      32.900  30.899  27.537  1.00  0.00     0.188 C 
ENDROOT
BRANCH   1   2
ATOM      2  O   UNL A   1      33.193  29.539  27.248  1.00  0.00    -0.376 OA
BRANCH   2   3
ATOM      3  C   UNL A   1      32.150  28.575  27.201  1.00  0.00     0.202 C 
BRANCH   3   4
ATOM      4  C   UNL A   1      32.496  27.134  26.788  1.00  0.00     0.261 C 
BRANCH   4   5
ATOM      5  O   UNL A   1      31.409  26.178  26.761  1.00  0.00    -0.463 OA
BRANCH   5   6
ATOM      6  C   UNL A   1      31.706  24.967  26.228  1.00  0.00     0.309 C 
ATOM      7  O   UNL A   1      30.969  23.991  26.336  1.00  0.00    -0.252 OA
BRANCH   6   8
ATOM      8  C   UNL A   1      33.090  24.855  25.570  1.00  0.00     0.104 C 
ATOM      9  C   UNL A   1      33.433  24.926  24.052  1.00  0.00     0.022 C 
ATOM     10  C   UNL A   1      33.595  23.474  23.559  1.00  0.00     0.006 C 
ATOM     11  C   UNL A   1      33.377  22.586  24.772  1.00  0.00     0.001 C 
ATOM     12  C   UNL A   1      33.693  23.483  25.957  1.00  0.00     0.016 C 
BRANCH   9  13
ATOM     13  C   UNL A   1      32.635  25.800  23.066  1.00  0.00     0.122 C 
BRANCH  13  14
ATOM     14  N   UNL A   1      33.005  27.201  23.199  1.00  0.00    -0.338 N 
ATOM     15  C   UNL A   1      32.370  28.370  23.374  1.00  0.00     0.317 C 
ATOM     16  O   UNL A   1      33.097  29.300  23.744  1.00  0.00    -0.249 OA
ATOM     17  H   UNL A   1      33.980  27.324  23.146  1.00  0.00     0.165 HD
BRANCH  15  18
ATOM     18  N   UNL A   1      31.043  28.561  23.178  1.00  0.00    -0.324 N 
ATOM     19  C   UNL A   1      27.302  28.367  23.404  1.00  0.00     0.010 C 
ATOM     20  C   UNL A   1      28.700  28.384  22.807  1.00  0.00     0.010 C 
ATOM     21  C   UNL A   1      29.857  27.876  23.695  1.00  0.00     0.125 C 
ATOM     22  C   UNL A   1      29.161  29.792  22.409  1.00  0.00     0.010 C 
ATOM     23  C   UNL A   1      30.648  29.552  22.181  1.00  0.00     0.125 C 
ATOM     24  C   UNL A   1      28.928  30.869  23.474  1.00  0.00     0.010 C 
ENDBRANCH  15  18
ENDBRANCH  13  14
ENDBRANCH   9  13
ENDBRANCH   6   8
ENDBRANCH   5   6
ENDBRANCH   4   5
ENDBRANCH   3   4
ENDBRANCH   2   3
ENDBRANCH   1   2
BRANCH   1  25
ATOM     25  C   UNL A   1      34.043  31.900  27.725  1.00  0.00     0.188 C 
BRANCH  25  26
ATOM     26  O   UNL A   1      33.636  33.173  28.167  1.00  0.00    -0.376 OA
BRANCH  26  27
ATOM     27  C   UNL A   1      34.487  33.907  29.020  1.00  0.00     0.202 C 
BRANCH  27  28
ATOM     28  C   UNL A   1      34.335  33.729  30.537  1.00  0.00     0.261 C 
BRANCH  28  29
ATOM     29  O   UNL A   1      34.509  32.401  31.067  1.00  0.00    -0.460 OA
BRANCH  29  30
ATOM     30  C   UNL A   1      35.504  32.245  31.962  1.00  0.00     0.338 C 
ATOM     31  O   UNL A   1      35.434  32.452  33.164  1.00  0.00    -0.246 OA
BRANCH  30  32
ATOM     32  C   UNL A   1      36.635  31.528  31.361  1.00  0.00     0.060 A 
ATOM     33  C   UNL A   1      37.570  30.936  32.225  1.00  0.00     0.016 A 
ATOM     34  C   UNL A   1      36.811  31.482  29.982  1.00  0.00     0.016 A 
ATOM     35  C   UNL A   1      38.683  30.285  31.712  1.00  0.00     0.010 A 
ATOM     36  C   UNL A   1      37.945  30.852  29.467  1.00  0.00     0.010 A 
ATOM     37  C   UNL A   1      38.890  30.265  30.330  1.00  0.00    -0.014 A 
BRANCH  37  38
ATOM     38  C   UNL A   1      40.165  29.745  29.792  1.00  0.00     0.031 A 
ATOM     39  C   UNL A   1      41.333  30.679  29.680  1.00  0.00     0.074 A 
ATOM     40  C   UNL A   1      40.280  28.456  29.432  1.00  0.00     0.049 A 
ATOM     41  N   UNL A   1      42.494  30.490  29.112  1.00  0.00    -0.248 NA
ATOM     42  C   UNL A   1      41.166  32.006  30.294  1.00  0.00     0.031 C 
ATOM     43  C   UNL A   1      39.239  27.440  29.581  1.00  0.00     0.029 A 
ATOM     44  N   UNL A   1      41.327  27.788  28.853  1.00  0.00    -0.354 N 
ATOM     45  C   UNL A   1      43.189  31.681  29.277  1.00  0.00     0.074 A 
ATOM     46  C   UNL A   1      42.315  32.590  29.987  1.00  0.00     0.031 C 
ATOM     47  C   UNL A   1      39.695  26.277  29.086  1.00  0.00     0.029 A 
ATOM     48  C   UNL A   1      41.033  26.484  28.537  1.00  0.00     0.049 A 
ATOM     49  H   UNL A   1      42.204  28.201  28.681  1.00  0.00     0.167 HD
ATOM     50  C   UNL A   1      44.444  31.983  28.870  1.00  0.00     0.037 A 
ATOM     51  C   UNL A   1      41.748  25.581  27.841  1.00  0.00     0.037 A 
ATOM     52  C   UNL A   1      45.302  31.067  28.165  1.00  0.00     0.049 A 
ATOM     53  C   UNL A   1      43.100  25.975  27.305  1.00  0.00     0.074 A 
ATOM     54  C   UNL A   1      46.586  31.273  27.697  1.00  0.00     0.029 A 
ATOM     55  N   UNL A   1      44.954  29.768  27.823  1.00  0.00    -0.354 N 
ATOM     56  N   UNL A   1      43.746  27.109  27.440  1.00  0.00    -0.248 NA
ATOM     57  C   UNL A   1      43.817  24.966  26.514  1.00  0.00     0.031 C 
ATOM     58  C   UNL A   1      46.996  30.118  27.023  1.00  0.00     0.029 A 
ATOM     59  C   UNL A   1      45.991  29.170  27.126  1.00  0.00     0.049 A 
ATOM     60  H   UNL A   1      44.098  29.335  28.042  1.00  0.00     0.167 HD
ATOM     61  C   UNL A   1      44.958  26.938  26.781  1.00  0.00     0.074 A 
ATOM     62  C   UNL A   1      44.960  25.588  26.257  1.00  0.00     0.031 C 
ATOM     63  C   UNL A   1      45.978  27.818  26.624  1.00  0.00     0.037 A 
BRANCH  50  64
ATOM     64  C   UNL A   1      44.939  33.376  29.134  1.00  0.00     0.057 A 
ATOM     65  C   UNL A   1      45.700  33.696  30.266  1.00  0.00     0.134 A 
ATOM     66  C   UNL A   1      44.660  34.409  28.231  1.00  0.00     0.134 A 
ATOM     67  F   UNL A   1      45.986  32.757  31.181  1.00  0.00    -0.206 F 
ATOM     68  C   UNL A   1      46.144  34.999  30.502  1.00  0.00     0.040 A 
ATOM     69  C   UNL A   1      45.123  35.709  28.441  1.00  0.00     0.040 A 
ATOM     70  F   UNL A   1      43.937  34.172  27.126  1.00  0.00    -0.206 F 
ATOM     71  C   UNL A   1      45.860  36.008  29.584  1.00  0.00     0.006 A 
ENDBRANCH  50  64
BRANCH  51  72
ATOM     72  C   UNL A   1      41.190  24.231  27.573  1.00  0.00     0.057 A 
ATOM     73  C   UNL A   1      40.169  24.040  26.635  1.00  0.00     0.134 A 
ATOM     74  C   UNL A   1      41.643  23.102  28.269  1.00  0.00     0.134 A 
ATOM     75  F   UNL A   1      39.675  25.084  25.953  1.00  0.00    -0.206 F 
ATOM     76  C   UNL A   1      39.605  22.782  26.412  1.00  0.00     0.040 A 
ATOM     77  C   UNL A   1      41.110  21.835  28.035  1.00  0.00     0.040 A 
ATOM     78  F   UNL A   1      42.619  23.216  29.182  1.00  0.00    -0.206 F 
ATOM     79  C   UNL A   1      40.080  21.674  27.111  1.00  0.00     0.006 A 
ENDBRANCH  51  72
BRANCH  63  80
ATOM     80  C   UNL A   1      47.203  27.331  25.902  1.00  0.00     0.057 A 
ATOM     81  C   UNL A   1      48.249  26.680  26.567  1.00  0.00     0.134 A 
ATOM     82  C   UNL A   1      47.314  27.480  24.514  1.00  0.00     0.134 A 
ATOM     83  F   UNL A   1      48.212  26.515  27.898  1.00  0.00    -0.206 F 
ATOM     84  C   UNL A   1      49.374  26.218  25.881  1.00  0.00     0.040 A 
ATOM     85  C   UNL A   1      48.417  26.996  23.812  1.00  0.00     0.040 A 
ATOM     86  F   UNL A   1      46.342  28.085  23.813  1.00  0.00    -0.206 F 
ATOM     87  C   UNL A   1      49.456  26.369  24.498  1.00  0.00     0.006 A 
ENDBRANCH  63  80
ENDBRANCH  37  38
ENDBRANCH  30  32
ENDBRANCH  29  30
ENDBRANCH  28  29
ENDBRANCH  27  28
ENDBRANCH  26  27
ENDBRANCH  25  26
ENDBRANCH   1  25
TORSDOF 20
ENDMDL
