MODEL 1
REMARK VINA RESULT:     -11.7      0.000      0.000
REMARK SMILES Cc1cccc2c1N=CN1C2=[NH+]NC(=O)[C@@H]1CC(=O)OCCOCCOCCOC(=O)c1ccc(-c2c3nc(c(-c4c(F)cccc4F)c4ccc([nH]4)c(-c4c(F)cccc4F)c4nc(c(-c5c(F)cccc5F)c5ccc2[nH]5)C=C4)C=C3)cc1
REMARK SMILES IDX 25 1 24 2 23 3 22 4 21 5 20 6 18 7 19 8 17 9 16 10 1 11 2 12
REMARK SMILES IDX 3 13 7 14 4 15 6 16 8 17 5 18 11 19 9 20 10 21 12 22 13 23
REMARK SMILES IDX 14 25 15 27 26 28 27 29 28 30 29 31 30 32 31 33 32 34 33 35
REMARK SMILES IDX 85 36 34 37 84 38 35 39 36 40 37 41 78 42 38 43 83 44 77 45
REMARK SMILES IDX 79 46 39 47 82 48 76 49 75 50 40 52 66 53 49 54 65 55 50 56
REMARK SMILES IDX 53 57 64 58 80 59 51 60 52 61 63 63 81 64 54 65 41 66 42 67
REMARK SMILES IDX 47 68 43 69 44 70 46 71 48 72 45 73 67 74 68 75 73 76 69 77
REMARK SMILES IDX 70 78 72 79 74 80 71 81 55 82 56 83 61 84 57 85 58 86 60 87
REMARK SMILES IDX 62 88 59 89
REMARK H PARENT 12 24 13 26 79 51 53 62
REMARK Flexibility Score: inf
ROOT
ATOM      1  C   UNL A   1      33.876  34.169  28.209  1.00  0.00     0.188 C 
ENDROOT
BRANCH   1   2
ATOM      2  C   UNL A   1      34.864  33.015  28.020  1.00  0.00     0.188 C 
BRANCH   2   3
ATOM      3  O   UNL A   1      34.358  31.719  28.306  1.00  0.00    -0.376 OA
BRANCH   3   4
ATOM      4  C   UNL A   1      33.312  31.260  27.450  1.00  0.00     0.202 C 
BRANCH   4   5
ATOM      5  C   UNL A   1      33.579  29.943  26.690  1.00  0.00     0.261 C 
BRANCH   5   6
ATOM      6  O   UNL A   1      33.566  28.757  27.532  1.00  0.00    -0.463 OA
BRANCH   6   7
ATOM      7  C   UNL A   1      32.621  27.830  27.246  1.00  0.00     0.310 C 
ATOM      8  O   UNL A   1      31.456  27.898  27.630  1.00  0.00    -0.252 OA
BRANCH   7   9
ATOM      9  C   UNL A   1      33.027  26.788  26.227  1.00  0.00     0.183 C 
BRANCH   9  10
ATOM     10  C   UNL A   1      32.064  26.146  25.227  1.00  0.00     0.286 C 
ATOM     11  C   UNL A   1      29.309  31.139  22.337  1.00  0.00     0.047 C 
ATOM     12  C   UNL A   1      28.768  29.817  22.800  1.00  0.00    -0.024 A 
ATOM     13  C   UNL A   1      27.384  29.650  22.998  1.00  0.00     0.006 A 
ATOM     14  C   UNL A   1      29.642  28.756  23.075  1.00  0.00     0.085 A 
ATOM     15  C   UNL A   1      26.854  28.425  23.405  1.00  0.00     0.001 A 
ATOM     16  C   UNL A   1      29.078  27.528  23.458  1.00  0.00     0.092 A 
ATOM     17  N   UNL A   1      31.044  28.986  23.094  1.00  0.00    -0.215 NA
ATOM     18  C   UNL A   1      27.698  27.347  23.603  1.00  0.00     0.019 A 
ATOM     19  C   UNL A   1      29.990  26.521  24.032  1.00  0.00     0.309 C 
ATOM     20  C   UNL A   1      31.741  28.139  23.784  1.00  0.00     0.317 C 
ATOM     21  N   UNL A   1      31.245  27.007  24.387  1.00  0.00    -0.202 N 
ATOM     22  N   UNL A   1      29.521  25.326  24.240  1.00  0.00    -0.169 N 
ATOM     23  N   UNL A   1      30.228  24.539  25.086  1.00  0.00    -0.193 N 
ATOM     24  H   UNL A   1      28.696  25.009  23.804  1.00  0.00     0.340 HD
ATOM     25  C   UNL A   1      31.219  25.063  25.879  1.00  0.00     0.300 C 
ATOM     26  H   UNL A   1      30.028  23.576  25.133  1.00  0.00     0.216 HD
ATOM     27  O   UNL A   1      31.465  24.598  26.983  1.00  0.00    -0.267 OA
ENDBRANCH   9  10
ENDBRANCH   7   9
ENDBRANCH   6   7
ENDBRANCH   5   6
ENDBRANCH   4   5
ENDBRANCH   3   4
ENDBRANCH   2   3
ENDBRANCH   1   2
BRANCH   1  28
ATOM     28  O   UNL A   1      33.365  34.350  29.530  1.00  0.00    -0.376 OA
BRANCH  28  29
ATOM     29  C   UNL A   1      34.358  34.512  30.544  1.00  0.00     0.202 C 
BRANCH  29  30
ATOM     30  C   UNL A   1      34.140  33.754  31.865  1.00  0.00     0.261 C 
BRANCH  30  31
ATOM     31  O   UNL A   1      34.755  32.458  31.859  1.00  0.00    -0.460 OA
BRANCH  31  32
ATOM     32  C   UNL A   1      35.799  32.296  32.722  1.00  0.00     0.338 C 
ATOM     33  O   UNL A   1      35.856  32.618  33.886  1.00  0.00    -0.246 OA
BRANCH  32  34
ATOM     34  C   UNL A   1      36.846  31.522  32.005  1.00  0.00     0.060 A 
ATOM     35  C   UNL A   1      37.720  30.704  32.736  1.00  0.00     0.016 A 
ATOM     36  C   UNL A   1      36.944  31.572  30.616  1.00  0.00     0.016 A 
ATOM     37  C   UNL A   1      38.683  29.930  32.099  1.00  0.00     0.010 A 
ATOM     38  C   UNL A   1      37.946  30.842  29.975  1.00  0.00     0.010 A 
ATOM     39  C   UNL A   1      38.832  30.040  30.717  1.00  0.00    -0.014 A 
BRANCH  39  40
ATOM     40  C   UNL A   1      40.060  29.525  30.078  1.00  0.00     0.031 A 
ATOM     41  C   UNL A   1      41.209  30.477  29.906  1.00  0.00     0.074 A 
ATOM     42  C   UNL A   1      40.155  28.254  29.655  1.00  0.00     0.049 A 
ATOM     43  N   UNL A   1      42.355  30.298  29.303  1.00  0.00    -0.248 NA
ATOM     44  C   UNL A   1      41.032  31.817  30.488  1.00  0.00     0.031 C 
ATOM     45  C   UNL A   1      39.133  27.224  29.814  1.00  0.00     0.029 A 
ATOM     46  N   UNL A   1      41.172  27.626  28.983  1.00  0.00    -0.354 N 
ATOM     47  C   UNL A   1      43.035  31.501  29.433  1.00  0.00     0.074 A 
ATOM     48  C   UNL A   1      42.159  32.414  30.136  1.00  0.00     0.031 C 
ATOM     49  C   UNL A   1      39.567  26.092  29.231  1.00  0.00     0.029 A 
ATOM     50  C   UNL A   1      40.880  26.331  28.635  1.00  0.00     0.049 A 
ATOM     51  H   UNL A   1      42.029  28.062  28.770  1.00  0.00     0.167 HD
ATOM     52  C   UNL A   1      44.281  31.818  29.010  1.00  0.00     0.037 A 
ATOM     53  C   UNL A   1      41.589  25.456  27.896  1.00  0.00     0.037 A 
ATOM     54  C   UNL A   1      45.136  30.923  28.279  1.00  0.00     0.049 A 
ATOM     55  C   UNL A   1      42.924  25.873  27.331  1.00  0.00     0.074 A 
ATOM     56  C   UNL A   1      46.415  31.146  27.802  1.00  0.00     0.029 A 
ATOM     57  N   UNL A   1      44.787  29.634  27.900  1.00  0.00    -0.354 N 
ATOM     58  N   UNL A   1      43.577  27.001  27.478  1.00  0.00    -0.248 NA
ATOM     59  C   UNL A   1      43.619  24.887  26.490  1.00  0.00     0.031 C 
ATOM     60  C   UNL A   1      46.816  30.015  27.082  1.00  0.00     0.029 A 
ATOM     61  C   UNL A   1      45.814  29.063  27.166  1.00  0.00     0.049 A 
ATOM     62  H   UNL A   1      43.936  29.193  28.120  1.00  0.00     0.167 HD
ATOM     63  C   UNL A   1      44.769  26.848  26.780  1.00  0.00     0.074 A 
ATOM     64  C   UNL A   1      44.756  25.511  26.224  1.00  0.00     0.031 C 
ATOM     65  C   UNL A   1      45.786  27.731  26.615  1.00  0.00     0.037 A 
BRANCH  52  66
ATOM     66  C   UNL A   1      44.763  33.210  29.301  1.00  0.00     0.057 A 
ATOM     67  C   UNL A   1      44.468  34.265  28.430  1.00  0.00     0.134 A 
ATOM     68  C   UNL A   1      45.508  33.510  30.452  1.00  0.00     0.134 A 
ATOM     69  F   UNL A   1      43.761  34.047  27.310  1.00  0.00    -0.206 F 
ATOM     70  C   UNL A   1      44.890  35.568  28.692  1.00  0.00     0.040 A 
ATOM     71  C   UNL A   1      45.907  34.816  30.741  1.00  0.00     0.040 A 
ATOM     72  F   UNL A   1      45.807  32.549  31.338  1.00  0.00    -0.206 F 
ATOM     73  C   UNL A   1      45.602  35.848  29.858  1.00  0.00     0.006 A 
ENDBRANCH  52  66
BRANCH  53  74
ATOM     74  C   UNL A   1      41.057  24.096  27.625  1.00  0.00     0.057 A 
ATOM     75  C   UNL A   1      40.052  23.878  26.676  1.00  0.00     0.134 A 
ATOM     76  C   UNL A   1      41.586  22.973  28.273  1.00  0.00     0.134 A 
ATOM     77  F   UNL A   1      39.505  24.910  26.017  1.00  0.00    -0.206 F 
ATOM     78  C   UNL A   1      39.592  22.593  26.381  1.00  0.00     0.040 A 
ATOM     79  C   UNL A   1      41.157  21.681  27.967  1.00  0.00     0.040 A 
ATOM     80  F   UNL A   1      42.571  23.116  29.173  1.00  0.00    -0.206 F 
ATOM     81  C   UNL A   1      40.153  21.489  27.020  1.00  0.00     0.006 A 
ENDBRANCH  53  74
BRANCH  65  82
ATOM     82  C   UNL A   1      46.983  27.264  25.834  1.00  0.00     0.057 A 
ATOM     83  C   UNL A   1      48.008  26.543  26.462  1.00  0.00     0.134 A 
ATOM     84  C   UNL A   1      47.134  27.536  24.468  1.00  0.00     0.134 A 
ATOM     85  F   UNL A   1      47.936  26.257  27.771  1.00  0.00    -0.206 F 
ATOM     86  C   UNL A   1      49.133  26.109  25.762  1.00  0.00     0.040 A 
ATOM     87  C   UNL A   1      48.240  27.078  23.748  1.00  0.00     0.040 A 
ATOM     88  F   UNL A   1      46.186  28.211  23.799  1.00  0.00    -0.206 F 
ATOM     89  C   UNL A   1      49.247  26.366  24.398  1.00  0.00     0.006 A 
ENDBRANCH  65  82
ENDBRANCH  39  40
ENDBRANCH  32  34
ENDBRANCH  31  32
ENDBRANCH  30  31
ENDBRANCH  29  30
ENDBRANCH  28  29
ENDBRANCH   1  28
TORSDOF 18
ENDMDL
MODEL 2
REMARK VINA RESULT:     -11.3      4.799      9.524
REMARK SMILES Cc1cccc2c1N=CN1C2=[NH+]NC(=O)[C@@H]1CC(=O)OCCOCCOCCOC(=O)c1ccc(-c2c3nc(c(-c4c(F)cccc4F)c4ccc([nH]4)c(-c4c(F)cccc4F)c4nc(c(-c5c(F)cccc5F)c5ccc2[nH]5)C=C4)C=C3)cc1
REMARK SMILES IDX 25 1 24 2 23 3 22 4 21 5 20 6 18 7 19 8 17 9 16 10 1 11 2 12
REMARK SMILES IDX 3 13 7 14 4 15 6 16 8 17 5 18 11 19 9 20 10 21 12 22 13 23
REMARK SMILES IDX 14 25 15 27 26 28 27 29 28 30 29 31 30 32 31 33 32 34 33 35
REMARK SMILES IDX 85 36 34 37 84 38 35 39 36 40 37 41 78 42 38 43 83 44 77 45
REMARK SMILES IDX 79 46 39 47 82 48 76 49 75 50 40 52 66 53 49 54 65 55 50 56
REMARK SMILES IDX 53 57 64 58 80 59 51 60 52 61 63 63 81 64 54 65 41 66 42 67
REMARK SMILES IDX 47 68 43 69 44 70 46 71 48 72 45 73 67 74 68 75 73 76 69 77
REMARK SMILES IDX 70 78 72 79 74 80 71 81 55 82 56 83 61 84 57 85 58 86 60 87
REMARK SMILES IDX 62 88 59 89
REMARK H PARENT 12 24 13 26 79 51 53 62
REMARK Flexibility Score: inf
ROOT
ATOM      1  C   UNL A   1      39.952  21.283  26.473  1.00  0.00     0.188 C 
ENDROOT
BRANCH   1   2
ATOM      2  C   UNL A   1      38.677  21.963  25.966  1.00  0.00     0.188 C 
BRANCH   2   3
ATOM      3  O   UNL A   1      37.959  21.255  24.966  1.00  0.00    -0.376 OA
BRANCH   3   4
ATOM      4  C   UNL A   1      36.579  21.017  25.247  1.00  0.00     0.202 C 
BRANCH   4   5
ATOM      5  C   UNL A   1      35.601  22.155  24.883  1.00  0.00     0.261 C 
BRANCH   5   6
ATOM      6  O   UNL A   1      34.399  21.710  24.196  1.00  0.00    -0.463 OA
BRANCH   6   7
ATOM      7  C   UNL A   1      33.790  22.623  23.403  1.00  0.00     0.310 C 
ATOM      8  O   UNL A   1      34.394  23.448  22.722  1.00  0.00    -0.252 OA
BRANCH   7   9
ATOM      9  C   UNL A   1      32.299  22.435  23.226  1.00  0.00     0.183 C 
BRANCH   9  10
ATOM     10  C   UNL A   1      31.239  23.188  24.030  1.00  0.00     0.286 C 
ATOM     11  C   UNL A   1      33.164  29.278  23.767  1.00  0.00     0.047 C 
ATOM     12  C   UNL A   1      32.563  28.458  24.871  1.00  0.00    -0.024 A 
ATOM     13  C   UNL A   1      32.699  28.868  26.211  1.00  0.00     0.006 A 
ATOM     14  C   UNL A   1      31.898  27.260  24.576  1.00  0.00     0.085 A 
ATOM     15  C   UNL A   1      32.130  28.136  27.254  1.00  0.00     0.001 A 
ATOM     16  C   UNL A   1      31.313  26.558  25.643  1.00  0.00     0.092 A 
ATOM     17  N   UNL A   1      31.953  26.731  23.258  1.00  0.00    -0.215 NA
ATOM     18  C   UNL A   1      31.403  26.993  26.969  1.00  0.00     0.019 A 
ATOM     19  C   UNL A   1      30.888  25.170  25.379  1.00  0.00     0.309 C 
ATOM     20  C   UNL A   1      31.742  25.456  23.157  1.00  0.00     0.317 C 
ATOM     21  N   UNL A   1      31.370  24.629  24.191  1.00  0.00    -0.202 N 
ATOM     22  N   UNL A   1      30.199  24.562  26.299  1.00  0.00    -0.169 N 
ATOM     23  N   UNL A   1      30.137  23.211  26.211  1.00  0.00    -0.193 N 
ATOM     24  H   UNL A   1      29.746  25.056  27.021  1.00  0.00     0.340 HD
ATOM     25  C   UNL A   1      30.967  22.517  25.367  1.00  0.00     0.300 C 
ATOM     26  H   UNL A   1      29.484  22.720  26.761  1.00  0.00     0.216 HD
ATOM     27  O   UNL A   1      31.357  21.390  25.639  1.00  0.00    -0.267 OA
ENDBRANCH   9  10
ENDBRANCH   7   9
ENDBRANCH   6   7
ENDBRANCH   5   6
ENDBRANCH   4   5
ENDBRANCH   3   4
ENDBRANCH   2   3
ENDBRANCH   1   2
BRANCH   1  28
ATOM     28  O   UNL A   1      41.166  21.651  25.816  1.00  0.00    -0.376 OA
BRANCH  28  29
ATOM     29  C   UNL A   1      42.284  20.807  26.096  1.00  0.00     0.202 C 
BRANCH  29  30
ATOM     30  C   UNL A   1      43.671  21.321  25.677  1.00  0.00     0.261 C 
BRANCH  30  31
ATOM     31  O   UNL A   1      44.061  22.494  26.403  1.00  0.00    -0.460 OA
BRANCH  31  32
ATOM     32  C   UNL A   1      44.043  23.661  25.696  1.00  0.00     0.338 C 
ATOM     33  O   UNL A   1      44.406  23.843  24.557  1.00  0.00    -0.246 OA
BRANCH  32  34
ATOM     34  C   UNL A   1      43.370  24.679  26.544  1.00  0.00     0.060 A 
ATOM     35  C   UNL A   1      43.815  26.008  26.509  1.00  0.00     0.016 A 
ATOM     36  C   UNL A   1      42.281  24.334  27.343  1.00  0.00     0.016 A 
ATOM     37  C   UNL A   1      43.182  26.998  27.252  1.00  0.00     0.010 A 
ATOM     38  C   UNL A   1      41.679  25.312  28.135  1.00  0.00     0.010 A 
ATOM     39  C   UNL A   1      42.144  26.639  28.110  1.00  0.00    -0.014 A 
BRANCH  39  40
ATOM     40  C   UNL A   1      41.714  27.584  29.161  1.00  0.00     0.031 A 
ATOM     41  C   UNL A   1      42.458  27.563  30.465  1.00  0.00     0.074 A 
ATOM     42  C   UNL A   1      40.690  28.432  28.971  1.00  0.00     0.049 A 
ATOM     43  N   UNL A   1      42.224  28.225  31.568  1.00  0.00    -0.248 NA
ATOM     44  C   UNL A   1      43.620  26.663  30.533  1.00  0.00     0.031 C 
ATOM     45  C   UNL A   1      39.927  28.585  27.735  1.00  0.00     0.029 A 
ATOM     46  N   UNL A   1      40.108  29.316  29.843  1.00  0.00    -0.354 N 
ATOM     47  C   UNL A   1      43.208  27.822  32.460  1.00  0.00     0.074 A 
ATOM     48  C   UNL A   1      44.016  26.830  31.785  1.00  0.00     0.031 C 
ATOM     49  C   UNL A   1      38.958  29.496  27.936  1.00  0.00     0.029 A 
ATOM     50  C   UNL A   1      39.017  29.963  29.320  1.00  0.00     0.049 A 
ATOM     51  H   UNL A   1      40.442  29.473  30.756  1.00  0.00     0.167 HD
ATOM     52  C   UNL A   1      43.425  28.244  33.727  1.00  0.00     0.037 A 
ATOM     53  C   UNL A   1      38.154  30.812  29.909  1.00  0.00     0.037 A 
ATOM     54  C   UNL A   1      42.599  29.202  34.410  1.00  0.00     0.049 A 
ATOM     55  C   UNL A   1      38.344  31.175  31.361  1.00  0.00     0.074 A 
ATOM     56  C   UNL A   1      42.730  29.695  35.696  1.00  0.00     0.029 A 
ATOM     57  N   UNL A   1      41.470  29.798  33.866  1.00  0.00    -0.354 N 
ATOM     58  N   UNL A   1      39.291  30.813  32.194  1.00  0.00    -0.248 NA
ATOM     59  C   UNL A   1      37.336  32.065  31.954  1.00  0.00     0.031 C 
ATOM     60  C   UNL A   1      41.646  30.543  35.951  1.00  0.00     0.029 A 
ATOM     61  C   UNL A   1      40.876  30.629  34.803  1.00  0.00     0.049 A 
ATOM     62  H   UNL A   1      41.140  29.651  32.951  1.00  0.00     0.167 HD
ATOM     63  C   UNL A   1      39.012  31.458  33.394  1.00  0.00     0.074 A 
ATOM     64  C   UNL A   1      37.816  32.245  33.175  1.00  0.00     0.031 C 
ATOM     65  C   UNL A   1      39.684  31.405  34.572  1.00  0.00     0.037 A 
BRANCH  52  66
ATOM     66  C   UNL A   1      44.583  27.629  34.458  1.00  0.00     0.057 A 
ATOM     67  C   UNL A   1      45.819  28.285  34.518  1.00  0.00     0.134 A 
ATOM     68  C   UNL A   1      44.474  26.395  35.115  1.00  0.00     0.134 A 
ATOM     69  F   UNL A   1      45.992  29.469  33.911  1.00  0.00    -0.206 F 
ATOM     70  C   UNL A   1      46.902  27.741  35.209  1.00  0.00     0.040 A 
ATOM     71  C   UNL A   1      45.541  25.856  35.836  1.00  0.00     0.040 A 
ATOM     72  F   UNL A   1      43.313  25.724  35.113  1.00  0.00    -0.206 F 
ATOM     73  C   UNL A   1      46.760  26.527  35.881  1.00  0.00     0.006 A 
ENDBRANCH  52  66
BRANCH  53  74
ATOM     74  C   UNL A   1      37.015  31.379  29.143  1.00  0.00     0.057 A 
ATOM     75  C   UNL A   1      35.858  30.632  28.889  1.00  0.00     0.134 A 
ATOM     76  C   UNL A   1      37.036  32.706  28.695  1.00  0.00     0.134 A 
ATOM     77  F   UNL A   1      35.771  29.357  29.294  1.00  0.00    -0.206 F 
ATOM     78  C   UNL A   1      34.765  31.184  28.218  1.00  0.00     0.040 A 
ATOM     79  C   UNL A   1      35.939  33.278  28.050  1.00  0.00     0.040 A 
ATOM     80  F   UNL A   1      38.105  33.480  28.933  1.00  0.00    -0.206 F 
ATOM     81  C   UNL A   1      34.800  32.514  27.806  1.00  0.00     0.006 A 
ENDBRANCH  53  74
BRANCH  65  82
ATOM     82  C   UNL A   1      39.163  32.253  35.699  1.00  0.00     0.057 A 
ATOM     83  C   UNL A   1      39.566  33.589  35.832  1.00  0.00     0.134 A 
ATOM     84  C   UNL A   1      38.277  31.751  36.661  1.00  0.00     0.134 A 
ATOM     85  F   UNL A   1      40.422  34.133  34.954  1.00  0.00    -0.206 F 
ATOM     86  C   UNL A   1      39.105  34.392  36.875  1.00  0.00     0.040 A 
ATOM     87  C   UNL A   1      37.784  32.555  37.691  1.00  0.00     0.040 A 
ATOM     88  F   UNL A   1      37.841  30.484  36.590  1.00  0.00    -0.206 F 
ATOM     89  C   UNL A   1      38.203  33.879  37.803  1.00  0.00     0.006 A 
ENDBRANCH  65  82
ENDBRANCH  39  40
ENDBRANCH  32  34
ENDBRANCH  31  32
ENDBRANCH  30  31
ENDBRANCH  29  30
ENDBRANCH  28  29
ENDBRANCH   1  28
TORSDOF 18
ENDMDL
MODEL 3
REMARK VINA RESULT:     -11.3      3.445      8.349
REMARK SMILES Cc1cccc2c1N=CN1C2=[NH+]NC(=O)[C@@H]1CC(=O)OCCOCCOCCOC(=O)c1ccc(-c2c3nc(c(-c4c(F)cccc4F)c4ccc([nH]4)c(-c4c(F)cccc4F)c4nc(c(-c5c(F)cccc5F)c5ccc2[nH]5)C=C4)C=C3)cc1
REMARK SMILES IDX 25 1 24 2 23 3 22 4 21 5 20 6 18 7 19 8 17 9 16 10 1 11 2 12
REMARK SMILES IDX 3 13 7 14 4 15 6 16 8 17 5 18 11 19 9 20 10 21 12 22 13 23
REMARK SMILES IDX 14 25 15 27 26 28 27 29 28 30 29 31 30 32 31 33 32 34 33 35
REMARK SMILES IDX 85 36 34 37 84 38 35 39 36 40 37 41 78 42 38 43 83 44 77 45
REMARK SMILES IDX 79 46 39 47 82 48 76 49 75 50 40 52 66 53 49 54 65 55 50 56
REMARK SMILES IDX 53 57 64 58 80 59 51 60 52 61 63 63 81 64 54 65 41 66 42 67
REMARK SMILES IDX 47 68 43 69 44 70 46 71 48 72 45 73 67 74 68 75 73 76 69 77
REMARK SMILES IDX 70 78 72 79 74 80 71 81 55 82 56 83 61 84 57 85 58 86 60 87
REMARK SMILES IDX 62 88 59 89
REMARK H PARENT 12 24 13 26 79 51 53 62
REMARK Flexibility Score: inf
ROOT
ATOM      1  C   UNL A   1      38.561  21.890  25.721  1.00  0.00     0.188 C 
ENDROOT
BRANCH   1   2
ATOM      2  C   UNL A   1      37.865  23.237  25.940  1.00  0.00     0.188 C 
BRANCH   2   3
ATOM      3  O   UNL A   1      36.458  23.178  26.126  1.00  0.00    -0.376 OA
BRANCH   3   4
ATOM      4  C   UNL A   1      35.683  23.994  25.246  1.00  0.00     0.202 C 
BRANCH   4   5
ATOM      5  C   UNL A   1      35.627  23.546  23.770  1.00  0.00     0.261 C 
BRANCH   5   6
ATOM      6  O   UNL A   1      34.598  22.557  23.486  1.00  0.00    -0.463 OA
BRANCH   6   7
ATOM      7  C   UNL A   1      33.493  23.011  22.847  1.00  0.00     0.310 C 
ATOM      8  O   UNL A   1      33.525  23.681  21.818  1.00  0.00    -0.252 OA
BRANCH   7   9
ATOM      9  C   UNL A   1      32.180  22.459  23.356  1.00  0.00     0.183 C 
BRANCH   9  10
ATOM     10  C   UNL A   1      31.385  23.067  24.512  1.00  0.00     0.286 C 
ATOM     11  C   UNL A   1      30.717  29.203  22.847  1.00  0.00     0.047 C 
ATOM     12  C   UNL A   1      30.989  28.540  24.166  1.00  0.00    -0.024 A 
ATOM     13  C   UNL A   1      31.540  29.281  25.229  1.00  0.00     0.006 A 
ATOM     14  C   UNL A   1      30.732  27.172  24.333  1.00  0.00     0.085 A 
ATOM     15  C   UNL A   1      31.779  28.694  26.473  1.00  0.00     0.001 A 
ATOM     16  C   UNL A   1      30.959  26.615  25.602  1.00  0.00     0.092 A 
ATOM     17  N   UNL A   1      30.391  26.377  23.205  1.00  0.00    -0.215 NA
ATOM     18  C   UNL A   1      31.456  27.364  26.674  1.00  0.00     0.019 A 
ATOM     19  C   UNL A   1      30.981  25.143  25.694  1.00  0.00     0.309 C 
ATOM     20  C   UNL A   1      30.622  25.108  23.324  1.00  0.00     0.317 C 
ATOM     21  N   UNL A   1      31.056  24.484  24.471  1.00  0.00    -0.202 N 
ATOM     22  N   UNL A   1      31.025  24.610  26.879  1.00  0.00    -0.169 N 
ATOM     23  N   UNL A   1      31.412  23.314  26.944  1.00  0.00    -0.193 N 
ATOM     24  H   UNL A   1      30.789  25.122  27.688  1.00  0.00     0.340 HD
ATOM     25  C   UNL A   1      31.978  22.689  25.860  1.00  0.00     0.300 C 
ATOM     26  H   UNL A   1      31.284  22.811  27.780  1.00  0.00     0.216 HD
ATOM     27  O   UNL A   1      32.816  21.809  25.997  1.00  0.00    -0.267 OA
ENDBRANCH   9  10
ENDBRANCH   7   9
ENDBRANCH   6   7
ENDBRANCH   5   6
ENDBRANCH   4   5
ENDBRANCH   3   4
ENDBRANCH   2   3
ENDBRANCH   1   2
BRANCH   1  28
ATOM     28  O   UNL A   1      37.774  20.866  25.112  1.00  0.00    -0.376 OA
BRANCH  28  29
ATOM     29  C   UNL A   1      38.395  19.581  25.056  1.00  0.00     0.202 C 
BRANCH  29  30
ATOM     30  C   UNL A   1      39.558  19.322  26.028  1.00  0.00     0.261 C 
BRANCH  30  31
ATOM     31  O   UNL A   1      40.782  19.016  25.347  1.00  0.00    -0.460 OA
BRANCH  31  32
ATOM     32  C   UNL A   1      41.908  19.033  26.117  1.00  0.00     0.338 C 
ATOM     33  O   UNL A   1      42.641  18.109  26.380  1.00  0.00    -0.246 OA
BRANCH  32  34
ATOM     34  C   UNL A   1      42.160  20.449  26.494  1.00  0.00     0.060 A 
ATOM     35  C   UNL A   1      42.405  21.396  25.489  1.00  0.00     0.016 A 
ATOM     36  C   UNL A   1      42.120  20.849  27.828  1.00  0.00     0.016 A 
ATOM     37  C   UNL A   1      42.600  22.738  25.797  1.00  0.00     0.010 A 
ATOM     38  C   UNL A   1      42.372  22.184  28.148  1.00  0.00     0.010 A 
ATOM     39  C   UNL A   1      42.637  23.125  27.137  1.00  0.00    -0.014 A 
BRANCH  39  40
ATOM     40  C   UNL A   1      43.199  24.443  27.494  1.00  0.00     0.031 A 
ATOM     41  C   UNL A   1      42.243  25.511  27.942  1.00  0.00     0.074 A 
ATOM     42  C   UNL A   1      44.516  24.692  27.418  1.00  0.00     0.049 A 
ATOM     43  N   UNL A   1      42.471  26.766  28.226  1.00  0.00    -0.248 NA
ATOM     44  C   UNL A   1      40.835  25.104  28.079  1.00  0.00     0.031 C 
ATOM     45  C   UNL A   1      45.548  23.725  27.050  1.00  0.00     0.029 A 
ATOM     46  N   UNL A   1      45.203  25.859  27.633  1.00  0.00    -0.354 N 
ATOM     47  C   UNL A   1      41.237  27.299  28.574  1.00  0.00     0.074 A 
ATOM     48  C   UNL A   1      40.259  26.243  28.428  1.00  0.00     0.031 C 
ATOM     49  C   UNL A   1      46.740  24.348  27.044  1.00  0.00     0.029 A 
ATOM     50  C   UNL A   1      46.548  25.758  27.376  1.00  0.00     0.049 A 
ATOM     51  H   UNL A   1      44.774  26.689  27.943  1.00  0.00     0.167 HD
ATOM     52  C   UNL A   1      40.943  28.554  28.985  1.00  0.00     0.037 A 
ATOM     53  C   UNL A   1      47.501  26.710  27.384  1.00  0.00     0.037 A 
ATOM     54  C   UNL A   1      41.910  29.613  29.094  1.00  0.00     0.049 A 
ATOM     55  C   UNL A   1      47.128  28.131  27.726  1.00  0.00     0.074 A 
ATOM     56  C   UNL A   1      41.715  30.922  29.497  1.00  0.00     0.029 A 
ATOM     57  N   UNL A   1      43.255  29.488  28.775  1.00  0.00    -0.354 N 
ATOM     58  N   UNL A   1      45.966  28.625  28.082  1.00  0.00    -0.248 NA
ATOM     59  C   UNL A   1      48.207  29.127  27.664  1.00  0.00     0.031 C 
ATOM     60  C   UNL A   1      42.930  31.605  29.365  1.00  0.00     0.029 A 
ATOM     61  C   UNL A   1      43.895  30.706  28.941  1.00  0.00     0.049 A 
ATOM     62  H   UNL A   1      43.688  28.657  28.475  1.00  0.00     0.167 HD
ATOM     63  C   UNL A   1      46.182  29.979  28.318  1.00  0.00     0.074 A 
ATOM     64  C   UNL A   1      47.590  30.222  28.082  1.00  0.00     0.031 C 
ATOM     65  C   UNL A   1      45.297  30.935  28.699  1.00  0.00     0.037 A 
BRANCH  52  66
ATOM     66  C   UNL A   1      39.506  28.845  29.304  1.00  0.00     0.057 A 
ATOM     67  C   UNL A   1      39.011  28.662  30.601  1.00  0.00     0.134 A 
ATOM     68  C   UNL A   1      38.613  29.320  28.333  1.00  0.00     0.134 A 
ATOM     69  F   UNL A   1      39.812  28.209  31.578  1.00  0.00    -0.206 F 
ATOM     70  C   UNL A   1      37.684  28.945  30.923  1.00  0.00     0.040 A 
ATOM     71  C   UNL A   1      37.291  29.638  28.651  1.00  0.00     0.040 A 
ATOM     72  F   UNL A   1      39.027  29.537  27.076  1.00  0.00    -0.206 F 
ATOM     73  C   UNL A   1      36.823  29.446  29.948  1.00  0.00     0.006 A 
ENDBRANCH  52  66
BRANCH  53  74
ATOM     74  C   UNL A   1      48.906  26.370  27.044  1.00  0.00     0.057 A 
ATOM     75  C   UNL A   1      49.817  25.953  28.021  1.00  0.00     0.134 A 
ATOM     76  C   UNL A   1      49.354  26.401  25.717  1.00  0.00     0.134 A 
ATOM     77  F   UNL A   1      49.451  25.897  29.310  1.00  0.00    -0.206 F 
ATOM     78  C   UNL A   1      51.121  25.580  27.692  1.00  0.00     0.040 A 
ATOM     79  C   UNL A   1      50.645  26.003  25.371  1.00  0.00     0.040 A 
ATOM     80  F   UNL A   1      48.518  26.765  24.732  1.00  0.00    -0.206 F 
ATOM     81  C   UNL A   1      51.535  25.594  26.362  1.00  0.00     0.006 A 
ENDBRANCH  53  74
BRANCH  65  82
ATOM     82  C   UNL A   1      45.836  32.321  28.921  1.00  0.00     0.057 A 
ATOM     83  C   UNL A   1      45.854  33.254  27.875  1.00  0.00     0.134 A 
ATOM     84  C   UNL A   1      46.351  32.732  30.157  1.00  0.00     0.134 A 
ATOM     85  F   UNL A   1      45.388  32.926  26.660  1.00  0.00    -0.206 F 
ATOM     86  C   UNL A   1      46.360  34.542  28.052  1.00  0.00     0.040 A 
ATOM     87  C   UNL A   1      46.829  34.029  30.355  1.00  0.00     0.040 A 
ATOM     88  F   UNL A   1      46.355  31.894  31.205  1.00  0.00    -0.206 F 
ATOM     89  C   UNL A   1      46.839  34.937  29.298  1.00  0.00     0.006 A 
ENDBRANCH  65  82
ENDBRANCH  39  40
ENDBRANCH  32  34
ENDBRANCH  31  32
ENDBRANCH  30  31
ENDBRANCH  29  30
ENDBRANCH  28  29
ENDBRANCH   1  28
TORSDOF 18
ENDMDL
