MODEL 1
REMARK VINA RESULT:     -10.3      0.000      0.000
REMARK SMILES [NH3+]C1(C(=O)N2[C@@H](C(=O)OCCOCCOCCOC(=O)c3ccc(-c4c5nc(c(-c6c(F)cccc6F)c6ccc([nH]6)c(-c6c(F)cccc6F)c6nc(c(-c7c(F)cccc7F)c7ccc4[nH]7)C=C6)C=C5)cc3)CC[C@@H]3CCCC[C@@H]32)CC1
REMARK SMILES IDX 13 1 12 2 11 3 10 4 9 5 7 6 8 7 6 8 5 9 82 10 75 11 77 12
REMARK SMILES IDX 81 13 76 14 78 15 80 16 79 17 3 18 4 19 2 20 83 21 84 22
REMARK SMILES IDX 1 23 14 27 15 28 16 29 17 30 18 31 19 32 20 33 21 34 22 35
REMARK SMILES IDX 74 36 23 37 73 38 24 39 25 40 26 41 67 42 27 43 72 44 66 45
REMARK SMILES IDX 68 46 28 47 71 48 65 49 64 50 29 52 55 53 38 54 54 55 39 56
REMARK SMILES IDX 42 57 53 58 69 59 40 60 41 61 52 63 70 64 43 65 30 66 31 67
REMARK SMILES IDX 36 68 32 69 33 70 35 71 37 72 34 73 56 74 57 75 62 76 58 77
REMARK SMILES IDX 59 78 61 79 63 80 60 81 44 82 45 83 50 84 46 85 47 86 49 87
REMARK SMILES IDX 51 88 48 89
REMARK H PARENT 1 24 1 25 1 26 68 51 42 62
REMARK Flexibility Score: inf
ROOT
ATOM      1  C   UNL A   1      40.185  22.021  27.305  1.00  0.00     0.188 C 
ENDROOT
BRANCH   1   2
ATOM      2  O   UNL A   1      39.360  22.597  26.319  1.00  0.00    -0.376 OA
BRANCH   2   3
ATOM      3  C   UNL A   1      38.447  21.825  25.559  1.00  0.00     0.202 C 
BRANCH   3   4
ATOM      4  C   UNL A   1      36.923  21.812  25.750  1.00  0.00     0.261 C 
BRANCH   4   5
ATOM      5  O   UNL A   1      36.167  22.941  25.283  1.00  0.00    -0.462 OA
BRANCH   5   6
ATOM      6  C   UNL A   1      35.002  23.148  25.951  1.00  0.00     0.328 C 
ATOM      7  O   UNL A   1      34.748  22.657  27.046  1.00  0.00    -0.250 OA
BRANCH   6   8
ATOM      8  C   UNL A   1      34.003  24.054  25.226  1.00  0.00     0.195 C 
ATOM      9  N   UNL A   1      32.793  23.422  24.659  1.00  0.00    -0.320 N 
ATOM     10  C   UNL A   1      31.707  24.358  24.288  1.00  0.00     0.089 C 
ATOM     11  C   UNL A   1      34.554  25.128  24.277  1.00  0.00     0.037 C 
ATOM     12  C   UNL A   1      32.225  25.553  23.456  1.00  0.00     0.012 C 
ATOM     13  C   UNL A   1      30.904  24.748  25.540  1.00  0.00     0.025 C 
ATOM     14  C   UNL A   1      33.472  26.197  24.080  1.00  0.00     0.008 C 
ATOM     15  C   UNL A   1      31.105  26.569  23.214  1.00  0.00     0.006 C 
ATOM     16  C   UNL A   1      30.004  25.976  25.426  1.00  0.00     0.002 C 
ATOM     17  C   UNL A   1      30.494  27.088  24.506  1.00  0.00     0.000 C 
BRANCH   9  18
ATOM     18  C   UNL A   1      32.900  22.256  23.903  1.00  0.00     0.284 C 
ATOM     19  O   UNL A   1      33.155  22.262  22.702  1.00  0.00    -0.268 OA
BRANCH  18  20
ATOM     20  C   UNL A   1      32.567  20.919  24.564  1.00  0.00     0.174 C 
ATOM     21  C   UNL A   1      33.747  19.968  24.728  1.00  0.00     0.086 C 
ATOM     22  C   UNL A   1      32.596  19.575  23.874  1.00  0.00     0.086 C 
BRANCH  20  23
ATOM     23  N   UNL A   1      31.689  21.067  25.754  1.00  0.00    -0.345 N 
ATOM     24  H   UNL A   1      31.780  20.242  26.348  1.00  0.00     0.345 HD
ATOM     25  H   UNL A   1      30.719  21.161  25.450  1.00  0.00     0.345 HD
ATOM     26  H   UNL A   1      31.963  21.897  26.279  1.00  0.00     0.345 HD
ENDBRANCH  20  23
ENDBRANCH  18  20
ENDBRANCH   9  18
ENDBRANCH   6   8
ENDBRANCH   5   6
ENDBRANCH   4   5
ENDBRANCH   3   4
ENDBRANCH   2   3
ENDBRANCH   1   2
BRANCH   1  27
ATOM     27  C   UNL A   1      41.188  20.942  26.896  1.00  0.00     0.188 C 
BRANCH  27  28
ATOM     28  O   UNL A   1      41.911  21.062  25.697  1.00  0.00    -0.376 OA
BRANCH  28  29
ATOM     29  C   UNL A   1      43.316  21.250  25.754  1.00  0.00     0.202 C 
BRANCH  29  30
ATOM     30  C   UNL A   1      44.087  22.351  24.988  1.00  0.00     0.261 C 
BRANCH  30  31
ATOM     31  O   UNL A   1      43.476  23.641  24.842  1.00  0.00    -0.460 OA
BRANCH  31  32
ATOM     32  C   UNL A   1      44.233  24.710  25.193  1.00  0.00     0.338 C 
ATOM     33  O   UNL A   1      45.240  25.114  24.628  1.00  0.00    -0.246 OA
BRANCH  32  34
ATOM     34  C   UNL A   1      43.511  25.489  26.229  1.00  0.00     0.060 A 
ATOM     35  C   UNL A   1      43.918  26.809  26.488  1.00  0.00     0.016 A 
ATOM     36  C   UNL A   1      42.441  24.938  26.933  1.00  0.00     0.016 A 
ATOM     37  C   UNL A   1      43.273  27.574  27.463  1.00  0.00     0.010 A 
ATOM     38  C   UNL A   1      41.821  25.691  27.939  1.00  0.00     0.010 A 
ATOM     39  C   UNL A   1      42.253  27.001  28.230  1.00  0.00    -0.014 A 
BRANCH  39  40
ATOM     40  C   UNL A   1      41.794  27.672  29.473  1.00  0.00     0.031 A 
ATOM     41  C   UNL A   1      40.579  28.558  29.391  1.00  0.00     0.074 A 
ATOM     42  C   UNL A   1      42.423  27.510  30.651  1.00  0.00     0.049 A 
ATOM     43  N   UNL A   1      40.050  29.337  30.298  1.00  0.00    -0.248 NA
ATOM     44  C   UNL A   1      39.868  28.564  28.101  1.00  0.00     0.031 C 
ATOM     45  C   UNL A   1      43.569  26.638  30.889  1.00  0.00     0.029 A 
ATOM     46  N   UNL A   1      42.185  28.097  31.870  1.00  0.00    -0.354 N 
ATOM     47  C   UNL A   1      38.959  29.941  29.685  1.00  0.00     0.074 A 
ATOM     48  C   UNL A   1      38.914  29.457  28.323  1.00  0.00     0.031 C 
ATOM     49  C   UNL A   1      43.953  26.765  32.172  1.00  0.00     0.029 A 
ATOM     50  C   UNL A   1      43.105  27.758  32.833  1.00  0.00     0.049 A 
ATOM     51  H   UNL A   1      41.428  28.704  32.039  1.00  0.00     0.167 HD
ATOM     52  C   UNL A   1      38.070  30.818  30.209  1.00  0.00     0.037 A 
ATOM     53  C   UNL A   1      43.263  28.220  34.090  1.00  0.00     0.037 A 
ATOM     54  C   UNL A   1      38.112  31.302  31.563  1.00  0.00     0.049 A 
ATOM     55  C   UNL A   1      42.315  29.266  34.625  1.00  0.00     0.074 A 
ATOM     56  C   UNL A   1      37.248  32.183  32.190  1.00  0.00     0.029 A 
ATOM     57  N   UNL A   1      39.077  30.956  32.497  1.00  0.00    -0.354 N 
ATOM     58  N   UNL A   1      41.280  29.822  34.045  1.00  0.00    -0.248 NA
ATOM     59  C   UNL A   1      42.561  29.748  35.994  1.00  0.00     0.031 C 
ATOM     60  C   UNL A   1      37.723  32.416  33.484  1.00  0.00     0.029 A 
ATOM     61  C   UNL A   1      38.845  31.628  33.686  1.00  0.00     0.049 A 
ATOM     62  H   UNL A   1      39.817  30.326  32.338  1.00  0.00     0.167 HD
ATOM     63  C   UNL A   1      40.731  30.688  34.986  1.00  0.00     0.074 A 
ATOM     64  C   UNL A   1      41.543  30.576  36.179  1.00  0.00     0.031 C 
ATOM     65  C   UNL A   1      39.650  31.500  34.875  1.00  0.00     0.037 A 
BRANCH  52  66
ATOM     66  C   UNL A   1      36.994  31.340  29.301  1.00  0.00     0.057 A 
ATOM     67  C   UNL A   1      35.878  30.569  28.950  1.00  0.00     0.134 A 
ATOM     68  C   UNL A   1      37.063  32.644  28.796  1.00  0.00     0.134 A 
ATOM     69  F   UNL A   1      35.758  29.307  29.386  1.00  0.00    -0.206 F 
ATOM     70  C   UNL A   1      34.881  31.069  28.110  1.00  0.00     0.040 A 
ATOM     71  C   UNL A   1      36.058  33.166  27.979  1.00  0.00     0.040 A 
ATOM     72  F   UNL A   1      38.103  33.437  29.094  1.00  0.00    -0.206 F 
ATOM     73  C   UNL A   1      34.966  32.375  27.628  1.00  0.00     0.006 A 
ENDBRANCH  52  66
BRANCH  53  74
ATOM     74  C   UNL A   1      44.381  27.725  34.936  1.00  0.00     0.057 A 
ATOM     75  C   UNL A   1      45.641  28.333  34.906  1.00  0.00     0.134 A 
ATOM     76  C   UNL A   1      44.229  26.605  35.764  1.00  0.00     0.134 A 
ATOM     77  F   UNL A   1      45.861  29.391  34.111  1.00  0.00    -0.206 F 
ATOM     78  C   UNL A   1      46.714  27.837  35.650  1.00  0.00     0.040 A 
ATOM     79  C   UNL A   1      45.284  26.115  36.536  1.00  0.00     0.040 A 
ATOM     80  F   UNL A   1      43.050  25.970  35.835  1.00  0.00    -0.206 F 
ATOM     81  C   UNL A   1      46.535  26.728  36.473  1.00  0.00     0.006 A 
ENDBRANCH  53  74
BRANCH  65  82
ATOM     82  C   UNL A   1      39.243  32.292  36.086  1.00  0.00     0.057 A 
ATOM     83  C   UNL A   1      39.741  33.576  36.340  1.00  0.00     0.134 A 
ATOM     84  C   UNL A   1      38.299  31.778  36.985  1.00  0.00     0.134 A 
ATOM     85  F   UNL A   1      40.654  34.126  35.525  1.00  0.00    -0.206 F 
ATOM     86  C   UNL A   1      39.335  34.309  37.459  1.00  0.00     0.040 A 
ATOM     87  C   UNL A   1      37.863  32.512  38.089  1.00  0.00     0.040 A 
ATOM     88  F   UNL A   1      37.771  30.560  36.796  1.00  0.00    -0.206 F 
ATOM     89  C   UNL A   1      38.387  33.780  38.333  1.00  0.00     0.006 A 
ENDBRANCH  65  82
ENDBRANCH  39  40
ENDBRANCH  32  34
ENDBRANCH  31  32
ENDBRANCH  30  31
ENDBRANCH  29  30
ENDBRANCH  28  29
ENDBRANCH  27  28
ENDBRANCH   1  27
TORSDOF 20
ENDMDL
MODEL 2
REMARK VINA RESULT:     -10.3      1.103      6.281
REMARK SMILES [NH3+]C1(C(=O)N2[C@@H](C(=O)OCCOCCOCCOC(=O)c3ccc(-c4c5nc(c(-c6c(F)cccc6F)c6ccc([nH]6)c(-c6c(F)cccc6F)c6nc(c(-c7c(F)cccc7F)c7ccc4[nH]7)C=C6)C=C5)cc3)CC[C@@H]3CCCC[C@@H]32)CC1
REMARK SMILES IDX 13 1 12 2 11 3 10 4 9 5 7 6 8 7 6 8 5 9 82 10 75 11 77 12
REMARK SMILES IDX 81 13 76 14 78 15 80 16 79 17 3 18 4 19 2 20 83 21 84 22
REMARK SMILES IDX 1 23 14 27 15 28 16 29 17 30 18 31 19 32 20 33 21 34 22 35
REMARK SMILES IDX 74 36 23 37 73 38 24 39 25 40 26 41 67 42 27 43 72 44 66 45
REMARK SMILES IDX 68 46 28 47 71 48 65 49 64 50 29 52 55 53 38 54 54 55 39 56
REMARK SMILES IDX 42 57 53 58 69 59 40 60 41 61 52 63 70 64 43 65 30 66 31 67
REMARK SMILES IDX 36 68 32 69 33 70 35 71 37 72 34 73 56 74 57 75 62 76 58 77
REMARK SMILES IDX 59 78 61 79 63 80 60 81 44 82 45 83 50 84 46 85 47 86 49 87
REMARK SMILES IDX 51 88 48 89
REMARK H PARENT 1 24 1 25 1 26 68 51 42 62
REMARK Flexibility Score: inf
ROOT
ATOM      1  C   UNL A   1      38.452  22.824  26.066  1.00  0.00     0.188 C 
ENDROOT
BRANCH   1   2
ATOM      2  O   UNL A   1      37.789  22.504  24.865  1.00  0.00    -0.376 OA
BRANCH   2   3
ATOM      3  C   UNL A   1      36.710  21.586  24.823  1.00  0.00     0.202 C 
BRANCH   3   4
ATOM      4  C   UNL A   1      35.285  21.916  24.355  1.00  0.00     0.261 C 
BRANCH   4   5
ATOM      5  O   UNL A   1      35.047  23.193  23.738  1.00  0.00    -0.462 OA
BRANCH   5   6
ATOM      6  C   UNL A   1      34.613  24.154  24.595  1.00  0.00     0.328 C 
ATOM      7  O   UNL A   1      34.994  24.255  25.757  1.00  0.00    -0.250 OA
BRANCH   6   8
ATOM      8  C   UNL A   1      33.590  25.125  23.998  1.00  0.00     0.195 C 
ATOM      9  N   UNL A   1      32.187  24.999  24.443  1.00  0.00    -0.320 N 
ATOM     10  C   UNL A   1      31.316  26.153  24.124  1.00  0.00     0.089 C 
ATOM     11  C   UNL A   1      33.662  25.420  22.493  1.00  0.00     0.037 C 
ATOM     12  C   UNL A   1      31.458  26.601  22.652  1.00  0.00     0.012 C 
ATOM     13  C   UNL A   1      31.532  27.271  25.158  1.00  0.00     0.025 C 
ATOM     14  C   UNL A   1      32.927  26.739  22.226  1.00  0.00     0.008 C 
ATOM     15  C   UNL A   1      30.656  27.880  22.397  1.00  0.00     0.006 C 
ATOM     16  C   UNL A   1      31.020  28.660  24.788  1.00  0.00     0.002 C 
ATOM     17  C   UNL A   1      31.070  29.025  23.309  1.00  0.00     0.000 C 
BRANCH   9  18
ATOM     18  C   UNL A   1      31.575  23.746  24.486  1.00  0.00     0.284 C 
ATOM     19  O   UNL A   1      30.921  23.293  23.551  1.00  0.00    -0.268 OA
BRANCH  18  20
ATOM     20  C   UNL A   1      31.614  22.954  25.792  1.00  0.00     0.174 C 
ATOM     21  C   UNL A   1      30.486  23.266  26.769  1.00  0.00     0.086 C 
ATOM     22  C   UNL A   1      31.894  23.538  27.157  1.00  0.00     0.086 C 
BRANCH  20  23
ATOM     23  N   UNL A   1      31.905  21.512  25.584  1.00  0.00    -0.345 N 
ATOM     24  H   UNL A   1      32.114  21.074  26.482  1.00  0.00     0.345 HD
ATOM     25  H   UNL A   1      32.710  21.414  24.963  1.00  0.00     0.345 HD
ATOM     26  H   UNL A   1      31.095  21.058  25.164  1.00  0.00     0.345 HD
ENDBRANCH  20  23
ENDBRANCH  18  20
ENDBRANCH   9  18
ENDBRANCH   6   8
ENDBRANCH   5   6
ENDBRANCH   4   5
ENDBRANCH   3   4
ENDBRANCH   2   3
ENDBRANCH   1   2
BRANCH   1  27
ATOM     27  C   UNL A   1      39.438  21.818  26.661  1.00  0.00     0.188 C 
BRANCH  27  28
ATOM     28  O   UNL A   1      40.452  21.262  25.864  1.00  0.00    -0.376 OA
BRANCH  28  29
ATOM     29  C   UNL A   1      41.801  21.366  26.291  1.00  0.00     0.202 C 
BRANCH  29  30
ATOM     30  C   UNL A   1      42.980  21.784  25.383  1.00  0.00     0.261 C 
BRANCH  30  31
ATOM     31  O   UNL A   1      42.886  23.020  24.661  1.00  0.00    -0.460 OA
BRANCH  31  32
ATOM     32  C   UNL A   1      43.751  23.999  25.025  1.00  0.00     0.338 C 
ATOM     33  O   UNL A   1      44.855  24.220  24.545  1.00  0.00    -0.246 OA
BRANCH  32  34
ATOM     34  C   UNL A   1      43.053  24.943  25.932  1.00  0.00     0.060 A 
ATOM     35  C   UNL A   1      43.387  26.307  25.876  1.00  0.00     0.016 A 
ATOM     36  C   UNL A   1      42.075  24.501  26.822  1.00  0.00     0.016 A 
ATOM     37  C   UNL A   1      42.761  27.228  26.719  1.00  0.00     0.010 A 
ATOM     38  C   UNL A   1      41.478  25.418  27.696  1.00  0.00     0.010 A 
ATOM     39  C   UNL A   1      41.839  26.780  27.671  1.00  0.00    -0.014 A 
BRANCH  39  40
ATOM     40  C   UNL A   1      41.424  27.677  28.780  1.00  0.00     0.031 A 
ATOM     41  C   UNL A   1      42.178  27.587  30.081  1.00  0.00     0.074 A 
ATOM     42  C   UNL A   1      40.413  28.555  28.654  1.00  0.00     0.049 A 
ATOM     43  N   UNL A   1      41.942  28.173  31.226  1.00  0.00    -0.248 NA
ATOM     44  C   UNL A   1      43.360  26.708  30.087  1.00  0.00     0.031 C 
ATOM     45  C   UNL A   1      39.640  28.791  27.439  1.00  0.00     0.029 A 
ATOM     46  N   UNL A   1      39.854  29.401  29.582  1.00  0.00    -0.354 N 
ATOM     47  C   UNL A   1      42.930  27.721  32.091  1.00  0.00     0.074 A 
ATOM     48  C   UNL A   1      43.755  26.793  31.348  1.00  0.00     0.031 C 
ATOM     49  C   UNL A   1      38.688  29.705  27.701  1.00  0.00     0.029 A 
ATOM     50  C   UNL A   1      38.759  30.087  29.111  1.00  0.00     0.049 A 
ATOM     51  H   UNL A   1      40.204  29.507  30.496  1.00  0.00     0.167 HD
ATOM     52  C   UNL A   1      43.136  28.048  33.389  1.00  0.00     0.037 A 
ATOM     53  C   UNL A   1      37.897  30.899  29.755  1.00  0.00     0.037 A 
ATOM     54  C   UNL A   1      42.317  28.969  34.131  1.00  0.00     0.049 A 
ATOM     55  C   UNL A   1      38.093  31.181  31.225  1.00  0.00     0.074 A 
ATOM     56  C   UNL A   1      42.454  29.375  35.448  1.00  0.00     0.029 A 
ATOM     57  N   UNL A   1      41.201  29.619  33.627  1.00  0.00    -0.354 N 
ATOM     58  N   UNL A   1      39.035  30.760  32.033  1.00  0.00    -0.248 NA
ATOM     59  C   UNL A   1      37.100  32.054  31.872  1.00  0.00     0.031 C 
ATOM     60  C   UNL A   1      41.387  30.225  35.757  1.00  0.00     0.029 A 
ATOM     61  C   UNL A   1      40.624  30.401  34.614  1.00  0.00     0.049 A 
ATOM     62  H   UNL A   1      40.868  29.537  32.704  1.00  0.00     0.167 HD
ATOM     63  C   UNL A   1      38.771  31.343  33.268  1.00  0.00     0.074 A 
ATOM     64  C   UNL A   1      37.586  32.156  33.101  1.00  0.00     0.031 C 
ATOM     65  C   UNL A   1      39.451  31.220  34.435  1.00  0.00     0.037 A 
BRANCH  52  66
ATOM     66  C   UNL A   1      44.275  27.377  34.101  1.00  0.00     0.057 A 
ATOM     67  C   UNL A   1      45.550  27.952  34.172  1.00  0.00     0.134 A 
ATOM     68  C   UNL A   1      44.082  26.150  34.749  1.00  0.00     0.134 A 
ATOM     69  F   UNL A   1      45.807  29.118  33.560  1.00  0.00    -0.206 F 
ATOM     70  C   UNL A   1      46.599  27.320  34.843  1.00  0.00     0.040 A 
ATOM     71  C   UNL A   1      45.115  25.523  35.448  1.00  0.00     0.040 A 
ATOM     72  F   UNL A   1      42.885  25.546  34.721  1.00  0.00    -0.206 F 
ATOM     73  C   UNL A   1      46.380  26.105  35.490  1.00  0.00     0.006 A 
ENDBRANCH  52  66
BRANCH  53  74
ATOM     74  C   UNL A   1      36.744  31.494  29.029  1.00  0.00     0.057 A 
ATOM     75  C   UNL A   1      36.746  32.838  28.637  1.00  0.00     0.134 A 
ATOM     76  C   UNL A   1      35.595  30.745  28.745  1.00  0.00     0.134 A 
ATOM     77  F   UNL A   1      37.804  33.617  28.906  1.00  0.00    -0.206 F 
ATOM     78  C   UNL A   1      35.642  33.422  28.011  1.00  0.00     0.040 A 
ATOM     79  C   UNL A   1      34.495  31.307  28.093  1.00  0.00     0.040 A 
ATOM     80  F   UNL A   1      35.524  29.453  29.099  1.00  0.00    -0.206 F 
ATOM     81  C   UNL A   1      34.515  32.653  27.732  1.00  0.00     0.006 A 
ENDBRANCH  53  74
BRANCH  65  82
ATOM     82  C   UNL A   1      38.969  32.021  35.613  1.00  0.00     0.057 A 
ATOM     83  C   UNL A   1      38.184  31.458  36.628  1.00  0.00     0.134 A 
ATOM     84  C   UNL A   1      39.340  33.365  35.756  1.00  0.00     0.134 A 
ATOM     85  F   UNL A   1      37.785  30.180  36.550  1.00  0.00    -0.206 F 
ATOM     86  C   UNL A   1      37.764  32.212  37.728  1.00  0.00     0.040 A 
ATOM     87  C   UNL A   1      38.952  34.118  36.864  1.00  0.00     0.040 A 
ATOM     88  F   UNL A   1      40.102  33.964  34.829  1.00  0.00    -0.206 F 
ATOM     89  C   UNL A   1      38.154  33.543  37.852  1.00  0.00     0.006 A 
ENDBRANCH  65  82
ENDBRANCH  39  40
ENDBRANCH  32  34
ENDBRANCH  31  32
ENDBRANCH  30  31
ENDBRANCH  29  30
ENDBRANCH  28  29
ENDBRANCH  27  28
ENDBRANCH   1  27
TORSDOF 20
ENDMDL
MODEL 3
REMARK VINA RESULT:     -10.0      3.592      9.255
REMARK SMILES [NH3+]C1(C(=O)N2[C@@H](C(=O)OCCOCCOCCOC(=O)c3ccc(-c4c5nc(c(-c6c(F)cccc6F)c6ccc([nH]6)c(-c6c(F)cccc6F)c6nc(c(-c7c(F)cccc7F)c7ccc4[nH]7)C=C6)C=C5)cc3)CC[C@@H]3CCCC[C@@H]32)CC1
REMARK SMILES IDX 13 1 12 2 11 3 10 4 9 5 7 6 8 7 6 8 5 9 82 10 75 11 77 12
REMARK SMILES IDX 81 13 76 14 78 15 80 16 79 17 3 18 4 19 2 20 83 21 84 22
REMARK SMILES IDX 1 23 14 27 15 28 16 29 17 30 18 31 19 32 20 33 21 34 22 35
REMARK SMILES IDX 74 36 23 37 73 38 24 39 25 40 26 41 67 42 27 43 72 44 66 45
REMARK SMILES IDX 68 46 28 47 71 48 65 49 64 50 29 52 55 53 38 54 54 55 39 56
REMARK SMILES IDX 42 57 53 58 69 59 40 60 41 61 52 63 70 64 43 65 30 66 31 67
REMARK SMILES IDX 36 68 32 69 33 70 35 71 37 72 34 73 56 74 57 75 62 76 58 77
REMARK SMILES IDX 59 78 61 79 63 80 60 81 44 82 45 83 50 84 46 85 47 86 49 87
REMARK SMILES IDX 51 88 48 89
REMARK H PARENT 1 24 1 25 1 26 68 51 42 62
REMARK Flexibility Score: inf
ROOT
ATOM      1  C   UNL A   1      35.118  31.180  27.723  1.00  0.00     0.188 C 
ENDROOT
BRANCH   1   2
ATOM      2  O   UNL A   1      33.832  30.791  27.301  1.00  0.00    -0.376 OA
BRANCH   2   3
ATOM      3  C   UNL A   1      33.624  29.675  26.453  1.00  0.00     0.202 C 
BRANCH   3   4
ATOM      4  C   UNL A   1      33.021  28.332  26.888  1.00  0.00     0.261 C 
BRANCH   4   5
ATOM      5  O   UNL A   1      32.910  27.284  25.909  1.00  0.00    -0.462 OA
BRANCH   5   6
ATOM      6  C   UNL A   1      32.106  26.254  26.282  1.00  0.00     0.328 C 
ATOM      7  O   UNL A   1      31.056  26.399  26.901  1.00  0.00    -0.250 OA
BRANCH   6   8
ATOM      8  C   UNL A   1      32.611  24.869  25.870  1.00  0.00     0.195 C 
ATOM      9  N   UNL A   1      32.768  24.601  24.425  1.00  0.00    -0.320 N 
ATOM     10  C   UNL A   1      33.576  23.405  24.089  1.00  0.00     0.089 C 
ATOM     11  C   UNL A   1      32.036  23.643  26.594  1.00  0.00     0.037 C 
ATOM     12  C   UNL A   1      33.147  22.164  24.903  1.00  0.00     0.012 C 
ATOM     13  C   UNL A   1      35.073  23.746  24.178  1.00  0.00     0.025 C 
ATOM     14  C   UNL A   1      33.009  22.472  26.401  1.00  0.00     0.008 C 
ATOM     15  C   UNL A   1      34.093  20.990  24.636  1.00  0.00     0.006 C 
ATOM     16  C   UNL A   1      36.043  22.570  24.241  1.00  0.00     0.002 C 
ATOM     17  C   UNL A   1      35.543  21.319  24.955  1.00  0.00     0.000 C 
BRANCH   9  18
ATOM     18  C   UNL A   1      31.751  24.939  23.534  1.00  0.00     0.284 C 
ATOM     19  O   UNL A   1      30.715  24.288  23.427  1.00  0.00    -0.268 OA
BRANCH  18  20
ATOM     20  C   UNL A   1      31.981  26.095  22.562  1.00  0.00     0.174 C 
ATOM     21  C   UNL A   1      32.586  25.699  21.220  1.00  0.00     0.086 C 
ATOM     22  C   UNL A   1      33.333  26.611  22.126  1.00  0.00     0.086 C 
BRANCH  20  23
ATOM     23  N   UNL A   1      30.830  27.033  22.497  1.00  0.00    -0.345 N 
ATOM     24  H   UNL A   1      30.121  26.658  21.865  1.00  0.00     0.345 HD
ATOM     25  H   UNL A   1      31.149  27.938  22.151  1.00  0.00     0.345 HD
ATOM     26  H   UNL A   1      30.430  27.146  23.428  1.00  0.00     0.345 HD
ENDBRANCH  20  23
ENDBRANCH  18  20
ENDBRANCH   9  18
ENDBRANCH   6   8
ENDBRANCH   5   6
ENDBRANCH   4   5
ENDBRANCH   3   4
ENDBRANCH   2   3
ENDBRANCH   1   2
BRANCH   1  27
ATOM     27  C   UNL A   1      35.408  32.664  27.952  1.00  0.00     0.188 C 
BRANCH  27  28
ATOM     28  O   UNL A   1      34.353  33.573  28.129  1.00  0.00    -0.376 OA
BRANCH  28  29
ATOM     29  C   UNL A   1      34.041  34.023  29.438  1.00  0.00     0.202 C 
BRANCH  29  30
ATOM     30  C   UNL A   1      33.175  35.264  29.758  1.00  0.00     0.261 C 
BRANCH  30  31
ATOM     31  O   UNL A   1      32.286  35.209  30.882  1.00  0.00    -0.460 OA
BRANCH  31  32
ATOM     32  C   UNL A   1      32.693  35.852  32.005  1.00  0.00     0.338 C 
ATOM     33  O   UNL A   1      32.114  36.764  32.580  1.00  0.00    -0.246 OA
BRANCH  32  34
ATOM     34  C   UNL A   1      33.831  35.107  32.597  1.00  0.00     0.060 A 
ATOM     35  C   UNL A   1      35.107  35.696  32.577  1.00  0.00     0.016 A 
ATOM     36  C   UNL A   1      33.651  33.850  33.174  1.00  0.00     0.016 A 
ATOM     37  C   UNL A   1      36.209  35.025  33.114  1.00  0.00     0.010 A 
ATOM     38  C   UNL A   1      34.763  33.161  33.675  1.00  0.00     0.010 A 
ATOM     39  C   UNL A   1      36.051  33.730  33.620  1.00  0.00    -0.014 A 
BRANCH  39  40
ATOM     40  C   UNL A   1      37.245  32.886  33.879  1.00  0.00     0.031 A 
ATOM     41  C   UNL A   1      38.028  33.136  35.141  1.00  0.00     0.074 A 
ATOM     42  C   UNL A   1      37.637  31.917  33.032  1.00  0.00     0.049 A 
ATOM     43  N   UNL A   1      39.161  32.618  35.539  1.00  0.00    -0.248 NA
ATOM     44  C   UNL A   1      37.449  34.112  36.080  1.00  0.00     0.031 C 
ATOM     45  C   UNL A   1      36.942  31.525  31.810  1.00  0.00     0.029 A 
ATOM     46  N   UNL A   1      38.739  31.096  33.074  1.00  0.00    -0.354 N 
ATOM     47  C   UNL A   1      39.440  33.217  36.761  1.00  0.00     0.074 A 
ATOM     48  C   UNL A   1      38.372  34.155  37.029  1.00  0.00     0.031 C 
ATOM     49  C   UNL A   1      37.648  30.554  31.202  1.00  0.00     0.029 A 
ATOM     50  C   UNL A   1      38.863  30.286  31.971  1.00  0.00     0.049 A 
ATOM     51  H   UNL A   1      39.378  31.089  33.822  1.00  0.00     0.167 HD
ATOM     52  C   UNL A   1      40.491  33.005  37.589  1.00  0.00     0.037 A 
ATOM     53  C   UNL A   1      39.859  29.452  31.610  1.00  0.00     0.037 A 
ATOM     54  C   UNL A   1      41.555  32.074  37.324  1.00  0.00     0.049 A 
ATOM     55  C   UNL A   1      41.065  29.297  32.504  1.00  0.00     0.074 A 
ATOM     56  C   UNL A   1      42.657  31.780  38.110  1.00  0.00     0.029 A 
ATOM     57  N   UNL A   1      41.659  31.295  36.183  1.00  0.00    -0.354 N 
ATOM     58  N   UNL A   1      41.317  29.857  33.663  1.00  0.00    -0.248 NA
ATOM     59  C   UNL A   1      42.128  28.392  32.038  1.00  0.00     0.031 C 
ATOM     60  C   UNL A   1      43.457  30.867  37.416  1.00  0.00     0.029 A 
ATOM     61  C   UNL A   1      42.820  30.542  36.229  1.00  0.00     0.049 A 
ATOM     62  H   UNL A   1      41.004  31.280  35.447  1.00  0.00     0.167 HD
ATOM     63  C   UNL A   1      42.542  29.346  34.079  1.00  0.00     0.074 A 
ATOM     64  C   UNL A   1      42.979  28.424  33.053  1.00  0.00     0.031 C 
ATOM     65  C   UNL A   1      43.241  29.614  35.210  1.00  0.00     0.037 A 
BRANCH  52  66
ATOM     66  C   UNL A   1      40.558  33.823  38.846  1.00  0.00     0.057 A 
ATOM     67  C   UNL A   1      41.304  35.005  38.927  1.00  0.00     0.134 A 
ATOM     68  C   UNL A   1      39.839  33.434  39.984  1.00  0.00     0.134 A 
ATOM     69  F   UNL A   1      42.029  35.426  37.879  1.00  0.00    -0.206 F 
ATOM     70  C   UNL A   1      41.353  35.759  40.101  1.00  0.00     0.040 A 
ATOM     71  C   UNL A   1      39.855  34.196  41.154  1.00  0.00     0.040 A 
ATOM     72  F   UNL A   1      39.102  32.314  39.975  1.00  0.00    -0.206 F 
ATOM     73  C   UNL A   1      40.619  35.358  41.217  1.00  0.00     0.006 A 
ENDBRANCH  52  66
BRANCH  53  74
ATOM     74  C   UNL A   1      39.784  28.707  30.325  1.00  0.00     0.057 A 
ATOM     75  C   UNL A   1      40.289  29.252  29.138  1.00  0.00     0.134 A 
ATOM     76  C   UNL A   1      39.169  27.451  30.243  1.00  0.00     0.134 A 
ATOM     77  F   UNL A   1      40.863  30.464  29.143  1.00  0.00    -0.206 F 
ATOM     78  C   UNL A   1      40.168  28.587  27.916  1.00  0.00     0.040 A 
ATOM     79  C   UNL A   1      39.067  26.762  29.033  1.00  0.00     0.040 A 
ATOM     80  F   UNL A   1      38.658  26.875  31.341  1.00  0.00    -0.206 F 
ATOM     81  C   UNL A   1      39.560  27.335  27.863  1.00  0.00     0.006 A 
ENDBRANCH  53  74
BRANCH  65  82
ATOM     82  C   UNL A   1      44.525  28.863  35.432  1.00  0.00     0.057 A 
ATOM     83  C   UNL A   1      45.752  29.318  34.931  1.00  0.00     0.134 A 
ATOM     84  C   UNL A   1      44.539  27.693  36.202  1.00  0.00     0.134 A 
ATOM     85  F   UNL A   1      45.811  30.426  34.178  1.00  0.00    -0.206 F 
ATOM     86  C   UNL A   1      46.940  28.620  35.166  1.00  0.00     0.040 A 
ATOM     87  C   UNL A   1      45.722  27.004  36.469  1.00  0.00     0.040 A 
ATOM     88  F   UNL A   1      43.402  27.208  36.724  1.00  0.00    -0.206 F 
ATOM     89  C   UNL A   1      46.928  27.464  35.943  1.00  0.00     0.006 A 
ENDBRANCH  65  82
ENDBRANCH  39  40
ENDBRANCH  32  34
ENDBRANCH  31  32
ENDBRANCH  30  31
ENDBRANCH  29  30
ENDBRANCH  28  29
ENDBRANCH  27  28
ENDBRANCH   1  27
TORSDOF 20
ENDMDL
