MODEL 1
REMARK VINA RESULT:     -10.9      0.000      0.000
REMARK SMILES O=C(OCCOCCOCCOC(=O)[C@H]1CS[C@]2(c3ccccc3)CCC(=O)N12)c1ccc(-c2c3nc(c(-c4c(F)cccc4F)c4ccc([nH]4)c(-c4c(F)cccc4F)c4nc(c(-c5c(F)cccc5F)c5ccc2[nH]5)C=C4)C=C3)cc1
REMARK SMILES IDX 7 1 6 2 5 3 4 4 3 5 2 6 1 7 30 8 31 9 83 10 32 11 82 12
REMARK SMILES IDX 33 13 34 14 35 15 76 16 36 17 81 18 75 19 77 20 37 21 80 22
REMARK SMILES IDX 74 23 73 24 38 26 64 27 47 28 63 29 48 30 51 31 62 32 78 33
REMARK SMILES IDX 49 34 50 35 61 37 79 38 52 39 39 40 40 41 45 42 41 43 42 44
REMARK SMILES IDX 44 45 46 46 43 47 65 48 66 49 71 50 67 51 68 52 70 53 72 54
REMARK SMILES IDX 69 55 53 56 54 57 59 58 55 59 56 60 58 61 60 62 57 63 8 64
REMARK SMILES IDX 9 65 10 66 11 67 12 68 13 69 14 70 15 71 16 72 29 73 17 74
REMARK SMILES IDX 18 75 27 76 25 77 26 78 28 79 19 80 20 81 24 82 21 83 23 84
REMARK SMILES IDX 22 85
REMARK H PARENT 77 25 51 36
REMARK Flexibility Score: inf
ROOT
ATOM      1  C   UNL A   1      31.303  29.164  24.476  1.00  0.00     0.188 C 
ENDROOT
BRANCH   1   2
ATOM      2  O   UNL A   1      30.953  30.441  25.028  1.00  0.00    -0.376 OA
BRANCH   2   3
ATOM      3  C   UNL A   1      31.790  30.832  26.123  1.00  0.00     0.202 C 
BRANCH   3   4
ATOM      4  C   UNL A   1      31.311  32.071  26.894  1.00  0.00     0.261 C 
BRANCH   4   5
ATOM      5  O   UNL A   1      32.252  33.156  26.844  1.00  0.00    -0.460 OA
BRANCH   5   6
ATOM      6  C   UNL A   1      33.050  33.618  27.839  1.00  0.00     0.338 C 
ATOM      7  O   UNL A   1      32.729  34.653  28.418  1.00  0.00    -0.246 OA
BRANCH   6   8
ATOM      8  C   UNL A   1      34.290  32.916  28.301  1.00  0.00     0.060 A 
ATOM      9  C   UNL A   1      34.376  31.559  28.608  1.00  0.00     0.016 A 
ATOM     10  C   UNL A   1      35.468  33.680  28.387  1.00  0.00     0.016 A 
ATOM     11  C   UNL A   1      35.545  30.999  29.110  1.00  0.00     0.010 A 
ATOM     12  C   UNL A   1      36.668  33.112  28.830  1.00  0.00     0.010 A 
ATOM     13  C   UNL A   1      36.694  31.774  29.236  1.00  0.00    -0.014 A 
BRANCH  13  14
ATOM     14  C   UNL A   1      37.866  31.179  29.910  1.00  0.00     0.031 A 
ATOM     15  C   UNL A   1      38.088  31.489  31.355  1.00  0.00     0.074 A 
ATOM     16  C   UNL A   1      38.619  30.268  29.270  1.00  0.00     0.049 A 
ATOM     17  N   UNL A   1      39.044  31.089  32.147  1.00  0.00    -0.248 NA
ATOM     18  C   UNL A   1      37.085  32.353  32.003  1.00  0.00     0.031 C 
ATOM     19  C   UNL A   1      38.389  29.822  27.900  1.00  0.00     0.029 A 
ATOM     20  N   UNL A   1      39.700  29.534  29.678  1.00  0.00    -0.354 N 
ATOM     21  C   UNL A   1      38.769  31.661  33.379  1.00  0.00     0.074 A 
ATOM     22  C   UNL A   1      37.567  32.450  33.231  1.00  0.00     0.031 C 
ATOM     23  C   UNL A   1      39.285  28.877  27.579  1.00  0.00     0.029 A 
ATOM     24  C   UNL A   1      40.195  28.700  28.703  1.00  0.00     0.049 A 
ATOM     25  H   UNL A   1      40.087  29.598  30.581  1.00  0.00     0.167 HD
ATOM     26  C   UNL A   1      39.465  31.532  34.531  1.00  0.00     0.037 A 
ATOM     27  C   UNL A   1      41.283  27.910  28.716  1.00  0.00     0.037 A 
ATOM     28  C   UNL A   1      40.666  30.752  34.642  1.00  0.00     0.049 A 
ATOM     29  C   UNL A   1      42.110  27.881  29.971  1.00  0.00     0.074 A 
ATOM     30  C   UNL A   1      41.507  30.605  35.728  1.00  0.00     0.029 A 
ATOM     31  N   UNL A   1      41.197  29.983  33.613  1.00  0.00    -0.354 N 
ATOM     32  N   UNL A   1      41.884  28.480  31.117  1.00  0.00    -0.248 NA
ATOM     33  C   UNL A   1      43.344  27.089  29.936  1.00  0.00     0.031 C 
ATOM     34  C   UNL A   1      42.569  29.778  35.343  1.00  0.00     0.029 A 
ATOM     35  C   UNL A   1      42.363  29.371  34.032  1.00  0.00     0.049 A 
ATOM     36  H   UNL A   1      40.800  29.890  32.717  1.00  0.00     0.167 HD
ATOM     37  C   UNL A   1      42.935  28.123  31.948  1.00  0.00     0.074 A 
ATOM     38  C   UNL A   1      43.790  27.240  31.175  1.00  0.00     0.031 C 
ATOM     39  C   UNL A   1      43.178  28.492  33.230  1.00  0.00     0.037 A 
BRANCH  26  40
ATOM     40  C   UNL A   1      38.965  32.311  35.710  1.00  0.00     0.057 A 
ATOM     41  C   UNL A   1      39.321  33.651  35.922  1.00  0.00     0.134 A 
ATOM     42  C   UNL A   1      38.168  31.693  36.680  1.00  0.00     0.134 A 
ATOM     43  F   UNL A   1      40.114  34.290  35.048  1.00  0.00    -0.206 F 
ATOM     44  C   UNL A   1      38.924  34.337  37.071  1.00  0.00     0.040 A 
ATOM     45  C   UNL A   1      37.746  32.377  37.822  1.00  0.00     0.040 A 
ATOM     46  F   UNL A   1      37.802  30.410  36.544  1.00  0.00    -0.206 F 
ATOM     47  C   UNL A   1      38.132  33.700  38.025  1.00  0.00     0.006 A 
ENDBRANCH  26  40
BRANCH  27  48
ATOM     48  C   UNL A   1      41.669  27.132  27.509  1.00  0.00     0.057 A 
ATOM     49  C   UNL A   1      42.437  27.700  26.486  1.00  0.00     0.134 A 
ATOM     50  C   UNL A   1      41.272  25.797  27.345  1.00  0.00     0.134 A 
ATOM     51  F   UNL A   1      42.836  28.977  26.572  1.00  0.00    -0.206 F 
ATOM     52  C   UNL A   1      42.785  26.976  25.342  1.00  0.00     0.040 A 
ATOM     53  C   UNL A   1      41.638  25.054  26.220  1.00  0.00     0.040 A 
ATOM     54  F   UNL A   1      40.533  25.189  28.285  1.00  0.00    -0.206 F 
ATOM     55  C   UNL A   1      42.390  25.646  25.210  1.00  0.00     0.006 A 
ENDBRANCH  27  48
BRANCH  39  56
ATOM     56  C   UNL A   1      44.396  27.908  33.876  1.00  0.00     0.057 A 
ATOM     57  C   UNL A   1      45.627  28.573  33.868  1.00  0.00     0.134 A 
ATOM     58  C   UNL A   1      44.318  26.685  34.555  1.00  0.00     0.134 A 
ATOM     59  F   UNL A   1      45.764  29.741  33.220  1.00  0.00    -0.206 F 
ATOM     60  C   UNL A   1      46.747  28.033  34.498  1.00  0.00     0.040 A 
ATOM     61  C   UNL A   1      45.425  26.149  35.211  1.00  0.00     0.040 A 
ATOM     62  F   UNL A   1      43.163  26.004  34.604  1.00  0.00    -0.206 F 
ATOM     63  C   UNL A   1      46.645  26.821  35.179  1.00  0.00     0.006 A 
ENDBRANCH  39  56
ENDBRANCH  13  14
ENDBRANCH   6   8
ENDBRANCH   5   6
ENDBRANCH   4   5
ENDBRANCH   3   4
ENDBRANCH   2   3
ENDBRANCH   1   2
BRANCH   1  64
ATOM     64  C   UNL A   1      30.388  28.785  23.313  1.00  0.00     0.188 C 
BRANCH  64  65
ATOM     65  O   UNL A   1      30.832  27.743  22.443  1.00  0.00    -0.376 OA
BRANCH  65  66
ATOM     66  C   UNL A   1      32.173  27.284  22.551  1.00  0.00     0.202 C 
BRANCH  66  67
ATOM     67  C   UNL A   1      32.480  25.792  22.317  1.00  0.00     0.261 C 
BRANCH  67  68
ATOM     68  O   UNL A   1      33.733  25.314  22.821  1.00  0.00    -0.462 OA
BRANCH  68  69
ATOM     69  C   UNL A   1      33.821  23.950  22.831  1.00  0.00     0.329 C 
ATOM     70  O   UNL A   1      34.775  23.326  22.384  1.00  0.00    -0.250 OA
BRANCH  69  71
ATOM     71  C   UNL A   1      32.644  23.334  23.588  1.00  0.00     0.206 C 
ATOM     72  C   UNL A   1      32.347  21.862  23.311  1.00  0.00     0.109 C 
ATOM     73  N   UNL A   1      32.794  23.458  25.031  1.00  0.00    -0.309 N 
ATOM     74  S   UNL A   1      32.693  20.908  24.847  1.00  0.00    -0.126 SA
ATOM     75  C   UNL A   1      33.460  22.361  25.711  1.00  0.00     0.116 C 
ATOM     76  C   UNL A   1      31.738  23.994  25.752  1.00  0.00     0.224 C 
ATOM     77  C   UNL A   1      32.931  22.497  27.151  1.00  0.00     0.055 C 
ATOM     78  C   UNL A   1      31.605  23.238  27.042  1.00  0.00     0.104 C 
ATOM     79  O   UNL A   1      30.936  24.821  25.341  1.00  0.00    -0.275 OA
BRANCH  75  80
ATOM     80  C   UNL A   1      34.999  22.350  25.556  1.00  0.00    -0.012 A 
ATOM     81  C   UNL A   1      35.803  23.466  25.900  1.00  0.00     0.007 A 
ATOM     82  C   UNL A   1      35.701  21.205  25.131  1.00  0.00     0.007 A 
ATOM     83  C   UNL A   1      37.202  23.426  25.868  1.00  0.00     0.000 A 
ATOM     84  C   UNL A   1      37.102  21.174  25.065  1.00  0.00     0.000 A 
ATOM     85  C   UNL A   1      37.852  22.278  25.448  1.00  0.00     0.000 A 
ENDBRANCH  75  80
ENDBRANCH  69  71
ENDBRANCH  68  69
ENDBRANCH  67  68
ENDBRANCH  66  67
ENDBRANCH  65  66
ENDBRANCH  64  65
ENDBRANCH   1  64
TORSDOF 18
ENDMDL
MODEL 2
REMARK VINA RESULT:     -10.9      2.506      8.038
REMARK SMILES O=C(OCCOCCOCCOC(=O)[C@H]1CS[C@]2(c3ccccc3)CCC(=O)N12)c1ccc(-c2c3nc(c(-c4c(F)cccc4F)c4ccc([nH]4)c(-c4c(F)cccc4F)c4nc(c(-c5c(F)cccc5F)c5ccc2[nH]5)C=C4)C=C3)cc1
REMARK SMILES IDX 7 1 6 2 5 3 4 4 3 5 2 6 1 7 30 8 31 9 83 10 32 11 82 12
REMARK SMILES IDX 33 13 34 14 35 15 76 16 36 17 81 18 75 19 77 20 37 21 80 22
REMARK SMILES IDX 74 23 73 24 38 26 64 27 47 28 63 29 48 30 51 31 62 32 78 33
REMARK SMILES IDX 49 34 50 35 61 37 79 38 52 39 39 40 40 41 45 42 41 43 42 44
REMARK SMILES IDX 44 45 46 46 43 47 65 48 66 49 71 50 67 51 68 52 70 53 72 54
REMARK SMILES IDX 69 55 53 56 54 57 59 58 55 59 56 60 58 61 60 62 57 63 8 64
REMARK SMILES IDX 9 65 10 66 11 67 12 68 13 69 14 70 15 71 16 72 29 73 17 74
REMARK SMILES IDX 18 75 27 76 25 77 26 78 28 79 19 80 20 81 24 82 21 83 23 84
REMARK SMILES IDX 22 85
REMARK H PARENT 77 25 51 36
REMARK Flexibility Score: inf
ROOT
ATOM      1  C   UNL A   1      39.927  21.597  26.640  1.00  0.00     0.188 C 
ENDROOT
BRANCH   1   2
ATOM      2  O   UNL A   1      41.315  21.942  26.749  1.00  0.00    -0.376 OA
BRANCH   2   3
ATOM      3  C   UNL A   1      42.167  21.119  25.945  1.00  0.00     0.202 C 
BRANCH   3   4
ATOM      4  C   UNL A   1      43.430  21.814  25.416  1.00  0.00     0.261 C 
BRANCH   4   5
ATOM      5  O   UNL A   1      43.158  23.106  24.847  1.00  0.00    -0.460 OA
BRANCH   5   6
ATOM      6  C   UNL A   1      43.710  24.300  25.180  1.00  0.00     0.338 C 
ATOM      7  O   UNL A   1      44.751  24.642  24.625  1.00  0.00    -0.246 OA
BRANCH   6   8
ATOM      8  C   UNL A   1      43.101  25.248  26.167  1.00  0.00     0.060 A 
ATOM      9  C   UNL A   1      43.476  26.581  26.334  1.00  0.00     0.016 A 
ATOM     10  C   UNL A   1      42.039  24.766  26.952  1.00  0.00     0.016 A 
ATOM     11  C   UNL A   1      42.918  27.374  27.329  1.00  0.00     0.010 A 
ATOM     12  C   UNL A   1      41.425  25.577  27.915  1.00  0.00     0.010 A 
ATOM     13  C   UNL A   1      41.899  26.873  28.134  1.00  0.00    -0.014 A 
BRANCH  13  14
ATOM     14  C   UNL A   1      41.440  27.697  29.272  1.00  0.00     0.031 A 
ATOM     15  C   UNL A   1      42.234  27.664  30.537  1.00  0.00     0.074 A 
ATOM     16  C   UNL A   1      40.422  28.559  29.111  1.00  0.00     0.049 A 
ATOM     17  N   UNL A   1      42.022  28.294  31.660  1.00  0.00    -0.248 NA
ATOM     18  C   UNL A   1      43.444  26.823  30.532  1.00  0.00     0.031 C 
ATOM     19  C   UNL A   1      39.679  28.737  27.867  1.00  0.00     0.029 A 
ATOM     20  N   UNL A   1      39.852  29.463  29.966  1.00  0.00    -0.354 N 
ATOM     21  C   UNL A   1      43.059  27.916  32.499  1.00  0.00     0.074 A 
ATOM     22  C   UNL A   1      43.892  26.989  31.766  1.00  0.00     0.031 C 
ATOM     23  C   UNL A   1      38.762  29.702  28.026  1.00  0.00     0.029 A 
ATOM     24  C   UNL A   1      38.811  30.165  29.407  1.00  0.00     0.049 A 
ATOM     25  H   UNL A   1      40.158  29.597  30.892  1.00  0.00     0.167 HD
ATOM     26  C   UNL A   1      43.288  28.314  33.770  1.00  0.00     0.037 A 
ATOM     27  C   UNL A   1      37.974  31.057  29.966  1.00  0.00     0.037 A 
ATOM     28  C   UNL A   1      42.432  29.225  34.478  1.00  0.00     0.049 A 
ATOM     29  C   UNL A   1      38.177  31.389  31.418  1.00  0.00     0.074 A 
ATOM     30  C   UNL A   1      42.508  29.645  35.791  1.00  0.00     0.029 A 
ATOM     31  N   UNL A   1      41.330  29.858  33.914  1.00  0.00    -0.354 N 
ATOM     32  N   UNL A   1      39.120  30.975  32.231  1.00  0.00    -0.248 NA
ATOM     33  C   UNL A   1      37.199  32.290  32.037  1.00  0.00     0.031 C 
ATOM     34  C   UNL A   1      41.428  30.502  36.033  1.00  0.00     0.029 A 
ATOM     35  C   UNL A   1      40.707  30.653  34.858  1.00  0.00     0.049 A 
ATOM     36  H   UNL A   1      41.035  29.753  32.980  1.00  0.00     0.167 HD
ATOM     37  C   UNL A   1      38.865  31.579  33.452  1.00  0.00     0.074 A 
ATOM     38  C   UNL A   1      37.684  32.402  33.266  1.00  0.00     0.031 C 
ATOM     39  C   UNL A   1      39.537  31.464  34.624  1.00  0.00     0.037 A 
BRANCH  26  40
ATOM     40  C   UNL A   1      44.466  27.700  34.466  1.00  0.00     0.057 A 
ATOM     41  C   UNL A   1      44.365  26.499  35.182  1.00  0.00     0.134 A 
ATOM     42  C   UNL A   1      45.704  28.353  34.471  1.00  0.00     0.134 A 
ATOM     43  F   UNL A   1      43.196  25.842  35.246  1.00  0.00    -0.206 F 
ATOM     44  C   UNL A   1      45.446  25.985  35.900  1.00  0.00     0.040 A 
ATOM     45  C   UNL A   1      46.798  27.837  35.168  1.00  0.00     0.040 A 
ATOM     46  F   UNL A   1      45.865  29.512  33.816  1.00  0.00    -0.206 F 
ATOM     47  C   UNL A   1      46.668  26.655  35.893  1.00  0.00     0.006 A 
ENDBRANCH  26  40
BRANCH  27  48
ATOM     48  C   UNL A   1      36.864  31.653  29.177  1.00  0.00     0.057 A 
ATOM     49  C   UNL A   1      36.914  32.977  28.726  1.00  0.00     0.134 A 
ATOM     50  C   UNL A   1      35.718  30.911  28.856  1.00  0.00     0.134 A 
ATOM     51  F   UNL A   1      37.973  33.748  29.013  1.00  0.00    -0.206 F 
ATOM     52  C   UNL A   1      35.862  33.545  28.001  1.00  0.00     0.040 A 
ATOM     53  C   UNL A   1      34.674  31.457  28.105  1.00  0.00     0.040 A 
ATOM     54  F   UNL A   1      35.603  29.636  29.255  1.00  0.00    -0.206 F 
ATOM     55  C   UNL A   1      34.741  32.782  27.682  1.00  0.00     0.006 A 
ENDBRANCH  27  48
BRANCH  39  56
ATOM     56  C   UNL A   1      39.026  32.276  35.773  1.00  0.00     0.057 A 
ATOM     57  C   UNL A   1      38.193  31.726  36.753  1.00  0.00     0.134 A 
ATOM     58  C   UNL A   1      39.415  33.614  35.922  1.00  0.00     0.134 A 
ATOM     59  F   UNL A   1      37.775  30.454  36.655  1.00  0.00    -0.206 F 
ATOM     60  C   UNL A   1      37.746  32.484  37.834  1.00  0.00     0.040 A 
ATOM     61  C   UNL A   1      38.997  34.373  37.012  1.00  0.00     0.040 A 
ATOM     62  F   UNL A   1      40.219  34.194  35.018  1.00  0.00    -0.206 F 
ATOM     63  C   UNL A   1      38.156  33.810  37.971  1.00  0.00     0.006 A 
ENDBRANCH  39  56
ENDBRANCH  13  14
ENDBRANCH   6   8
ENDBRANCH   5   6
ENDBRANCH   4   5
ENDBRANCH   3   4
ENDBRANCH   2   3
ENDBRANCH   1   2
BRANCH   1  64
ATOM     64  C   UNL A   1      39.050  22.839  26.492  1.00  0.00     0.188 C 
BRANCH  64  65
ATOM     65  O   UNL A   1      37.727  22.649  25.990  1.00  0.00    -0.376 OA
BRANCH  65  66
ATOM     66  C   UNL A   1      37.111  23.703  25.262  1.00  0.00     0.202 C 
BRANCH  66  67
ATOM     67  C   UNL A   1      35.658  24.098  25.589  1.00  0.00     0.261 C 
BRANCH  67  68
ATOM     68  O   UNL A   1      34.647  23.140  25.253  1.00  0.00    -0.462 OA
BRANCH  68  69
ATOM     69  C   UNL A   1      33.381  23.583  25.518  1.00  0.00     0.329 C 
ATOM     70  O   UNL A   1      33.019  23.994  26.612  1.00  0.00    -0.250 OA
BRANCH  69  71
ATOM     71  C   UNL A   1      32.538  23.616  24.243  1.00  0.00     0.206 C 
ATOM     72  C   UNL A   1      31.023  23.554  24.422  1.00  0.00     0.109 C 
ATOM     73  N   UNL A   1      32.807  24.799  23.438  1.00  0.00    -0.309 N 
ATOM     74  S   UNL A   1      30.314  25.164  23.880  1.00  0.00    -0.126 SA
ATOM     75  C   UNL A   1      31.980  25.964  23.697  1.00  0.00     0.116 C 
ATOM     76  C   UNL A   1      33.102  24.620  22.094  1.00  0.00     0.224 C 
ATOM     77  C   UNL A   1      32.082  26.743  22.372  1.00  0.00     0.055 C 
ATOM     78  C   UNL A   1      32.439  25.714  21.308  1.00  0.00     0.104 C 
ATOM     79  O   UNL A   1      33.656  23.645  21.605  1.00  0.00    -0.275 OA
BRANCH  75  80
ATOM     80  C   UNL A   1      32.361  26.750  24.974  1.00  0.00    -0.012 A 
ATOM     81  C   UNL A   1      33.656  27.293  25.171  1.00  0.00     0.007 A 
ATOM     82  C   UNL A   1      31.424  27.035  25.985  1.00  0.00     0.007 A 
ATOM     83  C   UNL A   1      33.976  28.099  26.269  1.00  0.00     0.000 A 
ATOM     84  C   UNL A   1      31.752  27.815  27.105  1.00  0.00     0.000 A 
ATOM     85  C   UNL A   1      33.022  28.359  27.239  1.00  0.00     0.000 A 
ENDBRANCH  75  80
ENDBRANCH  69  71
ENDBRANCH  68  69
ENDBRANCH  67  68
ENDBRANCH  66  67
ENDBRANCH  65  66
ENDBRANCH  64  65
ENDBRANCH   1  64
TORSDOF 18
ENDMDL
MODEL 3
REMARK VINA RESULT:     -10.8      2.534      8.054
REMARK SMILES O=C(OCCOCCOCCOC(=O)[C@H]1CS[C@]2(c3ccccc3)CCC(=O)N12)c1ccc(-c2c3nc(c(-c4c(F)cccc4F)c4ccc([nH]4)c(-c4c(F)cccc4F)c4nc(c(-c5c(F)cccc5F)c5ccc2[nH]5)C=C4)C=C3)cc1
REMARK SMILES IDX 7 1 6 2 5 3 4 4 3 5 2 6 1 7 30 8 31 9 83 10 32 11 82 12
REMARK SMILES IDX 33 13 34 14 35 15 76 16 36 17 81 18 75 19 77 20 37 21 80 22
REMARK SMILES IDX 74 23 73 24 38 26 64 27 47 28 63 29 48 30 51 31 62 32 78 33
REMARK SMILES IDX 49 34 50 35 61 37 79 38 52 39 39 40 40 41 45 42 41 43 42 44
REMARK SMILES IDX 44 45 46 46 43 47 65 48 66 49 71 50 67 51 68 52 70 53 72 54
REMARK SMILES IDX 69 55 53 56 54 57 59 58 55 59 56 60 58 61 60 62 57 63 8 64
REMARK SMILES IDX 9 65 10 66 11 67 12 68 13 69 14 70 15 71 16 72 29 73 17 74
REMARK SMILES IDX 18 75 27 76 25 77 26 78 28 79 19 80 20 81 24 82 21 83 23 84
REMARK SMILES IDX 22 85
REMARK H PARENT 77 25 51 36
REMARK Flexibility Score: inf
ROOT
ATOM      1  C   UNL A   1      39.729  21.531  26.449  1.00  0.00     0.188 C 
ENDROOT
BRANCH   1   2
ATOM      2  O   UNL A   1      41.001  22.192  26.381  1.00  0.00    -0.376 OA
BRANCH   2   3
ATOM      3  C   UNL A   1      42.046  21.356  25.871  1.00  0.00     0.202 C 
BRANCH   3   4
ATOM      4  C   UNL A   1      43.303  22.103  25.402  1.00  0.00     0.261 C 
BRANCH   4   5
ATOM      5  O   UNL A   1      43.020  23.432  24.934  1.00  0.00    -0.460 OA
BRANCH   5   6
ATOM      6  C   UNL A   1      43.638  24.590  25.277  1.00  0.00     0.338 C 
ATOM      7  O   UNL A   1      44.672  24.900  24.690  1.00  0.00    -0.246 OA
BRANCH   6   8
ATOM      8  C   UNL A   1      43.112  25.536  26.312  1.00  0.00     0.060 A 
ATOM      9  C   UNL A   1      43.601  26.821  26.546  1.00  0.00     0.016 A 
ATOM     10  C   UNL A   1      42.011  25.109  27.075  1.00  0.00     0.016 A 
ATOM     11  C   UNL A   1      43.113  27.608  27.582  1.00  0.00     0.010 A 
ATOM     12  C   UNL A   1      41.468  25.920  28.079  1.00  0.00     0.010 A 
ATOM     13  C   UNL A   1      42.053  27.158  28.362  1.00  0.00    -0.014 A 
BRANCH  13  14
ATOM     14  C   UNL A   1      41.666  27.959  29.542  1.00  0.00     0.031 A 
ATOM     15  C   UNL A   1      40.471  28.850  29.435  1.00  0.00     0.074 A 
ATOM     16  C   UNL A   1      42.291  27.771  30.717  1.00  0.00     0.049 A 
ATOM     17  N   UNL A   1      39.952  29.645  30.330  1.00  0.00    -0.248 NA
ATOM     18  C   UNL A   1      39.750  28.831  28.150  1.00  0.00     0.031 C 
ATOM     19  C   UNL A   1      43.384  26.827  30.929  1.00  0.00     0.029 A 
ATOM     20  N   UNL A   1      42.091  28.326  31.952  1.00  0.00    -0.354 N 
ATOM     21  C   UNL A   1      38.855  30.229  29.716  1.00  0.00     0.074 A 
ATOM     22  C   UNL A   1      38.790  29.714  28.366  1.00  0.00     0.031 C 
ATOM     23  C   UNL A   1      43.752  26.849  32.218  1.00  0.00     0.029 A 
ATOM     24  C   UNL A   1      42.961  27.860  32.909  1.00  0.00     0.049 A 
ATOM     25  H   UNL A   1      41.393  28.995  32.136  1.00  0.00     0.167 HD
ATOM     26  C   UNL A   1      37.982  31.118  30.241  1.00  0.00     0.037 A 
ATOM     27  C   UNL A   1      43.115  28.237  34.191  1.00  0.00     0.037 A 
ATOM     28  C   UNL A   1      38.084  31.623  31.582  1.00  0.00     0.049 A 
ATOM     29  C   UNL A   1      42.210  29.318  34.714  1.00  0.00     0.074 A 
ATOM     30  C   UNL A   1      37.312  32.583  32.208  1.00  0.00     0.029 A 
ATOM     31  N   UNL A   1      39.029  31.197  32.508  1.00  0.00    -0.354 N 
ATOM     32  N   UNL A   1      41.215  29.920  34.107  1.00  0.00    -0.248 NA
ATOM     33  C   UNL A   1      42.454  29.783  36.083  1.00  0.00     0.031 C 
ATOM     34  C   UNL A   1      37.818  32.767  33.500  1.00  0.00     0.029 A 
ATOM     35  C   UNL A   1      38.873  31.887  33.696  1.00  0.00     0.049 A 
ATOM     36  H   UNL A   1      39.711  30.507  32.341  1.00  0.00     0.167 HD
ATOM     37  C   UNL A   1      40.698  30.823  35.023  1.00  0.00     0.074 A 
ATOM     38  C   UNL A   1      41.484  30.674  36.235  1.00  0.00     0.031 C 
ATOM     39  C   UNL A   1      39.673  31.699  34.881  1.00  0.00     0.037 A 
BRANCH  26  40
ATOM     40  C   UNL A   1      36.910  31.629  29.327  1.00  0.00     0.057 A 
ATOM     41  C   UNL A   1      36.953  32.918  28.777  1.00  0.00     0.134 A 
ATOM     42  C   UNL A   1      35.787  30.843  29.044  1.00  0.00     0.134 A 
ATOM     43  F   UNL A   1      37.986  33.735  29.040  1.00  0.00    -0.206 F 
ATOM     44  C   UNL A   1      35.905  33.415  28.001  1.00  0.00     0.040 A 
ATOM     45  C   UNL A   1      34.742  31.321  28.251  1.00  0.00     0.040 A 
ATOM     46  F   UNL A   1      35.678  29.606  29.549  1.00  0.00    -0.206 F 
ATOM     47  C   UNL A   1      34.795  32.615  27.735  1.00  0.00     0.006 A 
ENDBRANCH  26  40
BRANCH  27  48
ATOM     48  C   UNL A   1      44.177  27.631  35.036  1.00  0.00     0.057 A 
ATOM     49  C   UNL A   1      43.940  26.483  35.800  1.00  0.00     0.134 A 
ATOM     50  C   UNL A   1      45.461  28.191  35.107  1.00  0.00     0.134 A 
ATOM     51  F   UNL A   1      42.729  25.906  35.792  1.00  0.00    -0.206 F 
ATOM     52  C   UNL A   1      44.932  25.922  36.610  1.00  0.00     0.040 A 
ATOM     53  C   UNL A   1      46.470  27.624  35.889  1.00  0.00     0.040 A 
ATOM     54  F   UNL A   1      45.759  29.293  34.402  1.00  0.00    -0.206 F 
ATOM     55  C   UNL A   1      46.203  26.490  36.650  1.00  0.00     0.006 A 
ENDBRANCH  27  48
BRANCH  39  56
ATOM     56  C   UNL A   1      39.330  32.530  36.078  1.00  0.00     0.057 A 
ATOM     57  C   UNL A   1      39.907  33.785  36.295  1.00  0.00     0.134 A 
ATOM     58  C   UNL A   1      38.372  32.082  36.998  1.00  0.00     0.134 A 
ATOM     59  F   UNL A   1      40.842  34.259  35.456  1.00  0.00    -0.206 F 
ATOM     60  C   UNL A   1      39.558  34.563  37.398  1.00  0.00     0.040 A 
ATOM     61  C   UNL A   1      37.996  32.863  38.089  1.00  0.00     0.040 A 
ATOM     62  F   UNL A   1      37.779  30.890  36.838  1.00  0.00    -0.206 F 
ATOM     63  C   UNL A   1      38.593  34.105  38.295  1.00  0.00     0.006 A 
ENDBRANCH  39  56
ENDBRANCH  13  14
ENDBRANCH   6   8
ENDBRANCH   5   6
ENDBRANCH   4   5
ENDBRANCH   3   4
ENDBRANCH   2   3
ENDBRANCH   1   2
BRANCH   1  64
ATOM     64  C   UNL A   1      38.612  22.405  25.881  1.00  0.00     0.188 C 
BRANCH  64  65
ATOM     65  O   UNL A   1      37.720  21.800  24.945  1.00  0.00    -0.376 OA
BRANCH  65  66
ATOM     66  C   UNL A   1      36.678  22.587  24.382  1.00  0.00     0.202 C 
BRANCH  66  67
ATOM     67  C   UNL A   1      35.284  22.573  25.039  1.00  0.00     0.261 C 
BRANCH  67  68
ATOM     68  O   UNL A   1      34.692  23.851  25.301  1.00  0.00    -0.462 OA
BRANCH  68  69
ATOM     69  C   UNL A   1      33.358  23.774  25.591  1.00  0.00     0.329 C 
ATOM     70  O   UNL A   1      32.904  23.831  26.726  1.00  0.00    -0.250 OA
BRANCH  69  71
ATOM     71  C   UNL A   1      32.524  23.745  24.310  1.00  0.00     0.206 C 
ATOM     72  C   UNL A   1      31.007  23.694  24.482  1.00  0.00     0.109 C 
ATOM     73  N   UNL A   1      32.801  24.885  23.448  1.00  0.00    -0.309 N 
ATOM     74  S   UNL A   1      30.305  25.276  23.854  1.00  0.00    -0.126 SA
ATOM     75  C   UNL A   1      31.973  26.063  23.643  1.00  0.00     0.116 C 
ATOM     76  C   UNL A   1      33.104  24.638  22.117  1.00  0.00     0.224 C 
ATOM     77  C   UNL A   1      32.086  26.774  22.281  1.00  0.00     0.055 C 
ATOM     78  C   UNL A   1      32.448  25.691  21.273  1.00  0.00     0.104 C 
ATOM     79  O   UNL A   1      33.659  23.639  21.682  1.00  0.00    -0.275 OA
BRANCH  75  80
ATOM     80  C   UNL A   1      32.348  26.912  24.881  1.00  0.00    -0.012 A 
ATOM     81  C   UNL A   1      31.447  27.124  25.955  1.00  0.00     0.007 A 
ATOM     82  C   UNL A   1      33.631  27.467  25.047  1.00  0.00     0.007 A 
ATOM     83  C   UNL A   1      31.815  27.797  27.126  1.00  0.00     0.000 A 
ATOM     84  C   UNL A   1      33.992  28.171  26.206  1.00  0.00     0.000 A 
ATOM     85  C   UNL A   1      33.090  28.322  27.250  1.00  0.00     0.000 A 
ENDBRANCH  75  80
ENDBRANCH  69  71
ENDBRANCH  68  69
ENDBRANCH  67  68
ENDBRANCH  66  67
ENDBRANCH  65  66
ENDBRANCH  64  65
ENDBRANCH   1  64
TORSDOF 18
ENDMDL
