MODEL 1
REMARK VINA RESULT:     -11.1      0.000      0.000
REMARK SMILES COc1cc(OC)cc(-c2cc3nc(C)c(CCC(=O)OCCOCCOCCOC(=O)c4ccc(-c5c6nc(c(-c7c(F)cccc7F)c7ccc([nH]7)c(-c7c(F)cccc7F)c7nc(c(-c8c(F)cccc8F)c8ccc5[nH]8)C=C7)C=C6)cc4)c(C)n3n2)c1
REMARK SMILES IDX 25 1 24 2 23 3 22 4 21 5 19 6 20 7 18 8 17 9 16 10 10 11
REMARK SMILES IDX 11 12 90 13 12 14 89 15 13 16 87 17 14 18 88 19 15 20 9 21
REMARK SMILES IDX 3 22 4 23 91 24 5 25 8 26 2 27 1 28 6 29 7 30 26 31 27 32
REMARK SMILES IDX 28 33 29 34 30 35 31 36 32 37 33 38 34 39 86 40 35 41 85 42
REMARK SMILES IDX 36 43 37 44 38 45 79 46 39 47 84 48 78 49 80 50 40 51 83 52
REMARK SMILES IDX 77 53 76 54 41 56 67 57 50 58 66 59 51 60 54 61 65 62 81 63
REMARK SMILES IDX 52 64 53 65 64 67 82 68 55 69 42 70 43 71 48 72 44 73 45 74
REMARK SMILES IDX 47 75 49 76 46 77 68 78 69 79 74 80 70 81 71 82 73 83 75 84
REMARK SMILES IDX 72 85 56 86 57 87 62 88 58 89 59 90 61 91 63 92 60 93
REMARK H PARENT 80 55 54 66
REMARK Flexibility Score: inf
ROOT
ATOM      1  C   UNL A   1      33.191  36.023  29.322  1.00  0.00     0.188 C 
ENDROOT
BRANCH   1   2
ATOM      2  O   UNL A   1      32.776  34.889  28.575  1.00  0.00    -0.376 OA
BRANCH   2   3
ATOM      3  C   UNL A   1      33.796  34.081  27.993  1.00  0.00     0.202 C 
BRANCH   3   4
ATOM      4  C   UNL A   1      33.769  32.567  28.327  1.00  0.00     0.261 C 
BRANCH   4   5
ATOM      5  O   UNL A   1      33.766  31.695  27.159  1.00  0.00    -0.463 OA
BRANCH   5   6
ATOM      6  C   UNL A   1      33.689  30.355  27.318  1.00  0.00     0.306 C 
ATOM      7  O   UNL A   1      34.577  29.683  27.829  1.00  0.00    -0.252 OA
BRANCH   6   8
ATOM      8  C   UNL A   1      32.378  29.743  26.808  1.00  0.00     0.127 C 
BRANCH   8   9
ATOM      9  C   UNL A   1      32.160  29.383  25.311  1.00  0.00     0.051 C 
BRANCH   9  10
ATOM     10  C   UNL A   1      31.764  27.955  24.945  1.00  0.00    -0.005 A 
ATOM     11  C   UNL A   1      32.179  23.477  24.762  1.00  0.00     0.095 A 
ATOM     12  C   UNL A   1      31.040  23.934  24.046  1.00  0.00     0.080 A 
ATOM     13  N   UNL A   1      32.805  24.500  25.328  1.00  0.00    -0.166 NA
ATOM     14  C   UNL A   1      31.009  25.311  24.213  1.00  0.00     0.156 A 
ATOM     15  N   UNL A   1      32.139  25.595  24.937  1.00  0.00    -0.219 N 
ATOM     16  N   UNL A   1      30.208  26.327  23.774  1.00  0.00    -0.234 NA
ATOM     17  C   UNL A   1      32.535  26.886  25.222  1.00  0.00     0.046 A 
ATOM     18  C   UNL A   1      30.557  27.557  24.082  1.00  0.00     0.045 A 
ATOM     19  C   UNL A   1      33.899  26.898  25.779  1.00  0.00     0.067 C 
ATOM     20  C   UNL A   1      29.690  28.636  23.461  1.00  0.00     0.067 C 
BRANCH  11  21
ATOM     21  C   UNL A   1      32.800  22.174  24.955  1.00  0.00     0.009 A 
ATOM     22  C   UNL A   1      34.842  20.843  24.945  1.00  0.00     0.123 A 
ATOM     23  C   UNL A   1      34.058  19.689  24.934  1.00  0.00     0.092 A 
ATOM     24  C   UNL A   1      34.210  22.082  24.941  1.00  0.00     0.057 A 
ATOM     25  C   UNL A   1      32.661  19.766  24.910  1.00  0.00     0.123 A 
ATOM     26  C   UNL A   1      32.030  21.011  24.934  1.00  0.00     0.057 A 
BRANCH  22  27
ATOM     27  O   UNL A   1      36.193  20.633  24.894  1.00  0.00    -0.497 OA
ATOM     28  C   UNL A   1      37.019  21.786  25.016  1.00  0.00     0.278 C 
ENDBRANCH  22  27
BRANCH  25  29
ATOM     29  O   UNL A   1      32.022  18.556  24.856  1.00  0.00    -0.497 OA
ATOM     30  C   UNL A   1      32.793  17.426  25.248  1.00  0.00     0.278 C 
ENDBRANCH  25  29
ENDBRANCH  11  21
ENDBRANCH   9  10
ENDBRANCH   8   9
ENDBRANCH   6   8
ENDBRANCH   5   6
ENDBRANCH   4   5
ENDBRANCH   3   4
ENDBRANCH   2   3
ENDBRANCH   1   2
BRANCH   1  31
ATOM     31  C   UNL A   1      32.632  36.092  30.733  1.00  0.00     0.188 C 
BRANCH  31  32
ATOM     32  O   UNL A   1      32.910  34.991  31.607  1.00  0.00    -0.376 OA
BRANCH  32  33
ATOM     33  C   UNL A   1      34.274  34.565  31.706  1.00  0.00     0.202 C 
BRANCH  33  34
ATOM     34  C   UNL A   1      34.564  33.307  32.515  1.00  0.00     0.261 C 
BRANCH  34  35
ATOM     35  O   UNL A   1      34.961  32.260  31.671  1.00  0.00    -0.460 OA
BRANCH  35  36
ATOM     36  C   UNL A   1      36.050  31.571  32.102  1.00  0.00     0.338 C 
ATOM     37  O   UNL A   1      36.448  31.427  33.233  1.00  0.00    -0.246 OA
BRANCH  36  38
ATOM     38  C   UNL A   1      36.702  31.062  30.878  1.00  0.00     0.060 A 
ATOM     39  C   UNL A   1      36.621  29.687  30.706  1.00  0.00     0.016 A 
ATOM     40  C   UNL A   1      37.747  31.837  30.362  1.00  0.00     0.016 A 
ATOM     41  C   UNL A   1      37.803  29.046  30.449  1.00  0.00     0.010 A 
ATOM     42  C   UNL A   1      38.942  31.211  30.244  1.00  0.00     0.010 A 
ATOM     43  C   UNL A   1      38.959  29.827  30.381  1.00  0.00    -0.014 A 
BRANCH  43  44
ATOM     44  C   UNL A   1      40.236  29.182  30.252  1.00  0.00     0.031 A 
ATOM     45  C   UNL A   1      40.862  29.113  31.587  1.00  0.00     0.074 A 
ATOM     46  C   UNL A   1      40.622  28.631  29.087  1.00  0.00     0.049 A 
ATOM     47  N   UNL A   1      41.729  29.939  32.076  1.00  0.00    -0.248 NA
ATOM     48  C   UNL A   1      40.186  28.292  32.616  1.00  0.00     0.031 C 
ATOM     49  C   UNL A   1      39.833  28.469  27.859  1.00  0.00     0.029 A 
ATOM     50  N   UNL A   1      41.784  27.985  28.795  1.00  0.00    -0.354 N 
ATOM     51  C   UNL A   1      41.916  29.489  33.381  1.00  0.00     0.074 A 
ATOM     52  C   UNL A   1      40.706  28.813  33.726  1.00  0.00     0.031 C 
ATOM     53  C   UNL A   1      40.447  27.580  27.045  1.00  0.00     0.029 A 
ATOM     54  C   UNL A   1      41.719  27.209  27.634  1.00  0.00     0.049 A 
ATOM     55  H   UNL A   1      42.594  28.059  29.349  1.00  0.00     0.167 HD
ATOM     56  C   UNL A   1      43.181  29.230  33.815  1.00  0.00     0.037 A 
ATOM     57  C   UNL A   1      42.640  26.273  27.287  1.00  0.00     0.037 A 
ATOM     58  C   UNL A   1      44.124  29.912  32.951  1.00  0.00     0.049 A 
ATOM     59  C   UNL A   1      43.859  26.565  28.084  1.00  0.00     0.074 A 
ATOM     60  C   UNL A   1      44.436  31.221  32.649  1.00  0.00     0.029 A 
ATOM     61  N   UNL A   1      44.562  29.139  31.904  1.00  0.00    -0.354 N 
ATOM     62  N   UNL A   1      44.592  27.632  27.918  1.00  0.00    -0.248 NA
ATOM     63  C   UNL A   1      44.021  25.892  29.367  1.00  0.00     0.031 C 
ATOM     64  C   UNL A   1      44.905  31.213  31.301  1.00  0.00     0.029 A 
ATOM     65  C   UNL A   1      44.942  29.898  30.837  1.00  0.00     0.049 A 
ATOM     66  H   UNL A   1      44.597  28.156  31.923  1.00  0.00     0.167 HD
ATOM     67  C   UNL A   1      44.956  28.006  29.202  1.00  0.00     0.074 A 
ATOM     68  C   UNL A   1      44.712  26.825  30.026  1.00  0.00     0.031 C 
ATOM     69  C   UNL A   1      45.109  29.326  29.517  1.00  0.00     0.037 A 
BRANCH  56  70
ATOM     70  C   UNL A   1      43.582  27.937  34.540  1.00  0.00     0.057 A 
ATOM     71  C   UNL A   1      43.316  26.719  33.884  1.00  0.00     0.134 A 
ATOM     72  C   UNL A   1      43.915  27.788  35.907  1.00  0.00     0.134 A 
ATOM     73  F   UNL A   1      43.040  26.691  32.571  1.00  0.00    -0.206 F 
ATOM     74  C   UNL A   1      43.238  25.492  34.557  1.00  0.00     0.040 A 
ATOM     75  C   UNL A   1      43.853  26.567  36.585  1.00  0.00     0.040 A 
ATOM     76  F   UNL A   1      44.279  28.795  36.704  1.00  0.00    -0.206 F 
ATOM     77  C   UNL A   1      43.478  25.417  35.919  1.00  0.00     0.006 A 
ENDBRANCH  56  70
BRANCH  57  78
ATOM     78  C   UNL A   1      42.463  24.982  26.581  1.00  0.00     0.057 A 
ATOM     79  C   UNL A   1      43.213  24.675  25.435  1.00  0.00     0.134 A 
ATOM     80  C   UNL A   1      41.781  23.907  27.176  1.00  0.00     0.134 A 
ATOM     81  F   UNL A   1      43.931  25.624  24.819  1.00  0.00    -0.206 F 
ATOM     82  C   UNL A   1      43.308  23.371  24.930  1.00  0.00     0.040 A 
ATOM     83  C   UNL A   1      41.864  22.601  26.678  1.00  0.00     0.040 A 
ATOM     84  F   UNL A   1      41.091  24.069  28.313  1.00  0.00    -0.206 F 
ATOM     85  C   UNL A   1      42.642  22.325  25.561  1.00  0.00     0.006 A 
ENDBRANCH  57  78
BRANCH  69  86
ATOM     86  C   UNL A   1      45.335  30.287  28.386  1.00  0.00     0.057 A 
ATOM     87  C   UNL A   1      46.555  30.479  27.723  1.00  0.00     0.134 A 
ATOM     88  C   UNL A   1      44.218  30.958  27.874  1.00  0.00     0.134 A 
ATOM     89  F   UNL A   1      47.659  29.819  28.096  1.00  0.00    -0.206 F 
ATOM     90  C   UNL A   1      46.658  31.327  26.614  1.00  0.00     0.040 A 
ATOM     91  C   UNL A   1      44.299  31.775  26.748  1.00  0.00     0.040 A 
ATOM     92  F   UNL A   1      43.012  30.785  28.438  1.00  0.00    -0.206 F 
ATOM     93  C   UNL A   1      45.525  31.969  26.118  1.00  0.00     0.006 A 
ENDBRANCH  69  86
ENDBRANCH  43  44
ENDBRANCH  36  38
ENDBRANCH  35  36
ENDBRANCH  34  35
ENDBRANCH  33  34
ENDBRANCH  32  33
ENDBRANCH  31  32
ENDBRANCH   1  31
TORSDOF 22
ENDMDL
MODEL 2
REMARK VINA RESULT:     -10.1      1.353      2.386
REMARK SMILES COc1cc(OC)cc(-c2cc3nc(C)c(CCC(=O)OCCOCCOCCOC(=O)c4ccc(-c5c6nc(c(-c7c(F)cccc7F)c7ccc([nH]7)c(-c7c(F)cccc7F)c7nc(c(-c8c(F)cccc8F)c8ccc5[nH]8)C=C7)C=C6)cc4)c(C)n3n2)c1
REMARK SMILES IDX 25 1 24 2 23 3 22 4 21 5 19 6 20 7 18 8 17 9 16 10 10 11
REMARK SMILES IDX 11 12 90 13 12 14 89 15 13 16 87 17 14 18 88 19 15 20 9 21
REMARK SMILES IDX 3 22 4 23 91 24 5 25 8 26 2 27 1 28 6 29 7 30 26 31 27 32
REMARK SMILES IDX 28 33 29 34 30 35 31 36 32 37 33 38 34 39 86 40 35 41 85 42
REMARK SMILES IDX 36 43 37 44 38 45 79 46 39 47 84 48 78 49 80 50 40 51 83 52
REMARK SMILES IDX 77 53 76 54 41 56 67 57 50 58 66 59 51 60 54 61 65 62 81 63
REMARK SMILES IDX 52 64 53 65 64 67 82 68 55 69 42 70 43 71 48 72 44 73 45 74
REMARK SMILES IDX 47 75 49 76 46 77 68 78 69 79 74 80 70 81 71 82 73 83 75 84
REMARK SMILES IDX 72 85 56 86 57 87 62 88 58 89 59 90 61 91 63 92 60 93
REMARK H PARENT 80 55 54 66
REMARK Flexibility Score: inf
ROOT
ATOM      1  C   UNL A   1      33.394  33.412  28.077  1.00  0.00     0.188 C 
ENDROOT
BRANCH   1   2
ATOM      2  O   UNL A   1      32.172  33.522  27.363  1.00  0.00    -0.376 OA
BRANCH   2   3
ATOM      3  C   UNL A   1      31.395  32.337  27.210  1.00  0.00     0.202 C 
BRANCH   3   4
ATOM      4  C   UNL A   1      31.935  31.266  26.227  1.00  0.00     0.261 C 
BRANCH   4   5
ATOM      5  O   UNL A   1      32.187  29.966  26.836  1.00  0.00    -0.463 OA
BRANCH   5   6
ATOM      6  C   UNL A   1      32.917  29.040  26.174  1.00  0.00     0.306 C 
ATOM      7  O   UNL A   1      33.390  28.044  26.708  1.00  0.00    -0.252 OA
BRANCH   6   8
ATOM      8  C   UNL A   1      33.092  29.340  24.679  1.00  0.00     0.127 C 
BRANCH   8   9
ATOM      9  C   UNL A   1      32.179  28.700  23.596  1.00  0.00     0.051 C 
BRANCH   9  10
ATOM     10  C   UNL A   1      31.724  27.254  23.774  1.00  0.00    -0.005 A 
ATOM     11  C   UNL A   1      32.212  22.811  24.305  1.00  0.00     0.095 A 
ATOM     12  C   UNL A   1      30.846  23.184  24.188  1.00  0.00     0.080 A 
ATOM     13  N   UNL A   1      32.986  23.887  24.259  1.00  0.00    -0.166 NA
ATOM     14  C   UNL A   1      30.835  24.567  24.069  1.00  0.00     0.156 A 
ATOM     15  N   UNL A   1      32.161  24.921  24.049  1.00  0.00    -0.219 N 
ATOM     16  N   UNL A   1      29.872  25.522  23.902  1.00  0.00    -0.234 NA
ATOM     17  C   UNL A   1      32.581  26.217  23.830  1.00  0.00     0.046 A 
ATOM     18  C   UNL A   1      30.267  26.766  23.738  1.00  0.00     0.045 A 
ATOM     19  C   UNL A   1      34.036  26.257  23.606  1.00  0.00     0.067 C 
ATOM     20  C   UNL A   1      29.153  27.750  23.440  1.00  0.00     0.067 C 
BRANCH  11  21
ATOM     21  C   UNL A   1      32.910  21.537  24.413  1.00  0.00     0.009 A 
ATOM     22  C   UNL A   1      32.784  19.155  24.914  1.00  0.00     0.123 A 
ATOM     23  C   UNL A   1      34.175  19.130  25.011  1.00  0.00     0.092 A 
ATOM     24  C   UNL A   1      32.155  20.363  24.629  1.00  0.00     0.057 A 
ATOM     25  C   UNL A   1      34.933  20.293  24.836  1.00  0.00     0.123 A 
ATOM     26  C   UNL A   1      34.300  21.498  24.523  1.00  0.00     0.057 A 
BRANCH  22  27
ATOM     27  O   UNL A   1      32.157  17.968  25.179  1.00  0.00    -0.497 OA
ATOM     28  C   UNL A   1      32.992  16.821  25.292  1.00  0.00     0.278 C 
ENDBRANCH  22  27
BRANCH  25  29
ATOM     29  O   UNL A   1      36.282  20.129  25.003  1.00  0.00    -0.497 OA
ATOM     30  C   UNL A   1      37.013  21.297  25.354  1.00  0.00     0.278 C 
ENDBRANCH  25  29
ENDBRANCH  11  21
ENDBRANCH   9  10
ENDBRANCH   8   9
ENDBRANCH   6   8
ENDBRANCH   5   6
ENDBRANCH   4   5
ENDBRANCH   3   4
ENDBRANCH   2   3
ENDBRANCH   1   2
BRANCH   1  31
ATOM     31  C   UNL A   1      33.657  34.538  29.063  1.00  0.00     0.188 C 
BRANCH  31  32
ATOM     32  O   UNL A   1      33.761  34.189  30.449  1.00  0.00    -0.376 OA
BRANCH  32  33
ATOM     33  C   UNL A   1      35.079  34.103  31.003  1.00  0.00     0.202 C 
BRANCH  33  34
ATOM     34  C   UNL A   1      36.191  33.577  30.103  1.00  0.00     0.261 C 
BRANCH  34  35
ATOM     35  O   UNL A   1      37.135  32.863  30.854  1.00  0.00    -0.460 OA
BRANCH  35  36
ATOM     36  C   UNL A   1      36.802  31.568  31.092  1.00  0.00     0.338 C 
ATOM     37  O   UNL A   1      36.167  31.112  32.014  1.00  0.00    -0.246 OA
BRANCH  36  38
ATOM     38  C   UNL A   1      37.430  30.794  30.003  1.00  0.00     0.060 A 
ATOM     39  C   UNL A   1      37.100  29.446  29.983  1.00  0.00     0.016 A 
ATOM     40  C   UNL A   1      38.638  31.293  29.501  1.00  0.00     0.016 A 
ATOM     41  C   UNL A   1      38.153  28.573  29.914  1.00  0.00     0.010 A 
ATOM     42  C   UNL A   1      39.696  30.451  29.568  1.00  0.00     0.010 A 
ATOM     43  C   UNL A   1      39.439  29.116  29.865  1.00  0.00    -0.014 A 
BRANCH  43  44
ATOM     44  C   UNL A   1      40.574  28.240  29.932  1.00  0.00     0.031 A 
ATOM     45  C   UNL A   1      41.070  28.222  31.323  1.00  0.00     0.074 A 
ATOM     46  C   UNL A   1      40.937  27.490  28.876  1.00  0.00     0.049 A 
ATOM     47  N   UNL A   1      42.039  28.930  31.805  1.00  0.00    -0.248 NA
ATOM     48  C   UNL A   1      40.172  27.669  32.360  1.00  0.00     0.031 C 
ATOM     49  C   UNL A   1      40.229  27.325  27.600  1.00  0.00     0.029 A 
ATOM     50  N   UNL A   1      41.973  26.613  28.770  1.00  0.00    -0.354 N 
ATOM     51  C   UNL A   1      42.035  28.617  33.162  1.00  0.00     0.074 A 
ATOM     52  C   UNL A   1      40.695  28.219  33.455  1.00  0.00     0.031 C 
ATOM     53  C   UNL A   1      40.723  26.247  26.949  1.00  0.00     0.029 A 
ATOM     54  C   UNL A   1      41.851  25.726  27.696  1.00  0.00     0.049 A 
ATOM     55  H   UNL A   1      42.737  26.606  29.390  1.00  0.00     0.167 HD
ATOM     56  C   UNL A   1      43.190  28.188  33.745  1.00  0.00     0.037 A 
ATOM     57  C   UNL A   1      42.599  24.603  27.543  1.00  0.00     0.037 A 
ATOM     58  C   UNL A   1      44.309  28.577  32.910  1.00  0.00     0.049 A 
ATOM     59  C   UNL A   1      43.786  24.764  28.422  1.00  0.00     0.074 A 
ATOM     60  C   UNL A   1      44.889  29.761  32.505  1.00  0.00     0.029 A 
ATOM     61  N   UNL A   1      44.671  27.615  32.000  1.00  0.00    -0.354 N 
ATOM     62  N   UNL A   1      44.720  25.653  28.218  1.00  0.00    -0.248 NA
ATOM     63  C   UNL A   1      43.717  24.235  29.779  1.00  0.00     0.031 C 
ATOM     64  C   UNL A   1      45.451  29.504  31.218  1.00  0.00     0.029 A 
ATOM     65  C   UNL A   1      45.271  28.157  30.901  1.00  0.00     0.049 A 
ATOM     66  H   UNL A   1      44.516  26.652  32.125  1.00  0.00     0.167 HD
ATOM     67  C   UNL A   1      45.049  26.108  29.485  1.00  0.00     0.074 A 
ATOM     68  C   UNL A   1      44.520  25.101  30.401  1.00  0.00     0.031 C 
ATOM     69  C   UNL A   1      45.428  27.407  29.672  1.00  0.00     0.037 A 
BRANCH  56  70
ATOM     70  C   UNL A   1      43.278  26.942  34.638  1.00  0.00     0.057 A 
ATOM     71  C   UNL A   1      43.537  27.147  36.007  1.00  0.00     0.134 A 
ATOM     72  C   UNL A   1      43.427  25.598  34.223  1.00  0.00     0.134 A 
ATOM     73  F   UNL A   1      43.384  28.358  36.563  1.00  0.00    -0.206 F 
ATOM     74  C   UNL A   1      44.043  26.144  36.845  1.00  0.00     0.040 A 
ATOM     75  C   UNL A   1      43.919  24.587  35.053  1.00  0.00     0.040 A 
ATOM     76  F   UNL A   1      43.158  25.160  32.991  1.00  0.00    -0.206 F 
ATOM     77  C   UNL A   1      44.264  24.864  36.361  1.00  0.00     0.006 A 
ENDBRANCH  56  70
BRANCH  57  78
ATOM     78  C   UNL A   1      42.234  23.289  26.964  1.00  0.00     0.057 A 
ATOM     79  C   UNL A   1      43.102  22.617  26.090  1.00  0.00     0.134 A 
ATOM     80  C   UNL A   1      41.170  22.528  27.479  1.00  0.00     0.134 A 
ATOM     81  F   UNL A   1      44.170  23.245  25.576  1.00  0.00    -0.206 F 
ATOM     82  C   UNL A   1      42.944  21.260  25.773  1.00  0.00     0.040 A 
ATOM     83  C   UNL A   1      40.999  21.175  27.168  1.00  0.00     0.040 A 
ATOM     84  F   UNL A   1      40.321  23.047  28.376  1.00  0.00    -0.206 F 
ATOM     85  C   UNL A   1      41.896  20.530  26.325  1.00  0.00     0.006 A 
ENDBRANCH  57  78
BRANCH  69  86
ATOM     86  C   UNL A   1      45.920  28.166  28.474  1.00  0.00     0.057 A 
ATOM     87  C   UNL A   1      45.110  28.893  27.591  1.00  0.00     0.134 A 
ATOM     88  C   UNL A   1      47.305  28.254  28.289  1.00  0.00     0.134 A 
ATOM     89  F   UNL A   1      43.779  28.928  27.740  1.00  0.00    -0.206 F 
ATOM     90  C   UNL A   1      45.660  29.652  26.552  1.00  0.00     0.040 A 
ATOM     91  C   UNL A   1      47.867  29.037  27.282  1.00  0.00     0.040 A 
ATOM     92  F   UNL A   1      48.138  27.615  29.125  1.00  0.00    -0.206 F 
ATOM     93  C   UNL A   1      47.043  29.733  26.402  1.00  0.00     0.006 A 
ENDBRANCH  69  86
ENDBRANCH  43  44
ENDBRANCH  36  38
ENDBRANCH  35  36
ENDBRANCH  34  35
ENDBRANCH  33  34
ENDBRANCH  32  33
ENDBRANCH  31  32
ENDBRANCH   1  31
TORSDOF 22
ENDMDL
MODEL 3
REMARK VINA RESULT:     -10.0      4.515      8.965
REMARK SMILES COc1cc(OC)cc(-c2cc3nc(C)c(CCC(=O)OCCOCCOCCOC(=O)c4ccc(-c5c6nc(c(-c7c(F)cccc7F)c7ccc([nH]7)c(-c7c(F)cccc7F)c7nc(c(-c8c(F)cccc8F)c8ccc5[nH]8)C=C7)C=C6)cc4)c(C)n3n2)c1
REMARK SMILES IDX 25 1 24 2 23 3 22 4 21 5 19 6 20 7 18 8 17 9 16 10 10 11
REMARK SMILES IDX 11 12 90 13 12 14 89 15 13 16 87 17 14 18 88 19 15 20 9 21
REMARK SMILES IDX 3 22 4 23 91 24 5 25 8 26 2 27 1 28 6 29 7 30 26 31 27 32
REMARK SMILES IDX 28 33 29 34 30 35 31 36 32 37 33 38 34 39 86 40 35 41 85 42
REMARK SMILES IDX 36 43 37 44 38 45 79 46 39 47 84 48 78 49 80 50 40 51 83 52
REMARK SMILES IDX 77 53 76 54 41 56 67 57 50 58 66 59 51 60 54 61 65 62 81 63
REMARK SMILES IDX 52 64 53 65 64 67 82 68 55 69 42 70 43 71 48 72 44 73 45 74
REMARK SMILES IDX 47 75 49 76 46 77 68 78 69 79 74 80 70 81 71 82 73 83 75 84
REMARK SMILES IDX 72 85 56 86 57 87 62 88 58 89 59 90 61 91 63 92 60 93
REMARK H PARENT 80 55 54 66
REMARK Flexibility Score: inf
ROOT
ATOM      1  C   UNL A   1      33.880  35.304  32.182  1.00  0.00     0.188 C 
ENDROOT
BRANCH   1   2
ATOM      2  O   UNL A   1      33.586  34.041  32.760  1.00  0.00    -0.376 OA
BRANCH   2   3
ATOM      3  C   UNL A   1      34.664  33.334  33.370  1.00  0.00     0.202 C 
BRANCH   3   4
ATOM      4  C   UNL A   1      36.076  33.964  33.247  1.00  0.00     0.261 C 
BRANCH   4   5
ATOM      5  O   UNL A   1      37.028  33.501  34.249  1.00  0.00    -0.463 OA
BRANCH   5   6
ATOM      6  C   UNL A   1      37.786  32.409  34.005  1.00  0.00     0.306 C 
ATOM      7  O   UNL A   1      37.585  31.317  34.523  1.00  0.00    -0.252 OA
BRANCH   6   8
ATOM      8  C   UNL A   1      38.924  32.653  33.005  1.00  0.00     0.127 C 
BRANCH   8   9
ATOM      9  C   UNL A   1      39.594  34.047  32.840  1.00  0.00     0.051 C 
BRANCH   9  10
ATOM     10  C   UNL A   1      40.357  34.352  31.554  1.00  0.00    -0.005 A 
ATOM     11  C   UNL A   1      43.975  35.071  28.975  1.00  0.00     0.095 A 
ATOM     12  C   UNL A   1      42.765  35.242  28.250  1.00  0.00     0.080 A 
ATOM     13  N   UNL A   1      43.714  34.709  30.224  1.00  0.00    -0.166 NA
ATOM     14  C   UNL A   1      41.741  34.957  29.142  1.00  0.00     0.156 A 
ATOM     15  N   UNL A   1      42.379  34.711  30.332  1.00  0.00    -0.219 N 
ATOM     16  N   UNL A   1      40.375  34.957  29.088  1.00  0.00    -0.234 NA
ATOM     17  C   UNL A   1      41.696  34.493  31.511  1.00  0.00     0.046 A 
ATOM     18  C   UNL A   1      39.720  34.705  30.201  1.00  0.00     0.045 A 
ATOM     19  C   UNL A   1      42.621  34.515  32.656  1.00  0.00     0.067 C 
ATOM     20  C   UNL A   1      38.213  34.841  30.092  1.00  0.00     0.067 C 
BRANCH  11  21
ATOM     21  C   UNL A   1      45.385  35.251  28.653  1.00  0.00     0.009 A 
ATOM     22  C   UNL A   1      47.058  35.835  26.981  1.00  0.00     0.123 A 
ATOM     23  C   UNL A   1      48.036  35.276  27.803  1.00  0.00     0.092 A 
ATOM     24  C   UNL A   1      45.733  35.807  27.403  1.00  0.00     0.057 A 
ATOM     25  C   UNL A   1      47.700  34.689  29.028  1.00  0.00     0.123 A 
ATOM     26  C   UNL A   1      46.373  34.688  29.461  1.00  0.00     0.057 A 
BRANCH  22  27
ATOM     27  O   UNL A   1      47.505  36.311  25.779  1.00  0.00    -0.497 OA
ATOM     28  C   UNL A   1      48.059  37.622  25.782  1.00  0.00     0.278 C 
ENDBRANCH  22  27
BRANCH  25  29
ATOM     29  O   UNL A   1      48.755  34.142  29.709  1.00  0.00    -0.497 OA
ATOM     30  C   UNL A   1      50.049  34.574  29.305  1.00  0.00     0.278 C 
ENDBRANCH  25  29
ENDBRANCH  11  21
ENDBRANCH   9  10
ENDBRANCH   8   9
ENDBRANCH   6   8
ENDBRANCH   5   6
ENDBRANCH   4   5
ENDBRANCH   3   4
ENDBRANCH   2   3
ENDBRANCH   1   2
BRANCH   1  31
ATOM     31  C   UNL A   1      33.323  35.506  30.782  1.00  0.00     0.188 C 
BRANCH  31  32
ATOM     32  O   UNL A   1      33.234  34.354  29.936  1.00  0.00    -0.376 OA
BRANCH  32  33
ATOM     33  C   UNL A   1      34.406  33.999  29.192  1.00  0.00     0.202 C 
BRANCH  33  34
ATOM     34  C   UNL A   1      34.260  32.933  28.112  1.00  0.00     0.261 C 
BRANCH  34  35
ATOM     35  O   UNL A   1      35.492  32.309  27.869  1.00  0.00    -0.460 OA
BRANCH  35  36
ATOM     36  C   UNL A   1      35.508  30.976  28.127  1.00  0.00     0.338 C 
ATOM     37  O   UNL A   1      34.894  30.095  27.573  1.00  0.00    -0.246 OA
BRANCH  36  38
ATOM     38  C   UNL A   1      36.407  30.811  29.288  1.00  0.00     0.060 A 
ATOM     39  C   UNL A   1      37.438  31.737  29.360  1.00  0.00     0.016 A 
ATOM     40  C   UNL A   1      36.497  29.522  29.827  1.00  0.00     0.016 A 
ATOM     41  C   UNL A   1      38.694  31.221  29.530  1.00  0.00     0.010 A 
ATOM     42  C   UNL A   1      37.739  28.984  29.860  1.00  0.00     0.010 A 
ATOM     43  C   UNL A   1      38.815  29.833  29.620  1.00  0.00    -0.014 A 
BRANCH  43  44
ATOM     44  C   UNL A   1      40.124  29.242  29.659  1.00  0.00     0.031 A 
ATOM     45  C   UNL A   1      40.559  29.165  31.068  1.00  0.00     0.074 A 
ATOM     46  C   UNL A   1      40.691  28.736  28.550  1.00  0.00     0.049 A 
ATOM     47  N   UNL A   1      41.314  30.012  31.690  1.00  0.00    -0.248 NA
ATOM     48  C   UNL A   1      39.782  28.293  31.976  1.00  0.00     0.031 C 
ATOM     49  C   UNL A   1      40.089  28.574  27.221  1.00  0.00     0.029 A 
ATOM     50  N   UNL A   1      41.909  28.144  28.411  1.00  0.00    -0.354 N 
ATOM     51  C   UNL A   1      41.337  29.538  32.999  1.00  0.00     0.074 A 
ATOM     52  C   UNL A   1      40.121  28.806  33.157  1.00  0.00     0.031 C 
ATOM     53  C   UNL A   1      40.848  27.730  26.484  1.00  0.00     0.029 A 
ATOM     54  C   UNL A   1      42.040  27.395  27.238  1.00  0.00     0.049 A 
ATOM     55  H   UNL A   1      42.631  28.237  29.075  1.00  0.00     0.167 HD
ATOM     56  C   UNL A   1      42.539  29.318  33.601  1.00  0.00     0.037 A 
ATOM     57  C   UNL A   1      43.039  26.505  27.006  1.00  0.00     0.037 A 
ATOM     58  C   UNL A   1      43.562  30.059  32.891  1.00  0.00     0.049 A 
ATOM     59  C   UNL A   1      44.122  26.825  27.972  1.00  0.00     0.074 A 
ATOM     60  C   UNL A   1      43.858  31.386  32.661  1.00  0.00     0.029 A 
ATOM     61  N   UNL A   1      44.175  29.329  31.901  1.00  0.00    -0.354 N 
ATOM     62  N   UNL A   1      44.824  27.924  27.931  1.00  0.00    -0.248 NA
ATOM     63  C   UNL A   1      44.132  26.127  29.252  1.00  0.00     0.031 C 
ATOM     64  C   UNL A   1      44.510  31.430  31.392  1.00  0.00     0.029 A 
ATOM     65  C   UNL A   1      44.667  30.129  30.913  1.00  0.00     0.049 A 
ATOM     66  H   UNL A   1      44.249  28.348  31.906  1.00  0.00     0.167 HD
ATOM     67  C   UNL A   1      44.990  28.280  29.261  1.00  0.00     0.074 A 
ATOM     68  C   UNL A   1      44.684  27.071  30.019  1.00  0.00     0.031 C 
ATOM     69  C   UNL A   1      45.042  29.598  29.618  1.00  0.00     0.037 A 
BRANCH  56  70
ATOM     70  C   UNL A   1      42.889  28.025  34.350  1.00  0.00     0.057 A 
ATOM     71  C   UNL A   1      43.091  28.118  35.742  1.00  0.00     0.134 A 
ATOM     72  C   UNL A   1      43.327  26.801  33.791  1.00  0.00     0.134 A 
ATOM     73  F   UNL A   1      42.678  29.196  36.425  1.00  0.00    -0.206 F 
ATOM     74  C   UNL A   1      43.797  27.156  36.475  1.00  0.00     0.040 A 
ATOM     75  C   UNL A   1      44.021  25.828  34.516  1.00  0.00     0.040 A 
ATOM     76  F   UNL A   1      43.165  26.462  32.510  1.00  0.00    -0.206 F 
ATOM     77  C   UNL A   1      44.292  26.018  35.857  1.00  0.00     0.006 A 
ENDBRANCH  56  70
BRANCH  57  78
ATOM     78  C   UNL A   1      43.018  25.226  26.259  1.00  0.00     0.057 A 
ATOM     79  C   UNL A   1      43.928  24.980  25.218  1.00  0.00     0.134 A 
ATOM     80  C   UNL A   1      42.312  24.108  26.735  1.00  0.00     0.134 A 
ATOM     81  F   UNL A   1      44.678  25.975  24.723  1.00  0.00    -0.206 F 
ATOM     82  C   UNL A   1      44.149  23.695  24.705  1.00  0.00     0.040 A 
ATOM     83  C   UNL A   1      42.521  22.820  26.227  1.00  0.00     0.040 A 
ATOM     84  F   UNL A   1      41.470  24.211  27.771  1.00  0.00    -0.206 F 
ATOM     85  C   UNL A   1      43.454  22.606  25.220  1.00  0.00     0.006 A 
ENDBRANCH  57  78
BRANCH  69  86
ATOM     86  C   UNL A   1      45.382  30.595  28.549  1.00  0.00     0.057 A 
ATOM     87  C   UNL A   1      46.672  30.847  28.064  1.00  0.00     0.134 A 
ATOM     88  C   UNL A   1      44.319  31.237  27.903  1.00  0.00     0.134 A 
ATOM     89  F   UNL A   1      47.740  30.217  28.572  1.00  0.00    -0.206 F 
ATOM     90  C   UNL A   1      46.892  31.726  26.997  1.00  0.00     0.040 A 
ATOM     91  C   UNL A   1      44.521  32.085  26.815  1.00  0.00     0.040 A 
ATOM     92  F   UNL A   1      43.055  31.007  28.292  1.00  0.00    -0.206 F 
ATOM     93  C   UNL A   1      45.813  32.339  26.364  1.00  0.00     0.006 A 
ENDBRANCH  69  86
ENDBRANCH  43  44
ENDBRANCH  36  38
ENDBRANCH  35  36
ENDBRANCH  34  35
ENDBRANCH  33  34
ENDBRANCH  32  33
ENDBRANCH  31  32
ENDBRANCH   1  31
TORSDOF 22
ENDMDL
