MODEL 1
REMARK VINA RESULT:     -11.5      0.000      0.000
REMARK SMILES CC1(C)S[C@H](c2ccc(-c3ccccc3)o2)[NH2+][C@H]1C(=O)OCCOCCOCCOC(=O)c1ccc(-c2c3nc(c(-c4c(F)cccc4F)c4ccc([nH]4)c(-c4c(F)cccc4F)c4nc(c(-c5c(F)cccc5F)c5ccc2[nH]5)C=C4)C=C3)cc1
REMARK SMILES IDX 25 1 24 2 23 3 22 4 21 5 19 6 20 7 18 8 1 9 2 10 3 11 4 12
REMARK SMILES IDX 5 13 17 14 6 17 7 18 16 19 8 20 9 21 10 22 11 23 15 24 12 25
REMARK SMILES IDX 14 26 13 27 26 28 27 29 28 30 29 31 30 32 31 33 32 34 33 35
REMARK SMILES IDX 34 36 86 37 35 38 85 39 36 40 37 41 38 42 79 43 39 44 84 45
REMARK SMILES IDX 78 46 80 47 40 48 83 49 77 50 76 51 41 53 67 54 50 55 66 56
REMARK SMILES IDX 51 57 54 58 65 59 81 60 52 61 53 62 64 64 82 65 55 66 42 67
REMARK SMILES IDX 43 68 48 69 44 70 45 71 47 72 49 73 46 74 68 75 69 76 74 77
REMARK SMILES IDX 70 78 71 79 73 80 75 81 72 82 56 83 57 84 62 85 58 86 59 87
REMARK SMILES IDX 61 88 63 89 60 90
REMARK H PARENT 17 15 17 16 80 52 54 63
REMARK Flexibility Score: inf
ROOT
ATOM      1  C   UNL A   1      40.431  21.051  26.991  1.00  0.00     0.188 C 
ENDROOT
BRANCH   1   2
ATOM      2  O   UNL A   1      39.547  21.977  26.372  1.00  0.00    -0.376 OA
BRANCH   2   3
ATOM      3  C   UNL A   1      38.542  21.526  25.474  1.00  0.00     0.202 C 
BRANCH   3   4
ATOM      4  C   UNL A   1      37.139  22.150  25.569  1.00  0.00     0.261 C 
BRANCH   4   5
ATOM      5  O   UNL A   1      36.915  23.411  24.893  1.00  0.00    -0.459 OA
BRANCH   5   6
ATOM      6  C   UNL A   1      36.035  23.379  23.854  1.00  0.00     0.366 C 
ATOM      7  O   UNL A   1      36.359  23.045  22.717  1.00  0.00    -0.245 OA
BRANCH   6   8
ATOM      8  C   UNL A   1      34.602  23.892  24.172  1.00  0.00     0.310 C 
ATOM      9  C   UNL A   1      33.529  21.693  25.201  1.00  0.00     0.030 C 
ATOM     10  C   UNL A   1      33.365  22.962  24.360  1.00  0.00     0.079 C 
ATOM     11  C   UNL A   1      32.610  22.686  23.048  1.00  0.00     0.030 C 
ATOM     12  S   UNL A   1      32.199  24.013  25.339  1.00  0.00    -0.078 SA
ATOM     13  C   UNL A   1      33.383  25.360  25.579  1.00  0.00     0.311 C 
ATOM     14  N   UNL A   1      34.707  24.786  25.357  1.00  0.00    -0.316 N 
ATOM     15  H   UNL A   1      34.998  24.251  26.176  1.00  0.00     0.348 HD
ATOM     16  H   UNL A   1      35.399  25.520  25.200  1.00  0.00     0.348 HD
BRANCH  13  17
ATOM     17  C   UNL A   1      33.012  26.547  24.737  1.00  0.00     0.172 A 
ATOM     18  C   UNL A   1      33.738  27.225  23.771  1.00  0.00     0.054 A 
ATOM     19  O   UNL A   1      31.752  27.092  24.825  1.00  0.00    -0.454 OA
ATOM     20  C   UNL A   1      32.880  28.195  23.217  1.00  0.00     0.051 A 
ATOM     21  C   UNL A   1      31.677  28.077  23.878  1.00  0.00     0.134 A 
BRANCH  21  22
ATOM     22  C   UNL A   1      30.402  28.748  23.689  1.00  0.00     0.017 A 
ATOM     23  C   UNL A   1      30.253  30.119  23.920  1.00  0.00     0.012 A 
ATOM     24  C   UNL A   1      29.323  28.026  23.156  1.00  0.00     0.012 A 
ATOM     25  C   UNL A   1      29.052  30.761  23.594  1.00  0.00     0.001 A 
ATOM     26  C   UNL A   1      28.122  28.665  22.843  1.00  0.00     0.001 A 
ATOM     27  C   UNL A   1      27.990  30.035  23.052  1.00  0.00     0.000 A 
ENDBRANCH  21  22
ENDBRANCH  13  17
ENDBRANCH   6   8
ENDBRANCH   5   6
ENDBRANCH   4   5
ENDBRANCH   3   4
ENDBRANCH   2   3
ENDBRANCH   1   2
BRANCH   1  28
ATOM     28  C   UNL A   1      40.965  19.867  26.179  1.00  0.00     0.188 C 
BRANCH  28  29
ATOM     29  O   UNL A   1      42.329  19.603  26.389  1.00  0.00    -0.376 OA
BRANCH  29  30
ATOM     30  C   UNL A   1      43.282  20.056  25.455  1.00  0.00     0.202 C 
BRANCH  30  31
ATOM     31  C   UNL A   1      43.944  21.431  25.628  1.00  0.00     0.261 C 
BRANCH  31  32
ATOM     32  O   UNL A   1      43.119  22.592  25.449  1.00  0.00    -0.460 OA
BRANCH  32  33
ATOM     33  C   UNL A   1      43.737  23.772  25.229  1.00  0.00     0.338 C 
ATOM     34  O   UNL A   1      44.533  24.030  24.334  1.00  0.00    -0.246 OA
BRANCH  33  35
ATOM     35  C   UNL A   1      43.135  24.772  26.134  1.00  0.00     0.060 A 
ATOM     36  C   UNL A   1      43.584  26.099  26.095  1.00  0.00     0.016 A 
ATOM     37  C   UNL A   1      42.125  24.397  27.022  1.00  0.00     0.016 A 
ATOM     38  C   UNL A   1      43.042  27.051  26.961  1.00  0.00     0.010 A 
ATOM     39  C   UNL A   1      41.596  25.345  27.901  1.00  0.00     0.010 A 
ATOM     40  C   UNL A   1      42.071  26.670  27.895  1.00  0.00    -0.014 A 
BRANCH  40  41
ATOM     41  C   UNL A   1      41.662  27.595  28.981  1.00  0.00     0.031 A 
ATOM     42  C   UNL A   1      42.408  27.543  30.286  1.00  0.00     0.074 A 
ATOM     43  C   UNL A   1      40.643  28.459  28.822  1.00  0.00     0.049 A 
ATOM     44  N   UNL A   1      42.152  28.145  31.419  1.00  0.00    -0.248 NA
ATOM     45  C   UNL A   1      43.604  26.686  30.317  1.00  0.00     0.031 C 
ATOM     46  C   UNL A   1      39.878  28.648  27.593  1.00  0.00     0.029 A 
ATOM     47  N   UNL A   1      40.067  29.326  29.717  1.00  0.00    -0.354 N 
ATOM     48  C   UNL A   1      43.139  27.723  32.301  1.00  0.00     0.074 A 
ATOM     49  C   UNL A   1      43.986  26.797  31.580  1.00  0.00     0.031 C 
ATOM     50  C   UNL A   1      38.915  29.561  27.816  1.00  0.00     0.029 A 
ATOM     51  C   UNL A   1      38.970  29.983  29.214  1.00  0.00     0.049 A 
ATOM     52  H   UNL A   1      40.407  29.465  30.630  1.00  0.00     0.167 HD
ATOM     53  C   UNL A   1      43.326  28.078  33.594  1.00  0.00     0.037 A 
ATOM     54  C   UNL A   1      38.090  30.801  29.826  1.00  0.00     0.037 A 
ATOM     55  C   UNL A   1      42.483  29.003  34.306  1.00  0.00     0.049 A 
ATOM     56  C   UNL A   1      38.266  31.115  31.290  1.00  0.00     0.074 A 
ATOM     57  C   UNL A   1      42.595  29.440  35.614  1.00  0.00     0.029 A 
ATOM     58  N   UNL A   1      41.367  29.628  33.769  1.00  0.00    -0.354 N 
ATOM     59  N   UNL A   1      39.203  30.718  32.117  1.00  0.00    -0.248 NA
ATOM     60  C   UNL A   1      37.258  31.991  31.906  1.00  0.00     0.031 C 
ATOM     61  C   UNL A   1      41.514  30.285  35.887  1.00  0.00     0.029 A 
ATOM     62  C   UNL A   1      40.765  30.425  34.728  1.00  0.00     0.049 A 
ATOM     63  H   UNL A   1      41.050  29.521  32.843  1.00  0.00     0.167 HD
ATOM     64  C   UNL A   1      38.918  31.320  33.338  1.00  0.00     0.074 A 
ATOM     65  C   UNL A   1      37.726  32.117  33.141  1.00  0.00     0.031 C 
ATOM     66  C   UNL A   1      39.584  31.224  34.515  1.00  0.00     0.037 A 
BRANCH  53  67
ATOM     67  C   UNL A   1      44.462  27.434  34.333  1.00  0.00     0.057 A 
ATOM     68  C   UNL A   1      44.323  26.204  34.991  1.00  0.00     0.134 A 
ATOM     69  C   UNL A   1      45.724  28.043  34.365  1.00  0.00     0.134 A 
ATOM     70  F   UNL A   1      43.139  25.576  35.013  1.00  0.00    -0.206 F 
ATOM     71  C   UNL A   1      45.390  25.617  35.675  1.00  0.00     0.040 A 
ATOM     72  C   UNL A   1      46.806  27.450  35.021  1.00  0.00     0.040 A 
ATOM     73  F   UNL A   1      45.929  29.218  33.753  1.00  0.00    -0.206 F 
ATOM     74  C   UNL A   1      46.638  26.238  35.684  1.00  0.00     0.006 A 
ENDBRANCH  53  67
BRANCH  54  75
ATOM     75  C   UNL A   1      36.939  31.359  29.069  1.00  0.00     0.057 A 
ATOM     76  C   UNL A   1      36.926  32.695  28.651  1.00  0.00     0.134 A 
ATOM     77  C   UNL A   1      35.815  30.579  28.769  1.00  0.00     0.134 A 
ATOM     78  F   UNL A   1      37.960  33.500  28.931  1.00  0.00    -0.206 F 
ATOM     79  C   UNL A   1      35.829  33.241  27.981  1.00  0.00     0.040 A 
ATOM     80  C   UNL A   1      34.725  31.104  28.074  1.00  0.00     0.040 A 
ATOM     81  F   UNL A   1      35.763  29.293  29.144  1.00  0.00    -0.206 F 
ATOM     82  C   UNL A   1      34.726  32.441  27.685  1.00  0.00     0.006 A 
ENDBRANCH  54  75
BRANCH  66  83
ATOM     83  C   UNL A   1      39.074  32.037  35.671  1.00  0.00     0.057 A 
ATOM     84  C   UNL A   1      38.246  31.489  36.659  1.00  0.00     0.134 A 
ATOM     85  C   UNL A   1      39.458  33.377  35.821  1.00  0.00     0.134 A 
ATOM     86  F   UNL A   1      37.832  30.216  36.571  1.00  0.00    -0.206 F 
ATOM     87  C   UNL A   1      37.801  32.250  37.742  1.00  0.00     0.040 A 
ATOM     88  C   UNL A   1      39.045  34.138  36.915  1.00  0.00     0.040 A 
ATOM     89  F   UNL A   1      40.260  33.961  34.918  1.00  0.00    -0.206 F 
ATOM     90  C   UNL A   1      38.208  33.577  37.876  1.00  0.00     0.006 A 
ENDBRANCH  66  83
ENDBRANCH  40  41
ENDBRANCH  33  35
ENDBRANCH  32  33
ENDBRANCH  31  32
ENDBRANCH  30  31
ENDBRANCH  29  30
ENDBRANCH  28  29
ENDBRANCH   1  28
TORSDOF 19
ENDMDL
MODEL 2
REMARK VINA RESULT:     -11.3      4.325     10.047
REMARK SMILES CC1(C)S[C@H](c2ccc(-c3ccccc3)o2)[NH2+][C@H]1C(=O)OCCOCCOCCOC(=O)c1ccc(-c2c3nc(c(-c4c(F)cccc4F)c4ccc([nH]4)c(-c4c(F)cccc4F)c4nc(c(-c5c(F)cccc5F)c5ccc2[nH]5)C=C4)C=C3)cc1
REMARK SMILES IDX 25 1 24 2 23 3 22 4 21 5 19 6 20 7 18 8 1 9 2 10 3 11 4 12
REMARK SMILES IDX 5 13 17 14 6 17 7 18 16 19 8 20 9 21 10 22 11 23 15 24 12 25
REMARK SMILES IDX 14 26 13 27 26 28 27 29 28 30 29 31 30 32 31 33 32 34 33 35
REMARK SMILES IDX 34 36 86 37 35 38 85 39 36 40 37 41 38 42 79 43 39 44 84 45
REMARK SMILES IDX 78 46 80 47 40 48 83 49 77 50 76 51 41 53 67 54 50 55 66 56
REMARK SMILES IDX 51 57 54 58 65 59 81 60 52 61 53 62 64 64 82 65 55 66 42 67
REMARK SMILES IDX 43 68 48 69 44 70 45 71 47 72 49 73 46 74 68 75 69 76 74 77
REMARK SMILES IDX 70 78 71 79 73 80 75 81 72 82 56 83 57 84 62 85 58 86 59 87
REMARK SMILES IDX 61 88 63 89 60 90
REMARK H PARENT 17 15 17 16 80 52 54 63
REMARK Flexibility Score: inf
ROOT
ATOM      1  C   UNL A   1      34.722  31.042  27.743  1.00  0.00     0.188 C 
ENDROOT
BRANCH   1   2
ATOM      2  O   UNL A   1      34.074  30.136  26.858  1.00  0.00    -0.376 OA
BRANCH   2   3
ATOM      3  C   UNL A   1      32.682  30.250  26.601  1.00  0.00     0.202 C 
BRANCH   3   4
ATOM      4  C   UNL A   1      31.826  28.972  26.614  1.00  0.00     0.261 C 
BRANCH   4   5
ATOM      5  O   UNL A   1      32.517  27.699  26.643  1.00  0.00    -0.459 OA
BRANCH   5   6
ATOM      6  C   UNL A   1      31.757  26.605  26.355  1.00  0.00     0.366 C 
ATOM      7  O   UNL A   1      30.663  26.398  26.875  1.00  0.00    -0.245 OA
BRANCH   6   8
ATOM      8  C   UNL A   1      32.408  25.571  25.394  1.00  0.00     0.310 C 
ATOM      9  C   UNL A   1      32.346  26.934  23.119  1.00  0.00     0.030 C 
ATOM     10  C   UNL A   1      32.236  25.591  23.846  1.00  0.00     0.079 C 
ATOM     11  C   UNL A   1      31.026  24.776  23.360  1.00  0.00     0.030 C 
ATOM     12  S   UNL A   1      33.698  24.627  23.250  1.00  0.00    -0.078 SA
ATOM     13  C   UNL A   1      34.449  24.474  24.890  1.00  0.00     0.311 C 
ATOM     14  N   UNL A   1      33.863  25.531  25.709  1.00  0.00    -0.316 N 
ATOM     15  H   UNL A   1      34.295  26.427  25.485  1.00  0.00     0.348 HD
ATOM     16  H   UNL A   1      34.016  25.348  26.701  1.00  0.00     0.348 HD
BRANCH  13  17
ATOM     17  C   UNL A   1      34.316  23.069  25.404  1.00  0.00     0.172 A 
ATOM     18  C   UNL A   1      34.265  22.590  26.703  1.00  0.00     0.054 A 
ATOM     19  O   UNL A   1      34.160  22.022  24.526  1.00  0.00    -0.454 OA
ATOM     20  C   UNL A   1      34.029  21.203  26.620  1.00  0.00     0.051 A 
ATOM     21  C   UNL A   1      33.962  20.897  25.278  1.00  0.00     0.134 A 
BRANCH  21  22
ATOM     22  C   UNL A   1      33.664  19.655  24.586  1.00  0.00     0.017 A 
ATOM     23  C   UNL A   1      32.526  19.515  23.785  1.00  0.00     0.012 A 
ATOM     24  C   UNL A   1      34.596  18.607  24.631  1.00  0.00     0.012 A 
ATOM     25  C   UNL A   1      32.341  18.358  23.020  1.00  0.00     0.001 A 
ATOM     26  C   UNL A   1      34.405  17.448  23.878  1.00  0.00     0.001 A 
ATOM     27  C   UNL A   1      33.282  17.328  23.064  1.00  0.00     0.000 A 
ENDBRANCH  21  22
ENDBRANCH  13  17
ENDBRANCH   6   8
ENDBRANCH   5   6
ENDBRANCH   4   5
ENDBRANCH   3   4
ENDBRANCH   2   3
ENDBRANCH   1   2
BRANCH   1  28
ATOM     28  C   UNL A   1      34.094  32.415  28.003  1.00  0.00     0.188 C 
BRANCH  28  29
ATOM     29  O   UNL A   1      33.960  32.731  29.365  1.00  0.00    -0.376 OA
BRANCH  29  30
ATOM     30  C   UNL A   1      34.061  34.071  29.787  1.00  0.00     0.202 C 
BRANCH  30  31
ATOM     31  C   UNL A   1      34.572  34.404  31.196  1.00  0.00     0.261 C 
BRANCH  31  32
ATOM     32  O   UNL A   1      35.887  33.953  31.550  1.00  0.00    -0.460 OA
BRANCH  32  33
ATOM     33  C   UNL A   1      35.990  32.797  32.239  1.00  0.00     0.338 C 
ATOM     34  O   UNL A   1      35.231  32.389  33.111  1.00  0.00    -0.246 OA
BRANCH  33  35
ATOM     35  C   UNL A   1      37.068  31.999  31.621  1.00  0.00     0.060 A 
ATOM     36  C   UNL A   1      37.928  31.250  32.436  1.00  0.00     0.016 A 
ATOM     37  C   UNL A   1      37.229  31.991  30.234  1.00  0.00     0.016 A 
ATOM     38  C   UNL A   1      38.968  30.509  31.868  1.00  0.00     0.010 A 
ATOM     39  C   UNL A   1      38.280  31.265  29.668  1.00  0.00     0.010 A 
ATOM     40  C   UNL A   1      39.172  30.543  30.483  1.00  0.00    -0.014 A 
BRANCH  40  41
ATOM     41  C   UNL A   1      40.405  29.971  29.886  1.00  0.00     0.031 A 
ATOM     42  C   UNL A   1      41.588  30.877  29.680  1.00  0.00     0.074 A 
ATOM     43  C   UNL A   1      40.474  28.678  29.523  1.00  0.00     0.049 A 
ATOM     44  N   UNL A   1      42.715  30.649  29.056  1.00  0.00    -0.248 NA
ATOM     45  C   UNL A   1      41.478  32.229  30.251  1.00  0.00     0.031 C 
ATOM     46  C   UNL A   1      39.422  27.685  29.720  1.00  0.00     0.029 A 
ATOM     47  N   UNL A   1      41.478  27.987  28.890  1.00  0.00    -0.354 N 
ATOM     48  C   UNL A   1      43.438  31.832  29.140  1.00  0.00     0.074 A 
ATOM     49  C   UNL A   1      42.614  32.783  29.855  1.00  0.00     0.031 C 
ATOM     50  C   UNL A   1      39.827  26.513  29.198  1.00  0.00     0.029 A 
ATOM     51  C   UNL A   1      41.145  26.688  28.591  1.00  0.00     0.049 A 
ATOM     52  H   UNL A   1      42.353  28.384  28.672  1.00  0.00     0.167 HD
ATOM     53  C   UNL A   1      44.678  32.101  28.668  1.00  0.00     0.037 A 
ATOM     54  C   UNL A   1      41.813  25.761  27.876  1.00  0.00     0.037 A 
ATOM     55  C   UNL A   1      45.495  31.150  27.961  1.00  0.00     0.049 A 
ATOM     56  C   UNL A   1      43.155  26.110  27.284  1.00  0.00     0.074 A 
ATOM     57  C   UNL A   1      46.771  31.319  27.454  1.00  0.00     0.029 A 
ATOM     58  N   UNL A   1      45.111  29.852  27.657  1.00  0.00    -0.354 N 
ATOM     59  N   UNL A   1      43.836  27.227  27.371  1.00  0.00    -0.248 NA
ATOM     60  C   UNL A   1      43.821  25.065  26.492  1.00  0.00     0.031 C 
ATOM     61  C   UNL A   1      47.137  30.143  26.792  1.00  0.00     0.029 A 
ATOM     62  C   UNL A   1      46.115  29.218  26.944  1.00  0.00     0.049 A 
ATOM     63  H   UNL A   1      44.253  29.442  27.910  1.00  0.00     0.167 HD
ATOM     64  C   UNL A   1      45.020  27.010  26.676  1.00  0.00     0.074 A 
ATOM     65  C   UNL A   1      44.970  25.650  26.182  1.00  0.00     0.031 C 
ATOM     66  C   UNL A   1      46.057  27.859  26.467  1.00  0.00     0.037 A 
BRANCH  53  67
ATOM     67  C   UNL A   1      45.209  33.490  28.866  1.00  0.00     0.057 A 
ATOM     68  C   UNL A   1      46.081  33.813  29.915  1.00  0.00     0.134 A 
ATOM     69  C   UNL A   1      44.862  34.517  27.979  1.00  0.00     0.134 A 
ATOM     70  F   UNL A   1      46.441  32.882  30.810  1.00  0.00    -0.206 F 
ATOM     71  C   UNL A   1      46.567  35.111  30.089  1.00  0.00     0.040 A 
ATOM     72  C   UNL A   1      45.366  35.812  28.124  1.00  0.00     0.040 A 
ATOM     73  F   UNL A   1      44.036  34.278  26.950  1.00  0.00    -0.206 F 
ATOM     74  C   UNL A   1      46.215  36.112  29.185  1.00  0.00     0.006 A 
ENDBRANCH  53  67
BRANCH  54  75
ATOM     75  C   UNL A   1      41.214  24.420  27.648  1.00  0.00     0.057 A 
ATOM     76  C   UNL A   1      41.690  23.290  28.321  1.00  0.00     0.134 A 
ATOM     77  C   UNL A   1      40.171  24.233  26.731  1.00  0.00     0.134 A 
ATOM     78  F   UNL A   1      42.704  23.398  29.190  1.00  0.00    -0.206 F 
ATOM     79  C   UNL A   1      41.165  22.018  28.077  1.00  0.00     0.040 A 
ATOM     80  C   UNL A   1      39.617  22.973  26.500  1.00  0.00     0.040 A 
ATOM     81  F   UNL A   1      39.672  25.275  26.051  1.00  0.00    -0.206 F 
ATOM     82  C   UNL A   1      40.120  21.860  27.168  1.00  0.00     0.006 A 
ENDBRANCH  54  75
BRANCH  66  83
ATOM     83  C   UNL A   1      47.247  27.332  25.715  1.00  0.00     0.057 A 
ATOM     84  C   UNL A   1      48.263  26.604  26.345  1.00  0.00     0.134 A 
ATOM     85  C   UNL A   1      47.348  27.516  24.329  1.00  0.00     0.134 A 
ATOM     86  F   UNL A   1      48.234  26.400  27.670  1.00  0.00    -0.206 F 
ATOM     87  C   UNL A   1      49.349  26.097  25.628  1.00  0.00     0.040 A 
ATOM     88  C   UNL A   1      48.413  26.988  23.597  1.00  0.00     0.040 A 
ATOM     89  F   UNL A   1      46.403  28.194  23.661  1.00  0.00    -0.206 F 
ATOM     90  C   UNL A   1      49.421  26.282  24.247  1.00  0.00     0.006 A 
ENDBRANCH  66  83
ENDBRANCH  40  41
ENDBRANCH  33  35
ENDBRANCH  32  33
ENDBRANCH  31  32
ENDBRANCH  30  31
ENDBRANCH  29  30
ENDBRANCH  28  29
ENDBRANCH   1  28
TORSDOF 19
ENDMDL
MODEL 3
REMARK VINA RESULT:     -11.3      4.590      9.657
REMARK SMILES CC1(C)S[C@H](c2ccc(-c3ccccc3)o2)[NH2+][C@H]1C(=O)OCCOCCOCCOC(=O)c1ccc(-c2c3nc(c(-c4c(F)cccc4F)c4ccc([nH]4)c(-c4c(F)cccc4F)c4nc(c(-c5c(F)cccc5F)c5ccc2[nH]5)C=C4)C=C3)cc1
REMARK SMILES IDX 25 1 24 2 23 3 22 4 21 5 19 6 20 7 18 8 1 9 2 10 3 11 4 12
REMARK SMILES IDX 5 13 17 14 6 17 7 18 16 19 8 20 9 21 10 22 11 23 15 24 12 25
REMARK SMILES IDX 14 26 13 27 26 28 27 29 28 30 29 31 30 32 31 33 32 34 33 35
REMARK SMILES IDX 34 36 86 37 35 38 85 39 36 40 37 41 38 42 79 43 39 44 84 45
REMARK SMILES IDX 78 46 80 47 40 48 83 49 77 50 76 51 41 53 67 54 50 55 66 56
REMARK SMILES IDX 51 57 54 58 65 59 81 60 52 61 53 62 64 64 82 65 55 66 42 67
REMARK SMILES IDX 43 68 48 69 44 70 45 71 47 72 49 73 46 74 68 75 69 76 74 77
REMARK SMILES IDX 70 78 71 79 73 80 75 81 72 82 56 83 57 84 62 85 58 86 59 87
REMARK SMILES IDX 61 88 63 89 60 90
REMARK H PARENT 17 15 17 16 80 52 54 63
REMARK Flexibility Score: inf
ROOT
ATOM      1  C   UNL A   1      33.685  32.384  28.321  1.00  0.00     0.188 C 
ENDROOT
BRANCH   1   2
ATOM      2  O   UNL A   1      33.539  31.466  27.243  1.00  0.00    -0.376 OA
BRANCH   2   3
ATOM      3  C   UNL A   1      34.387  30.331  27.143  1.00  0.00     0.202 C 
BRANCH   3   4
ATOM      4  C   UNL A   1      33.841  28.965  27.596  1.00  0.00     0.261 C 
BRANCH   4   5
ATOM      5  O   UNL A   1      33.523  27.993  26.570  1.00  0.00    -0.459 OA
BRANCH   5   6
ATOM      6  C   UNL A   1      32.240  27.535  26.564  1.00  0.00     0.366 C 
ATOM      7  O   UNL A   1      31.618  27.281  27.593  1.00  0.00    -0.245 OA
BRANCH   6   8
ATOM      8  C   UNL A   1      31.635  27.254  25.160  1.00  0.00     0.310 C 
ATOM      9  C   UNL A   1      33.672  26.003  24.008  1.00  0.00     0.030 C 
ATOM     10  C   UNL A   1      32.486  26.963  23.887  1.00  0.00     0.079 C 
ATOM     11  C   UNL A   1      32.856  28.233  23.102  1.00  0.00     0.030 C 
ATOM     12  S   UNL A   1      31.293  26.081  22.781  1.00  0.00    -0.078 SA
ATOM     13  C   UNL A   1      29.983  25.988  24.026  1.00  0.00     0.311 C 
ATOM     14  N   UNL A   1      30.634  26.165  25.320  1.00  0.00    -0.316 N 
ATOM     15  H   UNL A   1      31.098  25.300  25.600  1.00  0.00     0.348 HD
ATOM     16  H   UNL A   1      29.951  26.401  26.041  1.00  0.00     0.348 HD
BRANCH  13  17
ATOM     17  C   UNL A   1      28.869  26.939  23.694  1.00  0.00     0.172 A 
ATOM     18  C   UNL A   1      27.504  26.831  23.904  1.00  0.00     0.054 A 
ATOM     19  O   UNL A   1      29.149  28.167  23.141  1.00  0.00    -0.454 OA
ATOM     20  C   UNL A   1      26.929  28.052  23.501  1.00  0.00     0.051 A 
ATOM     21  C   UNL A   1      27.963  28.843  23.051  1.00  0.00     0.134 A 
BRANCH  21  22
ATOM     22  C   UNL A   1      27.995  30.221  22.589  1.00  0.00     0.017 A 
ATOM     23  C   UNL A   1      28.154  31.289  23.477  1.00  0.00     0.012 A 
ATOM     24  C   UNL A   1      27.977  30.479  21.210  1.00  0.00     0.012 A 
ATOM     25  C   UNL A   1      28.323  32.590  22.991  1.00  0.00     0.001 A 
ATOM     26  C   UNL A   1      28.132  31.779  20.726  1.00  0.00     0.001 A 
ATOM     27  C   UNL A   1      28.316  32.833  21.616  1.00  0.00     0.000 A 
ENDBRANCH  21  22
ENDBRANCH  13  17
ENDBRANCH   6   8
ENDBRANCH   5   6
ENDBRANCH   4   5
ENDBRANCH   3   4
ENDBRANCH   2   3
ENDBRANCH   1   2
BRANCH   1  28
ATOM     28  C   UNL A   1      33.360  33.863  28.095  1.00  0.00     0.188 C 
BRANCH  28  29
ATOM     29  O   UNL A   1      32.770  34.492  29.205  1.00  0.00    -0.376 OA
BRANCH  29  30
ATOM     30  C   UNL A   1      33.572  35.226  30.102  1.00  0.00     0.202 C 
BRANCH  30  31
ATOM     31  C   UNL A   1      34.252  34.523  31.286  1.00  0.00     0.261 C 
BRANCH  31  32
ATOM     32  O   UNL A   1      35.380  33.682  31.001  1.00  0.00    -0.460 OA
BRANCH  32  33
ATOM     33  C   UNL A   1      35.737  32.775  31.934  1.00  0.00     0.338 C 
ATOM     34  O   UNL A   1      35.153  32.528  32.983  1.00  0.00    -0.246 OA
BRANCH  33  35
ATOM     35  C   UNL A   1      36.851  31.977  31.384  1.00  0.00     0.060 A 
ATOM     36  C   UNL A   1      37.721  31.310  32.257  1.00  0.00     0.016 A 
ATOM     37  C   UNL A   1      37.035  31.888  30.003  1.00  0.00     0.016 A 
ATOM     38  C   UNL A   1      38.794  30.570  31.752  1.00  0.00     0.010 A 
ATOM     39  C   UNL A   1      38.119  31.164  29.500  1.00  0.00     0.010 A 
ATOM     40  C   UNL A   1      39.020  30.525  30.371  1.00  0.00    -0.014 A 
BRANCH  40  41
ATOM     41  C   UNL A   1      40.281  29.959  29.830  1.00  0.00     0.031 A 
ATOM     42  C   UNL A   1      41.464  30.873  29.665  1.00  0.00     0.074 A 
ATOM     43  C   UNL A   1      40.376  28.664  29.480  1.00  0.00     0.049 A 
ATOM     44  N   UNL A   1      42.618  30.650  29.090  1.00  0.00    -0.248 NA
ATOM     45  C   UNL A   1      41.321  32.228  30.220  1.00  0.00     0.031 C 
ATOM     46  C   UNL A   1      39.325  27.663  29.642  1.00  0.00     0.029 A 
ATOM     47  N   UNL A   1      41.411  27.977  28.894  1.00  0.00    -0.354 N 
ATOM     48  C   UNL A   1      43.327  31.840  29.194  1.00  0.00     0.074 A 
ATOM     49  C   UNL A   1      42.467  32.790  29.866  1.00  0.00     0.031 C 
ATOM     50  C   UNL A   1      39.760  26.491  29.146  1.00  0.00     0.029 A 
ATOM     51  C   UNL A   1      41.100  26.672  28.592  1.00  0.00     0.049 A 
ATOM     52  H   UNL A   1      42.290  28.379  28.709  1.00  0.00     0.167 HD
ATOM     53  C   UNL A   1      44.583  32.115  28.770  1.00  0.00     0.037 A 
ATOM     54  C   UNL A   1      41.805  25.746  27.912  1.00  0.00     0.037 A 
ATOM     55  C   UNL A   1      45.436  31.166  28.106  1.00  0.00     0.049 A 
ATOM     56  C   UNL A   1      43.168  26.101  27.373  1.00  0.00     0.074 A 
ATOM     57  C   UNL A   1      46.731  31.342  27.649  1.00  0.00     0.029 A 
ATOM     58  N   UNL A   1      45.076  29.863  27.795  1.00  0.00    -0.354 N 
ATOM     59  N   UNL A   1      43.835  27.225  27.479  1.00  0.00    -0.248 NA
ATOM     60  C   UNL A   1      43.874  25.056  26.617  1.00  0.00     0.031 C 
ATOM     61  C   UNL A   1      47.133  30.164  27.012  1.00  0.00     0.029 A 
ATOM     62  C   UNL A   1      46.113  29.232  27.129  1.00  0.00     0.049 A 
ATOM     63  H   UNL A   1      44.211  29.447  28.017  1.00  0.00     0.167 HD
ATOM     64  C   UNL A   1      45.048  27.013  26.835  1.00  0.00     0.074 A 
ATOM     65  C   UNL A   1      45.030  25.649  26.349  1.00  0.00     0.031 C 
ATOM     66  C   UNL A   1      46.086  27.869  26.662  1.00  0.00     0.037 A 
BRANCH  53  67
ATOM     67  C   UNL A   1      45.094  33.511  28.979  1.00  0.00     0.057 A 
ATOM     68  C   UNL A   1      45.711  33.908  30.174  1.00  0.00     0.134 A 
ATOM     69  C   UNL A   1      44.991  34.466  27.960  1.00  0.00     0.134 A 
ATOM     70  F   UNL A   1      45.828  33.049  31.197  1.00  0.00    -0.206 F 
ATOM     71  C   UNL A   1      46.181  35.211  30.355  1.00  0.00     0.040 A 
ATOM     72  C   UNL A   1      45.485  35.762  28.118  1.00  0.00     0.040 A 
ATOM     73  F   UNL A   1      44.417  34.152  26.789  1.00  0.00    -0.206 F 
ATOM     74  C   UNL A   1      46.076  36.139  29.321  1.00  0.00     0.006 A 
ENDBRANCH  53  67
BRANCH  54  75
ATOM     75  C   UNL A   1      41.227  24.398  27.670  1.00  0.00     0.057 A 
ATOM     76  C   UNL A   1      41.679  23.278  28.375  1.00  0.00     0.134 A 
ATOM     77  C   UNL A   1      40.228  24.194  26.709  1.00  0.00     0.134 A 
ATOM     78  F   UNL A   1      42.652  23.402  29.289  1.00  0.00    -0.206 F 
ATOM     79  C   UNL A   1      41.176  22.000  28.121  1.00  0.00     0.040 A 
ATOM     80  C   UNL A   1      39.694  22.928  26.466  1.00  0.00     0.040 A 
ATOM     81  F   UNL A   1      39.753  25.226  25.996  1.00  0.00    -0.206 F 
ATOM     82  C   UNL A   1      40.175  21.825  27.167  1.00  0.00     0.006 A 
ENDBRANCH  54  75
BRANCH  66  83
ATOM     83  C   UNL A   1      47.310  27.346  25.963  1.00  0.00     0.057 A 
ATOM     84  C   UNL A   1      48.344  26.703  26.653  1.00  0.00     0.134 A 
ATOM     85  C   UNL A   1      47.428  27.446  24.570  1.00  0.00     0.134 A 
ATOM     86  F   UNL A   1      48.299  26.583  27.989  1.00  0.00    -0.206 F 
ATOM     87  C   UNL A   1      49.463  26.198  25.987  1.00  0.00     0.040 A 
ATOM     88  C   UNL A   1      48.526  26.918  23.889  1.00  0.00     0.040 A 
ATOM     89  F   UNL A   1      46.467  28.039  23.845  1.00  0.00    -0.206 F 
ATOM     90  C   UNL A   1      49.551  26.299  24.599  1.00  0.00     0.006 A 
ENDBRANCH  66  83
ENDBRANCH  40  41
ENDBRANCH  33  35
ENDBRANCH  32  33
ENDBRANCH  31  32
ENDBRANCH  30  31
ENDBRANCH  29  30
ENDBRANCH  28  29
ENDBRANCH   1  28
TORSDOF 19
ENDMDL
