MODEL 1
REMARK VINA RESULT:     -12.8      0.000      0.000
REMARK SMILES O=C(OCCOCCOCCOC(=O)[C@]1(NC(=O)C2CCN(C(=O)C3CC3)CC2)CCCc2ccccc21)c1ccc(-c2c3nc(c(-c4c(F)cccc4F)c4ccc([nH]4)c(-c4c(F)cccc4F)c4nc(c(-c5c(F)cccc5F)c5ccc2[nH]5)C=C4)C=C3)cc1
REMARK SMILES IDX 8 1 7 2 6 3 5 4 4 5 3 6 2 7 1 8 39 9 40 10 92 11 41 12 91 13
REMARK SMILES IDX 42 14 43 15 44 16 85 17 45 18 90 19 84 20 86 21 46 22 89 23
REMARK SMILES IDX 83 24 82 25 47 27 73 28 56 29 72 30 57 31 60 32 71 33 87 34
REMARK SMILES IDX 58 35 59 36 70 38 88 39 61 40 48 41 49 42 54 43 50 44 51 45
REMARK SMILES IDX 53 46 55 47 52 48 74 49 75 50 80 51 76 52 77 53 79 54 81 55
REMARK SMILES IDX 78 56 62 57 63 58 68 59 64 60 65 61 67 62 69 63 66 64 9 65
REMARK SMILES IDX 10 66 11 67 12 68 13 69 14 70 15 71 30 72 38 73 31 74 33 75
REMARK SMILES IDX 37 76 32 77 34 78 36 79 35 80 16 81 17 82 18 84 19 85 20 86
REMARK SMILES IDX 29 87 21 88 28 89 22 90 23 91 24 92 25 93 26 94 27 95
REMARK H PARENT 86 26 60 37 16 83
REMARK Flexibility Score: inf
ROOT
ATOM      1  C   UNL A   1      32.581  27.805  26.814  1.00  0.00     0.188 C 
ENDROOT
BRANCH   1   2
ATOM      2  C   UNL A   1      32.145  29.235  27.157  1.00  0.00     0.188 C 
BRANCH   2   3
ATOM      3  O   UNL A   1      33.297  30.073  27.310  1.00  0.00    -0.376 OA
BRANCH   3   4
ATOM      4  C   UNL A   1      33.065  31.492  27.269  1.00  0.00     0.202 C 
BRANCH   4   5
ATOM      5  C   UNL A   1      34.173  32.247  28.156  1.00  0.00     0.261 C 
BRANCH   5   6
ATOM      6  O   UNL A   1      35.153  31.581  29.705  1.00  0.00    -0.460 OA
BRANCH   6   7
ATOM      7  C   UNL A   1      36.112  30.935  30.597  1.00  0.00     0.338 C 
ATOM      8  O   UNL A   1      36.020  30.833  31.815  1.00  0.00    -0.246 OA
BRANCH   7   9
ATOM      9  C   UNL A   1      37.311  30.203  29.996  1.00  0.00     0.060 A 
ATOM     10  C   UNL A   1      38.131  29.412  30.763  1.00  0.00     0.016 A 
ATOM     11  C   UNL A   1      37.658  30.250  28.640  1.00  0.00     0.016 A 
ATOM     12  C   UNL A   1      39.366  28.933  30.368  1.00  0.00     0.010 A 
ATOM     13  C   UNL A   1      38.860  29.636  28.166  1.00  0.00     0.010 A 
ATOM     14  C   UNL A   1      39.769  29.022  29.051  1.00  0.00    -0.014 A 
BRANCH  14  15
ATOM     15  C   UNL A   1      41.186  28.626  28.762  1.00  0.00     0.031 A 
ATOM     16  C   UNL A   1      41.457  27.286  28.133  1.00  0.00     0.074 A 
ATOM     17  C   UNL A   1      42.200  29.528  28.782  1.00  0.00     0.049 A 
ATOM     18  N   UNL A   1      42.604  26.704  27.900  1.00  0.00    -0.248 NA
ATOM     19  C   UNL A   1      40.291  26.498  27.703  1.00  0.00     0.031 C 
ATOM     20  C   UNL A   1      42.086  30.932  29.191  1.00  0.00     0.029 A 
ATOM     21  N   UNL A   1      43.498  29.439  28.330  1.00  0.00    -0.354 N 
ATOM     22  C   UNL A   1      42.292  25.429  27.448  1.00  0.00     0.074 A 
ATOM     23  C   UNL A   1      40.853  25.358  27.332  1.00  0.00     0.031 C 
ATOM     24  C   UNL A   1      43.180  31.602  28.794  1.00  0.00     0.029 A 
ATOM     25  C   UNL A   1      44.148  30.654  28.255  1.00  0.00     0.049 A 
ATOM     26  H   UNL A   1      43.924  28.587  28.083  1.00  0.00     0.167 HD
ATOM     27  C   UNL A   1      43.139  24.399  27.222  1.00  0.00     0.037 A 
ATOM     28  C   UNL A   1      45.389  30.964  27.823  1.00  0.00     0.037 A 
ATOM     29  C   UNL A   1      44.570  24.530  27.249  1.00  0.00     0.049 A 
ATOM     30  C   UNL A   1      46.322  29.834  27.482  1.00  0.00     0.074 A 
ATOM     31  C   UNL A   1      45.545  23.549  27.236  1.00  0.00     0.029 A 
ATOM     32  N   UNL A   1      45.229  25.749  27.234  1.00  0.00    -0.354 N 
ATOM     33  N   UNL A   1      46.059  28.556  27.365  1.00  0.00    -0.248 NA
ATOM     34  C   UNL A   1      47.741  30.176  27.297  1.00  0.00     0.031 C 
ATOM     35  C   UNL A   1      46.798  24.180  27.216  1.00  0.00     0.029 A 
ATOM     36  C   UNL A   1      46.596  25.551  27.191  1.00  0.00     0.049 A 
ATOM     37  H   UNL A   1      44.787  26.629  27.253  1.00  0.00     0.167 HD
ATOM     38  C   UNL A   1      47.284  27.933  27.164  1.00  0.00     0.074 A 
ATOM     39  C   UNL A   1      48.281  28.983  27.084  1.00  0.00     0.031 C 
ATOM     40  C   UNL A   1      47.566  26.609  27.114  1.00  0.00     0.037 A 
BRANCH  27  41
ATOM     41  C   UNL A   1      42.520  23.042  27.102  1.00  0.00     0.057 A 
ATOM     42  C   UNL A   1      42.304  22.401  25.880  1.00  0.00     0.134 A 
ATOM     43  C   UNL A   1      42.066  22.398  28.263  1.00  0.00     0.134 A 
ATOM     44  F   UNL A   1      42.677  22.984  24.731  1.00  0.00    -0.206 F 
ATOM     45  C   UNL A   1      41.638  21.174  25.812  1.00  0.00     0.040 A 
ATOM     46  C   UNL A   1      41.417  21.165  28.211  1.00  0.00     0.040 A 
ATOM     47  F   UNL A   1      42.232  22.969  29.466  1.00  0.00    -0.206 F 
ATOM     48  C   UNL A   1      41.194  20.553  26.980  1.00  0.00     0.006 A 
ENDBRANCH  27  41
BRANCH  28  49
ATOM     49  C   UNL A   1      45.859  32.377  27.753  1.00  0.00     0.057 A 
ATOM     50  C   UNL A   1      45.632  33.153  26.607  1.00  0.00     0.134 A 
ATOM     51  C   UNL A   1      46.562  32.986  28.799  1.00  0.00     0.134 A 
ATOM     52  F   UNL A   1      44.992  32.627  25.551  1.00  0.00    -0.206 F 
ATOM     53  C   UNL A   1      46.078  34.474  26.509  1.00  0.00     0.040 A 
ATOM     54  C   UNL A   1      46.984  34.316  28.730  1.00  0.00     0.040 A 
ATOM     55  F   UNL A   1      46.840  32.300  29.918  1.00  0.00    -0.206 F 
ATOM     56  C   UNL A   1      46.746  35.064  27.579  1.00  0.00     0.006 A 
ENDBRANCH  28  49
BRANCH  40  57
ATOM     57  C   UNL A   1      49.009  26.230  27.014  1.00  0.00     0.057 A 
ATOM     58  C   UNL A   1      49.772  26.004  28.167  1.00  0.00     0.134 A 
ATOM     59  C   UNL A   1      49.630  26.056  25.774  1.00  0.00     0.134 A 
ATOM     60  F   UNL A   1      49.230  26.166  29.384  1.00  0.00    -0.206 F 
ATOM     61  C   UNL A   1      51.113  25.629  28.089  1.00  0.00     0.040 A 
ATOM     62  C   UNL A   1      50.967  25.670  25.684  1.00  0.00     0.040 A 
ATOM     63  F   UNL A   1      48.948  26.258  24.637  1.00  0.00    -0.206 F 
ATOM     64  C   UNL A   1      51.713  25.457  26.843  1.00  0.00     0.006 A 
ENDBRANCH  40  57
ENDBRANCH  14  15
ENDBRANCH   7   9
ENDBRANCH   6   7
ENDBRANCH   5   6
ENDBRANCH   4   5
ENDBRANCH   3   4
ENDBRANCH   2   3
ENDBRANCH   1   2
BRANCH   1  65
ATOM     65  O   UNL A   1      31.577  26.820  27.040  1.00  0.00    -0.376 OA
BRANCH  65  66
ATOM     66  C   UNL A   1      31.641  25.635  26.250  1.00  0.00     0.202 C 
BRANCH  66  67
ATOM     67  C   UNL A   1      31.504  24.338  27.048  1.00  0.00     0.261 C 
BRANCH  67  68
ATOM     68  O   UNL A   1      31.815  23.176  26.258  1.00  0.00    -0.461 OA
BRANCH  68  69
ATOM     69  C   UNL A   1      33.092  22.703  26.372  1.00  0.00     0.336 C 
ATOM     70  O   UNL A   1      33.624  22.456  27.448  1.00  0.00    -0.249 OA
BRANCH  69  71
ATOM     71  C   UNL A   1      33.759  22.445  24.984  1.00  0.00     0.164 C 
ATOM     72  C   UNL A   1      32.904  21.399  24.216  1.00  0.00     0.046 C 
ATOM     73  C   UNL A   1      35.213  21.926  25.118  1.00  0.00    -0.008 A 
ATOM     74  C   UNL A   1      33.065  20.002  24.804  1.00  0.00     0.008 C 
ATOM     75  C   UNL A   1      35.532  20.562  24.949  1.00  0.00    -0.042 A 
ATOM     76  C   UNL A   1      36.270  22.833  25.363  1.00  0.00     0.007 A 
ATOM     77  C   UNL A   1      34.493  19.518  24.617  1.00  0.00     0.036 C 
ATOM     78  C   UNL A   1      36.874  20.149  25.007  1.00  0.00     0.004 A 
ATOM     79  C   UNL A   1      37.597  22.410  25.406  1.00  0.00     0.000 A 
ATOM     80  C   UNL A   1      37.898  21.067  25.231  1.00  0.00     0.000 A 
BRANCH  71  81
ATOM     81  N   UNL A   1      33.819  23.725  24.236  1.00  0.00    -0.336 N 
ATOM     82  C   UNL A   1      33.754  23.805  22.870  1.00  0.00     0.224 C 
ATOM     83  H   UNL A   1      33.911  24.561  24.748  1.00  0.00     0.164 HD
ATOM     84  O   UNL A   1      34.626  23.305  22.172  1.00  0.00    -0.275 OA
BRANCH  82  85
ATOM     85  C   UNL A   1      32.607  24.648  22.312  1.00  0.00     0.082 C 
ATOM     86  C   UNL A   1      33.359  26.402  22.011  1.00  0.00     0.035 C 
ATOM     87  C   UNL A   1      30.804  24.556  23.049  1.00  0.00     0.035 C 
ATOM     88  C   UNL A   1      32.309  27.967  22.297  1.00  0.00     0.120 C 
ATOM     89  C   UNL A   1      29.842  26.224  23.427  1.00  0.00     0.120 C 
ATOM     90  N   UNL A   1      30.565  27.812  22.851  1.00  0.00    -0.342 N 
ATOM     91  C   UNL A   1      29.898  29.027  22.620  1.00  0.00     0.225 C 
ATOM     92  O   UNL A   1      30.525  29.981  22.163  1.00  0.00    -0.275 OA
BRANCH  91  93
ATOM     93  C   UNL A   1      28.450  29.287  22.832  1.00  0.00     0.079 C 
ATOM     94  C   UNL A   1      27.724  30.469  23.390  1.00  0.00     0.014 C 
ATOM     95  C   UNL A   1      27.674  30.188  21.913  1.00  0.00     0.014 C 
ENDBRANCH  91  93
ENDBRANCH  82  85
ENDBRANCH  71  81
ENDBRANCH  69  71
ENDBRANCH  68  69
ENDBRANCH  67  68
ENDBRANCH  66  67
ENDBRANCH  65  66
ENDBRANCH   1  65
TORSDOF 20
ENDMDL
MODEL 2
REMARK VINA RESULT:     -12.2      1.073      2.309
REMARK SMILES O=C(OCCOCCOCCOC(=O)[C@]1(NC(=O)C2CCN(C(=O)C3CC3)CC2)CCCc2ccccc21)c1ccc(-c2c3nc(c(-c4c(F)cccc4F)c4ccc([nH]4)c(-c4c(F)cccc4F)c4nc(c(-c5c(F)cccc5F)c5ccc2[nH]5)C=C4)C=C3)cc1
REMARK SMILES IDX 8 1 7 2 6 3 5 4 4 5 3 6 2 7 1 8 39 9 40 10 92 11 41 12 91 13
REMARK SMILES IDX 42 14 43 15 44 16 85 17 45 18 90 19 84 20 86 21 46 22 89 23
REMARK SMILES IDX 83 24 82 25 47 27 73 28 56 29 72 30 57 31 60 32 71 33 87 34
REMARK SMILES IDX 58 35 59 36 70 38 88 39 61 40 48 41 49 42 54 43 50 44 51 45
REMARK SMILES IDX 53 46 55 47 52 48 74 49 75 50 80 51 76 52 77 53 79 54 81 55
REMARK SMILES IDX 78 56 62 57 63 58 68 59 64 60 65 61 67 62 69 63 66 64 9 65
REMARK SMILES IDX 10 66 11 67 12 68 13 69 14 70 15 71 30 72 38 73 31 74 33 75
REMARK SMILES IDX 37 76 32 77 34 78 36 79 35 80 16 81 17 82 18 84 19 85 20 86
REMARK SMILES IDX 29 87 21 88 28 89 22 90 23 91 24 92 25 93 26 94 27 95
REMARK H PARENT 86 26 60 37 16 83
REMARK Flexibility Score: inf
ROOT
ATOM      1  C   UNL A   1      34.558  29.008  26.767  1.00  0.00     0.188 C 
ENDROOT
BRANCH   1   2
ATOM      2  C   UNL A   1      33.792  30.263  27.206  1.00  0.00     0.188 C 
BRANCH   2   3
ATOM      3  O   UNL A   1      34.715  31.297  27.568  1.00  0.00    -0.376 OA
BRANCH   3   4
ATOM      4  C   UNL A   1      34.140  32.546  27.994  1.00  0.00     0.202 C 
BRANCH   4   5
ATOM      5  C   UNL A   1      34.650  32.898  29.477  1.00  0.00     0.261 C 
BRANCH   5   6
ATOM      6  O   UNL A   1      35.666  31.782  30.711  1.00  0.00    -0.460 OA
BRANCH   6   7
ATOM      7  C   UNL A   1      36.394  30.692  31.356  1.00  0.00     0.338 C 
ATOM      8  O   UNL A   1      36.118  30.165  32.428  1.00  0.00    -0.246 OA
BRANCH   7   9
ATOM      9  C   UNL A   1      37.555  30.032  30.614  1.00  0.00     0.060 A 
ATOM     10  C   UNL A   1      38.371  29.112  31.226  1.00  0.00     0.016 A 
ATOM     11  C   UNL A   1      37.871  30.281  29.273  1.00  0.00     0.016 A 
ATOM     12  C   UNL A   1      39.581  28.669  30.726  1.00  0.00     0.010 A 
ATOM     13  C   UNL A   1      39.042  29.719  28.675  1.00  0.00     0.010 A 
ATOM     14  C   UNL A   1      39.954  28.951  29.428  1.00  0.00    -0.014 A 
BRANCH  14  15
ATOM     15  C   UNL A   1      41.352  28.570  29.040  1.00  0.00     0.031 A 
ATOM     16  C   UNL A   1      41.586  27.251  28.354  1.00  0.00     0.074 A 
ATOM     17  C   UNL A   1      42.363  29.475  29.026  1.00  0.00     0.049 A 
ATOM     18  N   UNL A   1      42.718  26.681  28.033  1.00  0.00    -0.248 NA
ATOM     19  C   UNL A   1      40.397  26.473  27.972  1.00  0.00     0.031 C 
ATOM     20  C   UNL A   1      42.272  30.865  29.485  1.00  0.00     0.029 A 
ATOM     21  N   UNL A   1      43.631  29.405  28.493  1.00  0.00    -0.354 N 
ATOM     22  C   UNL A   1      42.380  25.420  27.561  1.00  0.00     0.074 A 
ATOM     23  C   UNL A   1      40.937  25.347  27.531  1.00  0.00     0.031 C 
ATOM     24  C   UNL A   1      43.339  31.551  29.043  1.00  0.00     0.029 A 
ATOM     25  C   UNL A   1      44.274  30.624  28.416  1.00  0.00     0.049 A 
ATOM     26  H   UNL A   1      44.043  28.562  28.193  1.00  0.00     0.167 HD
ATOM     27  C   UNL A   1      43.214  24.401  27.252  1.00  0.00     0.037 A 
ATOM     28  C   UNL A   1      45.485  30.952  27.919  1.00  0.00     0.037 A 
ATOM     29  C   UNL A   1      44.643  24.535  27.195  1.00  0.00     0.049 A 
ATOM     30  C   UNL A   1      46.397  29.836  27.485  1.00  0.00     0.074 A 
ATOM     31  C   UNL A   1      45.618  23.559  27.092  1.00  0.00     0.029 A 
ATOM     32  N   UNL A   1      45.298  25.757  27.178  1.00  0.00    -0.354 N 
ATOM     33  N   UNL A   1      46.130  28.561  27.345  1.00  0.00    -0.248 NA
ATOM     34  C   UNL A   1      47.802  30.189  27.225  1.00  0.00     0.031 C 
ATOM     35  C   UNL A   1      46.866  24.195  27.015  1.00  0.00     0.029 A 
ATOM     36  C   UNL A   1      46.660  25.565  27.045  1.00  0.00     0.049 A 
ATOM     37  H   UNL A   1      44.856  26.634  27.251  1.00  0.00     0.167 HD
ATOM     38  C   UNL A   1      47.342  27.950  27.050  1.00  0.00     0.074 A 
ATOM     39  C   UNL A   1      48.329  29.005  26.942  1.00  0.00     0.031 C 
ATOM     40  C   UNL A   1      47.622  26.629  26.942  1.00  0.00     0.037 A 
BRANCH  27  41
ATOM     41  C   UNL A   1      42.591  23.045  27.128  1.00  0.00     0.057 A 
ATOM     42  C   UNL A   1      42.366  22.412  25.903  1.00  0.00     0.134 A 
ATOM     43  C   UNL A   1      42.143  22.396  28.288  1.00  0.00     0.134 A 
ATOM     44  F   UNL A   1      42.734  23.001  24.755  1.00  0.00    -0.206 F 
ATOM     45  C   UNL A   1      41.697  21.187  25.833  1.00  0.00     0.040 A 
ATOM     46  C   UNL A   1      41.491  21.165  28.233  1.00  0.00     0.040 A 
ATOM     47  F   UNL A   1      42.317  22.959  29.493  1.00  0.00    -0.206 F 
ATOM     48  C   UNL A   1      41.259  20.560  27.000  1.00  0.00     0.006 A 
ENDBRANCH  27  41
BRANCH  28  49
ATOM     49  C   UNL A   1      45.947  32.368  27.864  1.00  0.00     0.057 A 
ATOM     50  C   UNL A   1      45.704  33.159  26.732  1.00  0.00     0.134 A 
ATOM     51  C   UNL A   1      46.659  32.965  28.912  1.00  0.00     0.134 A 
ATOM     52  F   UNL A   1      45.056  32.645  25.675  1.00  0.00    -0.206 F 
ATOM     53  C   UNL A   1      46.142  34.484  26.648  1.00  0.00     0.040 A 
ATOM     54  C   UNL A   1      47.073  34.298  28.857  1.00  0.00     0.040 A 
ATOM     55  F   UNL A   1      46.952  32.265  30.017  1.00  0.00    -0.206 F 
ATOM     56  C   UNL A   1      46.819  35.061  27.720  1.00  0.00     0.006 A 
ENDBRANCH  28  49
BRANCH  40  57
ATOM     57  C   UNL A   1      49.056  26.258  26.742  1.00  0.00     0.057 A 
ATOM     58  C   UNL A   1      49.607  26.189  25.456  1.00  0.00     0.134 A 
ATOM     59  C   UNL A   1      49.899  26.004  27.829  1.00  0.00     0.134 A 
ATOM     60  F   UNL A   1      48.843  26.412  24.377  1.00  0.00    -0.206 F 
ATOM     61  C   UNL A   1      50.949  25.865  25.257  1.00  0.00     0.040 A 
ATOM     62  C   UNL A   1      51.245  25.691  27.642  1.00  0.00     0.040 A 
ATOM     63  F   UNL A   1      49.425  26.057  29.083  1.00  0.00    -0.206 F 
ATOM     64  C   UNL A   1      51.773  25.619  26.354  1.00  0.00     0.006 A 
ENDBRANCH  40  57
ENDBRANCH  14  15
ENDBRANCH   7   9
ENDBRANCH   6   7
ENDBRANCH   5   6
ENDBRANCH   4   5
ENDBRANCH   3   4
ENDBRANCH   2   3
ENDBRANCH   1   2
BRANCH   1  65
ATOM     65  O   UNL A   1      34.321  28.623  25.417  1.00  0.00    -0.376 OA
BRANCH  65  66
ATOM     66  C   UNL A   1      34.101  27.237  25.167  1.00  0.00     0.202 C 
BRANCH  66  67
ATOM     67  C   UNL A   1      33.842  26.895  23.699  1.00  0.00     0.261 C 
BRANCH  67  68
ATOM     68  O   UNL A   1      32.999  25.737  23.549  1.00  0.00    -0.461 OA
BRANCH  68  69
ATOM     69  C   UNL A   1      33.630  24.528  23.623  1.00  0.00     0.336 C 
ATOM     70  O   UNL A   1      34.518  24.185  22.851  1.00  0.00    -0.249 OA
BRANCH  69  71
ATOM     71  C   UNL A   1      33.145  23.675  24.837  1.00  0.00     0.164 C 
ATOM     72  C   UNL A   1      33.984  24.075  26.083  1.00  0.00     0.046 C 
ATOM     73  C   UNL A   1      33.291  22.153  24.582  1.00  0.00    -0.008 A 
ATOM     74  C   UNL A   1      35.409  23.545  25.993  1.00  0.00     0.008 C 
ATOM     75  C   UNL A   1      34.351  21.407  25.139  1.00  0.00    -0.042 A 
ATOM     76  C   UNL A   1      32.319  21.465  23.819  1.00  0.00     0.007 A 
ATOM     77  C   UNL A   1      35.405  22.025  26.025  1.00  0.00     0.036 C 
ATOM     78  C   UNL A   1      34.401  20.016  24.940  1.00  0.00     0.004 A 
ATOM     79  C   UNL A   1      32.377  20.084  23.641  1.00  0.00     0.000 A 
ATOM     80  C   UNL A   1      33.420  19.361  24.200  1.00  0.00     0.000 A 
BRANCH  71  81
ATOM     81  N   UNL A   1      31.704  23.943  25.066  1.00  0.00    -0.336 N 
ATOM     82  C   UNL A   1      31.222  24.581  26.178  1.00  0.00     0.224 C 
ATOM     83  H   UNL A   1      31.060  23.647  24.382  1.00  0.00     0.164 HD
ATOM     84  O   UNL A   1      31.351  24.084  27.289  1.00  0.00    -0.275 OA
BRANCH  82  85
ATOM     85  C   UNL A   1      30.427  25.861  25.913  1.00  0.00     0.082 C 
ATOM     86  C   UNL A   1      29.609  25.606  24.183  1.00  0.00     0.035 C 
ATOM     87  C   UNL A   1      31.148  27.626  26.318  1.00  0.00     0.035 C 
ATOM     88  C   UNL A   1      29.398  27.077  22.987  1.00  0.00     0.120 C 
ATOM     89  C   UNL A   1      30.994  29.050  24.977  1.00  0.00     0.120 C 
ATOM     90  N   UNL A   1      29.964  28.751  23.485  1.00  0.00    -0.342 N 
ATOM     91  C   UNL A   1      29.370  29.707  22.644  1.00  0.00     0.225 C 
ATOM     92  O   UNL A   1      28.646  29.333  21.723  1.00  0.00    -0.275 OA
BRANCH  91  93
ATOM     93  C   UNL A   1      29.484  31.183  22.776  1.00  0.00     0.079 C 
ATOM     94  C   UNL A   1      28.541  32.288  22.424  1.00  0.00     0.014 C 
ATOM     95  C   UNL A   1      28.771  31.931  23.867  1.00  0.00     0.014 C 
ENDBRANCH  91  93
ENDBRANCH  82  85
ENDBRANCH  71  81
ENDBRANCH  69  71
ENDBRANCH  68  69
ENDBRANCH  67  68
ENDBRANCH  66  67
ENDBRANCH  65  66
ENDBRANCH   1  65
TORSDOF 20
ENDMDL
MODEL 3
REMARK VINA RESULT:     -11.8      5.796     10.193
REMARK SMILES O=C(OCCOCCOCCOC(=O)[C@]1(NC(=O)C2CCN(C(=O)C3CC3)CC2)CCCc2ccccc21)c1ccc(-c2c3nc(c(-c4c(F)cccc4F)c4ccc([nH]4)c(-c4c(F)cccc4F)c4nc(c(-c5c(F)cccc5F)c5ccc2[nH]5)C=C4)C=C3)cc1
REMARK SMILES IDX 8 1 7 2 6 3 5 4 4 5 3 6 2 7 1 8 39 9 40 10 92 11 41 12 91 13
REMARK SMILES IDX 42 14 43 15 44 16 85 17 45 18 90 19 84 20 86 21 46 22 89 23
REMARK SMILES IDX 83 24 82 25 47 27 73 28 56 29 72 30 57 31 60 32 71 33 87 34
REMARK SMILES IDX 58 35 59 36 70 38 88 39 61 40 48 41 49 42 54 43 50 44 51 45
REMARK SMILES IDX 53 46 55 47 52 48 74 49 75 50 80 51 76 52 77 53 79 54 81 55
REMARK SMILES IDX 78 56 62 57 63 58 68 59 64 60 65 61 67 62 69 63 66 64 9 65
REMARK SMILES IDX 10 66 11 67 12 68 13 69 14 70 15 71 30 72 38 73 31 74 33 75
REMARK SMILES IDX 37 76 32 77 34 78 36 79 35 80 16 81 17 82 18 84 19 85 20 86
REMARK SMILES IDX 29 87 21 88 28 89 22 90 23 91 24 92 25 93 26 94 27 95
REMARK H PARENT 86 26 60 37 16 83
REMARK Flexibility Score: inf
ROOT
ATOM      1  C   UNL A   1      34.767  31.508  27.948  1.00  0.00     0.188 C 
ENDROOT
BRANCH   1   2
ATOM      2  C   UNL A   1      33.910  32.767  28.128  1.00  0.00     0.188 C 
BRANCH   2   3
ATOM      3  O   UNL A   1      34.752  33.901  28.370  1.00  0.00    -0.376 OA
BRANCH   3   4
ATOM      4  C   UNL A   1      34.319  35.151  27.804  1.00  0.00     0.202 C 
BRANCH   4   5
ATOM      5  C   UNL A   1      32.968  35.633  28.528  1.00  0.00     0.261 C 
BRANCH   5   6
ATOM      6  O   UNL A   1      32.666  36.005  30.418  1.00  0.00    -0.460 OA
BRANCH   6   7
ATOM      7  C   UNL A   1      32.595  35.939  31.875  1.00  0.00     0.338 C 
ATOM      8  O   UNL A   1      31.677  36.344  32.580  1.00  0.00    -0.246 OA
BRANCH   7   9
ATOM      9  C   UNL A   1      33.695  35.206  32.641  1.00  0.00     0.060 A 
ATOM     10  C   UNL A   1      34.892  35.812  32.939  1.00  0.00     0.016 A 
ATOM     11  C   UNL A   1      33.578  33.894  33.116  1.00  0.00     0.016 A 
ATOM     12  C   UNL A   1      36.022  35.154  33.386  1.00  0.00     0.010 A 
ATOM     13  C   UNL A   1      34.690  33.228  33.720  1.00  0.00     0.010 A 
ATOM     14  C   UNL A   1      35.957  33.840  33.801  1.00  0.00    -0.014 A 
BRANCH  14  15
ATOM     15  C   UNL A   1      37.266  33.174  34.107  1.00  0.00     0.031 A 
ATOM     16  C   UNL A   1      37.758  33.149  35.529  1.00  0.00     0.074 A 
ATOM     17  C   UNL A   1      37.880  32.357  33.214  1.00  0.00     0.049 A 
ATOM     18  N   UNL A   1      38.904  32.725  35.995  1.00  0.00    -0.248 NA
ATOM     19  C   UNL A   1      36.845  33.658  36.565  1.00  0.00     0.031 C 
ATOM     20  C   UNL A   1      37.439  32.113  31.836  1.00  0.00     0.029 A 
ATOM     21  N   UNL A   1      38.931  31.479  33.366  1.00  0.00    -0.354 N 
ATOM     22  C   UNL A   1      38.907  33.062  37.342  1.00  0.00     0.074 A 
ATOM     23  C   UNL A   1      37.610  33.623  37.645  1.00  0.00     0.031 C 
ATOM     24  C   UNL A   1      38.075  31.034  31.350  1.00  0.00     0.029 A 
ATOM     25  C   UNL A   1      39.088  30.607  32.308  1.00  0.00     0.049 A 
ATOM     26  H   UNL A   1      39.517  31.475  34.157  1.00  0.00     0.167 HD
ATOM     27  C   UNL A   1      39.935  32.970  38.216  1.00  0.00     0.037 A 
ATOM     28  C   UNL A   1      39.962  29.596  32.122  1.00  0.00     0.037 A 
ATOM     29  C   UNL A   1      41.178  32.317  37.912  1.00  0.00     0.049 A 
ATOM     30  C   UNL A   1      41.064  29.419  33.132  1.00  0.00     0.074 A 
ATOM     31  C   UNL A   1      42.369  32.316  38.615  1.00  0.00     0.029 A 
ATOM     32  N   UNL A   1      41.360  31.486  36.817  1.00  0.00    -0.354 N 
ATOM     33  N   UNL A   1      41.215  30.001  34.296  1.00  0.00    -0.248 NA
ATOM     34  C   UNL A   1      42.162  28.511  32.765  1.00  0.00     0.031 C 
ATOM     35  C   UNL A   1      43.274  31.484  37.940  1.00  0.00     0.029 A 
ATOM     36  C   UNL A   1      42.633  30.950  36.833  1.00  0.00     0.049 A 
ATOM     37  H   UNL A   1      40.680  31.306  36.128  1.00  0.00     0.167 HD
ATOM     38  C   UNL A   1      42.454  29.587  34.769  1.00  0.00     0.074 A 
ATOM     39  C   UNL A   1      42.973  28.634  33.808  1.00  0.00     0.031 C 
ATOM     40  C   UNL A   1      43.128  30.006  35.867  1.00  0.00     0.037 A 
BRANCH  27  41
ATOM     41  C   UNL A   1      39.793  33.738  39.493  1.00  0.00     0.057 A 
ATOM     42  C   UNL A   1      39.264  33.190  40.664  1.00  0.00     0.134 A 
ATOM     43  C   UNL A   1      40.142  35.097  39.510  1.00  0.00     0.134 A 
ATOM     44  F   UNL A   1      38.872  31.908  40.699  1.00  0.00    -0.206 F 
ATOM     45  C   UNL A   1      39.065  33.973  41.805  1.00  0.00     0.040 A 
ATOM     46  C   UNL A   1      39.967  35.884  40.648  1.00  0.00     0.040 A 
ATOM     47  F   UNL A   1      40.643  35.684  38.413  1.00  0.00    -0.206 F 
ATOM     48  C   UNL A   1      39.418  35.323  41.798  1.00  0.00     0.006 A 
ENDBRANCH  27  41
BRANCH  28  49
ATOM     49  C   UNL A   1      39.894  28.718  30.920  1.00  0.00     0.057 A 
ATOM     50  C   UNL A   1      40.622  29.028  29.763  1.00  0.00     0.134 A 
ATOM     51  C   UNL A   1      39.092  27.570  30.874  1.00  0.00     0.134 A 
ATOM     52  F   UNL A   1      41.387  30.129  29.720  1.00  0.00    -0.206 F 
ATOM     53  C   UNL A   1      40.561  28.230  28.616  1.00  0.00     0.040 A 
ATOM     54  C   UNL A   1      39.048  26.744  29.748  1.00  0.00     0.040 A 
ATOM     55  F   UNL A   1      38.347  27.222  31.934  1.00  0.00    -0.206 F 
ATOM     56  C   UNL A   1      39.781  27.077  28.611  1.00  0.00     0.006 A 
ENDBRANCH  28  49
BRANCH  40  57
ATOM     57  C   UNL A   1      44.511  29.472  36.055  1.00  0.00     0.057 A 
ATOM     58  C   UNL A   1      44.730  28.277  36.753  1.00  0.00     0.134 A 
ATOM     59  C   UNL A   1      45.622  30.126  35.513  1.00  0.00     0.134 A 
ATOM     60  F   UNL A   1      43.702  27.614  37.303  1.00  0.00    -0.206 F 
ATOM     61  C   UNL A   1      46.013  27.757  36.917  1.00  0.00     0.040 A 
ATOM     62  C   UNL A   1      46.908  29.608  35.661  1.00  0.00     0.040 A 
ATOM     63  F   UNL A   1      45.471  31.274  34.835  1.00  0.00    -0.206 F 
ATOM     64  C   UNL A   1      47.107  28.422  36.365  1.00  0.00     0.006 A 
ENDBRANCH  40  57
ENDBRANCH  14  15
ENDBRANCH   7   9
ENDBRANCH   6   7
ENDBRANCH   5   6
ENDBRANCH   4   5
ENDBRANCH   3   4
ENDBRANCH   2   3
ENDBRANCH   1   2
BRANCH   1  65
ATOM     65  O   UNL A   1      34.134  30.474  27.201  1.00  0.00    -0.376 OA
BRANCH  65  66
ATOM     66  C   UNL A   1      32.716  30.542  27.071  1.00  0.00     0.202 C 
BRANCH  66  67
ATOM     67  C   UNL A   1      32.016  29.183  27.087  1.00  0.00     0.261 C 
BRANCH  67  68
ATOM     68  O   UNL A   1      32.837  28.139  26.529  1.00  0.00    -0.461 OA
BRANCH  68  69
ATOM     69  C   UNL A   1      32.196  26.967  26.243  1.00  0.00     0.336 C 
ATOM     70  O   UNL A   1      31.648  26.275  27.093  1.00  0.00    -0.249 OA
BRANCH  69  71
ATOM     71  C   UNL A   1      32.179  26.654  24.714  1.00  0.00     0.164 C 
ATOM     72  C   UNL A   1      33.611  26.878  24.151  1.00  0.00     0.046 C 
ATOM     73  C   UNL A   1      31.175  27.547  23.942  1.00  0.00    -0.008 A 
ATOM     74  C   UNL A   1      33.956  28.360  24.073  1.00  0.00     0.008 C 
ATOM     75  C   UNL A   1      31.601  28.661  23.187  1.00  0.00    -0.042 A 
ATOM     76  C   UNL A   1      29.798  27.225  23.937  1.00  0.00     0.007 A 
ATOM     77  C   UNL A   1      33.053  29.055  23.066  1.00  0.00     0.036 C 
ATOM     78  C   UNL A   1      30.662  29.398  22.445  1.00  0.00     0.004 A 
ATOM     79  C   UNL A   1      28.881  27.959  23.187  1.00  0.00     0.000 A 
ATOM     80  C   UNL A   1      29.314  29.047  22.443  1.00  0.00     0.000 A 
BRANCH  71  81
ATOM     81  N   UNL A   1      31.752  25.247  24.517  1.00  0.00    -0.336 N 
ATOM     82  C   UNL A   1      32.091  24.502  23.419  1.00  0.00     0.224 C 
ATOM     83  H   UNL A   1      31.197  24.826  25.212  1.00  0.00     0.164 HD
ATOM     84  O   UNL A   1      31.704  24.821  22.303  1.00  0.00    -0.275 OA
BRANCH  82  85
ATOM     85  C   UNL A   1      32.863  23.213  23.708  1.00  0.00     0.082 C 
ATOM     86  C   UNL A   1      32.395  22.005  22.275  1.00  0.00     0.035 C 
ATOM     87  C   UNL A   1      32.996  22.470  25.505  1.00  0.00     0.035 C 
ATOM     88  C   UNL A   1      32.216  20.135  22.606  1.00  0.00     0.120 C 
ATOM     89  C   UNL A   1      32.674  20.552  25.772  1.00  0.00     0.120 C 
ATOM     90  N   UNL A   1      32.500  19.472  24.295  1.00  0.00    -0.342 N 
ATOM     91  C   UNL A   1      32.695  18.083  24.219  1.00  0.00     0.225 C 
ATOM     92  O   UNL A   1      32.606  17.521  23.128  1.00  0.00    -0.275 OA
BRANCH  91  93
ATOM     93  C   UNL A   1      33.056  17.184  25.345  1.00  0.00     0.079 C 
ATOM     94  C   UNL A   1      32.620  15.795  25.688  1.00  0.00     0.014 C 
ATOM     95  C   UNL A   1      34.007  16.036  25.158  1.00  0.00     0.014 C 
ENDBRANCH  91  93
ENDBRANCH  82  85
ENDBRANCH  71  81
ENDBRANCH  69  71
ENDBRANCH  68  69
ENDBRANCH  67  68
ENDBRANCH  66  67
ENDBRANCH  65  66
ENDBRANCH   1  65
TORSDOF 20
ENDMDL
