MODEL 1
REMARK VINA RESULT:     -11.8      0.000      0.000
REMARK SMILES COc1cccc(-c2nn(-c3cc4c(cc3C(N)=O)OCO4)cc2C(=O)OCCOCCOCCOC(=O)c2ccc(-c3c4nc(c(-c5c(F)cccc5F)c5ccc([nH]5)c(-c5c(F)cccc5F)c5nc(c(-c6c(F)cccc6F)c6ccc3[nH]6)C=C5)C=C4)cc2)c1
REMARK SMILES IDX 31 1 30 2 29 3 28 4 27 5 25 6 26 7 24 8 8 9 9 10 10 11 23 12
REMARK SMILES IDX 7 13 3 14 4 15 93 16 5 17 6 18 2 19 1 20 11 21 12 22 16 23
REMARK SMILES IDX 13 24 15 25 14 26 22 27 20 28 21 29 17 30 18 31 19 32 32 35
REMARK SMILES IDX 33 36 34 37 35 38 36 39 37 40 38 41 39 42 40 43 92 44 41 45
REMARK SMILES IDX 91 46 42 47 43 48 44 49 85 50 45 51 90 52 84 53 86 54 46 55
REMARK SMILES IDX 89 56 83 57 82 58 47 60 73 61 56 62 72 63 57 64 60 65 71 66
REMARK SMILES IDX 87 67 58 68 59 69 70 71 88 72 61 73 48 74 49 75 54 76 50 77
REMARK SMILES IDX 51 78 53 79 55 80 52 81 74 82 75 83 80 84 76 85 77 86 79 87
REMARK SMILES IDX 81 88 78 89 62 90 63 91 68 92 64 93 65 94 67 95 69 96 66 97
REMARK H PARENT 18 33 18 34 86 59 60 70
REMARK Flexibility Score: inf
ROOT
ATOM      1  C   UNL A   1      39.271  21.837  26.468  1.00  0.00     0.188 C 
ENDROOT
BRANCH   1   2
ATOM      2  O   UNL A   1      38.494  21.866  25.294  1.00  0.00    -0.376 OA
BRANCH   2   3
ATOM      3  C   UNL A   1      37.201  21.284  25.325  1.00  0.00     0.202 C 
BRANCH   3   4
ATOM      4  C   UNL A   1      35.971  21.904  24.625  1.00  0.00     0.261 C 
BRANCH   4   5
ATOM      5  O   UNL A   1      35.347  23.036  25.233  1.00  0.00    -0.460 OA
BRANCH   5   6
ATOM      6  C   UNL A   1      34.206  22.809  25.954  1.00  0.00     0.342 C 
ATOM      7  O   UNL A   1      34.189  22.414  27.107  1.00  0.00    -0.246 OA
BRANCH   6   8
ATOM      8  C   UNL A   1      33.023  23.214  25.219  1.00  0.00     0.106 A 
ATOM      9  C   UNL A   1      32.204  22.462  24.328  1.00  0.00     0.107 A 
ATOM     10  N   UNL A   1      31.209  23.216  23.825  1.00  0.00    -0.167 NA
ATOM     11  N   UNL A   1      31.524  24.469  24.241  1.00  0.00    -0.239 N 
ATOM     12  C   UNL A   1      32.371  24.424  25.319  1.00  0.00     0.131 A 
BRANCH   9  13
ATOM     13  C   UNL A   1      32.316  21.041  24.035  1.00  0.00     0.007 A 
ATOM     14  C   UNL A   1      32.526  18.762  24.816  1.00  0.00     0.119 A 
ATOM     15  C   UNL A   1      32.344  18.302  23.509  1.00  0.00     0.046 A 
ATOM     16  C   UNL A   1      32.519  20.133  25.078  1.00  0.00     0.056 A 
ATOM     17  C   UNL A   1      32.155  19.204  22.462  1.00  0.00     0.005 A 
ATOM     18  C   UNL A   1      32.156  20.574  22.723  1.00  0.00     0.011 A 
BRANCH  14  19
ATOM     19  O   UNL A   1      32.750  17.789  25.752  1.00  0.00    -0.497 OA
ATOM     20  C   UNL A   1      33.668  16.773  25.359  1.00  0.00     0.278 C 
ENDBRANCH  14  19
ENDBRANCH   9  13
BRANCH  11  21
ATOM     21  C   UNL A   1      30.980  25.632  23.640  1.00  0.00     0.081 A 
ATOM     22  C   UNL A   1      29.683  26.033  24.023  1.00  0.00     0.079 A 
ATOM     23  C   UNL A   1      31.717  26.379  22.669  1.00  0.00     0.069 A 
ATOM     24  C   UNL A   1      29.195  27.205  23.488  1.00  0.00     0.167 A 
ATOM     25  C   UNL A   1      31.222  27.627  22.256  1.00  0.00     0.066 A 
ATOM     26  C   UNL A   1      29.959  27.991  22.660  1.00  0.00     0.166 A 
ATOM     27  O   UNL A   1      27.951  27.726  23.672  1.00  0.00    -0.454 OA
ATOM     28  O   UNL A   1      29.296  29.099  22.229  1.00  0.00    -0.454 OA
ATOM     29  C   UNL A   1      27.969  28.802  22.709  1.00  0.00     0.468 C 
BRANCH  23  30
ATOM     30  C   UNL A   1      32.844  25.763  21.873  1.00  0.00     0.251 C 
ATOM     31  N   UNL A   1      32.574  24.732  21.017  1.00  0.00    -0.366 N 
ATOM     32  O   UNL A   1      34.023  26.061  22.013  1.00  0.00    -0.269 OA
ATOM     33  H   UNL A   1      31.643  24.449  20.866  1.00  0.00     0.159 HD
ATOM     34  H   UNL A   1      33.311  24.272  20.553  1.00  0.00     0.159 HD
ENDBRANCH  23  30
ENDBRANCH  11  21
ENDBRANCH   6   8
ENDBRANCH   5   6
ENDBRANCH   4   5
ENDBRANCH   3   4
ENDBRANCH   2   3
ENDBRANCH   1   2
BRANCH   1  35
ATOM     35  C   UNL A   1      40.710  21.322  26.244  1.00  0.00     0.188 C 
BRANCH  35  36
ATOM     36  O   UNL A   1      41.675  22.048  25.491  1.00  0.00    -0.376 OA
BRANCH  36  37
ATOM     37  C   UNL A   1      42.766  22.715  26.109  1.00  0.00     0.202 C 
BRANCH  37  38
ATOM     38  C   UNL A   1      42.552  24.035  26.843  1.00  0.00     0.261 C 
BRANCH  38  39
ATOM     39  O   UNL A   1      41.327  24.665  26.534  1.00  0.00    -0.460 OA
BRANCH  39  40
ATOM     40  C   UNL A   1      41.454  25.834  25.884  1.00  0.00     0.338 C 
ATOM     41  O   UNL A   1      42.258  26.119  25.000  1.00  0.00    -0.246 OA
BRANCH  40  42
ATOM     42  C   UNL A   1      40.503  26.785  26.462  1.00  0.00     0.060 A 
ATOM     43  C   UNL A   1      40.779  28.134  26.241  1.00  0.00     0.016 A 
ATOM     44  C   UNL A   1      39.683  26.341  27.509  1.00  0.00     0.016 A 
ATOM     45  C   UNL A   1      40.540  29.000  27.276  1.00  0.00     0.010 A 
ATOM     46  C   UNL A   1      39.479  27.195  28.555  1.00  0.00     0.010 A 
ATOM     47  C   UNL A   1      40.023  28.470  28.462  1.00  0.00    -0.014 A 
BRANCH  47  48
ATOM     48  C   UNL A   1      40.062  29.294  29.641  1.00  0.00     0.031 A 
ATOM     49  C   UNL A   1      38.873  30.152  29.762  1.00  0.00     0.074 A 
ATOM     50  C   UNL A   1      41.048  29.178  30.550  1.00  0.00     0.049 A 
ATOM     51  N   UNL A   1      38.804  31.428  29.586  1.00  0.00    -0.248 NA
ATOM     52  C   UNL A   1      37.570  29.480  29.882  1.00  0.00     0.031 C 
ATOM     53  C   UNL A   1      42.093  28.156  30.648  1.00  0.00     0.029 A 
ATOM     54  N   UNL A   1      41.254  29.933  31.657  1.00  0.00    -0.354 N 
ATOM     55  C   UNL A   1      37.469  31.745  29.798  1.00  0.00     0.074 A 
ATOM     56  C   UNL A   1      36.738  30.509  29.729  1.00  0.00     0.031 C 
ATOM     57  C   UNL A   1      42.673  28.228  31.869  1.00  0.00     0.029 A 
ATOM     58  C   UNL A   1      42.133  29.376  32.577  1.00  0.00     0.049 A 
ATOM     59  H   UNL A   1      40.817  30.804  31.799  1.00  0.00     0.167 HD
ATOM     60  C   UNL A   1      37.115  32.948  30.318  1.00  0.00     0.037 A 
ATOM     61  C   UNL A   1      42.299  29.807  33.853  1.00  0.00     0.037 A 
ATOM     62  C   UNL A   1      38.180  33.910  30.179  1.00  0.00     0.049 A 
ATOM     63  C   UNL A   1      41.749  31.188  33.928  1.00  0.00     0.074 A 
ATOM     64  C   UNL A   1      38.866  34.446  29.106  1.00  0.00     0.029 A 
ATOM     65  N   UNL A   1      38.953  34.171  31.284  1.00  0.00    -0.354 N 
ATOM     66  N   UNL A   1      42.292  32.217  33.336  1.00  0.00    -0.248 NA
ATOM     67  C   UNL A   1      40.334  31.331  34.248  1.00  0.00     0.031 C 
ATOM     68  C   UNL A   1      40.214  34.573  29.552  1.00  0.00     0.029 A 
ATOM     69  C   UNL A   1      40.265  34.165  30.885  1.00  0.00     0.049 A 
ATOM     70  H   UNL A   1      38.624  34.333  32.199  1.00  0.00     0.167 HD
ATOM     71  C   UNL A   1      41.222  32.947  32.834  1.00  0.00     0.074 A 
ATOM     72  C   UNL A   1      40.040  32.389  33.486  1.00  0.00     0.031 C 
ATOM     73  C   UNL A   1      41.359  33.730  31.723  1.00  0.00     0.037 A 
BRANCH  60  74
ATOM     74  C   UNL A   1      35.983  33.119  31.299  1.00  0.00     0.057 A 
ATOM     75  C   UNL A   1      34.959  34.028  30.994  1.00  0.00     0.134 A 
ATOM     76  C   UNL A   1      35.993  32.655  32.633  1.00  0.00     0.134 A 
ATOM     77  F   UNL A   1      34.850  34.555  29.765  1.00  0.00    -0.206 F 
ATOM     78  C   UNL A   1      34.062  34.497  31.961  1.00  0.00     0.040 A 
ATOM     79  C   UNL A   1      35.067  33.071  33.590  1.00  0.00     0.040 A 
ATOM     80  F   UNL A   1      36.950  31.857  33.120  1.00  0.00    -0.206 F 
ATOM     81  C   UNL A   1      34.119  34.022  33.265  1.00  0.00     0.006 A 
ENDBRANCH  60  74
BRANCH  61  82
ATOM     82  C   UNL A   1      42.560  28.996  35.063  1.00  0.00     0.057 A 
ATOM     83  C   UNL A   1      41.872  27.798  35.300  1.00  0.00     0.134 A 
ATOM     84  C   UNL A   1      43.684  29.232  35.876  1.00  0.00     0.134 A 
ATOM     85  F   UNL A   1      40.815  27.461  34.544  1.00  0.00    -0.206 F 
ATOM     86  C   UNL A   1      42.284  26.881  36.278  1.00  0.00     0.040 A 
ATOM     87  C   UNL A   1      44.103  28.328  36.858  1.00  0.00     0.040 A 
ATOM     88  F   UNL A   1      44.465  30.303  35.682  1.00  0.00    -0.206 F 
ATOM     89  C   UNL A   1      43.409  27.141  37.054  1.00  0.00     0.006 A 
ENDBRANCH  61  82
BRANCH  73  90
ATOM     90  C   UNL A   1      42.748  33.958  31.193  1.00  0.00     0.057 A 
ATOM     91  C   UNL A   1      43.363  33.144  30.228  1.00  0.00     0.134 A 
ATOM     92  C   UNL A   1      43.423  35.130  31.552  1.00  0.00     0.134 A 
ATOM     93  F   UNL A   1      42.749  32.055  29.749  1.00  0.00    -0.206 F 
ATOM     94  C   UNL A   1      44.609  33.462  29.678  1.00  0.00     0.040 A 
ATOM     95  C   UNL A   1      44.651  35.478  30.986  1.00  0.00     0.040 A 
ATOM     96  F   UNL A   1      42.869  35.987  32.425  1.00  0.00    -0.206 F 
ATOM     97  C   UNL A   1      45.253  34.638  30.052  1.00  0.00     0.006 A 
ENDBRANCH  73  90
ENDBRANCH  47  48
ENDBRANCH  40  42
ENDBRANCH  39  40
ENDBRANCH  38  39
ENDBRANCH  37  38
ENDBRANCH  36  37
ENDBRANCH  35  36
ENDBRANCH   1  35
TORSDOF 21
ENDMDL
MODEL 2
REMARK VINA RESULT:     -11.7      3.387      8.668
REMARK SMILES COc1cccc(-c2nn(-c3cc4c(cc3C(N)=O)OCO4)cc2C(=O)OCCOCCOCCOC(=O)c2ccc(-c3c4nc(c(-c5c(F)cccc5F)c5ccc([nH]5)c(-c5c(F)cccc5F)c5nc(c(-c6c(F)cccc6F)c6ccc3[nH]6)C=C5)C=C4)cc2)c1
REMARK SMILES IDX 31 1 30 2 29 3 28 4 27 5 25 6 26 7 24 8 8 9 9 10 10 11 23 12
REMARK SMILES IDX 7 13 3 14 4 15 93 16 5 17 6 18 2 19 1 20 11 21 12 22 16 23
REMARK SMILES IDX 13 24 15 25 14 26 22 27 20 28 21 29 17 30 18 31 19 32 32 35
REMARK SMILES IDX 33 36 34 37 35 38 36 39 37 40 38 41 39 42 40 43 92 44 41 45
REMARK SMILES IDX 91 46 42 47 43 48 44 49 85 50 45 51 90 52 84 53 86 54 46 55
REMARK SMILES IDX 89 56 83 57 82 58 47 60 73 61 56 62 72 63 57 64 60 65 71 66
REMARK SMILES IDX 87 67 58 68 59 69 70 71 88 72 61 73 48 74 49 75 54 76 50 77
REMARK SMILES IDX 51 78 53 79 55 80 52 81 74 82 75 83 80 84 76 85 77 86 79 87
REMARK SMILES IDX 81 88 78 89 62 90 63 91 68 92 64 93 65 94 67 95 69 96 66 97
REMARK H PARENT 18 33 18 34 86 59 60 70
REMARK Flexibility Score: inf
ROOT
ATOM      1  C   UNL A   1      33.379  33.535  28.014  1.00  0.00     0.188 C 
ENDROOT
BRANCH   1   2
ATOM      2  O   UNL A   1      32.119  33.411  27.398  1.00  0.00    -0.376 OA
BRANCH   2   3
ATOM      3  C   UNL A   1      31.720  32.134  26.926  1.00  0.00     0.202 C 
BRANCH   3   4
ATOM      4  C   UNL A   1      32.629  30.886  26.972  1.00  0.00     0.261 C 
BRANCH   4   5
ATOM      5  O   UNL A   1      32.277  29.764  26.161  1.00  0.00    -0.460 OA
BRANCH   5   6
ATOM      6  C   UNL A   1      32.035  28.579  26.803  1.00  0.00     0.342 C 
ATOM      7  O   UNL A   1      31.490  28.486  27.889  1.00  0.00    -0.246 OA
BRANCH   6   8
ATOM      8  C   UNL A   1      32.395  27.444  25.976  1.00  0.00     0.106 A 
ATOM      9  C   UNL A   1      31.704  26.866  24.873  1.00  0.00     0.107 A 
ATOM     10  N   UNL A   1      32.363  25.796  24.389  1.00  0.00    -0.167 NA
ATOM     11  N   UNL A   1      33.345  25.593  25.304  1.00  0.00    -0.239 N 
ATOM     12  C   UNL A   1      33.575  26.733  26.031  1.00  0.00     0.131 A 
BRANCH   9  13
ATOM     13  C   UNL A   1      30.495  27.374  24.243  1.00  0.00     0.007 A 
ATOM     14  C   UNL A   1      29.422  28.967  22.773  1.00  0.00     0.119 A 
ATOM     15  C   UNL A   1      28.226  28.250  22.878  1.00  0.00     0.046 A 
ATOM     16  C   UNL A   1      30.555  28.532  23.462  1.00  0.00     0.056 A 
ATOM     17  C   UNL A   1      28.156  27.103  23.666  1.00  0.00     0.005 A 
ATOM     18  C   UNL A   1      29.287  26.673  24.361  1.00  0.00     0.011 A 
BRANCH  14  19
ATOM     19  O   UNL A   1      29.358  30.101  22.011  1.00  0.00    -0.497 OA
ATOM     20  C   UNL A   1      28.091  30.359  21.415  1.00  0.00     0.278 C 
ENDBRANCH  14  19
ENDBRANCH   9  13
BRANCH  11  21
ATOM     21  C   UNL A   1      34.042  24.363  25.415  1.00  0.00     0.081 A 
ATOM     22  C   UNL A   1      35.266  24.229  24.727  1.00  0.00     0.079 A 
ATOM     23  C   UNL A   1      33.523  23.285  26.197  1.00  0.00     0.069 A 
ATOM     24  C   UNL A   1      35.970  23.058  24.901  1.00  0.00     0.167 A 
ATOM     25  C   UNL A   1      34.341  22.169  26.440  1.00  0.00     0.066 A 
ATOM     26  C   UNL A   1      35.534  22.078  25.760  1.00  0.00     0.166 A 
ATOM     27  O   UNL A   1      37.127  22.705  24.277  1.00  0.00    -0.454 OA
ATOM     28  O   UNL A   1      36.361  20.997  25.786  1.00  0.00    -0.454 OA
ATOM     29  C   UNL A   1      37.240  21.325  24.691  1.00  0.00     0.468 C 
BRANCH  23  30
ATOM     30  C   UNL A   1      32.054  23.174  26.532  1.00  0.00     0.251 C 
ATOM     31  N   UNL A   1      31.165  22.852  25.545  1.00  0.00    -0.366 N 
ATOM     32  O   UNL A   1      31.579  23.453  27.625  1.00  0.00    -0.269 OA
ATOM     33  H   UNL A   1      31.491  22.619  24.646  1.00  0.00     0.159 HD
ATOM     34  H   UNL A   1      30.198  22.853  25.735  1.00  0.00     0.159 HD
ENDBRANCH  23  30
ENDBRANCH  11  21
ENDBRANCH   6   8
ENDBRANCH   5   6
ENDBRANCH   4   5
ENDBRANCH   3   4
ENDBRANCH   2   3
ENDBRANCH   1   2
BRANCH   1  35
ATOM     35  C   UNL A   1      33.503  34.779  28.922  1.00  0.00     0.188 C 
BRANCH  35  36
ATOM     36  O   UNL A   1      33.026  34.799  30.262  1.00  0.00    -0.376 OA
BRANCH  36  37
ATOM     37  C   UNL A   1      33.889  35.036  31.365  1.00  0.00     0.202 C 
BRANCH  37  38
ATOM     38  C   UNL A   1      34.661  33.886  32.005  1.00  0.00     0.261 C 
BRANCH  38  39
ATOM     39  O   UNL A   1      35.516  33.207  31.110  1.00  0.00    -0.460 OA
BRANCH  39  40
ATOM     40  C   UNL A   1      35.851  31.965  31.498  1.00  0.00     0.338 C 
ATOM     41  O   UNL A   1      35.605  31.421  32.571  1.00  0.00    -0.246 OA
BRANCH  40  42
ATOM     42  C   UNL A   1      36.656  31.357  30.437  1.00  0.00     0.060 A 
ATOM     43  C   UNL A   1      36.505  29.980  30.271  1.00  0.00     0.016 A 
ATOM     44  C   UNL A   1      37.783  32.055  29.983  1.00  0.00     0.016 A 
ATOM     45  C   UNL A   1      37.633  29.256  29.988  1.00  0.00     0.010 A 
ATOM     46  C   UNL A   1      38.916  31.332  29.738  1.00  0.00     0.010 A 
ATOM     47  C   UNL A   1      38.840  29.951  29.869  1.00  0.00    -0.014 A 
BRANCH  47  48
ATOM     48  C   UNL A   1      40.061  29.189  29.886  1.00  0.00     0.031 A 
ATOM     49  C   UNL A   1      40.596  29.021  31.246  1.00  0.00     0.074 A 
ATOM     50  C   UNL A   1      40.558  28.629  28.768  1.00  0.00     0.049 A 
ATOM     51  N   UNL A   1      41.633  29.591  31.758  1.00  0.00    -0.248 NA
ATOM     52  C   UNL A   1      39.753  28.300  32.214  1.00  0.00     0.031 C 
ATOM     53  C   UNL A   1      39.935  28.504  27.446  1.00  0.00     0.029 A 
ATOM     54  N   UNL A   1      41.726  27.957  28.620  1.00  0.00    -0.354 N 
ATOM     55  C   UNL A   1      41.694  29.114  33.061  1.00  0.00     0.074 A 
ATOM     56  C   UNL A   1      40.408  28.540  33.349  1.00  0.00     0.031 C 
ATOM     57  C   UNL A   1      40.634  27.608  26.708  1.00  0.00     0.029 A 
ATOM     58  C   UNL A   1      41.814  27.206  27.454  1.00  0.00     0.049 A 
ATOM     59  H   UNL A   1      42.453  27.997  29.283  1.00  0.00     0.167 HD
ATOM     60  C   UNL A   1      42.888  28.953  33.686  1.00  0.00     0.037 A 
ATOM     61  C   UNL A   1      42.757  26.263  27.208  1.00  0.00     0.037 A 
ATOM     62  C   UNL A   1      43.924  29.718  33.038  1.00  0.00     0.049 A 
ATOM     63  C   UNL A   1      43.881  26.501  28.154  1.00  0.00     0.074 A 
ATOM     64  C   UNL A   1      44.113  31.061  32.773  1.00  0.00     0.029 A 
ATOM     65  N   UNL A   1      44.785  29.048  32.204  1.00  0.00    -0.354 N 
ATOM     66  N   UNL A   1      44.670  27.540  28.094  1.00  0.00    -0.248 NA
ATOM     67  C   UNL A   1      43.814  25.846  29.455  1.00  0.00     0.031 C 
ATOM     68  C   UNL A   1      44.717  31.104  31.482  1.00  0.00     0.029 A 
ATOM     69  C   UNL A   1      44.916  29.791  31.058  1.00  0.00     0.049 A 
ATOM     70  H   UNL A   1      45.229  28.189  32.394  1.00  0.00     0.167 HD
ATOM     71  C   UNL A   1      44.863  27.919  29.416  1.00  0.00     0.074 A 
ATOM     72  C   UNL A   1      44.367  26.798  30.212  1.00  0.00     0.031 C 
ATOM     73  C   UNL A   1      45.128  29.217  29.748  1.00  0.00     0.037 A 
BRANCH  60  74
ATOM     74  C   UNL A   1      43.182  27.801  34.613  1.00  0.00     0.057 A 
ATOM     75  C   UNL A   1      43.247  26.505  34.077  1.00  0.00     0.134 A 
ATOM     76  C   UNL A   1      43.125  27.863  36.023  1.00  0.00     0.134 A 
ATOM     77  F   UNL A   1      43.290  26.310  32.751  1.00  0.00    -0.206 F 
ATOM     78  C   UNL A   1      43.183  25.360  34.880  1.00  0.00     0.040 A 
ATOM     79  C   UNL A   1      43.119  26.728  36.834  1.00  0.00     0.040 A 
ATOM     80  F   UNL A   1      42.968  29.008  36.696  1.00  0.00    -0.206 F 
ATOM     81  C   UNL A   1      43.113  25.470  36.263  1.00  0.00     0.006 A 
ENDBRANCH  60  74
BRANCH  61  82
ATOM     82  C   UNL A   1      42.598  24.983  26.479  1.00  0.00     0.057 A 
ATOM     83  C   UNL A   1      43.426  24.654  25.397  1.00  0.00     0.134 A 
ATOM     84  C   UNL A   1      41.816  23.936  26.999  1.00  0.00     0.134 A 
ATOM     85  F   UNL A   1      44.244  25.573  24.863  1.00  0.00    -0.206 F 
ATOM     86  C   UNL A   1      43.483  23.355  24.870  1.00  0.00     0.040 A 
ATOM     87  C   UNL A   1      41.860  22.637  26.480  1.00  0.00     0.040 A 
ATOM     88  F   UNL A   1      41.052  24.116  28.085  1.00  0.00    -0.206 F 
ATOM     89  C   UNL A   1      42.706  22.340  25.419  1.00  0.00     0.006 A 
ENDBRANCH  61  82
BRANCH  73  90
ATOM     90  C   UNL A   1      45.429  30.179  28.631  1.00  0.00     0.057 A 
ATOM     91  C   UNL A   1      46.698  30.334  28.050  1.00  0.00     0.134 A 
ATOM     92  C   UNL A   1      44.368  30.851  28.016  1.00  0.00     0.134 A 
ATOM     93  F   UNL A   1      47.756  29.653  28.507  1.00  0.00    -0.206 F 
ATOM     94  C   UNL A   1      46.906  31.152  26.935  1.00  0.00     0.040 A 
ATOM     95  C   UNL A   1      44.554  31.644  26.882  1.00  0.00     0.040 A 
ATOM     96  F   UNL A   1      43.117  30.704  28.480  1.00  0.00    -0.206 F 
ATOM     97  C   UNL A   1      45.829  31.805  26.343  1.00  0.00     0.006 A 
ENDBRANCH  73  90
ENDBRANCH  47  48
ENDBRANCH  40  42
ENDBRANCH  39  40
ENDBRANCH  38  39
ENDBRANCH  37  38
ENDBRANCH  36  37
ENDBRANCH  35  36
ENDBRANCH   1  35
TORSDOF 21
ENDMDL
MODEL 3
REMARK VINA RESULT:     -11.0      3.252      8.415
REMARK SMILES COc1cccc(-c2nn(-c3cc4c(cc3C(N)=O)OCO4)cc2C(=O)OCCOCCOCCOC(=O)c2ccc(-c3c4nc(c(-c5c(F)cccc5F)c5ccc([nH]5)c(-c5c(F)cccc5F)c5nc(c(-c6c(F)cccc6F)c6ccc3[nH]6)C=C5)C=C4)cc2)c1
REMARK SMILES IDX 31 1 30 2 29 3 28 4 27 5 25 6 26 7 24 8 8 9 9 10 10 11 23 12
REMARK SMILES IDX 7 13 3 14 4 15 93 16 5 17 6 18 2 19 1 20 11 21 12 22 16 23
REMARK SMILES IDX 13 24 15 25 14 26 22 27 20 28 21 29 17 30 18 31 19 32 32 35
REMARK SMILES IDX 33 36 34 37 35 38 36 39 37 40 38 41 39 42 40 43 92 44 41 45
REMARK SMILES IDX 91 46 42 47 43 48 44 49 85 50 45 51 90 52 84 53 86 54 46 55
REMARK SMILES IDX 89 56 83 57 82 58 47 60 73 61 56 62 72 63 57 64 60 65 71 66
REMARK SMILES IDX 87 67 58 68 59 69 70 71 88 72 61 73 48 74 49 75 54 76 50 77
REMARK SMILES IDX 51 78 53 79 55 80 52 81 74 82 75 83 80 84 76 85 77 86 79 87
REMARK SMILES IDX 81 88 78 89 62 90 63 91 68 92 64 93 65 94 67 95 69 96 66 97
REMARK H PARENT 18 33 18 34 86 59 60 70
REMARK Flexibility Score: inf
ROOT
ATOM      1  C   UNL A   1      32.910  32.900  27.541  1.00  0.00     0.188 C 
ENDROOT
BRANCH   1   2
ATOM      2  O   UNL A   1      31.620  32.731  27.002  1.00  0.00    -0.376 OA
BRANCH   2   3
ATOM      3  C   UNL A   1      31.261  31.457  26.494  1.00  0.00     0.202 C 
BRANCH   3   4
ATOM      4  C   UNL A   1      31.906  30.137  26.971  1.00  0.00     0.261 C 
BRANCH   4   5
ATOM      5  O   UNL A   1      31.960  29.042  26.055  1.00  0.00    -0.460 OA
BRANCH   5   6
ATOM      6  C   UNL A   1      31.379  27.867  26.450  1.00  0.00     0.342 C 
ATOM      7  O   UNL A   1      30.853  27.691  27.535  1.00  0.00    -0.246 OA
BRANCH   6   8
ATOM      8  C   UNL A   1      31.358  26.897  25.372  1.00  0.00     0.106 A 
ATOM      9  C   UNL A   1      30.495  26.810  24.242  1.00  0.00     0.107 A 
ATOM     10  N   UNL A   1      30.788  25.737  23.484  1.00  0.00    -0.167 NA
ATOM     11  N   UNL A   1      31.688  25.056  24.238  1.00  0.00    -0.239 N 
ATOM     12  C   UNL A   1      32.270  25.885  25.164  1.00  0.00     0.131 A 
BRANCH   9  13
ATOM     13  C   UNL A   1      29.479  27.775  23.850  1.00  0.00     0.007 A 
ATOM     14  C   UNL A   1      28.899  29.944  22.951  1.00  0.00     0.119 A 
ATOM     15  C   UNL A   1      27.554  29.566  22.918  1.00  0.00     0.046 A 
ATOM     16  C   UNL A   1      29.861  29.050  23.424  1.00  0.00     0.056 A 
ATOM     17  C   UNL A   1      27.164  28.300  23.354  1.00  0.00     0.005 A 
ATOM     18  C   UNL A   1      28.125  27.410  23.834  1.00  0.00     0.011 A 
BRANCH  14  19
ATOM     19  O   UNL A   1      29.156  31.225  22.545  1.00  0.00    -0.497 OA
ATOM     20  C   UNL A   1      28.189  31.784  21.662  1.00  0.00     0.278 C 
ENDBRANCH  14  19
ENDBRANCH   9  13
BRANCH  11  21
ATOM     21  C   UNL A   1      31.984  23.687  24.022  1.00  0.00     0.081 A 
ATOM     22  C   UNL A   1      31.743  22.781  25.076  1.00  0.00     0.079 A 
ATOM     23  C   UNL A   1      32.516  23.231  22.776  1.00  0.00     0.069 A 
ATOM     24  C   UNL A   1      31.965  21.444  24.830  1.00  0.00     0.167 A 
ATOM     25  C   UNL A   1      32.602  21.849  22.541  1.00  0.00     0.066 A 
ATOM     26  C   UNL A   1      32.347  20.995  23.589  1.00  0.00     0.166 A 
ATOM     27  O   UNL A   1      31.862  20.425  25.726  1.00  0.00    -0.454 OA
ATOM     28  O   UNL A   1      32.525  19.646  23.551  1.00  0.00    -0.454 OA
ATOM     29  C   UNL A   1      32.418  19.337  24.955  1.00  0.00     0.468 C 
BRANCH  23  30
ATOM     30  C   UNL A   1      33.240  24.159  21.828  1.00  0.00     0.251 C 
ATOM     31  N   UNL A   1      32.558  24.706  20.777  1.00  0.00    -0.366 N 
ATOM     32  O   UNL A   1      34.441  24.385  21.876  1.00  0.00    -0.269 OA
ATOM     33  H   UNL A   1      31.590  24.557  20.687  1.00  0.00     0.159 HD
ATOM     34  H   UNL A   1      33.038  25.249  20.109  1.00  0.00     0.159 HD
ENDBRANCH  23  30
ENDBRANCH  11  21
ENDBRANCH   6   8
ENDBRANCH   5   6
ENDBRANCH   4   5
ENDBRANCH   3   4
ENDBRANCH   2   3
ENDBRANCH   1   2
BRANCH   1  35
ATOM     35  C   UNL A   1      33.116  34.265  28.235  1.00  0.00     0.188 C 
BRANCH  35  36
ATOM     36  O   UNL A   1      32.859  34.467  29.620  1.00  0.00    -0.376 OA
BRANCH  36  37
ATOM     37  C   UNL A   1      33.885  34.839  30.529  1.00  0.00     0.202 C 
BRANCH  37  38
ATOM     38  C   UNL A   1      34.584  33.784  31.380  1.00  0.00     0.261 C 
BRANCH  38  39
ATOM     39  O   UNL A   1      35.533  33.017  30.669  1.00  0.00    -0.460 OA
BRANCH  39  40
ATOM     40  C   UNL A   1      35.735  31.784  31.166  1.00  0.00     0.338 C 
ATOM     41  O   UNL A   1      35.389  31.351  32.262  1.00  0.00    -0.246 OA
BRANCH  40  42
ATOM     42  C   UNL A   1      36.529  31.026  30.199  1.00  0.00     0.060 A 
ATOM     43  C   UNL A   1      36.489  29.638  30.333  1.00  0.00     0.016 A 
ATOM     44  C   UNL A   1      37.565  31.693  29.531  1.00  0.00     0.016 A 
ATOM     45  C   UNL A   1      37.658  28.955  30.124  1.00  0.00     0.010 A 
ATOM     46  C   UNL A   1      38.741  31.019  29.359  1.00  0.00     0.010 A 
ATOM     47  C   UNL A   1      38.792  29.695  29.778  1.00  0.00    -0.014 A 
BRANCH  47  48
ATOM     48  C   UNL A   1      40.073  29.045  29.864  1.00  0.00     0.031 A 
ATOM     49  C   UNL A   1      40.615  29.057  31.232  1.00  0.00     0.074 A 
ATOM     50  C   UNL A   1      40.621  28.422  28.804  1.00  0.00     0.049 A 
ATOM     51  N   UNL A   1      41.598  29.760  31.681  1.00  0.00    -0.248 NA
ATOM     52  C   UNL A   1      39.833  28.366  32.269  1.00  0.00     0.031 C 
ATOM     53  C   UNL A   1      40.016  28.116  27.504  1.00  0.00     0.029 A 
ATOM     54  N   UNL A   1      41.842  27.841  28.717  1.00  0.00    -0.354 N 
ATOM     55  C   UNL A   1      41.694  29.421  33.024  1.00  0.00     0.074 A 
ATOM     56  C   UNL A   1      40.461  28.771  33.372  1.00  0.00     0.031 C 
ATOM     57  C   UNL A   1      40.791  27.215  26.854  1.00  0.00     0.029 A 
ATOM     58  C   UNL A   1      41.998  26.990  27.630  1.00  0.00     0.049 A 
ATOM     59  H   UNL A   1      42.560  28.007  29.370  1.00  0.00     0.167 HD
ATOM     60  C   UNL A   1      42.895  29.424  33.657  1.00  0.00     0.037 A 
ATOM     61  C   UNL A   1      43.019  26.110  27.474  1.00  0.00     0.037 A 
ATOM     62  C   UNL A   1      43.865  30.207  32.932  1.00  0.00     0.049 A 
ATOM     63  C   UNL A   1      44.115  26.535  28.387  1.00  0.00     0.074 A 
ATOM     64  C   UNL A   1      43.940  31.529  32.536  1.00  0.00     0.029 A 
ATOM     65  N   UNL A   1      44.783  29.534  32.164  1.00  0.00    -0.354 N 
ATOM     66  N   UNL A   1      44.813  27.626  28.222  1.00  0.00    -0.248 NA
ATOM     67  C   UNL A   1      44.099  26.007  29.746  1.00  0.00     0.031 C 
ATOM     68  C   UNL A   1      44.543  31.496  31.245  1.00  0.00     0.029 A 
ATOM     69  C   UNL A   1      44.855  30.169  30.950  1.00  0.00     0.049 A 
ATOM     70  H   UNL A   1      45.297  28.739  32.436  1.00  0.00     0.167 HD
ATOM     71  C   UNL A   1      44.967  28.148  29.500  1.00  0.00     0.074 A 
ATOM     72  C   UNL A   1      44.566  27.073  30.404  1.00  0.00     0.031 C 
ATOM     73  C   UNL A   1      45.120  29.490  29.702  1.00  0.00     0.037 A 
BRANCH  60  74
ATOM     74  C   UNL A   1      43.283  28.397  34.690  1.00  0.00     0.057 A 
ATOM     75  C   UNL A   1      43.286  27.042  34.326  1.00  0.00     0.134 A 
ATOM     76  C   UNL A   1      43.376  28.643  36.078  1.00  0.00     0.134 A 
ATOM     77  F   UNL A   1      43.187  26.675  33.039  1.00  0.00    -0.206 F 
ATOM     78  C   UNL A   1      43.304  26.012  35.274  1.00  0.00     0.040 A 
ATOM     79  C   UNL A   1      43.453  27.624  37.028  1.00  0.00     0.040 A 
ATOM     80  F   UNL A   1      43.295  29.869  36.608  1.00  0.00    -0.206 F 
ATOM     81  C   UNL A   1      43.382  26.303  36.630  1.00  0.00     0.006 A 
ENDBRANCH  60  74
BRANCH  61  82
ATOM     82  C   UNL A   1      42.972  24.757  26.875  1.00  0.00     0.057 A 
ATOM     83  C   UNL A   1      42.201  23.734  27.445  1.00  0.00     0.134 A 
ATOM     84  C   UNL A   1      43.462  24.511  25.579  1.00  0.00     0.134 A 
ATOM     85  F   UNL A   1      41.651  23.894  28.658  1.00  0.00    -0.206 F 
ATOM     86  C   UNL A   1      41.921  22.542  26.761  1.00  0.00     0.040 A 
ATOM     87  C   UNL A   1      43.194  23.325  24.888  1.00  0.00     0.040 A 
ATOM     88  F   UNL A   1      44.139  25.450  24.905  1.00  0.00    -0.206 F 
ATOM     89  C   UNL A   1      42.410  22.339  25.474  1.00  0.00     0.006 A 
ENDBRANCH  61  82
BRANCH  73  90
ATOM     90  C   UNL A   1      45.343  30.360  28.495  1.00  0.00     0.057 A 
ATOM     91  C   UNL A   1      44.308  30.931  27.737  1.00  0.00     0.134 A 
ATOM     92  C   UNL A   1      46.647  30.762  28.185  1.00  0.00     0.134 A 
ATOM     93  F   UNL A   1      43.024  30.684  28.024  1.00  0.00    -0.206 F 
ATOM     94  C   UNL A   1      44.563  31.828  26.695  1.00  0.00     0.040 A 
ATOM     95  C   UNL A   1      46.914  31.683  27.170  1.00  0.00     0.040 A 
ATOM     96  F   UNL A   1      47.683  30.303  28.904  1.00  0.00    -0.206 F 
ATOM     97  C   UNL A   1      45.871  32.213  26.414  1.00  0.00     0.006 A 
ENDBRANCH  73  90
ENDBRANCH  47  48
ENDBRANCH  40  42
ENDBRANCH  39  40
ENDBRANCH  38  39
ENDBRANCH  37  38
ENDBRANCH  36  37
ENDBRANCH  35  36
ENDBRANCH   1  35
TORSDOF 21
ENDMDL
