MODEL 1
REMARK VINA RESULT:     -10.2      0.000      0.000
REMARK SMILES Cc1[nH]c(=O)sc1S(=O)(=O)NC1(CC(=O)OCCOCCOCCOC(=O)c2ccc(-c3c4nc(c(-c5c(F)cccc5F)c5ccc([nH]5)c(-c5c(F)cccc5F)c5nc(c(-c6c(F)cccc6F)c6ccc3[nH]6)C=C5)C=C4)cc2)CCC1
REMARK SMILES IDX 20 1 19 2 18 3 17 4 16 5 14 6 15 7 13 8 12 9 82 10 84 11
REMARK SMILES IDX 83 12 11 13 8 15 9 16 10 17 7 18 1 19 2 20 3 21 4 22 6 24
REMARK SMILES IDX 5 25 21 26 22 27 23 28 24 29 25 30 26 31 27 32 28 33 29 34
REMARK SMILES IDX 81 35 30 36 80 37 31 38 32 39 33 40 74 41 34 42 79 43 73 44
REMARK SMILES IDX 75 45 35 46 78 47 72 48 71 49 36 51 62 52 45 53 61 54 46 55
REMARK SMILES IDX 49 56 60 57 76 58 47 59 48 60 59 62 77 63 50 64 37 65 38 66
REMARK SMILES IDX 43 67 39 68 40 69 42 70 44 71 41 72 63 73 64 74 69 75 65 76
REMARK SMILES IDX 66 77 68 78 70 79 67 80 51 81 52 82 57 83 53 84 54 85 56 86
REMARK SMILES IDX 58 87 55 88
REMARK H PARENT 11 14 3 23 75 50 49 61
REMARK Flexibility Score: inf
ROOT
ATOM      1  C   UNL A   1      34.099  32.484  28.556  1.00  0.00     0.188 C 
ENDROOT
BRANCH   1   2
ATOM      2  O   UNL A   1      33.658  31.635  27.504  1.00  0.00    -0.376 OA
BRANCH   2   3
ATOM      3  C   UNL A   1      34.272  30.341  27.531  1.00  0.00     0.202 C 
BRANCH   3   4
ATOM      4  C   UNL A   1      33.585  29.296  26.623  1.00  0.00     0.261 C 
BRANCH   4   5
ATOM      5  O   UNL A   1      33.056  29.797  25.359  1.00  0.00    -0.463 OA
BRANCH   5   6
ATOM      6  C   UNL A   1      31.897  29.182  25.006  1.00  0.00     0.307 C 
ATOM      7  O   UNL A   1      31.310  28.398  25.755  1.00  0.00    -0.252 OA
BRANCH   6   8
ATOM      8  C   UNL A   1      31.239  29.582  23.710  1.00  0.00     0.146 C 
BRANCH   8   9
ATOM      9  C   UNL A   1      30.338  28.688  22.840  1.00  0.00     0.044 C 
ATOM     10  C   UNL A   1      29.474  29.631  21.899  1.00  0.00     0.024 C 
ATOM     11  C   UNL A   1      28.972  28.166  23.381  1.00  0.00     0.024 C 
ATOM     12  C   UNL A   1      28.243  29.359  22.757  1.00  0.00     0.004 C 
BRANCH   9  13
ATOM     13  N   UNL A   1      31.134  27.787  21.952  1.00  0.00    -0.204 NA
ATOM     14  H   UNL A   1      30.414  27.324  21.395  1.00  0.00     0.142 HD
BRANCH  13  15
ATOM     15  S   UNL A   1      32.249  26.565  22.213  1.00  0.00     0.252 S 
ATOM     16  O   UNL A   1      33.515  27.265  22.267  1.00  0.00    -0.206 OA
ATOM     17  O   UNL A   1      32.021  25.696  21.075  1.00  0.00    -0.206 OA
BRANCH  15  18
ATOM     18  C   UNL A   1      31.900  25.787  23.728  1.00  0.00     0.158 A 
ATOM     19  C   UNL A   1      34.199  26.081  24.877  1.00  0.00     0.067 C 
ATOM     20  C   UNL A   1      32.766  25.694  24.757  1.00  0.00     0.046 A 
ATOM     21  N   UNL A   1      32.194  25.134  25.885  1.00  0.00    -0.315 N 
ATOM     22  C   UNL A   1      30.884  24.752  25.794  1.00  0.00     0.305 A 
ATOM     23  H   UNL A   1      32.707  25.015  26.716  1.00  0.00     0.170 HD
ATOM     24  S   UNL A   1      30.381  25.012  24.148  1.00  0.00    -0.061 S 
ATOM     25  O   UNL A   1      30.188  24.294  26.683  1.00  0.00    -0.257 OA
ENDBRANCH  15  18
ENDBRANCH  13  15
ENDBRANCH   9  13
ENDBRANCH   8   9
ENDBRANCH   6   8
ENDBRANCH   5   6
ENDBRANCH   4   5
ENDBRANCH   3   4
ENDBRANCH   2   3
ENDBRANCH   1   2
BRANCH   1  26
ATOM     26  C   UNL A   1      35.031  33.603  28.085  1.00  0.00     0.188 C 
BRANCH  26  27
ATOM     27  O   UNL A   1      34.510  34.923  28.274  1.00  0.00    -0.376 OA
BRANCH  27  28
ATOM     28  C   UNL A   1      33.206  34.966  28.866  1.00  0.00     0.202 C 
BRANCH  28  29
ATOM     29  C   UNL A   1      32.964  36.098  29.866  1.00  0.00     0.261 C 
BRANCH  29  30
ATOM     30  O   UNL A   1      33.739  35.905  31.039  1.00  0.00    -0.460 OA
BRANCH  30  31
ATOM     31  C   UNL A   1      33.182  35.148  32.016  1.00  0.00     0.338 C 
ATOM     32  O   UNL A   1      32.024  35.168  32.394  1.00  0.00    -0.246 OA
BRANCH  31  33
ATOM     33  C   UNL A   1      34.290  34.394  32.629  1.00  0.00     0.060 A 
ATOM     34  C   UNL A   1      35.348  35.101  33.201  1.00  0.00     0.016 A 
ATOM     35  C   UNL A   1      34.368  33.008  32.411  1.00  0.00     0.016 A 
ATOM     36  C   UNL A   1      36.567  34.456  33.335  1.00  0.00     0.010 A 
ATOM     37  C   UNL A   1      35.574  32.372  32.532  1.00  0.00     0.010 A 
ATOM     38  C   UNL A   1      36.680  33.129  32.904  1.00  0.00    -0.014 A 
BRANCH  38  39
ATOM     39  C   UNL A   1      37.993  32.579  32.630  1.00  0.00     0.031 A 
ATOM     40  C   UNL A   1      38.940  32.463  33.755  1.00  0.00     0.074 A 
ATOM     41  C   UNL A   1      38.234  31.977  31.448  1.00  0.00     0.049 A 
ATOM     42  N   UNL A   1      40.110  33.000  33.852  1.00  0.00    -0.248 NA
ATOM     43  C   UNL A   1      38.533  31.684  34.933  1.00  0.00     0.031 C 
ATOM     44  C   UNL A   1      37.265  31.658  30.391  1.00  0.00     0.029 A 
ATOM     45  N   UNL A   1      39.385  31.410  30.997  1.00  0.00    -0.354 N 
ATOM     46  C   UNL A   1      40.661  32.495  35.024  1.00  0.00     0.074 A 
ATOM     47  C   UNL A   1      39.604  31.803  35.715  1.00  0.00     0.031 C 
ATOM     48  C   UNL A   1      37.831  30.796  29.518  1.00  0.00     0.029 A 
ATOM     49  C   UNL A   1      39.222  30.590  29.891  1.00  0.00     0.049 A 
ATOM     50  H   UNL A   1      40.261  31.569  31.420  1.00  0.00     0.167 HD
ATOM     51  C   UNL A   1      42.001  32.496  35.245  1.00  0.00     0.037 A 
ATOM     52  C   UNL A   1      40.146  29.749  29.369  1.00  0.00     0.037 A 
ATOM     53  C   UNL A   1      42.699  33.391  34.365  1.00  0.00     0.049 A 
ATOM     54  C   UNL A   1      41.477  30.167  29.878  1.00  0.00     0.074 A 
ATOM     55  C   UNL A   1      42.613  34.743  34.090  1.00  0.00     0.029 A 
ATOM     56  N   UNL A   1      43.439  32.854  33.341  1.00  0.00    -0.354 N 
ATOM     57  N   UNL A   1      42.100  31.255  29.522  1.00  0.00    -0.248 NA
ATOM     58  C   UNL A   1      41.968  29.542  31.098  1.00  0.00     0.031 C 
ATOM     59  C   UNL A   1      42.888  34.860  32.695  1.00  0.00     0.029 A 
ATOM     60  C   UNL A   1      43.143  33.576  32.213  1.00  0.00     0.049 A 
ATOM     61  H   UNL A   1      44.062  32.094  33.404  1.00  0.00     0.167 HD
ATOM     62  C   UNL A   1      42.761  31.676  30.666  1.00  0.00     0.074 A 
ATOM     63  C   UNL A   1      42.746  30.524  31.559  1.00  0.00     0.031 C 
ATOM     64  C   UNL A   1      43.006  32.999  30.895  1.00  0.00     0.037 A 
BRANCH  51  65
ATOM     65  C   UNL A   1      42.700  31.447  36.061  1.00  0.00     0.057 A 
ATOM     66  C   UNL A   1      43.553  31.829  37.106  1.00  0.00     0.134 A 
ATOM     67  C   UNL A   1      42.759  30.086  35.693  1.00  0.00     0.134 A 
ATOM     68  F   UNL A   1      43.617  33.107  37.508  1.00  0.00    -0.206 F 
ATOM     69  C   UNL A   1      44.422  30.924  37.727  1.00  0.00     0.040 A 
ATOM     70  C   UNL A   1      43.580  29.163  36.345  1.00  0.00     0.040 A 
ATOM     71  F   UNL A   1      42.100  29.608  34.630  1.00  0.00    -0.206 F 
ATOM     72  C   UNL A   1      44.434  29.586  37.351  1.00  0.00     0.006 A 
ENDBRANCH  51  65
BRANCH  52  73
ATOM     73  C   UNL A   1      39.940  28.472  28.650  1.00  0.00     0.057 A 
ATOM     74  C   UNL A   1      40.464  28.275  27.365  1.00  0.00     0.134 A 
ATOM     75  C   UNL A   1      39.438  27.325  29.290  1.00  0.00     0.134 A 
ATOM     76  F   UNL A   1      41.006  29.296  26.684  1.00  0.00    -0.206 F 
ATOM     77  C   UNL A   1      40.505  27.011  26.761  1.00  0.00     0.040 A 
ATOM     78  C   UNL A   1      39.457  26.061  28.694  1.00  0.00     0.040 A 
ATOM     79  F   UNL A   1      38.989  27.372  30.553  1.00  0.00    -0.206 F 
ATOM     80  C   UNL A   1      40.006  25.897  27.429  1.00  0.00     0.006 A 
ENDBRANCH  52  73
BRANCH  64  81
ATOM     81  C   UNL A   1      42.829  33.953  29.748  1.00  0.00     0.057 A 
ATOM     82  C   UNL A   1      41.630  34.628  29.473  1.00  0.00     0.134 A 
ATOM     83  C   UNL A   1      43.942  34.298  28.973  1.00  0.00     0.134 A 
ATOM     84  F   UNL A   1      40.542  34.448  30.232  1.00  0.00    -0.206 F 
ATOM     85  C   UNL A   1      41.531  35.558  28.433  1.00  0.00     0.040 A 
ATOM     86  C   UNL A   1      43.864  35.250  27.954  1.00  0.00     0.040 A 
ATOM     87  F   UNL A   1      45.139  33.740  29.220  1.00  0.00    -0.206 F 
ATOM     88  C   UNL A   1      42.652  35.874  27.672  1.00  0.00     0.006 A 
ENDBRANCH  64  81
ENDBRANCH  38  39
ENDBRANCH  31  33
ENDBRANCH  30  31
ENDBRANCH  29  30
ENDBRANCH  28  29
ENDBRANCH  27  28
ENDBRANCH  26  27
ENDBRANCH   1  26
TORSDOF 21
ENDMDL
MODEL 2
REMARK VINA RESULT:     -10.1      5.152     10.282
REMARK SMILES Cc1[nH]c(=O)sc1S(=O)(=O)NC1(CC(=O)OCCOCCOCCOC(=O)c2ccc(-c3c4nc(c(-c5c(F)cccc5F)c5ccc([nH]5)c(-c5c(F)cccc5F)c5nc(c(-c6c(F)cccc6F)c6ccc3[nH]6)C=C5)C=C4)cc2)CCC1
REMARK SMILES IDX 20 1 19 2 18 3 17 4 16 5 14 6 15 7 13 8 12 9 82 10 84 11
REMARK SMILES IDX 83 12 11 13 8 15 9 16 10 17 7 18 1 19 2 20 3 21 4 22 6 24
REMARK SMILES IDX 5 25 21 26 22 27 23 28 24 29 25 30 26 31 27 32 28 33 29 34
REMARK SMILES IDX 81 35 30 36 80 37 31 38 32 39 33 40 74 41 34 42 79 43 73 44
REMARK SMILES IDX 75 45 35 46 78 47 72 48 71 49 36 51 62 52 45 53 61 54 46 55
REMARK SMILES IDX 49 56 60 57 76 58 47 59 48 60 59 62 77 63 50 64 37 65 38 66
REMARK SMILES IDX 43 67 39 68 40 69 42 70 44 71 41 72 63 73 64 74 69 75 65 76
REMARK SMILES IDX 66 77 68 78 70 79 67 80 51 81 52 82 57 83 53 84 54 85 56 86
REMARK SMILES IDX 58 87 55 88
REMARK H PARENT 11 14 3 23 75 50 49 61
REMARK Flexibility Score: inf
ROOT
ATOM      1  C   UNL A   1      40.815  21.425  27.207  1.00  0.00     0.188 C 
ENDROOT
BRANCH   1   2
ATOM      2  O   UNL A   1      40.138  21.623  25.972  1.00  0.00    -0.376 OA
BRANCH   2   3
ATOM      3  C   UNL A   1      38.819  22.157  26.133  1.00  0.00     0.202 C 
BRANCH   3   4
ATOM      4  C   UNL A   1      37.755  21.498  25.228  1.00  0.00     0.261 C 
BRANCH   4   5
ATOM      5  O   UNL A   1      36.760  22.397  24.652  1.00  0.00    -0.463 OA
BRANCH   5   6
ATOM      6  C   UNL A   1      35.776  22.708  25.535  1.00  0.00     0.307 C 
ATOM      7  O   UNL A   1      35.444  21.951  26.451  1.00  0.00    -0.252 OA
BRANCH   6   8
ATOM      8  C   UNL A   1      35.166  24.087  25.474  1.00  0.00     0.146 C 
BRANCH   8   9
ATOM      9  C   UNL A   1      33.765  24.432  24.940  1.00  0.00     0.044 C 
ATOM     10  C   UNL A   1      33.020  25.296  26.045  1.00  0.00     0.024 C 
ATOM     11  C   UNL A   1      32.584  23.425  25.091  1.00  0.00     0.024 C 
ATOM     12  C   UNL A   1      32.154  24.091  26.401  1.00  0.00     0.004 C 
BRANCH   9  13
ATOM     13  N   UNL A   1      33.828  25.262  23.699  1.00  0.00    -0.204 NA
ATOM     14  H   UNL A   1      34.158  26.164  24.046  1.00  0.00     0.142 HD
BRANCH  13  15
ATOM     15  S   UNL A   1      32.721  25.698  22.519  1.00  0.00     0.252 S 
ATOM     16  O   UNL A   1      31.738  24.637  22.567  1.00  0.00    -0.206 OA
ATOM     17  O   UNL A   1      33.553  25.778  21.336  1.00  0.00    -0.206 OA
BRANCH  15  18
ATOM     18  C   UNL A   1      32.009  27.228  22.941  1.00  0.00     0.158 A 
ATOM     19  C   UNL A   1      34.106  28.728  22.723  1.00  0.00     0.067 C 
ATOM     20  C   UNL A   1      32.668  28.404  22.942  1.00  0.00     0.046 A 
ATOM     21  N   UNL A   1      31.837  29.479  23.199  1.00  0.00    -0.315 N 
ATOM     22  C   UNL A   1      30.517  29.206  23.424  1.00  0.00     0.305 A 
ATOM     23  H   UNL A   1      32.182  30.401  23.219  1.00  0.00     0.170 HD
ATOM     24  S   UNL A   1      30.339  27.475  23.423  1.00  0.00    -0.061 S 
ATOM     25  O   UNL A   1      29.621  30.010  23.611  1.00  0.00    -0.257 OA
ENDBRANCH  15  18
ENDBRANCH  13  15
ENDBRANCH   9  13
ENDBRANCH   8   9
ENDBRANCH   6   8
ENDBRANCH   5   6
ENDBRANCH   4   5
ENDBRANCH   3   4
ENDBRANCH   2   3
ENDBRANCH   1   2
BRANCH   1  26
ATOM     26  C   UNL A   1      41.270  19.980  27.427  1.00  0.00     0.188 C 
BRANCH  26  27
ATOM     27  O   UNL A   1      41.588  19.272  26.225  1.00  0.00    -0.376 OA
BRANCH  27  28
ATOM     28  C   UNL A   1      42.651  18.322  26.361  1.00  0.00     0.202 C 
BRANCH  28  29
ATOM     29  C   UNL A   1      43.937  18.643  25.595  1.00  0.00     0.261 C 
BRANCH  29  30
ATOM     30  O   UNL A   1      44.050  20.039  25.370  1.00  0.00    -0.460 OA
BRANCH  30  31
ATOM     31  C   UNL A   1      44.888  20.427  24.377  1.00  0.00     0.338 C 
ATOM     32  O   UNL A   1      45.562  19.709  23.660  1.00  0.00    -0.246 OA
BRANCH  31  33
ATOM     33  C   UNL A   1      44.933  21.899  24.434  1.00  0.00     0.060 A 
ATOM     34  C   UNL A   1      46.126  22.522  24.800  1.00  0.00     0.016 A 
ATOM     35  C   UNL A   1      43.727  22.616  24.355  1.00  0.00     0.016 A 
ATOM     36  C   UNL A   1      46.061  23.808  25.311  1.00  0.00     0.010 A 
ATOM     37  C   UNL A   1      43.659  23.882  24.869  1.00  0.00     0.010 A 
ATOM     38  C   UNL A   1      44.810  24.427  25.428  1.00  0.00    -0.014 A 
BRANCH  38  39
ATOM     39  C   UNL A   1      44.654  25.553  26.326  1.00  0.00     0.031 A 
ATOM     40  C   UNL A   1      45.636  26.650  26.234  1.00  0.00     0.074 A 
ATOM     41  C   UNL A   1      43.517  25.689  27.037  1.00  0.00     0.049 A 
ATOM     42  N   UNL A   1      46.409  27.089  27.169  1.00  0.00    -0.248 NA
ATOM     43  C   UNL A   1      45.806  27.326  24.940  1.00  0.00     0.031 C 
ATOM     44  C   UNL A   1      42.288  24.892  26.923  1.00  0.00     0.029 A 
ATOM     45  N   UNL A   1      43.178  26.658  27.930  1.00  0.00    -0.354 N 
ATOM     46  C   UNL A   1      47.046  28.205  26.638  1.00  0.00     0.074 A 
ATOM     47  C   UNL A   1      46.745  28.225  25.231  1.00  0.00     0.031 C 
ATOM     48  C   UNL A   1      41.289  25.525  27.576  1.00  0.00     0.029 A 
ATOM     49  C   UNL A   1      41.828  26.704  28.237  1.00  0.00     0.049 A 
ATOM     50  H   UNL A   1      43.838  27.274  28.326  1.00  0.00     0.167 HD
ATOM     51  C   UNL A   1      47.602  29.158  27.430  1.00  0.00     0.037 A 
ATOM     52  C   UNL A   1      41.191  27.682  28.924  1.00  0.00     0.037 A 
ATOM     53  C   UNL A   1      47.800  28.700  28.778  1.00  0.00     0.049 A 
ATOM     54  C   UNL A   1      42.217  28.453  29.670  1.00  0.00     0.074 A 
ATOM     55  C   UNL A   1      48.480  27.643  29.353  1.00  0.00     0.029 A 
ATOM     56  N   UNL A   1      46.964  29.176  29.758  1.00  0.00    -0.354 N 
ATOM     57  N   UNL A   1      42.880  28.005  30.698  1.00  0.00    -0.248 NA
ATOM     58  C   UNL A   1      42.790  29.628  29.027  1.00  0.00     0.031 C 
ATOM     59  C   UNL A   1      47.682  27.246  30.466  1.00  0.00     0.029 A 
ATOM     60  C   UNL A   1      46.578  28.097  30.512  1.00  0.00     0.049 A 
ATOM     61  H   UNL A   1      46.692  30.113  29.892  1.00  0.00     0.167 HD
ATOM     62  C   UNL A   1      44.143  28.565  30.578  1.00  0.00     0.074 A 
ATOM     63  C   UNL A   1      43.990  29.644  29.610  1.00  0.00     0.031 C 
ATOM     64  C   UNL A   1      45.250  27.922  31.053  1.00  0.00     0.037 A 
BRANCH  51  65
ATOM     65  C   UNL A   1      47.678  30.607  27.043  1.00  0.00     0.057 A 
ATOM     66  C   UNL A   1      48.901  31.289  27.129  1.00  0.00     0.134 A 
ATOM     67  C   UNL A   1      46.543  31.417  26.831  1.00  0.00     0.134 A 
ATOM     68  F   UNL A   1      50.041  30.626  27.378  1.00  0.00    -0.206 F 
ATOM     69  C   UNL A   1      48.986  32.683  27.033  1.00  0.00     0.040 A 
ATOM     70  C   UNL A   1      46.623  32.803  26.675  1.00  0.00     0.040 A 
ATOM     71  F   UNL A   1      45.300  30.919  26.857  1.00  0.00    -0.206 F 
ATOM     72  C   UNL A   1      47.845  33.443  26.800  1.00  0.00     0.006 A 
ENDBRANCH  51  65
BRANCH  52  73
ATOM     73  C   UNL A   1      39.790  28.143  28.801  1.00  0.00     0.057 A 
ATOM     74  C   UNL A   1      38.906  28.065  29.887  1.00  0.00     0.134 A 
ATOM     75  C   UNL A   1      39.344  28.896  27.700  1.00  0.00     0.134 A 
ATOM     76  F   UNL A   1      39.252  27.407  31.003  1.00  0.00    -0.206 F 
ATOM     77  C   UNL A   1      37.664  28.713  29.886  1.00  0.00     0.040 A 
ATOM     78  C   UNL A   1      38.100  29.534  27.679  1.00  0.00     0.040 A 
ATOM     79  F   UNL A   1      40.134  29.113  26.639  1.00  0.00    -0.206 F 
ATOM     80  C   UNL A   1      37.260  29.456  28.781  1.00  0.00     0.006 A 
ENDBRANCH  52  73
BRANCH  64  81
ATOM     81  C   UNL A   1      45.040  26.760  31.981  1.00  0.00     0.057 A 
ATOM     82  C   UNL A   1      44.827  25.443  31.546  1.00  0.00     0.134 A 
ATOM     83  C   UNL A   1      45.184  26.955  33.359  1.00  0.00     0.134 A 
ATOM     84  F   UNL A   1      44.788  25.141  30.242  1.00  0.00    -0.206 F 
ATOM     85  C   UNL A   1      44.703  24.380  32.446  1.00  0.00     0.040 A 
ATOM     86  C   UNL A   1      45.096  25.896  34.267  1.00  0.00     0.040 A 
ATOM     87  F   UNL A   1      45.454  28.177  33.846  1.00  0.00    -0.206 F 
ATOM     88  C   UNL A   1      44.841  24.605  33.812  1.00  0.00     0.006 A 
ENDBRANCH  64  81
ENDBRANCH  38  39
ENDBRANCH  31  33
ENDBRANCH  30  31
ENDBRANCH  29  30
ENDBRANCH  28  29
ENDBRANCH  27  28
ENDBRANCH  26  27
ENDBRANCH   1  26
TORSDOF 21
ENDMDL
MODEL 3
REMARK VINA RESULT:     -10.0      3.196      7.904
REMARK SMILES Cc1[nH]c(=O)sc1S(=O)(=O)NC1(CC(=O)OCCOCCOCCOC(=O)c2ccc(-c3c4nc(c(-c5c(F)cccc5F)c5ccc([nH]5)c(-c5c(F)cccc5F)c5nc(c(-c6c(F)cccc6F)c6ccc3[nH]6)C=C5)C=C4)cc2)CCC1
REMARK SMILES IDX 20 1 19 2 18 3 17 4 16 5 14 6 15 7 13 8 12 9 82 10 84 11
REMARK SMILES IDX 83 12 11 13 8 15 9 16 10 17 7 18 1 19 2 20 3 21 4 22 6 24
REMARK SMILES IDX 5 25 21 26 22 27 23 28 24 29 25 30 26 31 27 32 28 33 29 34
REMARK SMILES IDX 81 35 30 36 80 37 31 38 32 39 33 40 74 41 34 42 79 43 73 44
REMARK SMILES IDX 75 45 35 46 78 47 72 48 71 49 36 51 62 52 45 53 61 54 46 55
REMARK SMILES IDX 49 56 60 57 76 58 47 59 48 60 59 62 77 63 50 64 37 65 38 66
REMARK SMILES IDX 43 67 39 68 40 69 42 70 44 71 41 72 63 73 64 74 69 75 65 76
REMARK SMILES IDX 66 77 68 78 70 79 67 80 51 81 52 82 57 83 53 84 54 85 56 86
REMARK SMILES IDX 58 87 55 88
REMARK H PARENT 11 14 3 23 75 50 49 61
REMARK Flexibility Score: inf
ROOT
ATOM      1  C   UNL A   1      39.261  21.438  26.093  1.00  0.00     0.188 C 
ENDROOT
BRANCH   1   2
ATOM      2  O   UNL A   1      38.255  20.753  25.357  1.00  0.00    -0.376 OA
BRANCH   2   3
ATOM      3  C   UNL A   1      37.354  21.637  24.679  1.00  0.00     0.202 C 
BRANCH   3   4
ATOM      4  C   UNL A   1      36.425  22.436  25.619  1.00  0.00     0.261 C 
BRANCH   4   5
ATOM      5  O   UNL A   1      35.049  21.959  25.714  1.00  0.00    -0.463 OA
BRANCH   5   6
ATOM      6  C   UNL A   1      34.157  22.979  25.810  1.00  0.00     0.307 C 
ATOM      7  O   UNL A   1      34.240  23.851  26.678  1.00  0.00    -0.252 OA
BRANCH   6   8
ATOM      8  C   UNL A   1      33.112  23.122  24.733  1.00  0.00     0.146 C 
BRANCH   8   9
ATOM      9  C   UNL A   1      32.592  24.447  24.147  1.00  0.00     0.044 C 
ATOM     10  C   UNL A   1      31.741  24.108  22.849  1.00  0.00     0.024 C 
ATOM     11  C   UNL A   1      33.486  25.305  23.200  1.00  0.00     0.024 C 
ATOM     12  C   UNL A   1      32.878  24.623  21.972  1.00  0.00     0.004 C 
BRANCH   9  13
ATOM     13  N   UNL A   1      31.684  25.160  25.096  1.00  0.00    -0.204 NA
ATOM     14  H   UNL A   1      30.782  25.120  24.619  1.00  0.00     0.142 HD
BRANCH  13  15
ATOM     15  S   UNL A   1      31.673  26.684  25.792  1.00  0.00     0.252 S 
ATOM     16  O   UNL A   1      33.067  26.927  26.098  1.00  0.00    -0.206 OA
ATOM     17  O   UNL A   1      30.770  26.501  26.910  1.00  0.00    -0.206 OA
BRANCH  15  18
ATOM     18  C   UNL A   1      31.078  27.837  24.633  1.00  0.00     0.158 A 
ATOM     19  C   UNL A   1      31.929  30.011  25.746  1.00  0.00     0.067 C 
ATOM     20  C   UNL A   1      31.289  29.166  24.700  1.00  0.00     0.046 A 
ATOM     21  N   UNL A   1      30.810  29.837  23.589  1.00  0.00    -0.315 N 
ATOM     22  C   UNL A   1      30.199  29.087  22.624  1.00  0.00     0.305 A 
ATOM     23  H   UNL A   1      30.905  30.812  23.498  1.00  0.00     0.170 HD
ATOM     24  S   UNL A   1      30.124  27.450  23.211  1.00  0.00    -0.061 S 
ATOM     25  O   UNL A   1      29.764  29.476  21.555  1.00  0.00    -0.257 OA
ENDBRANCH  15  18
ENDBRANCH  13  15
ENDBRANCH   9  13
ENDBRANCH   8   9
ENDBRANCH   6   8
ENDBRANCH   5   6
ENDBRANCH   4   5
ENDBRANCH   3   4
ENDBRANCH   2   3
ENDBRANCH   1   2
BRANCH   1  26
ATOM     26  C   UNL A   1      40.479  20.568  26.413  1.00  0.00     0.188 C 
BRANCH  26  27
ATOM     27  O   UNL A   1      41.287  21.057  27.488  1.00  0.00    -0.376 OA
BRANCH  27  28
ATOM     28  C   UNL A   1      41.211  22.473  27.689  1.00  0.00     0.202 C 
BRANCH  28  29
ATOM     29  C   UNL A   1      42.000  23.332  26.697  1.00  0.00     0.261 C 
BRANCH  29  30
ATOM     30  O   UNL A   1      41.160  24.311  26.105  1.00  0.00    -0.460 OA
BRANCH  30  31
ATOM     31  C   UNL A   1      41.750  25.479  25.749  1.00  0.00     0.338 C 
ATOM     32  O   UNL A   1      42.794  25.620  25.137  1.00  0.00    -0.246 OA
BRANCH  31  33
ATOM     33  C   UNL A   1      40.948  26.546  26.372  1.00  0.00     0.060 A 
ATOM     34  C   UNL A   1      41.261  27.876  26.087  1.00  0.00     0.016 A 
ATOM     35  C   UNL A   1      40.061  26.209  27.409  1.00  0.00     0.016 A 
ATOM     36  C   UNL A   1      40.865  28.848  26.991  1.00  0.00     0.010 A 
ATOM     37  C   UNL A   1      39.679  27.167  28.309  1.00  0.00     0.010 A 
ATOM     38  C   UNL A   1      40.165  28.458  28.139  1.00  0.00    -0.014 A 
BRANCH  38  39
ATOM     39  C   UNL A   1      40.117  29.350  29.281  1.00  0.00     0.031 A 
ATOM     40  C   UNL A   1      38.913  30.184  29.455  1.00  0.00     0.074 A 
ATOM     41  C   UNL A   1      41.033  29.229  30.264  1.00  0.00     0.049 A 
ATOM     42  N   UNL A   1      38.855  31.473  29.510  1.00  0.00    -0.248 NA
ATOM     43  C   UNL A   1      37.608  29.514  29.548  1.00  0.00     0.031 C 
ATOM     44  C   UNL A   1      42.045  28.176  30.420  1.00  0.00     0.029 A 
ATOM     45  N   UNL A   1      41.166  29.961  31.401  1.00  0.00    -0.354 N 
ATOM     46  C   UNL A   1      37.533  31.777  29.813  1.00  0.00     0.074 A 
ATOM     47  C   UNL A   1      36.786  30.552  29.691  1.00  0.00     0.031 C 
ATOM     48  C   UNL A   1      42.554  28.235  31.670  1.00  0.00     0.029 A 
ATOM     49  C   UNL A   1      41.988  29.385  32.358  1.00  0.00     0.049 A 
ATOM     50  H   UNL A   1      40.718  30.829  31.535  1.00  0.00     0.167 HD
ATOM     51  C   UNL A   1      37.178  32.971  30.353  1.00  0.00     0.037 A 
ATOM     52  C   UNL A   1      42.131  29.787  33.643  1.00  0.00     0.037 A 
ATOM     53  C   UNL A   1      38.204  33.965  30.201  1.00  0.00     0.049 A 
ATOM     54  C   UNL A   1      41.629  31.180  33.741  1.00  0.00     0.074 A 
ATOM     55  C   UNL A   1      38.877  34.507  29.122  1.00  0.00     0.029 A 
ATOM     56  N   UNL A   1      38.934  34.323  31.308  1.00  0.00    -0.354 N 
ATOM     57  N   UNL A   1      42.223  32.221  33.230  1.00  0.00    -0.248 NA
ATOM     58  C   UNL A   1      40.232  31.379  34.102  1.00  0.00     0.031 C 
ATOM     59  C   UNL A   1      40.205  34.742  29.589  1.00  0.00     0.029 A 
ATOM     60  C   UNL A   1      40.251  34.347  30.926  1.00  0.00     0.049 A 
ATOM     61  H   UNL A   1      38.580  34.522  32.205  1.00  0.00     0.167 HD
ATOM     62  C   UNL A   1      41.192  33.054  32.821  1.00  0.00     0.074 A 
ATOM     63  C   UNL A   1      40.003  32.544  33.493  1.00  0.00     0.031 C 
ATOM     64  C   UNL A   1      41.343  33.897  31.758  1.00  0.00     0.037 A 
BRANCH  51  65
ATOM     65  C   UNL A   1      36.015  33.137  31.289  1.00  0.00     0.057 A 
ATOM     66  C   UNL A   1      34.981  34.029  30.967  1.00  0.00     0.134 A 
ATOM     67  C   UNL A   1      36.002  32.641  32.609  1.00  0.00     0.134 A 
ATOM     68  F   UNL A   1      34.921  34.602  29.755  1.00  0.00    -0.206 F 
ATOM     69  C   UNL A   1      34.014  34.417  31.901  1.00  0.00     0.040 A 
ATOM     70  C   UNL A   1      35.008  32.977  33.532  1.00  0.00     0.040 A 
ATOM     71  F   UNL A   1      36.996  31.886  33.095  1.00  0.00    -0.206 F 
ATOM     72  C   UNL A   1      34.023  33.887  33.186  1.00  0.00     0.006 A 
ENDBRANCH  51  65
BRANCH  52  73
ATOM     73  C   UNL A   1      42.455  28.977  34.839  1.00  0.00     0.057 A 
ATOM     74  C   UNL A   1      41.833  27.741  35.064  1.00  0.00     0.134 A 
ATOM     75  C   UNL A   1      43.556  29.269  35.665  1.00  0.00     0.134 A 
ATOM     76  F   UNL A   1      40.801  27.347  34.303  1.00  0.00    -0.206 F 
ATOM     77  C   UNL A   1      42.289  26.842  36.037  1.00  0.00     0.040 A 
ATOM     78  C   UNL A   1      44.011  28.388  36.650  1.00  0.00     0.040 A 
ATOM     79  F   UNL A   1      44.283  30.381  35.488  1.00  0.00    -0.206 F 
ATOM     80  C   UNL A   1      43.387  27.162  36.830  1.00  0.00     0.006 A 
ENDBRANCH  52  73
BRANCH  64  81
ATOM     81  C   UNL A   1      42.735  34.133  31.244  1.00  0.00     0.057 A 
ATOM     82  C   UNL A   1      43.348  33.340  30.262  1.00  0.00     0.134 A 
ATOM     83  C   UNL A   1      43.429  35.274  31.662  1.00  0.00     0.134 A 
ATOM     84  F   UNL A   1      42.714  32.293  29.719  1.00  0.00    -0.206 F 
ATOM     85  C   UNL A   1      44.621  33.637  29.765  1.00  0.00     0.040 A 
ATOM     86  C   UNL A   1      44.687  35.600  31.148  1.00  0.00     0.040 A 
ATOM     87  F   UNL A   1      42.878  36.115  32.551  1.00  0.00    -0.206 F 
ATOM     88  C   UNL A   1      45.293  34.774  30.206  1.00  0.00     0.006 A 
ENDBRANCH  64  81
ENDBRANCH  38  39
ENDBRANCH  31  33
ENDBRANCH  30  31
ENDBRANCH  29  30
ENDBRANCH  28  29
ENDBRANCH  27  28
ENDBRANCH  26  27
ENDBRANCH   1  26
TORSDOF 21
ENDMDL
