MODEL 1
REMARK VINA RESULT:     -11.9      0.000      0.000
REMARK SMILES O=C(OCCOCCOCCOC(=O)[C@@H](c1ccccc1)N1C(=O)/C(=C\c2ccc(-c3ccc(F)cc3)o2)SC1=S)c1ccc(-c2c3nc(c(-c4c(F)cccc4F)c4ccc([nH]4)c(-c4c(F)cccc4F)c4nc(c(-c5c(F)cccc5F)c5ccc2[nH]5)C=C4)C=C3)cc1
REMARK SMILES IDX 8 1 7 2 6 3 5 4 4 5 3 6 2 7 1 8 42 9 43 10 95 11 44 12 94 13
REMARK SMILES IDX 45 14 46 15 47 16 88 17 48 18 93 19 87 20 89 21 49 22 92 23
REMARK SMILES IDX 86 24 85 25 50 27 76 28 59 29 75 30 60 31 63 32 74 33 90 34
REMARK SMILES IDX 61 35 62 36 73 38 91 39 64 40 51 41 52 42 57 43 53 44 54 45
REMARK SMILES IDX 56 46 58 47 55 48 77 49 78 50 83 51 79 52 80 53 82 54 84 55
REMARK SMILES IDX 81 56 65 57 66 58 71 59 67 60 68 61 70 62 72 63 69 64 9 65
REMARK SMILES IDX 10 66 11 67 12 68 13 69 14 70 15 71 16 72 17 73 21 74 18 75
REMARK SMILES IDX 20 76 19 77 22 78 23 79 40 80 24 81 25 82 39 83 41 84 26 85
REMARK SMILES IDX 27 86 28 87 38 88 29 89 30 90 31 91 32 92 37 93 33 94 36 95
REMARK SMILES IDX 34 96 35 97
REMARK H PARENT 89 26 63 37
REMARK Flexibility Score: inf
ROOT
ATOM      1  C   UNL A   1      39.498  22.058  26.549  1.00  0.00     0.188 C 
ENDROOT
BRANCH   1   2
ATOM      2  C   UNL A   1      40.479  23.232  26.577  1.00  0.00     0.188 C 
BRANCH   2   3
ATOM      3  O   UNL A   1      41.759  22.950  25.998  1.00  0.00    -0.376 OA
BRANCH   3   4
ATOM      4  C   UNL A   1      42.752  23.927  26.335  1.00  0.00     0.202 C 
BRANCH   4   5
ATOM      5  C   UNL A   1      43.175  24.886  25.211  1.00  0.00     0.261 C 
BRANCH   5   6
ATOM      6  O   UNL A   1      42.216  25.905  24.909  1.00  0.00    -0.460 OA
BRANCH   6   7
ATOM      7  C   UNL A   1      42.166  27.192  25.320  1.00  0.00     0.338 C 
ATOM      8  O   UNL A   1      42.486  28.058  24.504  1.00  0.00    -0.246 OA
BRANCH   7   9
ATOM      9  C   UNL A   1      41.823  27.649  26.712  1.00  0.00     0.060 A 
ATOM     10  C   UNL A   1      41.028  26.982  27.653  1.00  0.00     0.016 A 
ATOM     11  C   UNL A   1      42.457  28.830  27.139  1.00  0.00     0.016 A 
ATOM     12  C   UNL A   1      40.886  27.436  28.977  1.00  0.00     0.010 A 
ATOM     13  C   UNL A   1      42.353  29.268  28.467  1.00  0.00     0.010 A 
ATOM     14  C   UNL A   1      41.556  28.576  29.407  1.00  0.00    -0.014 A 
BRANCH  14  15
ATOM     15  C   UNL A   1      41.229  29.248  30.699  1.00  0.00     0.031 A 
ATOM     16  C   UNL A   1      40.120  30.255  30.591  1.00  0.00     0.074 A 
ATOM     17  C   UNL A   1      41.770  28.973  31.910  1.00  0.00     0.049 A 
ATOM     18  N   UNL A   1      39.792  31.235  31.380  1.00  0.00    -0.248 NA
ATOM     19  C   UNL A   1      39.270  30.139  29.384  1.00  0.00     0.031 C 
ATOM     20  C   UNL A   1      42.620  27.828  32.229  1.00  0.00     0.029 A 
ATOM     21  N   UNL A   1      41.678  29.639  33.121  1.00  0.00    -0.354 N 
ATOM     22  C   UNL A   1      38.686  31.817  30.777  1.00  0.00     0.074 A 
ATOM     23  C   UNL A   1      38.528  31.225  29.472  1.00  0.00     0.031 C 
ATOM     24  C   UNL A   1      42.963  27.877  33.534  1.00  0.00     0.029 A 
ATOM     25  C   UNL A   1      42.514  29.134  34.110  1.00  0.00     0.049 A 
ATOM     26  H   UNL A   1      41.074  30.403  33.268  1.00  0.00     0.167 HD
ATOM     27  C   UNL A   1      37.801  32.681  31.317  1.00  0.00     0.037 A 
ATOM     28  C   UNL A   1      42.935  29.697  35.272  1.00  0.00     0.037 A 
ATOM     29  C   UNL A   1      37.973  33.221  32.630  1.00  0.00     0.049 A 
ATOM     30  C   UNL A   1      42.267  30.998  35.648  1.00  0.00     0.074 A 
ATOM     31  C   UNL A   1      37.170  34.096  33.328  1.00  0.00     0.029 A 
ATOM     32  N   UNL A   1      39.058  32.914  33.446  1.00  0.00    -0.354 N 
ATOM     33  N   UNL A   1      41.350  31.668  34.989  1.00  0.00    -0.248 NA
ATOM     34  C   UNL A   1      42.643  31.600  36.935  1.00  0.00     0.031 C 
ATOM     35  C   UNL A   1      37.803  34.368  34.546  1.00  0.00     0.029 A 
ATOM     36  C   UNL A   1      38.964  33.610  34.631  1.00  0.00     0.049 A 
ATOM     37  H   UNL A   1      39.784  32.293  33.211  1.00  0.00     0.167 HD
ATOM     38  C   UNL A   1      40.961  32.699  35.829  1.00  0.00     0.074 A 
ATOM     39  C   UNL A   1      41.839  32.652  36.981  1.00  0.00     0.031 C 
ATOM     40  C   UNL A   1      39.904  33.538  35.719  1.00  0.00     0.037 A 
BRANCH  27  41
ATOM     41  C   UNL A   1      36.616  33.028  30.468  1.00  0.00     0.057 A 
ATOM     42  C   UNL A   1      35.392  32.346  30.606  1.00  0.00     0.134 A 
ATOM     43  C   UNL A   1      36.736  33.925  29.405  1.00  0.00     0.134 A 
ATOM     44  F   UNL A   1      35.222  31.445  31.586  1.00  0.00    -0.206 F 
ATOM     45  C   UNL A   1      34.367  32.487  29.669  1.00  0.00     0.040 A 
ATOM     46  C   UNL A   1      35.703  34.101  28.482  1.00  0.00     0.040 A 
ATOM     47  F   UNL A   1      37.876  34.605  29.214  1.00  0.00    -0.206 F 
ATOM     48  C   UNL A   1      34.525  33.362  28.599  1.00  0.00     0.006 A 
ENDBRANCH  27  41
BRANCH  28  49
ATOM     49  C   UNL A   1      44.073  29.178  36.124  1.00  0.00     0.057 A 
ATOM     50  C   UNL A   1      45.376  29.671  36.098  1.00  0.00     0.134 A 
ATOM     51  C   UNL A   1      43.887  28.055  36.953  1.00  0.00     0.134 A 
ATOM     52  F   UNL A   1      45.706  30.654  35.250  1.00  0.00    -0.206 F 
ATOM     53  C   UNL A   1      46.399  29.124  36.902  1.00  0.00     0.040 A 
ATOM     54  C   UNL A   1      44.868  27.528  37.800  1.00  0.00     0.040 A 
ATOM     55  F   UNL A   1      42.752  27.363  36.874  1.00  0.00    -0.206 F 
ATOM     56  C   UNL A   1      46.139  28.073  37.783  1.00  0.00     0.006 A 
ENDBRANCH  28  49
BRANCH  40  57
ATOM     57  C   UNL A   1      39.590  34.361  36.922  1.00  0.00     0.057 A 
ATOM     58  C   UNL A   1      38.932  33.841  38.038  1.00  0.00     0.134 A 
ATOM     59  C   UNL A   1      40.031  35.689  36.968  1.00  0.00     0.134 A 
ATOM     60  F   UNL A   1      38.457  32.587  38.026  1.00  0.00    -0.206 F 
ATOM     61  C   UNL A   1      38.736  34.619  39.177  1.00  0.00     0.040 A 
ATOM     62  C   UNL A   1      39.868  36.466  38.109  1.00  0.00     0.040 A 
ATOM     63  F   UNL A   1      40.659  36.235  35.915  1.00  0.00    -0.206 F 
ATOM     64  C   UNL A   1      39.219  35.929  39.219  1.00  0.00     0.006 A 
ENDBRANCH  40  57
ENDBRANCH  14  15
ENDBRANCH   7   9
ENDBRANCH   6   7
ENDBRANCH   5   6
ENDBRANCH   4   5
ENDBRANCH   3   4
ENDBRANCH   2   3
ENDBRANCH   1   2
BRANCH   1  65
ATOM     65  O   UNL A   1      38.172  22.305  26.105  1.00  0.00    -0.376 OA
BRANCH  65  66
ATOM     66  C   UNL A   1      37.683  23.636  26.115  1.00  0.00     0.202 C 
BRANCH  66  67
ATOM     67  C   UNL A   1      36.412  24.030  25.337  1.00  0.00     0.261 C 
BRANCH  67  68
ATOM     68  O   UNL A   1      35.409  24.824  25.987  1.00  0.00    -0.461 OA
BRANCH  68  69
ATOM     69  C   UNL A   1      34.481  25.333  25.134  1.00  0.00     0.334 C 
ATOM     70  O   UNL A   1      34.722  25.552  23.949  1.00  0.00    -0.249 OA
BRANCH  69  71
ATOM     71  C   UNL A   1      33.135  25.716  25.763  1.00  0.00     0.232 C 
BRANCH  71  72
ATOM     72  C   UNL A   1      32.959  27.133  26.336  1.00  0.00    -0.014 A 
ATOM     73  C   UNL A   1      31.841  27.538  27.058  1.00  0.00     0.006 A 
ATOM     74  C   UNL A   1      33.956  28.108  26.103  1.00  0.00     0.006 A 
ATOM     75  C   UNL A   1      31.703  28.862  27.466  1.00  0.00     0.000 A 
ATOM     76  C   UNL A   1      33.838  29.419  26.585  1.00  0.00     0.000 A 
ATOM     77  C   UNL A   1      32.703  29.800  27.273  1.00  0.00     0.000 A 
ENDBRANCH  71  72
BRANCH  71  78
ATOM     78  N   UNL A   1      31.962  25.199  25.025  1.00  0.00    -0.274 N 
ATOM     79  C   UNL A   1      31.519  23.915  25.246  1.00  0.00     0.267 C 
ATOM     80  C   UNL A   1      31.246  25.858  24.049  1.00  0.00     0.149 C 
ATOM     81  O   UNL A   1      31.375  23.379  26.325  1.00  0.00    -0.268 OA
ATOM     82  C   UNL A   1      31.058  23.381  23.926  1.00  0.00     0.084 C 
ATOM     83  S   UNL A   1      30.222  24.693  23.174  1.00  0.00    -0.054 SA
ATOM     84  S   UNL A   1      31.269  27.462  23.615  1.00  0.00    -0.052 S 
ATOM     85  C   UNL A   1      31.516  22.320  23.234  1.00  0.00     0.068 C 
BRANCH  85  86
ATOM     86  C   UNL A   1      32.494  21.408  23.733  1.00  0.00     0.128 A 
ATOM     87  C   UNL A   1      33.694  21.698  24.345  1.00  0.00     0.051 A 
ATOM     88  O   UNL A   1      32.393  20.017  23.721  1.00  0.00    -0.457 OA
ATOM     89  C   UNL A   1      34.372  20.520  24.661  1.00  0.00     0.051 A 
ATOM     90  C   UNL A   1      33.521  19.501  24.321  1.00  0.00     0.134 A 
BRANCH  90  91
ATOM     91  C   UNL A   1      33.550  18.094  24.697  1.00  0.00     0.017 A 
ATOM     92  C   UNL A   1      34.344  17.145  24.057  1.00  0.00     0.015 A 
ATOM     93  C   UNL A   1      32.658  17.665  25.704  1.00  0.00     0.015 A 
ATOM     94  C   UNL A   1      34.167  15.786  24.349  1.00  0.00     0.040 A 
ATOM     95  C   UNL A   1      32.429  16.315  25.942  1.00  0.00     0.040 A 
ATOM     96  C   UNL A   1      33.183  15.384  25.251  1.00  0.00     0.123 A 
ATOM     97  F   UNL A   1      32.950  14.080  25.443  1.00  0.00    -0.207 F 
ENDBRANCH  90  91
ENDBRANCH  85  86
ENDBRANCH  71  78
ENDBRANCH  69  71
ENDBRANCH  68  69
ENDBRANCH  67  68
ENDBRANCH  66  67
ENDBRANCH  65  66
ENDBRANCH   1  65
TORSDOF 21
ENDMDL
MODEL 2
REMARK VINA RESULT:     -11.8      3.142      8.560
REMARK SMILES O=C(OCCOCCOCCOC(=O)[C@@H](c1ccccc1)N1C(=O)/C(=C\c2ccc(-c3ccc(F)cc3)o2)SC1=S)c1ccc(-c2c3nc(c(-c4c(F)cccc4F)c4ccc([nH]4)c(-c4c(F)cccc4F)c4nc(c(-c5c(F)cccc5F)c5ccc2[nH]5)C=C4)C=C3)cc1
REMARK SMILES IDX 8 1 7 2 6 3 5 4 4 5 3 6 2 7 1 8 42 9 43 10 95 11 44 12 94 13
REMARK SMILES IDX 45 14 46 15 47 16 88 17 48 18 93 19 87 20 89 21 49 22 92 23
REMARK SMILES IDX 86 24 85 25 50 27 76 28 59 29 75 30 60 31 63 32 74 33 90 34
REMARK SMILES IDX 61 35 62 36 73 38 91 39 64 40 51 41 52 42 57 43 53 44 54 45
REMARK SMILES IDX 56 46 58 47 55 48 77 49 78 50 83 51 79 52 80 53 82 54 84 55
REMARK SMILES IDX 81 56 65 57 66 58 71 59 67 60 68 61 70 62 72 63 69 64 9 65
REMARK SMILES IDX 10 66 11 67 12 68 13 69 14 70 15 71 16 72 17 73 21 74 18 75
REMARK SMILES IDX 20 76 19 77 22 78 23 79 40 80 24 81 25 82 39 83 41 84 26 85
REMARK SMILES IDX 27 86 28 87 38 88 29 89 30 90 31 91 32 92 37 93 33 94 36 95
REMARK SMILES IDX 34 96 35 97
REMARK H PARENT 89 26 63 37
REMARK Flexibility Score: inf
ROOT
ATOM      1  C   UNL A   1      33.404  27.988  26.212  1.00  0.00     0.188 C 
ENDROOT
BRANCH   1   2
ATOM      2  C   UNL A   1      33.444  29.179  27.171  1.00  0.00     0.188 C 
BRANCH   2   3
ATOM      3  O   UNL A   1      33.277  30.455  26.541  1.00  0.00    -0.376 OA
BRANCH   3   4
ATOM      4  C   UNL A   1      32.221  31.231  27.123  1.00  0.00     0.202 C 
BRANCH   4   5
ATOM      5  C   UNL A   1      32.131  32.699  26.682  1.00  0.00     0.261 C 
BRANCH   5   6
ATOM      6  O   UNL A   1      32.222  33.647  27.751  1.00  0.00    -0.460 OA
BRANCH   6   7
ATOM      7  C   UNL A   1      33.311  34.237  28.291  1.00  0.00     0.338 C 
ATOM      8  O   UNL A   1      33.325  35.468  28.330  1.00  0.00    -0.246 OA
BRANCH   7   9
ATOM      9  C   UNL A   1      34.539  33.518  28.781  1.00  0.00     0.060 A 
ATOM     10  C   UNL A   1      35.863  33.718  28.368  1.00  0.00     0.016 A 
ATOM     11  C   UNL A   1      34.334  32.618  29.842  1.00  0.00     0.016 A 
ATOM     12  C   UNL A   1      36.951  33.086  28.995  1.00  0.00     0.010 A 
ATOM     13  C   UNL A   1      35.417  32.014  30.499  1.00  0.00     0.010 A 
ATOM     14  C   UNL A   1      36.747  32.237  30.077  1.00  0.00    -0.014 A 
BRANCH  14  15
ATOM     15  C   UNL A   1      37.820  31.338  30.594  1.00  0.00     0.031 A 
ATOM     16  C   UNL A   1      38.234  31.642  32.005  1.00  0.00     0.074 A 
ATOM     17  C   UNL A   1      38.360  30.275  29.951  1.00  0.00     0.049 A 
ATOM     18  N   UNL A   1      39.312  31.318  32.656  1.00  0.00    -0.248 NA
ATOM     19  C   UNL A   1      37.281  32.464  32.785  1.00  0.00     0.031 C 
ATOM     20  C   UNL A   1      37.855  29.671  28.720  1.00  0.00     0.029 A 
ATOM     21  N   UNL A   1      39.463  29.494  30.251  1.00  0.00    -0.354 N 
ATOM     22  C   UNL A   1      39.139  31.867  33.918  1.00  0.00     0.074 A 
ATOM     23  C   UNL A   1      37.970  32.709  33.881  1.00  0.00     0.031 C 
ATOM     24  C   UNL A   1      38.641  28.627  28.380  1.00  0.00     0.029 A 
ATOM     25  C   UNL A   1      39.801  28.585  29.255  1.00  0.00     0.049 A 
ATOM     26  H   UNL A   1      39.964  29.574  31.095  1.00  0.00     0.167 HD
ATOM     27  C   UNL A   1      39.824  31.590  35.048  1.00  0.00     0.037 A 
ATOM     28  C   UNL A   1      40.960  27.908  29.043  1.00  0.00     0.037 A 
ATOM     29  C   UNL A   1      40.959  30.719  35.052  1.00  0.00     0.049 A 
ATOM     30  C   UNL A   1      41.989  28.014  30.143  1.00  0.00     0.074 A 
ATOM     31  C   UNL A   1      41.756  30.327  36.106  1.00  0.00     0.029 A 
ATOM     32  N   UNL A   1      41.452  30.102  33.908  1.00  0.00    -0.354 N 
ATOM     33  N   UNL A   1      41.921  28.691  31.266  1.00  0.00    -0.248 NA
ATOM     34  C   UNL A   1      43.226  27.237  29.984  1.00  0.00     0.031 C 
ATOM     35  C   UNL A   1      42.773  29.519  35.585  1.00  0.00     0.029 A 
ATOM     36  C   UNL A   1      42.567  29.356  34.222  1.00  0.00     0.049 A 
ATOM     37  H   UNL A   1      41.063  30.186  33.007  1.00  0.00     0.167 HD
ATOM     38  C   UNL A   1      43.045  28.331  31.991  1.00  0.00     0.074 A 
ATOM     39  C   UNL A   1      43.849  27.490  31.125  1.00  0.00     0.031 C 
ATOM     40  C   UNL A   1      43.338  28.574  33.290  1.00  0.00     0.037 A 
BRANCH  27  41
ATOM     41  C   UNL A   1      39.315  32.233  36.302  1.00  0.00     0.057 A 
ATOM     42  C   UNL A   1      38.264  31.660  37.043  1.00  0.00     0.134 A 
ATOM     43  C   UNL A   1      39.756  33.500  36.686  1.00  0.00     0.134 A 
ATOM     44  F   UNL A   1      37.769  30.459  36.707  1.00  0.00    -0.206 F 
ATOM     45  C   UNL A   1      37.622  32.363  38.064  1.00  0.00     0.040 A 
ATOM     46  C   UNL A   1      39.144  34.198  37.729  1.00  0.00     0.040 A 
ATOM     47  F   UNL A   1      40.752  34.105  36.020  1.00  0.00    -0.206 F 
ATOM     48  C   UNL A   1      38.059  33.640  38.404  1.00  0.00     0.006 A 
ENDBRANCH  27  41
BRANCH  28  49
ATOM     49  C   UNL A   1      41.315  27.177  27.767  1.00  0.00     0.057 A 
ATOM     50  C   UNL A   1      41.787  27.786  26.606  1.00  0.00     0.134 A 
ATOM     51  C   UNL A   1      41.085  25.793  27.651  1.00  0.00     0.134 A 
ATOM     52  F   UNL A   1      41.922  29.117  26.552  1.00  0.00    -0.206 F 
ATOM     53  C   UNL A   1      42.077  27.047  25.438  1.00  0.00     0.040 A 
ATOM     54  C   UNL A   1      41.414  25.029  26.526  1.00  0.00     0.040 A 
ATOM     55  F   UNL A   1      40.417  25.158  28.613  1.00  0.00    -0.206 F 
ATOM     56  C   UNL A   1      41.925  25.660  25.407  1.00  0.00     0.006 A 
ENDBRANCH  28  49
BRANCH  40  57
ATOM     57  C   UNL A   1      44.495  27.821  33.856  1.00  0.00     0.057 A 
ATOM     58  C   UNL A   1      44.388  26.505  34.306  1.00  0.00     0.134 A 
ATOM     59  C   UNL A   1      45.755  28.430  33.873  1.00  0.00     0.134 A 
ATOM     60  F   UNL A   1      43.195  25.892  34.344  1.00  0.00    -0.206 F 
ATOM     61  C   UNL A   1      45.511  25.807  34.745  1.00  0.00     0.040 A 
ATOM     62  C   UNL A   1      46.888  27.737  34.282  1.00  0.00     0.040 A 
ATOM     63  F   UNL A   1      45.904  29.699  33.460  1.00  0.00    -0.206 F 
ATOM     64  C   UNL A   1      46.767  26.418  34.717  1.00  0.00     0.006 A 
ENDBRANCH  40  57
ENDBRANCH  14  15
ENDBRANCH   7   9
ENDBRANCH   6   7
ENDBRANCH   5   6
ENDBRANCH   4   5
ENDBRANCH   3   4
ENDBRANCH   2   3
ENDBRANCH   1   2
BRANCH   1  65
ATOM     65  O   UNL A   1      32.309  27.088  26.310  1.00  0.00    -0.376 OA
BRANCH  65  66
ATOM     66  C   UNL A   1      32.522  25.716  26.022  1.00  0.00     0.202 C 
BRANCH  66  67
ATOM     67  C   UNL A   1      31.905  24.607  26.896  1.00  0.00     0.261 C 
BRANCH  67  68
ATOM     68  O   UNL A   1      32.284  23.242  26.667  1.00  0.00    -0.461 OA
BRANCH  68  69
ATOM     69  C   UNL A   1      33.611  23.007  26.855  1.00  0.00     0.334 C 
ATOM     70  O   UNL A   1      34.092  22.779  27.962  1.00  0.00    -0.249 OA
BRANCH  69  71
ATOM     71  C   UNL A   1      34.495  23.141  25.607  1.00  0.00     0.232 C 
BRANCH  71  72
ATOM     72  C   UNL A   1      36.002  22.862  25.732  1.00  0.00    -0.014 A 
ATOM     73  C   UNL A   1      36.922  23.798  26.195  1.00  0.00     0.006 A 
ATOM     74  C   UNL A   1      36.516  21.607  25.332  1.00  0.00     0.006 A 
ATOM     75  C   UNL A   1      38.285  23.512  26.193  1.00  0.00     0.000 A 
ATOM     76  C   UNL A   1      37.883  21.306  25.406  1.00  0.00     0.000 A 
ATOM     77  C   UNL A   1      38.776  22.265  25.841  1.00  0.00     0.000 A 
ENDBRANCH  71  72
BRANCH  71  78
ATOM     78  N   UNL A   1      33.871  22.617  24.374  1.00  0.00    -0.274 N 
ATOM     79  C   UNL A   1      33.795  23.406  23.249  1.00  0.00     0.267 C 
ATOM     80  C   UNL A   1      33.272  21.385  24.211  1.00  0.00     0.149 C 
ATOM     81  O   UNL A   1      34.683  24.093  22.791  1.00  0.00    -0.268 OA
ATOM     82  C   UNL A   1      32.486  23.099  22.590  1.00  0.00     0.084 C 
ATOM     83  S   UNL A   1      32.308  21.385  22.715  1.00  0.00    -0.054 SA
ATOM     84  S   UNL A   1      33.317  20.045  25.193  1.00  0.00    -0.052 S 
ATOM     85  C   UNL A   1      31.449  23.922  22.342  1.00  0.00     0.068 C 
BRANCH  85  86
ATOM     86  C   UNL A   1      31.478  25.329  22.575  1.00  0.00     0.128 A 
ATOM     87  C   UNL A   1      32.508  26.212  22.333  1.00  0.00     0.051 A 
ATOM     88  O   UNL A   1      30.424  26.095  23.073  1.00  0.00    -0.457 OA
ATOM     89  C   UNL A   1      32.142  27.500  22.725  1.00  0.00     0.051 A 
ATOM     90  C   UNL A   1      30.833  27.409  23.120  1.00  0.00     0.134 A 
BRANCH  90  91
ATOM     91  C   UNL A   1      29.846  28.459  23.332  1.00  0.00     0.017 A 
ATOM     92  C   UNL A   1      28.504  28.333  22.980  1.00  0.00     0.015 A 
ATOM     93  C   UNL A   1      30.301  29.696  23.839  1.00  0.00     0.015 A 
ATOM     94  C   UNL A   1      27.667  29.454  23.037  1.00  0.00     0.040 A 
ATOM     95  C   UNL A   1      29.492  30.826  23.826  1.00  0.00     0.040 A 
ATOM     96  C   UNL A   1      28.179  30.695  23.413  1.00  0.00     0.123 A 
ATOM     97  F   UNL A   1      27.398  31.780  23.362  1.00  0.00    -0.207 F 
ENDBRANCH  90  91
ENDBRANCH  85  86
ENDBRANCH  71  78
ENDBRANCH  69  71
ENDBRANCH  68  69
ENDBRANCH  67  68
ENDBRANCH  66  67
ENDBRANCH  65  66
ENDBRANCH   1  65
TORSDOF 21
ENDMDL
MODEL 3
REMARK VINA RESULT:     -11.7      2.642      4.614
REMARK SMILES O=C(OCCOCCOCCOC(=O)[C@@H](c1ccccc1)N1C(=O)/C(=C\c2ccc(-c3ccc(F)cc3)o2)SC1=S)c1ccc(-c2c3nc(c(-c4c(F)cccc4F)c4ccc([nH]4)c(-c4c(F)cccc4F)c4nc(c(-c5c(F)cccc5F)c5ccc2[nH]5)C=C4)C=C3)cc1
REMARK SMILES IDX 8 1 7 2 6 3 5 4 4 5 3 6 2 7 1 8 42 9 43 10 95 11 44 12 94 13
REMARK SMILES IDX 45 14 46 15 47 16 88 17 48 18 93 19 87 20 89 21 49 22 92 23
REMARK SMILES IDX 86 24 85 25 50 27 76 28 59 29 75 30 60 31 63 32 74 33 90 34
REMARK SMILES IDX 61 35 62 36 73 38 91 39 64 40 51 41 52 42 57 43 53 44 54 45
REMARK SMILES IDX 56 46 58 47 55 48 77 49 78 50 83 51 79 52 80 53 82 54 84 55
REMARK SMILES IDX 81 56 65 57 66 58 71 59 67 60 68 61 70 62 72 63 69 64 9 65
REMARK SMILES IDX 10 66 11 67 12 68 13 69 14 70 15 71 16 72 17 73 21 74 18 75
REMARK SMILES IDX 20 76 19 77 22 78 23 79 40 80 24 81 25 82 39 83 41 84 26 85
REMARK SMILES IDX 27 86 28 87 38 88 29 89 30 90 31 91 32 92 37 93 33 94 36 95
REMARK SMILES IDX 34 96 35 97
REMARK H PARENT 89 26 63 37
REMARK Flexibility Score: inf
ROOT
ATOM      1  C   UNL A   1      40.760  23.019  26.916  1.00  0.00     0.188 C 
ENDROOT
BRANCH   1   2
ATOM      2  C   UNL A   1      41.662  21.969  26.265  1.00  0.00     0.188 C 
BRANCH   2   3
ATOM      3  O   UNL A   1      42.815  22.504  25.603  1.00  0.00    -0.376 OA
BRANCH   3   4
ATOM      4  C   UNL A   1      43.195  23.794  26.100  1.00  0.00     0.202 C 
BRANCH   4   5
ATOM      5  C   UNL A   1      43.397  24.897  25.049  1.00  0.00     0.261 C 
BRANCH   5   6
ATOM      6  O   UNL A   1      42.306  25.818  24.940  1.00  0.00    -0.460 OA
BRANCH   6   7
ATOM      7  C   UNL A   1      42.227  27.110  25.328  1.00  0.00     0.338 C 
ATOM      8  O   UNL A   1      42.492  27.971  24.488  1.00  0.00    -0.246 OA
BRANCH   7   9
ATOM      9  C   UNL A   1      41.910  27.584  26.722  1.00  0.00     0.060 A 
ATOM     10  C   UNL A   1      41.103  26.945  27.673  1.00  0.00     0.016 A 
ATOM     11  C   UNL A   1      42.585  28.745  27.139  1.00  0.00     0.016 A 
ATOM     12  C   UNL A   1      40.988  27.408  28.995  1.00  0.00     0.010 A 
ATOM     13  C   UNL A   1      42.507  29.191  28.466  1.00  0.00     0.010 A 
ATOM     14  C   UNL A   1      41.697  28.528  29.416  1.00  0.00    -0.014 A 
BRANCH  14  15
ATOM     15  C   UNL A   1      41.403  29.215  30.708  1.00  0.00     0.031 A 
ATOM     16  C   UNL A   1      40.290  30.219  30.617  1.00  0.00     0.074 A 
ATOM     17  C   UNL A   1      41.976  28.954  31.907  1.00  0.00     0.049 A 
ATOM     18  N   UNL A   1      39.982  31.208  31.403  1.00  0.00    -0.248 NA
ATOM     19  C   UNL A   1      39.409  30.088  29.435  1.00  0.00     0.031 C 
ATOM     20  C   UNL A   1      42.835  27.814  32.217  1.00  0.00     0.029 A 
ATOM     21  N   UNL A   1      41.914  29.634  33.112  1.00  0.00    -0.354 N 
ATOM     22  C   UNL A   1      38.859  31.782  30.822  1.00  0.00     0.074 A 
ATOM     23  C   UNL A   1      38.667  31.174  29.530  1.00  0.00     0.031 C 
ATOM     24  C   UNL A   1      43.212  27.878  33.512  1.00  0.00     0.029 A 
ATOM     25  C   UNL A   1      42.777  29.141  34.085  1.00  0.00     0.049 A 
ATOM     26  H   UNL A   1      41.313  30.399  33.266  1.00  0.00     0.167 HD
ATOM     27  C   UNL A   1      37.987  32.651  31.376  1.00  0.00     0.037 A 
ATOM     28  C   UNL A   1      43.227  29.719  35.229  1.00  0.00     0.037 A 
ATOM     29  C   UNL A   1      38.193  33.205  32.678  1.00  0.00     0.049 A 
ATOM     30  C   UNL A   1      42.568  31.023  35.607  1.00  0.00     0.074 A 
ATOM     31  C   UNL A   1      37.407  34.088  33.386  1.00  0.00     0.029 A 
ATOM     32  N   UNL A   1      39.299  32.910  33.468  1.00  0.00    -0.354 N 
ATOM     33  N   UNL A   1      41.632  31.685  34.965  1.00  0.00    -0.248 NA
ATOM     34  C   UNL A   1      42.976  31.640  36.877  1.00  0.00     0.031 C 
ATOM     35  C   UNL A   1      38.072  34.375  34.583  1.00  0.00     0.029 A 
ATOM     36  C   UNL A   1      39.235  33.619  34.647  1.00  0.00     0.049 A 
ATOM     37  H   UNL A   1      40.020  32.287  33.221  1.00  0.00     0.167 HD
ATOM     38  C   UNL A   1      41.265  32.725  35.802  1.00  0.00     0.074 A 
ATOM     39  C   UNL A   1      42.172  32.692  36.932  1.00  0.00     0.031 C 
ATOM     40  C   UNL A   1      40.204  33.561  35.711  1.00  0.00     0.037 A 
BRANCH  27  41
ATOM     41  C   UNL A   1      36.780  32.986  30.554  1.00  0.00     0.057 A 
ATOM     42  C   UNL A   1      35.567  32.291  30.719  1.00  0.00     0.134 A 
ATOM     43  C   UNL A   1      36.866  33.885  29.490  1.00  0.00     0.134 A 
ATOM     44  F   UNL A   1      35.428  31.387  31.701  1.00  0.00    -0.206 F 
ATOM     45  C   UNL A   1      34.519  32.423  29.806  1.00  0.00     0.040 A 
ATOM     46  C   UNL A   1      35.811  34.051  28.590  1.00  0.00     0.040 A 
ATOM     47  F   UNL A   1      37.995  34.578  29.274  1.00  0.00    -0.206 F 
ATOM     48  C   UNL A   1      34.644  33.301  28.733  1.00  0.00     0.006 A 
ENDBRANCH  27  41
BRANCH  28  49
ATOM     49  C   UNL A   1      44.388  29.211  36.056  1.00  0.00     0.057 A 
ATOM     50  C   UNL A   1      45.711  29.621  35.908  1.00  0.00     0.134 A 
ATOM     51  C   UNL A   1      44.196  28.179  36.995  1.00  0.00     0.134 A 
ATOM     52  F   UNL A   1      46.038  30.504  34.956  1.00  0.00    -0.206 F 
ATOM     53  C   UNL A   1      46.753  29.088  36.698  1.00  0.00     0.040 A 
ATOM     54  C   UNL A   1      45.200  27.672  37.828  1.00  0.00     0.040 A 
ATOM     55  F   UNL A   1      43.022  27.551  37.047  1.00  0.00    -0.206 F 
ATOM     56  C   UNL A   1      46.494  28.137  37.686  1.00  0.00     0.006 A 
ENDBRANCH  28  49
BRANCH  40  57
ATOM     57  C   UNL A   1      39.920  34.397  36.912  1.00  0.00     0.057 A 
ATOM     58  C   UNL A   1      40.296  35.738  37.002  1.00  0.00     0.134 A 
ATOM     59  C   UNL A   1      39.184  33.840  37.966  1.00  0.00     0.134 A 
ATOM     60  F   UNL A   1      41.034  36.305  36.036  1.00  0.00    -0.206 F 
ATOM     61  C   UNL A   1      39.934  36.508  38.105  1.00  0.00     0.040 A 
ATOM     62  C   UNL A   1      38.792  34.605  39.058  1.00  0.00     0.040 A 
ATOM     63  F   UNL A   1      38.809  32.552  37.927  1.00  0.00    -0.206 F 
ATOM     64  C   UNL A   1      39.166  35.946  39.127  1.00  0.00     0.006 A 
ENDBRANCH  40  57
ENDBRANCH  14  15
ENDBRANCH   7   9
ENDBRANCH   6   7
ENDBRANCH   5   6
ENDBRANCH   4   5
ENDBRANCH   3   4
ENDBRANCH   2   3
ENDBRANCH   1   2
BRANCH   1  65
ATOM     65  O   UNL A   1      39.391  23.051  26.541  1.00  0.00    -0.376 OA
BRANCH  65  66
ATOM     66  C   UNL A   1      38.811  21.890  25.969  1.00  0.00     0.202 C 
BRANCH  66  67
ATOM     67  C   UNL A   1      37.455  21.948  25.239  1.00  0.00     0.261 C 
BRANCH  67  68
ATOM     68  O   UNL A   1      36.261  22.199  25.995  1.00  0.00    -0.461 OA
BRANCH  68  69
ATOM     69  C   UNL A   1      35.818  23.481  25.901  1.00  0.00     0.334 C 
ATOM     70  O   UNL A   1      36.568  24.450  26.000  1.00  0.00    -0.249 OA
BRANCH  69  71
ATOM     71  C   UNL A   1      34.299  23.654  25.762  1.00  0.00     0.232 C 
BRANCH  71  72
ATOM     72  C   UNL A   1      33.678  25.031  26.052  1.00  0.00    -0.014 A 
ATOM     73  C   UNL A   1      32.420  25.204  26.621  1.00  0.00     0.006 A 
ATOM     74  C   UNL A   1      34.387  26.203  25.702  1.00  0.00     0.006 A 
ATOM     75  C   UNL A   1      31.880  26.478  26.770  1.00  0.00     0.000 A 
ATOM     76  C   UNL A   1      33.861  27.483  25.926  1.00  0.00     0.000 A 
ATOM     77  C   UNL A   1      32.597  27.623  26.465  1.00  0.00     0.000 A 
ENDBRANCH  71  72
BRANCH  71  78
ATOM     78  N   UNL A   1      33.722  22.951  24.596  1.00  0.00    -0.274 N 
ATOM     79  C   UNL A   1      33.645  23.585  23.377  1.00  0.00     0.267 C 
ATOM     80  C   UNL A   1      33.171  21.687  24.584  1.00  0.00     0.149 C 
ATOM     81  O   UNL A   1      34.519  24.240  22.850  1.00  0.00    -0.268 OA
ATOM     82  C   UNL A   1      32.364  23.146  22.739  1.00  0.00     0.084 C 
ATOM     83  S   UNL A   1      32.243  21.456  23.083  1.00  0.00    -0.054 SA
ATOM     84  S   UNL A   1      33.240  20.488  25.732  1.00  0.00    -0.052 S 
ATOM     85  C   UNL A   1      31.304  23.890  22.367  1.00  0.00     0.068 C 
BRANCH  85  86
ATOM     86  C   UNL A   1      31.278  25.316  22.415  1.00  0.00     0.128 A 
ATOM     87  C   UNL A   1      32.148  26.204  21.821  1.00  0.00     0.051 A 
ATOM     88  O   UNL A   1      30.318  26.092  23.064  1.00  0.00    -0.457 OA
ATOM     89  C   UNL A   1      31.788  27.515  22.135  1.00  0.00     0.051 A 
ATOM     90  C   UNL A   1      30.623  27.418  22.850  1.00  0.00     0.134 A 
BRANCH  90  91
ATOM     91  C   UNL A   1      29.636  28.439  23.173  1.00  0.00     0.017 A 
ATOM     92  C   UNL A   1      28.263  28.252  23.035  1.00  0.00     0.015 A 
ATOM     93  C   UNL A   1      30.111  29.712  23.561  1.00  0.00     0.015 A 
ATOM     94  C   UNL A   1      27.398  29.344  23.180  1.00  0.00     0.040 A 
ATOM     95  C   UNL A   1      29.264  30.811  23.632  1.00  0.00     0.040 A 
ATOM     96  C   UNL A   1      27.910  30.616  23.429  1.00  0.00     0.123 A 
ATOM     97  F   UNL A   1      27.085  31.671  23.460  1.00  0.00    -0.207 F 
ENDBRANCH  90  91
ENDBRANCH  85  86
ENDBRANCH  71  78
ENDBRANCH  69  71
ENDBRANCH  68  69
ENDBRANCH  67  68
ENDBRANCH  66  67
ENDBRANCH  65  66
ENDBRANCH   1  65
TORSDOF 21
ENDMDL
