MODEL 1
REMARK VINA RESULT:     -12.5      0.000      0.000
REMARK SMILES Cc1ccc(-c2ccc(C(=O)Nc3ccc(C(=O)OCCOCCOCCOC(=O)c4ccc(-c5c6nc(c(-c7c(F)cccc7F)c7ccc([nH]7)c(-c7c(F)cccc7F)c7nc(c(-c8c(F)cccc8F)c8ccc5[nH]8)C=C7)C=C6)cc4)c(O)c3)o2)c([N+](=O)[O-])c1
REMARK SMILES IDX 23 1 22 2 21 3 20 4 19 5 17 6 18 7 16 8 13 9 14 10 87 11
REMARK SMILES IDX 15 12 85 13 12 14 10 15 11 16 9 18 6 19 7 20 88 21 8 22 5 23
REMARK SMILES IDX 1 24 2 25 3 26 93 27 4 28 89 29 90 30 91 31 92 32 86 33
REMARK SMILES IDX 24 35 25 36 26 37 27 38 28 39 29 40 30 41 31 42 32 43 84 44
REMARK SMILES IDX 33 45 83 46 34 47 35 48 36 49 77 50 37 51 82 52 76 53 78 54
REMARK SMILES IDX 38 55 81 56 75 57 74 58 39 60 65 61 48 62 64 63 49 64 52 65
REMARK SMILES IDX 63 66 79 67 50 68 51 69 62 71 80 72 53 73 40 74 41 75 46 76
REMARK SMILES IDX 42 77 43 78 45 79 47 80 44 81 66 82 67 83 72 84 68 85 69 86
REMARK SMILES IDX 71 87 73 88 70 89 54 90 55 91 60 92 56 93 57 94 59 95 61 96
REMARK SMILES IDX 58 97
REMARK H PARENT 12 17 86 34 78 59 52 70
REMARK Flexibility Score: inf
ROOT
ATOM      1  C   UNL A   1      34.713  32.365  28.918  1.00  0.00     0.188 C 
ENDROOT
BRANCH   1   2
ATOM      2  O   UNL A   1      35.449  31.172  28.607  1.00  0.00    -0.376 OA
BRANCH   2   3
ATOM      3  C   UNL A   1      34.784  30.238  27.747  1.00  0.00     0.202 C 
BRANCH   3   4
ATOM      4  C   UNL A   1      33.410  30.704  27.135  1.00  0.00     0.261 C 
BRANCH   4   5
ATOM      5  O   UNL A   1      32.042  30.097  27.344  1.00  0.00    -0.460 OA
BRANCH   5   6
ATOM      6  C   UNL A   1      31.779  28.779  27.014  1.00  0.00     0.341 C 
ATOM      7  O   UNL A   1      31.357  28.216  28.035  1.00  0.00    -0.246 OA
BRANCH   6   8
ATOM      8  C   UNL A   1      32.060  27.964  25.357  1.00  0.00     0.101 A 
ATOM      9  C   UNL A   1      32.866  27.274  22.601  1.00  0.00     0.045 A 
ATOM     10  C   UNL A   1      33.654  27.001  23.743  1.00  0.00     0.027 A 
ATOM     11  C   UNL A   1      31.696  27.943  22.757  1.00  0.00     0.073 A 
ATOM     12  C   UNL A   1      33.310  27.420  25.083  1.00  0.00     0.022 A 
ATOM     13  C   UNL A   1      31.240  28.042  24.071  1.00  0.00     0.132 A 
BRANCH   9  14
ATOM     14  N   UNL A   1      33.071  26.715  21.323  1.00  0.00    -0.319 N 
ATOM     15  C   UNL A   1      32.905  25.364  20.993  1.00  0.00     0.291 C 
ATOM     16  O   UNL A   1      33.095  25.035  19.820  1.00  0.00    -0.265 OA
ATOM     17  H   UNL A   1      33.356  27.325  20.605  1.00  0.00     0.170 HD
BRANCH  15  18
ATOM     18  C   UNL A   1      32.415  24.451  22.010  1.00  0.00     0.192 A 
ATOM     19  C   UNL A   1      32.386  22.678  23.306  1.00  0.00     0.142 A 
ATOM     20  C   UNL A   1      31.357  23.483  23.720  1.00  0.00     0.052 A 
ATOM     21  O   UNL A   1      33.088  23.276  22.298  1.00  0.00    -0.451 OA
ATOM     22  C   UNL A   1      31.258  24.486  22.765  1.00  0.00     0.057 A 
BRANCH  19  23
ATOM     23  C   UNL A   1      32.737  21.351  23.771  1.00  0.00     0.095 A 
ATOM     24  C   UNL A   1      34.448  17.440  24.443  1.00  0.00     0.044 C 
ATOM     25  C   UNL A   1      33.822  18.788  24.256  1.00  0.00    -0.044 A 
ATOM     26  C   UNL A   1      32.696  18.950  23.433  1.00  0.00     0.004 A 
ATOM     27  C   UNL A   1      34.370  19.902  24.890  1.00  0.00     0.089 A 
ATOM     28  C   UNL A   1      32.154  20.220  23.192  1.00  0.00     0.019 A 
ATOM     29  C   UNL A   1      33.818  21.163  24.659  1.00  0.00     0.280 A 
BRANCH  29  30
ATOM     30  N   UNL A   1      34.442  22.286  25.360  1.00  0.00     0.063 N 
ATOM     31  O   UNL A   1      33.946  22.650  26.434  1.00  0.00    -0.258 OA
ATOM     32  O   UNL A   1      35.453  22.782  24.842  1.00  0.00    -0.258 OA
ENDBRANCH  29  30
ENDBRANCH  19  23
ENDBRANCH  15  18
ENDBRANCH   9  14
BRANCH  13  33
ATOM     33  O   UNL A   1      29.859  27.894  23.954  1.00  0.00    -0.507 OA
ATOM     34  H   UNL A   1      29.293  28.233  24.621  1.00  0.00     0.293 HD
ENDBRANCH  13  33
ENDBRANCH   6   8
ENDBRANCH   5   6
ENDBRANCH   4   5
ENDBRANCH   3   4
ENDBRANCH   2   3
ENDBRANCH   1   2
BRANCH   1  35
ATOM     35  C   UNL A   1      35.315  33.589  28.243  1.00  0.00     0.188 C 
BRANCH  35  36
ATOM     36  O   UNL A   1      34.639  34.739  28.696  1.00  0.00    -0.376 OA
BRANCH  36  37
ATOM     37  C   UNL A   1      33.294  34.664  29.086  1.00  0.00     0.202 C 
BRANCH  37  38
ATOM     38  C   UNL A   1      32.911  35.360  30.400  1.00  0.00     0.261 C 
BRANCH  38  39
ATOM     39  O   UNL A   1      33.973  35.270  31.374  1.00  0.00    -0.460 OA
BRANCH  39  40
ATOM     40  C   UNL A   1      33.794  34.479  32.487  1.00  0.00     0.338 C 
ATOM     41  O   UNL A   1      32.744  34.016  32.873  1.00  0.00    -0.246 OA
BRANCH  40  42
ATOM     42  C   UNL A   1      35.047  34.530  33.323  1.00  0.00     0.060 A 
ATOM     43  C   UNL A   1      36.205  35.208  32.919  1.00  0.00     0.016 A 
ATOM     44  C   UNL A   1      35.265  33.482  34.130  1.00  0.00     0.016 A 
ATOM     45  C   UNL A   1      37.498  34.545  32.834  1.00  0.00     0.010 A 
ATOM     46  C   UNL A   1      36.505  32.869  33.951  1.00  0.00     0.010 A 
ATOM     47  C   UNL A   1      37.656  33.193  33.101  1.00  0.00    -0.014 A 
BRANCH  47  48
ATOM     48  C   UNL A   1      38.983  32.192  32.423  1.00  0.00     0.031 A 
ATOM     49  C   UNL A   1      39.095  30.693  31.419  1.00  0.00     0.074 A 
ATOM     50  C   UNL A   1      40.235  32.488  32.845  1.00  0.00     0.049 A 
ATOM     51  N   UNL A   1      39.853  29.622  31.648  1.00  0.00    -0.248 NA
ATOM     52  C   UNL A   1      38.308  30.283  30.209  1.00  0.00     0.031 C 
ATOM     53  C   UNL A   1      41.499  31.961  32.330  1.00  0.00     0.029 A 
ATOM     54  N   UNL A   1      40.631  33.368  33.850  1.00  0.00    -0.354 N 
ATOM     55  C   UNL A   1      39.662  28.676  30.585  1.00  0.00     0.074 A 
ATOM     56  C   UNL A   1      38.487  29.016  29.939  1.00  0.00     0.031 C 
ATOM     57  C   UNL A   1      42.497  32.324  33.149  1.00  0.00     0.029 A 
ATOM     58  C   UNL A   1      41.893  32.952  34.302  1.00  0.00     0.049 A 
ATOM     59  H   UNL A   1      40.119  34.141  34.182  1.00  0.00     0.167 HD
ATOM     60  C   UNL A   1      40.587  27.849  30.015  1.00  0.00     0.037 A 
ATOM     61  C   UNL A   1      42.069  32.588  35.603  1.00  0.00     0.037 A 
ATOM     62  C   UNL A   1      41.799  28.039  30.740  1.00  0.00     0.049 A 
ATOM     63  C   UNL A   1      42.441  31.124  35.708  1.00  0.00     0.074 A 
ATOM     64  C   UNL A   1      42.873  28.886  30.560  1.00  0.00     0.029 A 
ATOM     65  N   UNL A   1      41.777  27.659  32.058  1.00  0.00    -0.354 N 
ATOM     66  N   UNL A   1      42.295  30.284  34.715  1.00  0.00    -0.248 NA
ATOM     67  C   UNL A   1      43.066  30.487  36.864  1.00  0.00     0.031 C 
ATOM     68  C   UNL A   1      43.454  29.086  31.843  1.00  0.00     0.029 A 
ATOM     69  C   UNL A   1      42.747  28.327  32.764  1.00  0.00     0.049 A 
ATOM     70  H   UNL A   1      41.156  27.000  32.444  1.00  0.00     0.167 HD
ATOM     71  C   UNL A   1      42.821  29.068  35.044  1.00  0.00     0.074 A 
ATOM     72  C   UNL A   1      43.266  29.234  36.412  1.00  0.00     0.031 C 
ATOM     73  C   UNL A   1      42.872  28.022  34.173  1.00  0.00     0.037 A 
BRANCH  60  74
ATOM     74  C   UNL A   1      40.470  27.175  28.623  1.00  0.00     0.057 A 
ATOM     75  C   UNL A   1      39.686  26.017  28.471  1.00  0.00     0.134 A 
ATOM     76  C   UNL A   1      41.109  27.559  27.415  1.00  0.00     0.134 A 
ATOM     77  F   UNL A   1      38.902  25.576  29.464  1.00  0.00    -0.206 F 
ATOM     78  C   UNL A   1      39.646  25.249  27.290  1.00  0.00     0.040 A 
ATOM     79  C   UNL A   1      41.156  26.754  26.256  1.00  0.00     0.040 A 
ATOM     80  F   UNL A   1      41.656  28.772  27.249  1.00  0.00    -0.206 F 
ATOM     81  C   UNL A   1      40.421  25.587  26.192  1.00  0.00     0.006 A 
ENDBRANCH  60  74
BRANCH  61  82
ATOM     82  C   UNL A   1      41.305  33.495  36.517  1.00  0.00     0.057 A 
ATOM     83  C   UNL A   1      41.873  34.781  36.706  1.00  0.00     0.134 A 
ATOM     84  C   UNL A   1      39.930  33.390  36.751  1.00  0.00     0.134 A 
ATOM     85  F   UNL A   1      43.191  34.961  36.525  1.00  0.00    -0.206 F 
ATOM     86  C   UNL A   1      41.097  35.929  36.883  1.00  0.00     0.040 A 
ATOM     87  C   UNL A   1      39.149  34.534  37.024  1.00  0.00     0.040 A 
ATOM     88  F   UNL A   1      39.283  32.238  36.525  1.00  0.00    -0.206 F 
ATOM     89  C   UNL A   1      39.723  35.809  37.017  1.00  0.00     0.006 A 
ENDBRANCH  61  82
BRANCH  73  90
ATOM     90  C   UNL A   1      42.992  26.565  34.553  1.00  0.00     0.057 A 
ATOM     91  C   UNL A   1      41.952  25.850  35.153  1.00  0.00     0.134 A 
ATOM     92  C   UNL A   1      44.067  25.779  34.063  1.00  0.00     0.134 A 
ATOM     93  F   UNL A   1      40.831  26.455  35.568  1.00  0.00    -0.206 F 
ATOM     94  C   UNL A   1      41.989  24.458  35.289  1.00  0.00     0.040 A 
ATOM     95  C   UNL A   1      44.067  24.386  34.110  1.00  0.00     0.040 A 
ATOM     96  F   UNL A   1      45.132  26.331  33.462  1.00  0.00    -0.206 F 
ATOM     97  C   UNL A   1      43.034  23.720  34.744  1.00  0.00     0.006 A 
ENDBRANCH  73  90
ENDBRANCH  47  48
ENDBRANCH  40  42
ENDBRANCH  39  40
ENDBRANCH  38  39
ENDBRANCH  37  38
ENDBRANCH  36  37
ENDBRANCH  35  36
ENDBRANCH   1  35
TORSDOF 22
ENDMDL
MODEL 2
REMARK VINA RESULT:     -12.2      3.682      9.613
REMARK SMILES Cc1ccc(-c2ccc(C(=O)Nc3ccc(C(=O)OCCOCCOCCOC(=O)c4ccc(-c5c6nc(c(-c7c(F)cccc7F)c7ccc([nH]7)c(-c7c(F)cccc7F)c7nc(c(-c8c(F)cccc8F)c8ccc5[nH]8)C=C7)C=C6)cc4)c(O)c3)o2)c([N+](=O)[O-])c1
REMARK SMILES IDX 23 1 22 2 21 3 20 4 19 5 17 6 18 7 16 8 13 9 14 10 87 11
REMARK SMILES IDX 15 12 85 13 12 14 10 15 11 16 9 18 6 19 7 20 88 21 8 22 5 23
REMARK SMILES IDX 1 24 2 25 3 26 93 27 4 28 89 29 90 30 91 31 92 32 86 33
REMARK SMILES IDX 24 35 25 36 26 37 27 38 28 39 29 40 30 41 31 42 32 43 84 44
REMARK SMILES IDX 33 45 83 46 34 47 35 48 36 49 77 50 37 51 82 52 76 53 78 54
REMARK SMILES IDX 38 55 81 56 75 57 74 58 39 60 65 61 48 62 64 63 49 64 52 65
REMARK SMILES IDX 63 66 79 67 50 68 51 69 62 71 80 72 53 73 40 74 41 75 46 76
REMARK SMILES IDX 42 77 43 78 45 79 47 80 44 81 66 82 67 83 72 84 68 85 69 86
REMARK SMILES IDX 71 87 73 88 70 89 54 90 55 91 60 92 56 93 57 94 59 95 61 96
REMARK SMILES IDX 58 97
REMARK H PARENT 12 17 86 34 78 59 52 70
REMARK Flexibility Score: inf
ROOT
ATOM      1  C   UNL A   1      41.379  20.222  26.639  1.00  0.00     0.188 C 
ENDROOT
BRANCH   1   2
ATOM      2  O   UNL A   1      40.535  21.021  25.797  1.00  0.00    -0.376 OA
BRANCH   2   3
ATOM      3  C   UNL A   1      39.300  21.453  26.385  1.00  0.00     0.202 C 
BRANCH   3   4
ATOM      4  C   UNL A   1      38.331  22.276  25.457  1.00  0.00     0.261 C 
BRANCH   4   5
ATOM      5  O   UNL A   1      37.572  21.795  24.242  1.00  0.00    -0.460 OA
BRANCH   5   6
ATOM      6  C   UNL A   1      36.448  22.459  23.783  1.00  0.00     0.341 C 
ATOM      7  O   UNL A   1      36.742  22.990  22.702  1.00  0.00    -0.246 OA
BRANCH   6   8
ATOM      8  C   UNL A   1      34.799  22.594  24.651  1.00  0.00     0.101 A 
ATOM      9  C   UNL A   1      32.377  22.175  26.288  1.00  0.00     0.045 A 
ATOM     10  C   UNL A   1      33.560  22.779  26.772  1.00  0.00     0.027 A 
ATOM     11  C   UNL A   1      32.357  21.701  25.017  1.00  0.00     0.073 A 
ATOM     12  C   UNL A   1      34.780  22.903  26.006  1.00  0.00     0.022 A 
ATOM     13  C   UNL A   1      33.415  22.120  24.211  1.00  0.00     0.132 A 
BRANCH   9  14
ATOM     14  N   UNL A   1      31.125  22.215  26.933  1.00  0.00    -0.319 N 
ATOM     15  C   UNL A   1      30.247  23.307  26.932  1.00  0.00     0.291 C 
ATOM     16  O   UNL A   1      29.171  23.175  27.520  1.00  0.00    -0.265 OA
ATOM     17  H   UNL A   1      30.844  21.410  27.426  1.00  0.00     0.170 HD
BRANCH  15  18
ATOM     18  C   UNL A   1      30.596  24.483  26.156  1.00  0.00     0.192 A 
ATOM     19  C   UNL A   1      31.504  26.435  25.719  1.00  0.00     0.142 A 
ATOM     20  C   UNL A   1      30.988  25.970  24.538  1.00  0.00     0.052 A 
ATOM     21  O   UNL A   1      31.330  25.515  26.715  1.00  0.00    -0.451 OA
ATOM     22  C   UNL A   1      30.240  24.848  24.871  1.00  0.00     0.057 A 
BRANCH  19  23
ATOM     23  C   UNL A   1      32.123  27.717  25.992  1.00  0.00     0.095 A 
ATOM     24  C   UNL A   1      34.425  31.044  27.510  1.00  0.00     0.044 C 
ATOM     25  C   UNL A   1      33.607  29.925  26.941  1.00  0.00    -0.044 A 
ATOM     26  C   UNL A   1      32.302  29.683  27.400  1.00  0.00     0.004 A 
ATOM     27  C   UNL A   1      34.149  29.098  25.958  1.00  0.00     0.089 A 
ATOM     28  C   UNL A   1      31.563  28.589  26.929  1.00  0.00     0.019 A 
ATOM     29  C   UNL A   1      33.404  28.019  25.481  1.00  0.00     0.280 A 
BRANCH  29  30
ATOM     30  N   UNL A   1      34.034  27.197  24.448  1.00  0.00     0.063 N 
ATOM     31  O   UNL A   1      34.540  26.120  24.789  1.00  0.00    -0.258 OA
ATOM     32  O   UNL A   1      33.993  27.625  23.285  1.00  0.00    -0.258 OA
ENDBRANCH  29  30
ENDBRANCH  19  23
ENDBRANCH  15  18
ENDBRANCH   9  14
BRANCH  13  33
ATOM     33  O   UNL A   1      32.822  22.324  22.966  1.00  0.00    -0.507 OA
ATOM     34  H   UNL A   1      33.326  22.679  22.259  1.00  0.00     0.293 HD
ENDBRANCH  13  33
ENDBRANCH   6   8
ENDBRANCH   5   6
ENDBRANCH   4   5
ENDBRANCH   3   4
ENDBRANCH   2   3
ENDBRANCH   1   2
BRANCH   1  35
ATOM     35  C   UNL A   1      42.273  19.299  25.824  1.00  0.00     0.188 C 
BRANCH  35  36
ATOM     36  O   UNL A   1      43.076  20.079  24.969  1.00  0.00    -0.376 OA
BRANCH  36  37
ATOM     37  C   UNL A   1      44.364  20.469  25.366  1.00  0.00     0.202 C 
BRANCH  37  38
ATOM     38  C   UNL A   1      44.736  21.945  25.167  1.00  0.00     0.261 C 
BRANCH  38  39
ATOM     39  O   UNL A   1      44.125  22.783  26.172  1.00  0.00    -0.460 OA
BRANCH  39  40
ATOM     40  C   UNL A   1      43.769  24.072  25.841  1.00  0.00     0.338 C 
ATOM     41  O   UNL A   1      44.528  24.976  25.571  1.00  0.00    -0.246 OA
BRANCH  40  42
ATOM     42  C   UNL A   1      42.311  24.269  26.165  1.00  0.00     0.060 A 
ATOM     43  C   UNL A   1      41.562  25.350  25.682  1.00  0.00     0.016 A 
ATOM     44  C   UNL A   1      41.894  23.780  27.341  1.00  0.00     0.016 A 
ATOM     45  C   UNL A   1      40.842  26.249  26.571  1.00  0.00     0.010 A 
ATOM     46  C   UNL A   1      41.260  24.716  28.158  1.00  0.00     0.010 A 
ATOM     47  C   UNL A   1      40.890  26.121  27.952  1.00  0.00    -0.014 A 
BRANCH  47  48
ATOM     48  C   UNL A   1      40.609  27.482  29.089  1.00  0.00     0.031 A 
ATOM     49  C   UNL A   1      39.490  28.899  29.164  1.00  0.00     0.074 A 
ATOM     50  C   UNL A   1      41.516  27.631  30.083  1.00  0.00     0.049 A 
ATOM     51  N   UNL A   1      39.808  30.168  29.416  1.00  0.00    -0.248 NA
ATOM     52  C   UNL A   1      38.023  28.985  28.864  1.00  0.00     0.031 C 
ATOM     53  C   UNL A   1      41.438  28.531  31.235  1.00  0.00     0.029 A 
ATOM     54  N   UNL A   1      42.727  26.966  30.267  1.00  0.00    -0.354 N 
ATOM     55  C   UNL A   1      38.612  30.961  29.415  1.00  0.00     0.074 A 
ATOM     56  C   UNL A   1      37.635  30.230  28.763  1.00  0.00     0.031 C 
ATOM     57  C   UNL A   1      42.622  28.546  31.866  1.00  0.00     0.029 A 
ATOM     58  C   UNL A   1      43.547  27.792  31.050  1.00  0.00     0.049 A 
ATOM     59  H   UNL A   1      42.964  26.079  29.911  1.00  0.00     0.167 HD
ATOM     60  C   UNL A   1      38.306  32.028  30.209  1.00  0.00     0.037 A 
ATOM     61  C   UNL A   1      44.739  28.237  30.562  1.00  0.00     0.037 A 
ATOM     62  C   UNL A   1      39.456  32.275  31.013  1.00  0.00     0.049 A 
ATOM     63  C   UNL A   1      44.734  29.744  30.418  1.00  0.00     0.074 A 
ATOM     64  C   UNL A   1      39.839  31.827  32.261  1.00  0.00     0.029 A 
ATOM     65  N   UNL A   1      40.586  32.670  30.343  1.00  0.00    -0.354 N 
ATOM     66  N   UNL A   1      43.636  30.455  30.457  1.00  0.00    -0.248 NA
ATOM     67  C   UNL A   1      45.918  30.590  30.298  1.00  0.00     0.031 C 
ATOM     68  C   UNL A   1      41.260  31.873  32.293  1.00  0.00     0.029 A 
ATOM     69  C   UNL A   1      41.706  32.384  31.084  1.00  0.00     0.049 A 
ATOM     70  H   UNL A   1      40.594  33.098  29.456  1.00  0.00     0.167 HD
ATOM     71  C   UNL A   1      43.933  31.786  30.424  1.00  0.00     0.074 A 
ATOM     72  C   UNL A   1      45.375  31.823  30.294  1.00  0.00     0.031 C 
ATOM     73  C   UNL A   1      42.986  32.761  30.524  1.00  0.00     0.037 A 
BRANCH  60  74
ATOM     74  C   UNL A   1      36.883  32.579  30.485  1.00  0.00     0.057 A 
ATOM     75  C   UNL A   1      36.307  33.506  29.597  1.00  0.00     0.134 A 
ATOM     76  C   UNL A   1      36.041  32.295  31.593  1.00  0.00     0.134 A 
ATOM     77  F   UNL A   1      36.891  33.798  28.427  1.00  0.00    -0.206 F 
ATOM     78  C   UNL A   1      35.093  34.176  29.845  1.00  0.00     0.040 A 
ATOM     79  C   UNL A   1      34.873  33.024  31.904  1.00  0.00     0.040 A 
ATOM     80  F   UNL A   1      36.246  31.241  32.396  1.00  0.00    -0.206 F 
ATOM     81  C   UNL A   1      34.395  33.976  31.026  1.00  0.00     0.006 A 
ENDBRANCH  60  74
BRANCH  61  82
ATOM     82  C   UNL A   1      45.432  27.158  29.788  1.00  0.00     0.057 A 
ATOM     83  C   UNL A   1      45.442  27.335  28.381  1.00  0.00     0.134 A 
ATOM     84  C   UNL A   1      46.444  26.349  30.313  1.00  0.00     0.134 A 
ATOM     85  F   UNL A   1      44.489  28.079  27.796  1.00  0.00    -0.206 F 
ATOM     86  C   UNL A   1      46.512  26.932  27.578  1.00  0.00     0.040 A 
ATOM     87  C   UNL A   1      47.482  25.858  29.493  1.00  0.00     0.040 A 
ATOM     88  F   UNL A   1      46.571  26.183  31.637  1.00  0.00    -0.206 F 
ATOM     89  C   UNL A   1      47.553  26.211  28.141  1.00  0.00     0.006 A 
ENDBRANCH  61  82
BRANCH  73  90
ATOM     90  C   UNL A   1      43.137  34.187  30.050  1.00  0.00     0.057 A 
ATOM     91  C   UNL A   1      43.256  35.269  30.927  1.00  0.00     0.134 A 
ATOM     92  C   UNL A   1      43.449  34.466  28.695  1.00  0.00     0.134 A 
ATOM     93  F   UNL A   1      43.091  35.124  32.249  1.00  0.00    -0.206 F 
ATOM     94  C   UNL A   1      43.624  36.545  30.487  1.00  0.00     0.040 A 
ATOM     95  C   UNL A   1      43.907  35.710  28.265  1.00  0.00     0.040 A 
ATOM     96  F   UNL A   1      43.380  33.523  27.742  1.00  0.00    -0.206 F 
ATOM     97  C   UNL A   1      43.977  36.763  29.160  1.00  0.00     0.006 A 
ENDBRANCH  73  90
ENDBRANCH  47  48
ENDBRANCH  40  42
ENDBRANCH  39  40
ENDBRANCH  38  39
ENDBRANCH  37  38
ENDBRANCH  36  37
ENDBRANCH  35  36
ENDBRANCH   1  35
TORSDOF 22
ENDMDL
MODEL 3
REMARK VINA RESULT:     -11.3      2.775      7.618
REMARK SMILES Cc1ccc(-c2ccc(C(=O)Nc3ccc(C(=O)OCCOCCOCCOC(=O)c4ccc(-c5c6nc(c(-c7c(F)cccc7F)c7ccc([nH]7)c(-c7c(F)cccc7F)c7nc(c(-c8c(F)cccc8F)c8ccc5[nH]8)C=C7)C=C6)cc4)c(O)c3)o2)c([N+](=O)[O-])c1
REMARK SMILES IDX 23 1 22 2 21 3 20 4 19 5 17 6 18 7 16 8 13 9 14 10 87 11
REMARK SMILES IDX 15 12 85 13 12 14 10 15 11 16 9 18 6 19 7 20 88 21 8 22 5 23
REMARK SMILES IDX 1 24 2 25 3 26 93 27 4 28 89 29 90 30 91 31 92 32 86 33
REMARK SMILES IDX 24 35 25 36 26 37 27 38 28 39 29 40 30 41 31 42 32 43 84 44
REMARK SMILES IDX 33 45 83 46 34 47 35 48 36 49 77 50 37 51 82 52 76 53 78 54
REMARK SMILES IDX 38 55 81 56 75 57 74 58 39 60 65 61 48 62 64 63 49 64 52 65
REMARK SMILES IDX 63 66 79 67 50 68 51 69 62 71 80 72 53 73 40 74 41 75 46 76
REMARK SMILES IDX 42 77 43 78 45 79 47 80 44 81 66 82 67 83 72 84 68 85 69 86
REMARK SMILES IDX 71 87 73 88 70 89 54 90 55 91 60 92 56 93 57 94 59 95 61 96
REMARK SMILES IDX 58 97
REMARK H PARENT 12 17 86 34 78 59 52 70
REMARK Flexibility Score: inf
ROOT
ATOM      1  C   UNL A   1      34.293  31.933  28.443  1.00  0.00     0.188 C 
ENDROOT
BRANCH   1   2
ATOM      2  O   UNL A   1      34.085  30.987  27.383  1.00  0.00    -0.376 OA
BRANCH   2   3
ATOM      3  C   UNL A   1      32.748  30.917  26.867  1.00  0.00     0.202 C 
BRANCH   3   4
ATOM      4  C   UNL A   1      32.420  29.693  25.934  1.00  0.00     0.261 C 
BRANCH   4   5
ATOM      5  O   UNL A   1      31.412  28.590  26.162  1.00  0.00    -0.460 OA
BRANCH   5   6
ATOM      6  C   UNL A   1      31.684  27.526  27.004  1.00  0.00     0.341 C 
ATOM      7  O   UNL A   1      31.397  27.879  28.157  1.00  0.00    -0.246 OA
BRANCH   6   8
ATOM      8  C   UNL A   1      32.409  25.874  26.518  1.00  0.00     0.101 A 
ATOM      9  C   UNL A   1      33.856  23.303  26.395  1.00  0.00     0.045 A 
ATOM     10  C   UNL A   1      32.558  23.451  26.935  1.00  0.00     0.027 A 
ATOM     11  C   UNL A   1      34.513  24.406  25.957  1.00  0.00     0.073 A 
ATOM     12  C   UNL A   1      31.882  24.720  27.084  1.00  0.00     0.022 A 
ATOM     13  C   UNL A   1      33.724  25.548  25.814  1.00  0.00     0.132 A 
BRANCH   9  14
ATOM     14  N   UNL A   1      34.458  22.074  26.057  1.00  0.00    -0.319 N 
ATOM     15  C   UNL A   1      34.183  21.327  24.904  1.00  0.00     0.291 C 
ATOM     16  O   UNL A   1      34.817  20.283  24.735  1.00  0.00    -0.265 OA
ATOM     17  H   UNL A   1      35.125  21.710  26.683  1.00  0.00     0.170 HD
BRANCH  15  18
ATOM     18  C   UNL A   1      33.259  21.869  23.923  1.00  0.00     0.192 A 
ATOM     19  C   UNL A   1      31.999  23.369  22.930  1.00  0.00     0.142 A 
ATOM     20  C   UNL A   1      31.987  22.255  22.131  1.00  0.00     0.052 A 
ATOM     21  O   UNL A   1      32.820  23.179  24.006  1.00  0.00    -0.451 OA
ATOM     22  C   UNL A   1      32.607  21.256  22.870  1.00  0.00     0.057 A 
BRANCH  19  23
ATOM     23  C   UNL A   1      31.252  24.601  22.773  1.00  0.00     0.095 A 
ATOM     24  C   UNL A   1      29.544  28.558  23.082  1.00  0.00     0.044 C 
ATOM     25  C   UNL A   1      30.106  27.178  22.926  1.00  0.00    -0.044 A 
ATOM     26  C   UNL A   1      29.489  26.077  23.542  1.00  0.00     0.004 A 
ATOM     27  C   UNL A   1      31.266  26.980  22.178  1.00  0.00     0.089 A 
ATOM     28  C   UNL A   1      30.055  24.797  23.465  1.00  0.00     0.019 A 
ATOM     29  C   UNL A   1      31.818  25.701  22.093  1.00  0.00     0.280 A 
BRANCH  29  30
ATOM     30  N   UNL A   1      33.033  25.568  21.288  1.00  0.00     0.063 N 
ATOM     31  O   UNL A   1      32.915  25.198  20.113  1.00  0.00    -0.258 OA
ATOM     32  O   UNL A   1      34.105  25.866  21.834  1.00  0.00    -0.258 OA
ENDBRANCH  29  30
ENDBRANCH  19  23
ENDBRANCH  15  18
ENDBRANCH   9  14
BRANCH  13  33
ATOM     33  O   UNL A   1      34.223  26.151  24.660  1.00  0.00    -0.507 OA
ATOM     34  H   UNL A   1      33.844  26.950  24.348  1.00  0.00     0.293 HD
ENDBRANCH  13  33
ENDBRANCH   6   8
ENDBRANCH   5   6
ENDBRANCH   4   5
ENDBRANCH   3   4
ENDBRANCH   2   3
ENDBRANCH   1   2
BRANCH   1  35
ATOM     35  C   UNL A   1      35.183  33.085  28.001  1.00  0.00     0.188 C 
BRANCH  35  36
ATOM     36  O   UNL A   1      34.378  34.213  27.747  1.00  0.00    -0.376 OA
BRANCH  36  37
ATOM     37  C   UNL A   1      34.410  35.317  28.611  1.00  0.00     0.202 C 
BRANCH  37  38
ATOM     38  C   UNL A   1      33.225  35.483  29.572  1.00  0.00     0.261 C 
BRANCH  38  39
ATOM     39  O   UNL A   1      33.320  34.575  30.690  1.00  0.00    -0.460 OA
BRANCH  39  40
ATOM     40  C   UNL A   1      33.893  35.016  31.863  1.00  0.00     0.338 C 
ATOM     41  O   UNL A   1      34.171  36.162  32.135  1.00  0.00    -0.246 OA
BRANCH  40  42
ATOM     42  C   UNL A   1      34.402  33.823  32.630  1.00  0.00     0.060 A 
ATOM     43  C   UNL A   1      34.739  33.878  33.989  1.00  0.00     0.016 A 
ATOM     44  C   UNL A   1      35.079  32.908  31.922  1.00  0.00     0.016 A 
ATOM     45  C   UNL A   1      36.052  33.481  34.475  1.00  0.00     0.010 A 
ATOM     46  C   UNL A   1      36.349  32.621  32.422  1.00  0.00     0.010 A 
ATOM     47  C   UNL A   1      37.065  33.070  33.621  1.00  0.00    -0.014 A 
BRANCH  47  48
ATOM     48  C   UNL A   1      38.813  33.193  34.016  1.00  0.00     0.031 A 
ATOM     49  C   UNL A   1      39.925  34.500  34.584  1.00  0.00     0.074 A 
ATOM     50  C   UNL A   1      39.578  32.124  33.695  1.00  0.00     0.049 A 
ATOM     51  N   UNL A   1      41.116  34.822  34.083  1.00  0.00    -0.248 NA
ATOM     52  C   UNL A   1      39.720  35.549  35.637  1.00  0.00     0.031 C 
ATOM     53  C   UNL A   1      40.976  31.885  34.058  1.00  0.00     0.029 A 
ATOM     54  N   UNL A   1      39.231  30.990  32.963  1.00  0.00    -0.354 N 
ATOM     55  C   UNL A   1      41.675  35.896  34.854  1.00  0.00     0.074 A 
ATOM     56  C   UNL A   1      40.638  36.478  35.561  1.00  0.00     0.031 C 
ATOM     57  C   UNL A   1      41.438  30.830  33.371  1.00  0.00     0.029 A 
ATOM     58  C   UNL A   1      40.412  30.458  32.423  1.00  0.00     0.049 A 
ATOM     59  H   UNL A   1      38.322  30.629  32.846  1.00  0.00     0.167 HD
ATOM     60  C   UNL A   1      42.982  36.103  35.188  1.00  0.00     0.037 A 
ATOM     61  C   UNL A   1      40.561  30.351  31.073  1.00  0.00     0.037 A 
ATOM     62  C   UNL A   1      43.730  35.074  34.547  1.00  0.00     0.049 A 
ATOM     63  C   UNL A   1      41.690  31.234  30.584  1.00  0.00     0.074 A 
ATOM     64  C   UNL A   1      44.129  33.817  34.952  1.00  0.00     0.029 A 
ATOM     65  N   UNL A   1      43.729  35.094  33.175  1.00  0.00    -0.354 N 
ATOM     66  N   UNL A   1      42.213  32.184  31.317  1.00  0.00    -0.248 NA
ATOM     67  C   UNL A   1      42.380  31.100  29.304  1.00  0.00     0.031 C 
ATOM     68  C   UNL A   1      44.279  33.037  33.772  1.00  0.00     0.029 A 
ATOM     69  C   UNL A   1      44.009  33.846  32.679  1.00  0.00     0.049 A 
ATOM     70  H   UNL A   1      43.553  35.891  32.624  1.00  0.00     0.167 HD
ATOM     71  C   UNL A   1      43.286  32.736  30.679  1.00  0.00     0.074 A 
ATOM     72  C   UNL A   1      43.334  32.045  29.407  1.00  0.00     0.031 C 
ATOM     73  C   UNL A   1      44.068  33.701  31.240  1.00  0.00     0.037 A 
BRANCH  60  74
ATOM     74  C   UNL A   1      43.494  36.995  36.350  1.00  0.00     0.057 A 
ATOM     75  C   UNL A   1      43.357  36.557  37.680  1.00  0.00     0.134 A 
ATOM     76  C   UNL A   1      44.082  38.284  36.262  1.00  0.00     0.134 A 
ATOM     77  F   UNL A   1      42.947  35.312  37.960  1.00  0.00    -0.206 F 
ATOM     78  C   UNL A   1      43.646  37.360  38.801  1.00  0.00     0.040 A 
ATOM     79  C   UNL A   1      44.287  39.135  37.369  1.00  0.00     0.040 A 
ATOM     80  F   UNL A   1      44.573  38.770  35.113  1.00  0.00    -0.206 F 
ATOM     81  C   UNL A   1      44.065  38.672  38.651  1.00  0.00     0.006 A 
ENDBRANCH  60  74
BRANCH  61  82
ATOM     82  C   UNL A   1      39.283  29.911  30.430  1.00  0.00     0.057 A 
ATOM     83  C   UNL A   1      38.582  30.922  29.724  1.00  0.00     0.134 A 
ATOM     84  C   UNL A   1      39.017  28.595  30.042  1.00  0.00     0.134 A 
ATOM     85  F   UNL A   1      38.763  32.212  30.052  1.00  0.00    -0.206 F 
ATOM     86  C   UNL A   1      37.850  30.662  28.562  1.00  0.00     0.040 A 
ATOM     87  C   UNL A   1      38.203  28.316  28.924  1.00  0.00     0.040 A 
ATOM     88  F   UNL A   1      39.685  27.571  30.592  1.00  0.00    -0.206 F 
ATOM     89  C   UNL A   1      37.680  29.352  28.144  1.00  0.00     0.006 A 
ENDBRANCH  61  82
BRANCH  73  90
ATOM     90  C   UNL A   1      44.947  34.669  30.487  1.00  0.00     0.057 A 
ATOM     91  C   UNL A   1      46.327  34.493  30.350  1.00  0.00     0.134 A 
ATOM     92  C   UNL A   1      44.375  35.655  29.643  1.00  0.00     0.134 A 
ATOM     93  F   UNL A   1      46.981  33.527  31.012  1.00  0.00    -0.206 F 
ATOM     94  C   UNL A   1      47.091  35.261  29.466  1.00  0.00     0.040 A 
ATOM     95  C   UNL A   1      45.113  36.358  28.692  1.00  0.00     0.040 A 
ATOM     96  F   UNL A   1      43.062  35.931  29.663  1.00  0.00    -0.206 F 
ATOM     97  C   UNL A   1      46.483  36.177  28.615  1.00  0.00     0.006 A 
ENDBRANCH  73  90
ENDBRANCH  47  48
ENDBRANCH  40  42
ENDBRANCH  39  40
ENDBRANCH  38  39
ENDBRANCH  37  38
ENDBRANCH  36  37
ENDBRANCH  35  36
ENDBRANCH   1  35
TORSDOF 22
ENDMDL
