MODEL 1
REMARK VINA RESULT:     -10.9      0.000      0.000
REMARK SMILES CC(C)(C)Nc1ncnc(N2CCC(C(=O)OCCOCCOCCOC(=O)c3ccc(-c4c5nc(c(-c6c(F)cccc6F)c6ccc([nH]6)c(-c6c(F)cccc6F)c6nc(c(-c7c(F)cccc7F)c7ccc4[nH]7)C=C6)C=C5)cc3)CC2)c1N
REMARK SMILES IDX 21 1 20 2 19 3 18 4 17 5 15 6 16 7 14 8 11 9 12 10 84 11
REMARK SMILES IDX 13 12 83 13 10 14 6 15 7 16 85 17 8 18 9 19 5 20 2 22 1 23
REMARK SMILES IDX 3 24 4 25 86 26 22 29 23 30 24 31 25 32 26 33 27 34 28 35
REMARK SMILES IDX 29 36 30 37 82 38 31 39 81 40 32 41 33 42 34 43 75 44 35 45
REMARK SMILES IDX 80 46 74 47 76 48 36 49 79 50 73 51 72 52 37 54 63 55 46 56
REMARK SMILES IDX 62 57 47 58 50 59 61 60 77 61 48 62 49 63 60 65 78 66 51 67
REMARK SMILES IDX 38 68 39 69 44 70 40 71 41 72 43 73 45 74 42 75 64 76 65 77
REMARK SMILES IDX 70 78 66 79 67 80 69 81 71 82 68 83 52 84 53 85 58 86 54 87
REMARK SMILES IDX 55 88 57 89 59 90 56 91
REMARK H PARENT 5 21 86 27 86 28 76 53 50 64
REMARK Flexibility Score: inf
ROOT
ATOM      1  C   UNL A   1      40.079  20.407  26.151  1.00  0.00     0.188 C 
ENDROOT
BRANCH   1   2
ATOM      2  O   UNL A   1      39.191  21.490  25.925  1.00  0.00    -0.376 OA
BRANCH   2   3
ATOM      3  C   UNL A   1      37.964  21.213  25.252  1.00  0.00     0.202 C 
BRANCH   3   4
ATOM      4  C   UNL A   1      36.846  22.264  25.327  1.00  0.00     0.261 C 
BRANCH   4   5
ATOM      5  O   UNL A   1      36.025  22.379  24.147  1.00  0.00    -0.463 OA
BRANCH   5   6
ATOM      6  C   UNL A   1      34.723  22.044  24.319  1.00  0.00     0.309 C 
ATOM      7  O   UNL A   1      34.332  21.067  24.952  1.00  0.00    -0.252 OA
BRANCH   6   8
ATOM      8  C   UNL A   1      33.738  22.997  23.674  1.00  0.00     0.103 C 
ATOM      9  N   UNL A   1      32.387  25.490  23.568  1.00  0.00    -0.355 N 
ATOM     10  C   UNL A   1      31.550  24.322  23.745  1.00  0.00     0.119 C 
ATOM     11  C   UNL A   1      33.651  25.359  22.873  1.00  0.00     0.119 C 
ATOM     12  C   UNL A   1      32.359  23.163  24.330  1.00  0.00     0.037 C 
ATOM     13  C   UNL A   1      34.486  24.324  23.585  1.00  0.00     0.037 C 
BRANCH   9  14
ATOM     14  C   UNL A   1      31.912  26.733  23.946  1.00  0.00     0.157 A 
ATOM     15  C   UNL A   1      30.962  28.865  23.485  1.00  0.00     0.155 A 
ATOM     16  N   UNL A   1      31.155  29.241  24.759  1.00  0.00    -0.217 NA
ATOM     17  C   UNL A   1      31.376  27.621  23.000  1.00  0.00     0.118 A 
ATOM     18  C   UNL A   1      31.676  28.312  25.573  1.00  0.00     0.226 A 
ATOM     19  N   UNL A   1      32.024  27.062  25.245  1.00  0.00    -0.217 NA
BRANCH  15  20
ATOM     20  N   UNL A   1      30.311  29.807  22.700  1.00  0.00    -0.364 N 
ATOM     21  H   UNL A   1      30.859  30.346  22.084  1.00  0.00     0.162 HD
BRANCH  20  22
ATOM     22  C   UNL A   1      28.855  30.059  22.720  1.00  0.00     0.030 C 
ATOM     23  C   UNL A   1      28.393  31.195  23.650  1.00  0.00     0.034 C 
ATOM     24  C   UNL A   1      28.129  28.747  23.060  1.00  0.00     0.034 C 
ATOM     25  C   UNL A   1      28.441  30.458  21.287  1.00  0.00     0.034 C 
ENDBRANCH  20  22
ENDBRANCH  15  20
BRANCH  17  26
ATOM     26  N   UNL A   1      31.294  27.296  21.641  1.00  0.00    -0.393 N 
ATOM     27  H   UNL A   1      31.111  27.998  20.976  1.00  0.00     0.156 HD
ATOM     28  H   UNL A   1      31.421  26.363  21.351  1.00  0.00     0.156 HD
ENDBRANCH  17  26
ENDBRANCH   9  14
ENDBRANCH   6   8
ENDBRANCH   5   6
ENDBRANCH   4   5
ENDBRANCH   3   4
ENDBRANCH   2   3
ENDBRANCH   1   2
BRANCH   1  29
ATOM     29  C   UNL A   1      41.574  20.720  26.234  1.00  0.00     0.188 C 
BRANCH  29  30
ATOM     30  O   UNL A   1      42.434  19.910  25.461  1.00  0.00    -0.376 OA
BRANCH  30  31
ATOM     31  C   UNL A   1      43.824  20.231  25.489  1.00  0.00     0.202 C 
BRANCH  31  32
ATOM     32  C   UNL A   1      44.245  21.649  25.025  1.00  0.00     0.261 C 
BRANCH  32  33
ATOM     33  O   UNL A   1      44.313  22.692  26.027  1.00  0.00    -0.460 OA
BRANCH  33  34
ATOM     34  C   UNL A   1      44.515  23.965  25.607  1.00  0.00     0.338 C 
ATOM     35  O   UNL A   1      45.060  24.299  24.566  1.00  0.00    -0.246 OA
BRANCH  34  36
ATOM     36  C   UNL A   1      43.707  24.896  26.455  1.00  0.00     0.060 A 
ATOM     37  C   UNL A   1      43.986  26.271  26.376  1.00  0.00     0.016 A 
ATOM     38  C   UNL A   1      42.652  24.459  27.262  1.00  0.00     0.016 A 
ATOM     39  C   UNL A   1      43.266  27.196  27.144  1.00  0.00     0.010 A 
ATOM     40  C   UNL A   1      41.946  25.383  28.052  1.00  0.00     0.010 A 
ATOM     41  C   UNL A   1      42.276  26.753  28.031  1.00  0.00    -0.014 A 
BRANCH  41  42
ATOM     42  C   UNL A   1      41.772  27.655  29.106  1.00  0.00     0.031 A 
ATOM     43  C   UNL A   1      42.506  27.652  30.425  1.00  0.00     0.074 A 
ATOM     44  C   UNL A   1      40.722  28.481  28.940  1.00  0.00     0.049 A 
ATOM     45  N   UNL A   1      42.216  28.261  31.546  1.00  0.00    -0.248 NA
ATOM     46  C   UNL A   1      43.741  26.850  30.480  1.00  0.00     0.031 C 
ATOM     47  C   UNL A   1      39.964  28.660  27.706  1.00  0.00     0.029 A 
ATOM     48  N   UNL A   1      40.108  29.330  29.835  1.00  0.00    -0.354 N 
ATOM     49  C   UNL A   1      43.228  27.916  32.435  1.00  0.00     0.074 A 
ATOM     50  C   UNL A   1      44.121  27.019  31.736  1.00  0.00     0.031 C 
ATOM     51  C   UNL A   1      38.981  29.553  27.922  1.00  0.00     0.029 A 
ATOM     52  C   UNL A   1      39.011  29.981  29.322  1.00  0.00     0.049 A 
ATOM     53  H   UNL A   1      40.426  29.459  30.758  1.00  0.00     0.167 HD
ATOM     54  C   UNL A   1      43.408  28.316  33.715  1.00  0.00     0.037 A 
ATOM     55  C   UNL A   1      38.123  30.805  29.918  1.00  0.00     0.037 A 
ATOM     56  C   UNL A   1      42.523  29.202  34.424  1.00  0.00     0.049 A 
ATOM     57  C   UNL A   1      38.275  31.139  31.384  1.00  0.00     0.074 A 
ATOM     58  C   UNL A   1      42.613  29.639  35.734  1.00  0.00     0.029 A 
ATOM     59  N   UNL A   1      41.391  29.788  33.883  1.00  0.00    -0.354 N 
ATOM     60  N   UNL A   1      39.220  30.788  32.222  1.00  0.00    -0.248 NA
ATOM     61  C   UNL A   1      37.229  31.982  31.987  1.00  0.00     0.031 C 
ATOM     62  C   UNL A   1      41.509  30.453  36.000  1.00  0.00     0.029 A 
ATOM     63  C   UNL A   1      40.765  30.571  34.838  1.00  0.00     0.049 A 
ATOM     64  H   UNL A   1      41.077  29.666  32.958  1.00  0.00     0.167 HD
ATOM     65  C   UNL A   1      38.904  31.397  33.433  1.00  0.00     0.074 A 
ATOM     66  C   UNL A   1      37.688  32.149  33.220  1.00  0.00     0.031 C 
ATOM     67  C   UNL A   1      39.566  31.337  34.615  1.00  0.00     0.037 A 
BRANCH  54  68
ATOM     68  C   UNL A   1      44.608  27.793  34.449  1.00  0.00     0.057 A 
ATOM     69  C   UNL A   1      45.831  28.475  34.434  1.00  0.00     0.134 A 
ATOM     70  C   UNL A   1      44.518  26.640  35.240  1.00  0.00     0.134 A 
ATOM     71  F   UNL A   1      45.987  29.575  33.683  1.00  0.00    -0.206 F 
ATOM     72  C   UNL A   1      46.924  28.027  35.179  1.00  0.00     0.040 A 
ATOM     73  C   UNL A   1      45.594  26.198  36.009  1.00  0.00     0.040 A 
ATOM     74  F   UNL A   1      43.374  25.942  35.299  1.00  0.00    -0.206 F 
ATOM     75  C   UNL A   1      46.803  26.893  35.980  1.00  0.00     0.006 A 
ENDBRANCH  54  68
BRANCH  55  76
ATOM     76  C   UNL A   1      36.988  31.380  29.144  1.00  0.00     0.057 A 
ATOM     77  C   UNL A   1      37.006  32.713  28.714  1.00  0.00     0.134 A 
ATOM     78  C   UNL A   1      35.838  30.631  28.860  1.00  0.00     0.134 A 
ATOM     79  F   UNL A   1      38.062  33.494  28.986  1.00  0.00    -0.206 F 
ATOM     80  C   UNL A   1      35.921  33.284  28.044  1.00  0.00     0.040 A 
ATOM     81  C   UNL A   1      34.759  31.180  28.165  1.00  0.00     0.040 A 
ATOM     82  F   UNL A   1      35.748  29.353  29.254  1.00  0.00    -0.206 F 
ATOM     83  C   UNL A   1      34.795  32.514  27.761  1.00  0.00     0.006 A 
ENDBRANCH  55  76
BRANCH  67  84
ATOM     84  C   UNL A   1      39.028  32.142  35.766  1.00  0.00     0.057 A 
ATOM     85  C   UNL A   1      38.200  31.580  36.745  1.00  0.00     0.134 A 
ATOM     86  C   UNL A   1      39.400  33.484  35.931  1.00  0.00     0.134 A 
ATOM     87  F   UNL A   1      37.801  30.302  36.646  1.00  0.00    -0.206 F 
ATOM     88  C   UNL A   1      37.742  32.328  37.832  1.00  0.00     0.040 A 
ATOM     89  C   UNL A   1      38.974  34.233  37.029  1.00  0.00     0.040 A 
ATOM     90  F   UNL A   1      40.204  34.083  35.040  1.00  0.00    -0.206 F 
ATOM     91  C   UNL A   1      38.136  33.656  37.981  1.00  0.00     0.006 A 
ENDBRANCH  67  84
ENDBRANCH  41  42
ENDBRANCH  34  36
ENDBRANCH  33  34
ENDBRANCH  32  33
ENDBRANCH  31  32
ENDBRANCH  30  31
ENDBRANCH  29  30
ENDBRANCH   1  29
TORSDOF 21
ENDMDL
MODEL 2
REMARK VINA RESULT:     -10.9      4.962     10.343
REMARK SMILES CC(C)(C)Nc1ncnc(N2CCC(C(=O)OCCOCCOCCOC(=O)c3ccc(-c4c5nc(c(-c6c(F)cccc6F)c6ccc([nH]6)c(-c6c(F)cccc6F)c6nc(c(-c7c(F)cccc7F)c7ccc4[nH]7)C=C6)C=C5)cc3)CC2)c1N
REMARK SMILES IDX 21 1 20 2 19 3 18 4 17 5 15 6 16 7 14 8 11 9 12 10 84 11
REMARK SMILES IDX 13 12 83 13 10 14 6 15 7 16 85 17 8 18 9 19 5 20 2 22 1 23
REMARK SMILES IDX 3 24 4 25 86 26 22 29 23 30 24 31 25 32 26 33 27 34 28 35
REMARK SMILES IDX 29 36 30 37 82 38 31 39 81 40 32 41 33 42 34 43 75 44 35 45
REMARK SMILES IDX 80 46 74 47 76 48 36 49 79 50 73 51 72 52 37 54 63 55 46 56
REMARK SMILES IDX 62 57 47 58 50 59 61 60 77 61 48 62 49 63 60 65 78 66 51 67
REMARK SMILES IDX 38 68 39 69 44 70 40 71 41 72 43 73 45 74 42 75 64 76 65 77
REMARK SMILES IDX 70 78 66 79 67 80 69 81 71 82 68 83 52 84 53 85 58 86 54 87
REMARK SMILES IDX 55 88 57 89 59 90 56 91
REMARK H PARENT 5 21 86 27 86 28 76 53 50 64
REMARK Flexibility Score: inf
ROOT
ATOM      1  C   UNL A   1      33.363  35.901  29.681  1.00  0.00     0.188 C 
ENDROOT
BRANCH   1   2
ATOM      2  O   UNL A   1      33.756  34.546  29.534  1.00  0.00    -0.376 OA
BRANCH   2   3
ATOM      3  C   UNL A   1      33.213  33.811  28.439  1.00  0.00     0.202 C 
BRANCH   3   4
ATOM      4  C   UNL A   1      33.984  32.579  27.942  1.00  0.00     0.261 C 
BRANCH   4   5
ATOM      5  O   UNL A   1      33.175  31.425  27.637  1.00  0.00    -0.463 OA
BRANCH   5   6
ATOM      6  C   UNL A   1      33.851  30.369  27.125  1.00  0.00     0.309 C 
ATOM      7  O   UNL A   1      35.068  30.216  27.202  1.00  0.00    -0.252 OA
BRANCH   6   8
ATOM      8  C   UNL A   1      32.980  29.334  26.443  1.00  0.00     0.103 C 
ATOM      9  N   UNL A   1      32.052  26.671  26.133  1.00  0.00    -0.355 N 
ATOM     10  C   UNL A   1      32.732  27.242  24.990  1.00  0.00     0.119 C 
ATOM     11  C   UNL A   1      31.351  27.544  27.052  1.00  0.00     0.119 C 
ATOM     12  C   UNL A   1      33.641  28.393  25.424  1.00  0.00     0.037 C 
ATOM     13  C   UNL A   1      32.328  28.563  27.586  1.00  0.00     0.037 C 
BRANCH   9  14
ATOM     14  C   UNL A   1      31.967  25.296  26.260  1.00  0.00     0.157 A 
ATOM     15  C   UNL A   1      32.899  23.107  26.231  1.00  0.00     0.155 A 
ATOM     16  N   UNL A   1      31.676  22.571  26.358  1.00  0.00    -0.217 NA
ATOM     17  C   UNL A   1      33.105  24.485  26.123  1.00  0.00     0.118 A 
ATOM     18  C   UNL A   1      30.663  23.440  26.478  1.00  0.00     0.226 A 
ATOM     19  N   UNL A   1      30.747  24.775  26.482  1.00  0.00    -0.217 NA
BRANCH  15  20
ATOM     20  N   UNL A   1      33.935  22.183  26.231  1.00  0.00    -0.364 N 
ATOM     21  H   UNL A   1      34.350  21.961  27.096  1.00  0.00     0.162 HD
BRANCH  20  22
ATOM     22  C   UNL A   1      34.461  21.505  25.027  1.00  0.00     0.030 C 
ATOM     23  C   UNL A   1      34.169  22.211  23.691  1.00  0.00     0.034 C 
ATOM     24  C   UNL A   1      33.938  20.059  25.005  1.00  0.00     0.034 C 
ATOM     25  C   UNL A   1      35.996  21.440  25.173  1.00  0.00     0.034 C 
ENDBRANCH  20  22
ENDBRANCH  15  20
BRANCH  17  26
ATOM     26  N   UNL A   1      34.370  25.023  25.854  1.00  0.00    -0.393 N 
ATOM     27  H   UNL A   1      34.454  25.823  25.287  1.00  0.00     0.156 HD
ATOM     28  H   UNL A   1      35.174  24.599  26.232  1.00  0.00     0.156 HD
ENDBRANCH  17  26
ENDBRANCH   9  14
ENDBRANCH   6   8
ENDBRANCH   5   6
ENDBRANCH   4   5
ENDBRANCH   3   4
ENDBRANCH   2   3
ENDBRANCH   1   2
BRANCH   1  29
ATOM     29  C   UNL A   1      33.319  36.478  31.096  1.00  0.00     0.188 C 
BRANCH  29  30
ATOM     30  O   UNL A   1      33.516  35.567  32.157  1.00  0.00    -0.376 OA
BRANCH  30  31
ATOM     31  C   UNL A   1      34.742  35.670  32.879  1.00  0.00     0.202 C 
BRANCH  31  32
ATOM     32  C   UNL A   1      35.912  34.748  32.448  1.00  0.00     0.261 C 
BRANCH  32  33
ATOM     33  O   UNL A   1      35.948  33.407  32.994  1.00  0.00    -0.460 OA
BRANCH  33  34
ATOM     34  C   UNL A   1      35.358  32.416  32.284  1.00  0.00     0.338 C 
ATOM     35  O   UNL A   1      34.167  32.328  32.029  1.00  0.00    -0.246 OA
BRANCH  34  36
ATOM     36  C   UNL A   1      36.414  31.603  31.603  1.00  0.00     0.060 A 
ATOM     37  C   UNL A   1      37.303  30.869  32.407  1.00  0.00     0.016 A 
ATOM     38  C   UNL A   1      36.504  31.495  30.212  1.00  0.00     0.016 A 
ATOM     39  C   UNL A   1      38.314  30.087  31.832  1.00  0.00     0.010 A 
ATOM     40  C   UNL A   1      37.534  30.732  29.635  1.00  0.00     0.010 A 
ATOM     41  C   UNL A   1      38.472  30.057  30.440  1.00  0.00    -0.014 A 
BRANCH  41  42
ATOM     42  C   UNL A   1      39.739  29.550  29.840  1.00  0.00     0.031 A 
ATOM     43  C   UNL A   1      40.897  30.513  29.728  1.00  0.00     0.074 A 
ATOM     44  C   UNL A   1      39.900  28.278  29.425  1.00  0.00     0.049 A 
ATOM     45  N   UNL A   1      42.064  30.357  29.158  1.00  0.00    -0.248 NA
ATOM     46  C   UNL A   1      40.705  31.834  30.351  1.00  0.00     0.031 C 
ATOM     47  C   UNL A   1      38.910  27.212  29.541  1.00  0.00     0.029 A 
ATOM     48  N   UNL A   1      40.974  27.672  28.811  1.00  0.00    -0.354 N 
ATOM     49  C   UNL A   1      42.742  31.555  29.353  1.00  0.00     0.074 A 
ATOM     50  C   UNL A   1      41.846  32.440  30.063  1.00  0.00     0.031 C 
ATOM     51  C   UNL A   1      39.417  26.086  29.007  1.00  0.00     0.029 A 
ATOM     52  C   UNL A   1      40.752  26.358  28.474  1.00  0.00     0.049 A 
ATOM     53  H   UNL A   1      41.823  28.137  28.632  1.00  0.00     0.167 HD
ATOM     54  C   UNL A   1      44.001  31.889  28.985  1.00  0.00     0.037 A 
ATOM     55  C   UNL A   1      41.526  25.486  27.792  1.00  0.00     0.037 A 
ATOM     56  C   UNL A   1      44.899  31.020  28.272  1.00  0.00     0.049 A 
ATOM     57  C   UNL A   1      42.880  25.923  27.283  1.00  0.00     0.074 A 
ATOM     58  C   UNL A   1      46.184  31.286  27.834  1.00  0.00     0.029 A 
ATOM     59  N   UNL A   1      44.609  29.719  27.896  1.00  0.00    -0.354 N 
ATOM     60  N   UNL A   1      43.502  27.065  27.450  1.00  0.00    -0.248 NA
ATOM     61  C   UNL A   1      43.638  24.945  26.484  1.00  0.00     0.031 C 
ATOM     62  C   UNL A   1      46.655  30.161  27.152  1.00  0.00     0.029 A 
ATOM     63  C   UNL A   1      45.686  29.175  27.218  1.00  0.00     0.049 A 
ATOM     64  H   UNL A   1      43.763  29.251  28.084  1.00  0.00     0.167 HD
ATOM     65  C   UNL A   1      44.732  26.929  26.814  1.00  0.00     0.074 A 
ATOM     66  C   UNL A   1      44.776  25.591  26.268  1.00  0.00     0.031 C 
ATOM     67  C   UNL A   1      45.735  27.833  26.696  1.00  0.00     0.037 A 
BRANCH  54  68
ATOM     68  C   UNL A   1      44.490  33.263  29.338  1.00  0.00     0.057 A 
ATOM     69  C   UNL A   1      44.249  34.364  28.508  1.00  0.00     0.134 A 
ATOM     70  C   UNL A   1      45.139  33.500  30.558  1.00  0.00     0.134 A 
ATOM     71  F   UNL A   1      43.649  34.201  27.320  1.00  0.00    -0.206 F 
ATOM     72  C   UNL A   1      44.639  35.653  28.876  1.00  0.00     0.040 A 
ATOM     73  C   UNL A   1      45.509  34.787  30.948  1.00  0.00     0.040 A 
ATOM     74  F   UNL A   1      45.398  32.488  31.400  1.00  0.00    -0.206 F 
ATOM     75  C   UNL A   1      45.259  35.869  30.105  1.00  0.00     0.006 A 
ENDBRANCH  54  68
BRANCH  55  76
ATOM     76  C   UNL A   1      41.051  24.099  27.530  1.00  0.00     0.057 A 
ATOM     77  C   UNL A   1      40.033  23.846  26.601  1.00  0.00     0.134 A 
ATOM     78  C   UNL A   1      41.564  23.001  28.232  1.00  0.00     0.134 A 
ATOM     79  F   UNL A   1      39.474  24.858  25.921  1.00  0.00    -0.206 F 
ATOM     80  C   UNL A   1      39.533  22.558  26.392  1.00  0.00     0.040 A 
ATOM     81  C   UNL A   1      41.094  21.705  28.011  1.00  0.00     0.040 A 
ATOM     82  F   UNL A   1      42.531  23.173  29.145  1.00  0.00    -0.206 F 
ATOM     83  C   UNL A   1      40.070  21.482  27.093  1.00  0.00     0.006 A 
ENDBRANCH  55  76
BRANCH  67  84
ATOM     84  C   UNL A   1      46.993  27.404  25.993  1.00  0.00     0.057 A 
ATOM     85  C   UNL A   1      48.064  26.814  26.677  1.00  0.00     0.134 A 
ATOM     86  C   UNL A   1      47.107  27.524  24.601  1.00  0.00     0.134 A 
ATOM     87  F   UNL A   1      48.024  26.674  28.011  1.00  0.00    -0.206 F 
ATOM     88  C   UNL A   1      49.210  26.381  26.006  1.00  0.00     0.040 A 
ATOM     89  C   UNL A   1      48.234  27.067  23.916  1.00  0.00     0.040 A 
ATOM     90  F   UNL A   1      46.114  28.065  23.879  1.00  0.00    -0.206 F 
ATOM     91  C   UNL A   1      49.294  26.499  24.621  1.00  0.00     0.006 A 
ENDBRANCH  67  84
ENDBRANCH  41  42
ENDBRANCH  34  36
ENDBRANCH  33  34
ENDBRANCH  32  33
ENDBRANCH  31  32
ENDBRANCH  30  31
ENDBRANCH  29  30
ENDBRANCH   1  29
TORSDOF 21
ENDMDL
MODEL 3
REMARK VINA RESULT:     -10.7      4.154      9.434
REMARK SMILES CC(C)(C)Nc1ncnc(N2CCC(C(=O)OCCOCCOCCOC(=O)c3ccc(-c4c5nc(c(-c6c(F)cccc6F)c6ccc([nH]6)c(-c6c(F)cccc6F)c6nc(c(-c7c(F)cccc7F)c7ccc4[nH]7)C=C6)C=C5)cc3)CC2)c1N
REMARK SMILES IDX 21 1 20 2 19 3 18 4 17 5 15 6 16 7 14 8 11 9 12 10 84 11
REMARK SMILES IDX 13 12 83 13 10 14 6 15 7 16 85 17 8 18 9 19 5 20 2 22 1 23
REMARK SMILES IDX 3 24 4 25 86 26 22 29 23 30 24 31 25 32 26 33 27 34 28 35
REMARK SMILES IDX 29 36 30 37 82 38 31 39 81 40 32 41 33 42 34 43 75 44 35 45
REMARK SMILES IDX 80 46 74 47 76 48 36 49 79 50 73 51 72 52 37 54 63 55 46 56
REMARK SMILES IDX 62 57 47 58 50 59 61 60 77 61 48 62 49 63 60 65 78 66 51 67
REMARK SMILES IDX 38 68 39 69 44 70 40 71 41 72 43 73 45 74 42 75 64 76 65 77
REMARK SMILES IDX 70 78 66 79 67 80 69 81 71 82 68 83 52 84 53 85 58 86 54 87
REMARK SMILES IDX 55 88 57 89 59 90 56 91
REMARK H PARENT 5 21 86 27 86 28 76 53 50 64
REMARK Flexibility Score: inf
ROOT
ATOM      1  C   UNL A   1      35.057  31.583  28.552  1.00  0.00     0.188 C 
ENDROOT
BRANCH   1   2
ATOM      2  O   UNL A   1      34.446  31.244  27.317  1.00  0.00    -0.376 OA
BRANCH   2   3
ATOM      3  C   UNL A   1      33.232  30.497  27.359  1.00  0.00     0.202 C 
BRANCH   3   4
ATOM      4  C   UNL A   1      32.490  30.249  26.037  1.00  0.00     0.261 C 
BRANCH   4   5
ATOM      5  O   UNL A   1      32.546  28.897  25.540  1.00  0.00    -0.463 OA
BRANCH   5   6
ATOM      6  C   UNL A   1      31.427  28.471  24.907  1.00  0.00     0.309 C 
ATOM      7  O   UNL A   1      30.635  29.205  24.320  1.00  0.00    -0.252 OA
BRANCH   6   8
ATOM      8  C   UNL A   1      31.210  26.973  24.951  1.00  0.00     0.103 C 
ATOM      9  N   UNL A   1      32.174  24.324  25.278  1.00  0.00    -0.355 N 
ATOM     10  C   UNL A   1      31.608  24.637  23.983  1.00  0.00     0.119 C 
ATOM     11  C   UNL A   1      31.709  25.040  26.449  1.00  0.00     0.119 C 
ATOM     12  C   UNL A   1      31.643  26.145  23.731  1.00  0.00     0.037 C 
ATOM     13  C   UNL A   1      31.918  26.517  26.223  1.00  0.00     0.037 C 
BRANCH   9  14
ATOM     14  C   UNL A   1      33.051  23.261  25.401  1.00  0.00     0.157 A 
ATOM     15  C   UNL A   1      33.563  20.981  25.844  1.00  0.00     0.155 A 
ATOM     16  N   UNL A   1      34.877  21.252  25.795  1.00  0.00    -0.217 NA
ATOM     17  C   UNL A   1      32.588  21.971  25.705  1.00  0.00     0.118 A 
ATOM     18  C   UNL A   1      35.204  22.518  25.500  1.00  0.00     0.226 A 
ATOM     19  N   UNL A   1      34.361  23.529  25.255  1.00  0.00    -0.217 NA
BRANCH  15  20
ATOM     20  N   UNL A   1      33.260  19.639  26.032  1.00  0.00    -0.364 N 
ATOM     21  H   UNL A   1      33.012  19.349  26.940  1.00  0.00     0.162 HD
BRANCH  20  22
ATOM     22  C   UNL A   1      33.280  18.612  24.968  1.00  0.00     0.030 C 
ATOM     23  C   UNL A   1      34.678  18.154  24.518  1.00  0.00     0.034 C 
ATOM     24  C   UNL A   1      32.462  19.124  23.771  1.00  0.00     0.034 C 
ATOM     25  C   UNL A   1      32.558  17.366  25.523  1.00  0.00     0.034 C 
ENDBRANCH  20  22
ENDBRANCH  15  20
BRANCH  17  26
ATOM     26  N   UNL A   1      31.228  21.699  25.895  1.00  0.00    -0.393 N 
ATOM     27  H   UNL A   1      30.667  22.325  26.408  1.00  0.00     0.156 HD
ATOM     28  H   UNL A   1      30.833  20.881  25.516  1.00  0.00     0.156 HD
ENDBRANCH  17  26
ENDBRANCH   9  14
ENDBRANCH   6   8
ENDBRANCH   5   6
ENDBRANCH   4   5
ENDBRANCH   3   4
ENDBRANCH   2   3
ENDBRANCH   1   2
BRANCH   1  29
ATOM     29  C   UNL A   1      34.393  32.671  29.397  1.00  0.00     0.188 C 
BRANCH  29  30
ATOM     30  O   UNL A   1      34.760  34.005  29.112  1.00  0.00    -0.376 OA
BRANCH  30  31
ATOM     31  C   UNL A   1      33.761  34.840  28.528  1.00  0.00     0.202 C 
BRANCH  31  32
ATOM     32  C   UNL A   1      33.002  35.816  29.464  1.00  0.00     0.261 C 
BRANCH  32  33
ATOM     33  O   UNL A   1      32.330  35.257  30.618  1.00  0.00    -0.460 OA
BRANCH  33  34
ATOM     34  C   UNL A   1      32.608  35.786  31.834  1.00  0.00     0.338 C 
ATOM     35  O   UNL A   1      31.903  36.567  32.454  1.00  0.00    -0.246 OA
BRANCH  34  36
ATOM     36  C   UNL A   1      33.759  35.046  32.441  1.00  0.00     0.060 A 
ATOM     37  C   UNL A   1      35.022  35.661  32.423  1.00  0.00     0.016 A 
ATOM     38  C   UNL A   1      33.610  33.810  33.077  1.00  0.00     0.016 A 
ATOM     39  C   UNL A   1      36.141  35.023  32.975  1.00  0.00     0.010 A 
ATOM     40  C   UNL A   1      34.736  33.158  33.608  1.00  0.00     0.010 A 
ATOM     41  C   UNL A   1      36.016  33.739  33.523  1.00  0.00    -0.014 A 
BRANCH  41  42
ATOM     42  C   UNL A   1      37.229  32.906  33.766  1.00  0.00     0.031 A 
ATOM     43  C   UNL A   1      38.002  33.148  35.040  1.00  0.00     0.074 A 
ATOM     44  C   UNL A   1      37.639  31.940  32.921  1.00  0.00     0.049 A 
ATOM     45  N   UNL A   1      39.138  32.636  35.440  1.00  0.00    -0.248 NA
ATOM     46  C   UNL A   1      37.405  34.100  35.992  1.00  0.00     0.031 C 
ATOM     47  C   UNL A   1      36.957  31.531  31.698  1.00  0.00     0.029 A 
ATOM     48  N   UNL A   1      38.749  31.126  32.973  1.00  0.00    -0.354 N 
ATOM     49  C   UNL A   1      39.389  33.202  36.685  1.00  0.00     0.074 A 
ATOM     50  C   UNL A   1      38.307  34.121  36.960  1.00  0.00     0.031 C 
ATOM     51  C   UNL A   1      37.666  30.551  31.109  1.00  0.00     0.029 A 
ATOM     52  C   UNL A   1      38.875  30.289  31.890  1.00  0.00     0.049 A 
ATOM     53  H   UNL A   1      39.393  31.142  33.719  1.00  0.00     0.167 HD
ATOM     54  C   UNL A   1      40.420  32.973  37.531  1.00  0.00     0.037 A 
ATOM     55  C   UNL A   1      39.864  29.431  31.557  1.00  0.00     0.037 A 
ATOM     56  C   UNL A   1      41.505  32.066  37.266  1.00  0.00     0.049 A 
ATOM     57  C   UNL A   1      41.067  29.284  32.459  1.00  0.00     0.074 A 
ATOM     58  C   UNL A   1      42.608  31.793  38.055  1.00  0.00     0.029 A 
ATOM     59  N   UNL A   1      41.624  31.286  36.128  1.00  0.00    -0.354 N 
ATOM     60  N   UNL A   1      41.307  29.842  33.621  1.00  0.00    -0.248 NA
ATOM     61  C   UNL A   1      42.141  28.388  31.997  1.00  0.00     0.031 C 
ATOM     62  C   UNL A   1      43.418  30.881  37.374  1.00  0.00     0.029 A 
ATOM     63  C   UNL A   1      42.790  30.542  36.188  1.00  0.00     0.049 A 
ATOM     64  H   UNL A   1      40.976  31.264  35.387  1.00  0.00     0.167 HD
ATOM     65  C   UNL A   1      42.533  29.337  34.043  1.00  0.00     0.074 A 
ATOM     66  C   UNL A   1      42.983  28.419  33.021  1.00  0.00     0.031 C 
ATOM     67  C   UNL A   1      43.223  29.610  35.178  1.00  0.00     0.037 A 
BRANCH  54  68
ATOM     68  C   UNL A   1      40.436  33.721  38.832  1.00  0.00     0.057 A 
ATOM     69  C   UNL A   1      39.701  33.282  39.940  1.00  0.00     0.134 A 
ATOM     70  C   UNL A   1      41.255  34.845  39.001  1.00  0.00     0.134 A 
ATOM     71  F   UNL A   1      38.884  32.223  39.837  1.00  0.00    -0.206 F 
ATOM     72  C   UNL A   1      39.777  33.936  41.170  1.00  0.00     0.040 A 
ATOM     73  C   UNL A   1      41.361  35.491  40.233  1.00  0.00     0.040 A 
ATOM     74  F   UNL A   1      41.986  35.315  37.980  1.00  0.00    -0.206 F 
ATOM     75  C   UNL A   1      40.619  35.037  41.323  1.00  0.00     0.006 A 
ENDBRANCH  54  68
BRANCH  55  76
ATOM     76  C   UNL A   1      39.782  28.635  30.301  1.00  0.00     0.057 A 
ATOM     77  C   UNL A   1      39.144  27.388  30.273  1.00  0.00     0.134 A 
ATOM     78  C   UNL A   1      40.380  29.073  29.112  1.00  0.00     0.134 A 
ATOM     79  F   UNL A   1      38.582  26.894  31.387  1.00  0.00    -0.206 F 
ATOM     80  C   UNL A   1      39.116  26.602  29.119  1.00  0.00     0.040 A 
ATOM     81  C   UNL A   1      40.334  28.311  27.943  1.00  0.00     0.040 A 
ATOM     82  F   UNL A   1      41.019  30.252  29.071  1.00  0.00    -0.206 F 
ATOM     83  C   UNL A   1      39.707  27.067  27.947  1.00  0.00     0.006 A 
ENDBRANCH  55  76
BRANCH  67  84
ATOM     84  C   UNL A   1      44.514  28.877  35.413  1.00  0.00     0.057 A 
ATOM     85  C   UNL A   1      45.740  29.357  34.936  1.00  0.00     0.134 A 
ATOM     86  C   UNL A   1      44.538  27.707  36.185  1.00  0.00     0.134 A 
ATOM     87  F   UNL A   1      45.790  30.469  34.186  1.00  0.00    -0.206 F 
ATOM     88  C   UNL A   1      46.939  28.688  35.198  1.00  0.00     0.040 A 
ATOM     89  C   UNL A   1      45.732  27.047  36.480  1.00  0.00     0.040 A 
ATOM     90  F   UNL A   1      43.402  27.198  36.688  1.00  0.00    -0.206 F 
ATOM     91  C   UNL A   1      46.937  27.535  35.979  1.00  0.00     0.006 A 
ENDBRANCH  67  84
ENDBRANCH  41  42
ENDBRANCH  34  36
ENDBRANCH  33  34
ENDBRANCH  32  33
ENDBRANCH  31  32
ENDBRANCH  30  31
ENDBRANCH  29  30
ENDBRANCH   1  29
TORSDOF 21
ENDMDL
