MODEL 1
REMARK VINA RESULT:      -9.6      0.000      0.000
REMARK SMILES CCCCCCNC(=O)Oc1cccc(-c2ccc([C@@H](C)C(=O)OCCOCCOCCOC(=O)c3ccc(-c4c5nc(c(-c6c(F)cccc6F)c6ccc([nH]6)c(-c6c(F)cccc6F)c6nc(c(-c7c(F)cccc7F)c7ccc4[nH]7)C=C6)C=C5)cc3)cc2C)c1
REMARK SMILES IDX 25 1 24 2 22 3 23 4 20 5 21 6 19 7 16 8 17 9 91 10 18 11
REMARK SMILES IDX 90 12 92 13 15 14 11 15 12 16 93 17 13 18 14 19 10 20 8 21
REMARK SMILES IDX 7 22 9 24 6 25 5 26 4 27 3 28 2 29 1 30 26 31 27 32 28 33
REMARK SMILES IDX 29 34 30 35 31 36 32 37 33 38 34 39 35 40 36 41 37 42 89 43
REMARK SMILES IDX 38 44 88 45 39 46 40 47 41 48 82 49 42 50 87 51 81 52 83 53
REMARK SMILES IDX 43 54 86 55 80 56 79 57 44 59 70 60 53 61 69 62 54 63 57 64
REMARK SMILES IDX 68 65 84 66 55 67 56 68 67 70 85 71 58 72 45 73 46 74 51 75
REMARK SMILES IDX 47 76 48 77 50 78 52 79 49 80 71 81 72 82 77 83 73 84 74 85
REMARK SMILES IDX 76 86 78 87 75 88 59 89 60 90 65 91 61 92 62 93 64 94 66 95
REMARK SMILES IDX 63 96
REMARK H PARENT 7 23 83 58 57 69
REMARK Flexibility Score: inf
ROOT
ATOM      1  C   UNL A   1      34.095  35.110  30.350  1.00  0.00     0.261 C 
ENDROOT
BRANCH   1   2
ATOM      2  O   UNL A   1      33.885  33.752  29.898  1.00  0.00    -0.463 OA
BRANCH   2   3
ATOM      3  C   UNL A   1      34.359  33.441  28.666  1.00  0.00     0.313 C 
ATOM      4  O   UNL A   1      34.514  34.275  27.775  1.00  0.00    -0.252 OA
BRANCH   3   5
ATOM      5  C   UNL A   1      34.715  31.971  28.419  1.00  0.00     0.126 C 
ATOM      6  C   UNL A   1      36.138  31.901  27.868  1.00  0.00     0.025 C 
BRANCH   5   7
ATOM      7  C   UNL A   1      33.790  31.047  27.629  1.00  0.00    -0.034 A 
ATOM      8  C   UNL A   1      32.140  29.220  26.150  1.00  0.00    -0.015 A 
ATOM      9  C   UNL A   1      31.726  30.536  26.446  1.00  0.00     0.009 A 
ATOM     10  C   UNL A   1      33.422  28.826  26.587  1.00  0.00    -0.043 A 
ATOM     11  C   UNL A   1      32.536  31.439  27.156  1.00  0.00     0.005 A 
ATOM     12  C   UNL A   1      34.218  29.736  27.324  1.00  0.00     0.008 A 
ATOM     13  C   UNL A   1      33.993  27.456  26.321  1.00  0.00     0.045 C 
BRANCH   8  14
ATOM     14  C   UNL A   1      31.252  28.344  25.351  1.00  0.00    -0.014 A 
ATOM     15  C   UNL A   1      30.295  26.176  24.805  1.00  0.00     0.133 A 
ATOM     16  C   UNL A   1      29.625  26.712  23.707  1.00  0.00     0.047 A 
ATOM     17  C   UNL A   1      31.098  26.972  25.629  1.00  0.00     0.056 A 
ATOM     18  C   UNL A   1      29.747  28.071  23.434  1.00  0.00     0.004 A 
ATOM     19  C   UNL A   1      30.557  28.875  24.245  1.00  0.00     0.009 A 
BRANCH  15  20
ATOM     20  O   UNL A   1      30.245  24.776  24.946  1.00  0.00    -0.410 OA
BRANCH  20  21
ATOM     21  C   UNL A   1      30.880  24.198  26.031  1.00  0.00     0.412 C 
ATOM     22  N   UNL A   1      32.137  23.739  25.745  1.00  0.00    -0.321 N 
ATOM     23  H   UNL A   1      32.657  23.386  26.503  1.00  0.00     0.167 HD
ATOM     24  O   UNL A   1      30.400  24.059  27.158  1.00  0.00    -0.224 OA
BRANCH  22  25
ATOM     25  C   UNL A   1      32.787  23.716  24.448  1.00  0.00     0.119 C 
BRANCH  25  26
ATOM     26  C   UNL A   1      34.007  24.636  24.384  1.00  0.00     0.021 C 
BRANCH  26  27
ATOM     27  C   UNL A   1      34.226  25.338  23.038  1.00  0.00     0.002 C 
BRANCH  27  28
ATOM     28  C   UNL A   1      32.985  25.986  22.414  1.00  0.00    -0.000 C 
BRANCH  28  29
ATOM     29  C   UNL A   1      33.104  27.480  22.105  1.00  0.00    -0.003 C 
ATOM     30  C   UNL A   1      34.207  28.174  22.888  1.00  0.00     0.004 C 
ENDBRANCH  28  29
ENDBRANCH  27  28
ENDBRANCH  26  27
ENDBRANCH  25  26
ENDBRANCH  22  25
ENDBRANCH  20  21
ENDBRANCH  15  20
ENDBRANCH   8  14
ENDBRANCH   5   7
ENDBRANCH   3   5
ENDBRANCH   2   3
ENDBRANCH   1   2
BRANCH   1  31
ATOM     31  C   UNL A   1      33.669  35.407  31.796  1.00  0.00     0.202 C 
BRANCH  31  32
ATOM     32  O   UNL A   1      33.098  34.348  32.554  1.00  0.00    -0.376 OA
BRANCH  32  33
ATOM     33  C   UNL A   1      33.954  33.424  33.217  1.00  0.00     0.188 C 
BRANCH  33  34
ATOM     34  C   UNL A   1      35.339  33.876  33.701  1.00  0.00     0.188 C 
BRANCH  34  35
ATOM     35  O   UNL A   1      35.994  32.946  34.538  1.00  0.00    -0.376 OA
BRANCH  35  36
ATOM     36  C   UNL A   1      37.069  32.236  33.955  1.00  0.00     0.202 C 
BRANCH  36  37
ATOM     37  C   UNL A   1      37.353  32.659  32.509  1.00  0.00     0.261 C 
BRANCH  37  38
ATOM     38  O   UNL A   1      36.803  31.794  31.496  1.00  0.00    -0.460 OA
BRANCH  38  39
ATOM     39  C   UNL A   1      37.116  30.485  31.580  1.00  0.00     0.338 C 
ATOM     40  O   UNL A   1      36.354  29.552  31.809  1.00  0.00    -0.246 OA
BRANCH  39  41
ATOM     41  C   UNL A   1      38.515  30.303  31.140  1.00  0.00     0.060 A 
ATOM     42  C   UNL A   1      38.829  30.521  29.792  1.00  0.00     0.016 A 
ATOM     43  C   UNL A   1      39.502  29.897  32.037  1.00  0.00     0.016 A 
ATOM     44  C   UNL A   1      40.120  30.276  29.323  1.00  0.00     0.010 A 
ATOM     45  C   UNL A   1      40.794  29.641  31.565  1.00  0.00     0.010 A 
ATOM     46  C   UNL A   1      41.097  29.786  30.199  1.00  0.00    -0.014 A 
BRANCH  46  47
ATOM     47  C   UNL A   1      42.365  29.241  29.655  1.00  0.00     0.031 A 
ATOM     48  C   UNL A   1      43.576  30.134  29.624  1.00  0.00     0.074 A 
ATOM     49  C   UNL A   1      42.456  27.977  29.209  1.00  0.00     0.049 A 
ATOM     50  N   UNL A   1      44.778  29.898  29.163  1.00  0.00    -0.248 NA
ATOM     51  C   UNL A   1      43.401  31.484  30.184  1.00  0.00     0.031 C 
ATOM     52  C   UNL A   1      41.368  27.003  29.205  1.00  0.00     0.029 A 
ATOM     53  N   UNL A   1      43.519  27.304  28.658  1.00  0.00    -0.354 N 
ATOM     54  C   UNL A   1      45.497  31.068  29.367  1.00  0.00     0.074 A 
ATOM     55  C   UNL A   1      44.586  32.026  29.955  1.00  0.00     0.031 C 
ATOM     56  C   UNL A   1      41.813  25.860  28.654  1.00  0.00     0.029 A 
ATOM     57  C   UNL A   1      43.207  26.033  28.243  1.00  0.00     0.049 A 
ATOM     58  H   UNL A   1      44.417  27.695  28.568  1.00  0.00     0.167 HD
ATOM     59  C   UNL A   1      46.800  31.321  29.101  1.00  0.00     0.037 A 
ATOM     60  C   UNL A   1      43.951  25.124  27.585  1.00  0.00     0.037 A 
ATOM     61  C   UNL A   1      47.704  30.372  28.506  1.00  0.00     0.049 A 
ATOM     62  C   UNL A   1      45.384  25.441  27.242  1.00  0.00     0.074 A 
ATOM     63  C   UNL A   1      49.049  30.522  28.220  1.00  0.00     0.029 A 
ATOM     64  N   UNL A   1      47.347  29.097  28.089  1.00  0.00    -0.354 N 
ATOM     65  N   UNL A   1      46.069  26.534  27.477  1.00  0.00    -0.248 NA
ATOM     66  C   UNL A   1      46.149  24.394  26.550  1.00  0.00     0.031 C 
ATOM     67  C   UNL A   1      49.491  29.362  27.576  1.00  0.00     0.029 A 
ATOM     68  C   UNL A   1      48.439  28.461  27.519  1.00  0.00     0.049 A 
ATOM     69  H   UNL A   1      46.450  28.702  28.184  1.00  0.00     0.167 HD
ATOM     70  C   UNL A   1      47.348  26.298  26.987  1.00  0.00     0.074 A 
ATOM     71  C   UNL A   1      47.347  24.953  26.452  1.00  0.00     0.031 C 
ATOM     72  C   UNL A   1      48.427  27.121  26.985  1.00  0.00     0.037 A 
BRANCH  59  73
ATOM     73  C   UNL A   1      47.308  32.699  29.422  1.00  0.00     0.057 A 
ATOM     74  C   UNL A   1      47.272  33.743  28.485  1.00  0.00     0.134 A 
ATOM     75  C   UNL A   1      47.853  32.982  30.680  1.00  0.00     0.134 A 
ATOM     76  F   UNL A   1      46.777  33.537  27.255  1.00  0.00    -0.206 F 
ATOM     77  C   UNL A   1      47.798  35.003  28.776  1.00  0.00     0.040 A 
ATOM     78  C   UNL A   1      48.351  34.249  30.993  1.00  0.00     0.040 A 
ATOM     79  F   UNL A   1      47.914  32.033  31.626  1.00  0.00    -0.206 F 
ATOM     80  C   UNL A   1      48.336  35.260  30.034  1.00  0.00     0.006 A 
ENDBRANCH  59  73
BRANCH  60  81
ATOM     81  C   UNL A   1      43.343  23.826  27.194  1.00  0.00     0.057 A 
ATOM     82  C   UNL A   1      43.213  22.775  28.109  1.00  0.00     0.134 A 
ATOM     83  C   UNL A   1      42.866  23.614  25.895  1.00  0.00     0.134 A 
ATOM     84  F   UNL A   1      43.673  22.908  29.360  1.00  0.00    -0.206 F 
ATOM     85  C   UNL A   1      42.633  21.558  27.744  1.00  0.00     0.040 A 
ATOM     86  C   UNL A   1      42.261  22.413  25.524  1.00  0.00     0.040 A 
ATOM     87  F   UNL A   1      42.964  24.582  24.971  1.00  0.00    -0.206 F 
ATOM     88  C   UNL A   1      42.147  21.379  26.450  1.00  0.00     0.006 A 
ENDBRANCH  60  81
BRANCH  72  89
ATOM     89  C   UNL A   1      49.710  26.584  26.415  1.00  0.00     0.057 A 
ATOM     90  C   UNL A   1      50.110  26.850  25.099  1.00  0.00     0.134 A 
ATOM     91  C   UNL A   1      50.581  25.829  27.212  1.00  0.00     0.134 A 
ATOM     92  F   UNL A   1      49.320  27.558  24.278  1.00  0.00    -0.206 F 
ATOM     93  C   UNL A   1      51.317  26.365  24.590  1.00  0.00     0.040 A 
ATOM     94  C   UNL A   1      51.804  25.364  26.724  1.00  0.00     0.040 A 
ATOM     95  F   UNL A   1      50.267  25.546  28.486  1.00  0.00    -0.206 F 
ATOM     96  C   UNL A   1      52.171  25.626  25.407  1.00  0.00     0.006 A 
ENDBRANCH  72  89
ENDBRANCH  46  47
ENDBRANCH  39  41
ENDBRANCH  38  39
ENDBRANCH  37  38
ENDBRANCH  36  37
ENDBRANCH  35  36
ENDBRANCH  34  35
ENDBRANCH  33  34
ENDBRANCH  32  33
ENDBRANCH  31  32
ENDBRANCH   1  31
TORSDOF 26
ENDMDL
MODEL 2
REMARK VINA RESULT:      -9.6      1.492      6.296
REMARK SMILES CCCCCCNC(=O)Oc1cccc(-c2ccc([C@@H](C)C(=O)OCCOCCOCCOC(=O)c3ccc(-c4c5nc(c(-c6c(F)cccc6F)c6ccc([nH]6)c(-c6c(F)cccc6F)c6nc(c(-c7c(F)cccc7F)c7ccc4[nH]7)C=C6)C=C5)cc3)cc2C)c1
REMARK SMILES IDX 25 1 24 2 22 3 23 4 20 5 21 6 19 7 16 8 17 9 91 10 18 11
REMARK SMILES IDX 90 12 92 13 15 14 11 15 12 16 93 17 13 18 14 19 10 20 8 21
REMARK SMILES IDX 7 22 9 24 6 25 5 26 4 27 3 28 2 29 1 30 26 31 27 32 28 33
REMARK SMILES IDX 29 34 30 35 31 36 32 37 33 38 34 39 35 40 36 41 37 42 89 43
REMARK SMILES IDX 38 44 88 45 39 46 40 47 41 48 82 49 42 50 87 51 81 52 83 53
REMARK SMILES IDX 43 54 86 55 80 56 79 57 44 59 70 60 53 61 69 62 54 63 57 64
REMARK SMILES IDX 68 65 84 66 55 67 56 68 67 70 85 71 58 72 45 73 46 74 51 75
REMARK SMILES IDX 47 76 48 77 50 78 52 79 49 80 71 81 72 82 77 83 73 84 74 85
REMARK SMILES IDX 76 86 78 87 75 88 59 89 60 90 65 91 61 92 62 93 64 94 66 95
REMARK SMILES IDX 63 96
REMARK H PARENT 7 23 83 58 57 69
REMARK Flexibility Score: inf
ROOT
ATOM      1  C   UNL A   1      33.117  35.904  30.081  1.00  0.00     0.261 C 
ENDROOT
BRANCH   1   2
ATOM      2  O   UNL A   1      33.259  34.520  29.687  1.00  0.00    -0.463 OA
BRANCH   2   3
ATOM      3  C   UNL A   1      34.175  34.253  28.723  1.00  0.00     0.313 C 
ATOM      4  O   UNL A   1      34.377  34.996  27.763  1.00  0.00    -0.252 OA
BRANCH   3   5
ATOM      5  C   UNL A   1      34.981  32.960  28.882  1.00  0.00     0.126 C 
ATOM      6  C   UNL A   1      36.464  33.286  28.708  1.00  0.00     0.025 C 
BRANCH   5   7
ATOM      7  C   UNL A   1      34.618  31.692  28.109  1.00  0.00    -0.034 A 
ATOM      8  C   UNL A   1      33.821  29.360  26.636  1.00  0.00    -0.015 A 
ATOM      9  C   UNL A   1      35.093  29.471  27.236  1.00  0.00     0.009 A 
ATOM     10  C   UNL A   1      32.924  30.436  26.804  1.00  0.00    -0.043 A 
ATOM     11  C   UNL A   1      35.483  30.604  27.971  1.00  0.00     0.005 A 
ATOM     12  C   UNL A   1      33.338  31.582  27.524  1.00  0.00     0.008 A 
ATOM     13  C   UNL A   1      31.529  30.436  26.231  1.00  0.00     0.045 C 
BRANCH   8  14
ATOM     14  C   UNL A   1      33.464  28.112  25.922  1.00  0.00    -0.014 A 
ATOM     15  C   UNL A   1      32.096  26.843  24.363  1.00  0.00     0.133 A 
ATOM     16  C   UNL A   1      32.766  25.664  24.683  1.00  0.00     0.047 A 
ATOM     17  C   UNL A   1      32.434  28.060  24.964  1.00  0.00     0.056 A 
ATOM     18  C   UNL A   1      33.804  25.704  25.609  1.00  0.00     0.004 A 
ATOM     19  C   UNL A   1      34.143  26.914  26.225  1.00  0.00     0.009 A 
BRANCH  15  20
ATOM     20  O   UNL A   1      30.969  26.715  23.528  1.00  0.00    -0.410 OA
BRANCH  20  21
ATOM     21  C   UNL A   1      31.088  27.073  22.197  1.00  0.00     0.412 C 
ATOM     22  N   UNL A   1      30.649  28.341  21.933  1.00  0.00    -0.321 N 
ATOM     23  H   UNL A   1      30.782  28.668  21.014  1.00  0.00     0.167 HD
ATOM     24  O   UNL A   1      31.514  26.352  21.293  1.00  0.00    -0.224 OA
BRANCH  22  25
ATOM     25  C   UNL A   1      30.011  29.259  22.859  1.00  0.00     0.119 C 
BRANCH  25  26
ATOM     26  C   UNL A   1      28.502  29.036  22.963  1.00  0.00     0.021 C 
BRANCH  26  27
ATOM     27  C   UNL A   1      27.638  30.267  22.662  1.00  0.00     0.002 C 
BRANCH  27  28
ATOM     28  C   UNL A   1      27.967  31.012  21.363  1.00  0.00    -0.000 C 
BRANCH  28  29
ATOM     29  C   UNL A   1      28.426  32.463  21.531  1.00  0.00    -0.003 C 
ATOM     30  C   UNL A   1      28.712  32.844  22.975  1.00  0.00     0.004 C 
ENDBRANCH  28  29
ENDBRANCH  27  28
ENDBRANCH  26  27
ENDBRANCH  25  26
ENDBRANCH  22  25
ENDBRANCH  20  21
ENDBRANCH  15  20
ENDBRANCH   8  14
ENDBRANCH   5   7
ENDBRANCH   3   5
ENDBRANCH   2   3
ENDBRANCH   1   2
BRANCH   1  31
ATOM     31  C   UNL A   1      32.475  36.145  31.456  1.00  0.00     0.202 C 
BRANCH  31  32
ATOM     32  O   UNL A   1      33.187  35.716  32.609  1.00  0.00    -0.376 OA
BRANCH  32  33
ATOM     33  C   UNL A   1      34.169  34.693  32.483  1.00  0.00     0.188 C 
BRANCH  33  34
ATOM     34  C   UNL A   1      35.068  34.346  33.678  1.00  0.00     0.188 C 
BRANCH  34  35
ATOM     35  O   UNL A   1      36.330  34.979  33.658  1.00  0.00    -0.376 OA
BRANCH  35  36
ATOM     36  C   UNL A   1      37.441  34.143  33.393  1.00  0.00     0.202 C 
BRANCH  36  37
ATOM     37  C   UNL A   1      37.045  32.681  33.153  1.00  0.00     0.261 C 
BRANCH  37  38
ATOM     38  O   UNL A   1      37.381  32.158  31.853  1.00  0.00    -0.460 OA
BRANCH  38  39
ATOM     39  C   UNL A   1      37.064  30.869  31.616  1.00  0.00     0.338 C 
ATOM     40  O   UNL A   1      35.968  30.337  31.753  1.00  0.00    -0.246 OA
BRANCH  39  41
ATOM     41  C   UNL A   1      38.209  30.215  30.951  1.00  0.00     0.060 A 
ATOM     42  C   UNL A   1      39.055  29.400  31.715  1.00  0.00     0.016 A 
ATOM     43  C   UNL A   1      38.466  30.422  29.595  1.00  0.00     0.016 A 
ATOM     44  C   UNL A   1      40.195  28.836  31.141  1.00  0.00     0.010 A 
ATOM     45  C   UNL A   1      39.614  29.865  29.022  1.00  0.00     0.010 A 
ATOM     46  C   UNL A   1      40.507  29.107  29.803  1.00  0.00    -0.014 A 
BRANCH  46  47
ATOM     47  C   UNL A   1      41.853  28.769  29.279  1.00  0.00     0.031 A 
ATOM     48  C   UNL A   1      42.089  27.380  28.749  1.00  0.00     0.074 A 
ATOM     49  C   UNL A   1      42.847  29.672  29.253  1.00  0.00     0.049 A 
ATOM     50  N   UNL A   1      43.185  26.841  28.278  1.00  0.00    -0.248 NA
ATOM     51  C   UNL A   1      40.929  26.474  28.763  1.00  0.00     0.031 C 
ATOM     52  C   UNL A   1      42.745  31.054  29.713  1.00  0.00     0.029 A 
ATOM     53  N   UNL A   1      44.149  29.548  28.834  1.00  0.00    -0.354 N 
ATOM     54  C   UNL A   1      42.849  25.533  27.950  1.00  0.00     0.074 A 
ATOM     55  C   UNL A   1      41.461  25.349  28.314  1.00  0.00     0.031 C 
ATOM     56  C   UNL A   1      43.943  31.648  29.571  1.00  0.00     0.029 A 
ATOM     57  C   UNL A   1      44.901  30.678  29.038  1.00  0.00     0.049 A 
ATOM     58  H   UNL A   1      44.509  28.727  28.427  1.00  0.00     0.167 HD
ATOM     59  C   UNL A   1      43.622  24.575  27.386  1.00  0.00     0.037 A 
ATOM     60  C   UNL A   1      46.216  30.897  28.843  1.00  0.00     0.037 A 
ATOM     61  C   UNL A   1      45.006  24.755  27.034  1.00  0.00     0.049 A 
ATOM     62  C   UNL A   1      47.077  29.802  28.270  1.00  0.00     0.074 A 
ATOM     63  C   UNL A   1      45.868  23.854  26.434  1.00  0.00     0.029 A 
ATOM     64  N   UNL A   1      45.736  25.912  27.267  1.00  0.00    -0.354 N 
ATOM     65  N   UNL A   1      46.742  28.583  27.921  1.00  0.00    -0.248 NA
ATOM     66  C   UNL A   1      48.496  30.117  28.053  1.00  0.00     0.031 C 
ATOM     67  C   UNL A   1      47.134  24.444  26.360  1.00  0.00     0.029 A 
ATOM     68  C   UNL A   1      47.047  25.737  26.852  1.00  0.00     0.049 A 
ATOM     69  H   UNL A   1      45.376  26.735  27.669  1.00  0.00     0.167 HD
ATOM     70  C   UNL A   1      47.900  27.995  27.424  1.00  0.00     0.074 A 
ATOM     71  C   UNL A   1      48.942  28.996  27.504  1.00  0.00     0.031 C 
ATOM     72  C   UNL A   1      48.080  26.740  26.940  1.00  0.00     0.037 A 
BRANCH  59  73
ATOM     73  C   UNL A   1      42.985  23.233  27.153  1.00  0.00     0.057 A 
ATOM     74  C   UNL A   1      42.763  22.323  28.197  1.00  0.00     0.134 A 
ATOM     75  C   UNL A   1      42.601  22.841  25.865  1.00  0.00     0.134 A 
ATOM     76  F   UNL A   1      43.121  22.628  29.454  1.00  0.00    -0.206 F 
ATOM     77  C   UNL A   1      42.222  21.058  27.961  1.00  0.00     0.040 A 
ATOM     78  C   UNL A   1      42.029  21.591  25.622  1.00  0.00     0.040 A 
ATOM     79  F   UNL A   1      42.779  23.663  24.820  1.00  0.00    -0.206 F 
ATOM     80  C   UNL A   1      41.850  20.691  26.670  1.00  0.00     0.006 A 
ENDBRANCH  59  73
BRANCH  60  81
ATOM     81  C   UNL A   1      46.799  32.213  29.209  1.00  0.00     0.057 A 
ATOM     82  C   UNL A   1      47.318  32.452  30.487  1.00  0.00     0.134 A 
ATOM     83  C   UNL A   1      46.863  33.259  28.280  1.00  0.00     0.134 A 
ATOM     84  F   UNL A   1      47.263  31.499  31.427  1.00  0.00    -0.206 F 
ATOM     85  C   UNL A   1      47.875  33.687  30.828  1.00  0.00     0.040 A 
ATOM     86  C   UNL A   1      47.440  34.488  28.600  1.00  0.00     0.040 A 
ATOM     87  F   UNL A   1      46.381  33.093  27.040  1.00  0.00    -0.206 F 
ATOM     88  C   UNL A   1      47.945  34.706  29.880  1.00  0.00     0.006 A 
ENDBRANCH  60  81
BRANCH  72  89
ATOM     89  C   UNL A   1      49.447  26.382  26.426  1.00  0.00     0.057 A 
ATOM     90  C   UNL A   1      49.871  26.726  25.136  1.00  0.00     0.134 A 
ATOM     91  C   UNL A   1      50.368  25.728  27.254  1.00  0.00     0.134 A 
ATOM     92  F   UNL A   1      49.036  27.345  24.288  1.00  0.00    -0.206 F 
ATOM     93  C   UNL A   1      51.153  26.409  24.680  1.00  0.00     0.040 A 
ATOM     94  C   UNL A   1      51.663  25.432  26.820  1.00  0.00     0.040 A 
ATOM     95  F   UNL A   1      50.034  25.379  28.506  1.00  0.00    -0.206 F 
ATOM     96  C   UNL A   1      52.055  25.767  25.526  1.00  0.00     0.006 A 
ENDBRANCH  72  89
ENDBRANCH  46  47
ENDBRANCH  39  41
ENDBRANCH  38  39
ENDBRANCH  37  38
ENDBRANCH  36  37
ENDBRANCH  35  36
ENDBRANCH  34  35
ENDBRANCH  33  34
ENDBRANCH  32  33
ENDBRANCH  31  32
ENDBRANCH   1  31
TORSDOF 26
ENDMDL
MODEL 3
REMARK VINA RESULT:      -9.1      0.992      5.873
REMARK SMILES CCCCCCNC(=O)Oc1cccc(-c2ccc([C@@H](C)C(=O)OCCOCCOCCOC(=O)c3ccc(-c4c5nc(c(-c6c(F)cccc6F)c6ccc([nH]6)c(-c6c(F)cccc6F)c6nc(c(-c7c(F)cccc7F)c7ccc4[nH]7)C=C6)C=C5)cc3)cc2C)c1
REMARK SMILES IDX 25 1 24 2 22 3 23 4 20 5 21 6 19 7 16 8 17 9 91 10 18 11
REMARK SMILES IDX 90 12 92 13 15 14 11 15 12 16 93 17 13 18 14 19 10 20 8 21
REMARK SMILES IDX 7 22 9 24 6 25 5 26 4 27 3 28 2 29 1 30 26 31 27 32 28 33
REMARK SMILES IDX 29 34 30 35 31 36 32 37 33 38 34 39 35 40 36 41 37 42 89 43
REMARK SMILES IDX 38 44 88 45 39 46 40 47 41 48 82 49 42 50 87 51 81 52 83 53
REMARK SMILES IDX 43 54 86 55 80 56 79 57 44 59 70 60 53 61 69 62 54 63 57 64
REMARK SMILES IDX 68 65 84 66 55 67 56 68 67 70 85 71 58 72 45 73 46 74 51 75
REMARK SMILES IDX 47 76 48 77 50 78 52 79 49 80 71 81 72 82 77 83 73 84 74 85
REMARK SMILES IDX 76 86 78 87 75 88 59 89 60 90 65 91 61 92 62 93 64 94 66 95
REMARK SMILES IDX 63 96
REMARK H PARENT 7 23 83 58 57 69
REMARK Flexibility Score: inf
ROOT
ATOM      1  C   UNL A   1      33.777  35.483  30.176  1.00  0.00     0.261 C 
ENDROOT
BRANCH   1   2
ATOM      2  O   UNL A   1      34.245  34.141  29.909  1.00  0.00    -0.463 OA
BRANCH   2   3
ATOM      3  C   UNL A   1      33.740  33.529  28.809  1.00  0.00     0.313 C 
ATOM      4  O   UNL A   1      32.852  34.021  28.114  1.00  0.00    -0.252 OA
BRANCH   3   5
ATOM      5  C   UNL A   1      34.341  32.166  28.446  1.00  0.00     0.126 C 
ATOM      6  C   UNL A   1      35.732  32.390  27.857  1.00  0.00     0.025 C 
BRANCH   5   7
ATOM      7  C   UNL A   1      33.564  31.148  27.612  1.00  0.00    -0.034 A 
ATOM      8  C   UNL A   1      32.207  29.157  26.050  1.00  0.00    -0.015 A 
ATOM      9  C   UNL A   1      31.607  30.390  26.382  1.00  0.00     0.009 A 
ATOM     10  C   UNL A   1      33.528  28.934  26.494  1.00  0.00    -0.043 A 
ATOM     11  C   UNL A   1      32.273  31.374  27.133  1.00  0.00     0.005 A 
ATOM     12  C   UNL A   1      34.177  29.922  27.272  1.00  0.00     0.008 A 
ATOM     13  C   UNL A   1      34.290  27.668  26.193  1.00  0.00     0.045 C 
BRANCH   8  14
ATOM     14  C   UNL A   1      31.461  28.191  25.209  1.00  0.00    -0.014 A 
ATOM     15  C   UNL A   1      30.375  26.046  24.847  1.00  0.00     0.133 A 
ATOM     16  C   UNL A   1      30.142  26.353  23.508  1.00  0.00     0.047 A 
ATOM     17  C   UNL A   1      31.021  26.948  25.700  1.00  0.00     0.056 A 
ATOM     18  C   UNL A   1      30.549  27.589  23.015  1.00  0.00     0.004 A 
ATOM     19  C   UNL A   1      31.207  28.494  23.856  1.00  0.00     0.009 A 
BRANCH  15  20
ATOM     20  O   UNL A   1      30.067  24.733  25.251  1.00  0.00    -0.410 OA
BRANCH  20  21
ATOM     21  C   UNL A   1      31.007  24.029  25.983  1.00  0.00     0.412 C 
ATOM     22  N   UNL A   1      31.794  23.214  25.216  1.00  0.00    -0.321 N 
ATOM     23  H   UNL A   1      32.526  22.748  25.682  1.00  0.00     0.167 HD
ATOM     24  O   UNL A   1      31.148  24.072  27.206  1.00  0.00    -0.224 OA
BRANCH  22  25
ATOM     25  C   UNL A   1      31.669  22.961  23.793  1.00  0.00     0.119 C 
BRANCH  25  26
ATOM     26  C   UNL A   1      32.905  22.280  23.205  1.00  0.00     0.021 C 
BRANCH  26  27
ATOM     27  C   UNL A   1      34.186  22.416  24.038  1.00  0.00     0.002 C 
BRANCH  27  28
ATOM     28  C   UNL A   1      35.370  23.089  23.335  1.00  0.00    -0.000 C 
BRANCH  28  29
ATOM     29  C   UNL A   1      36.735  22.883  23.997  1.00  0.00    -0.003 C 
ATOM     30  C   UNL A   1      36.923  23.703  25.264  1.00  0.00     0.004 C 
ENDBRANCH  28  29
ENDBRANCH  27  28
ENDBRANCH  26  27
ENDBRANCH  25  26
ENDBRANCH  22  25
ENDBRANCH  20  21
ENDBRANCH  15  20
ENDBRANCH   8  14
ENDBRANCH   5   7
ENDBRANCH   3   5
ENDBRANCH   2   3
ENDBRANCH   1   2
BRANCH   1  31
ATOM     31  C   UNL A   1      33.560  35.834  31.656  1.00  0.00     0.202 C 
BRANCH  31  32
ATOM     32  O   UNL A   1      32.903  34.878  32.478  1.00  0.00    -0.376 OA
BRANCH  32  33
ATOM     33  C   UNL A   1      33.680  33.959  33.237  1.00  0.00     0.188 C 
BRANCH  33  34
ATOM     34  C   UNL A   1      35.070  34.369  33.744  1.00  0.00     0.188 C 
BRANCH  34  35
ATOM     35  O   UNL A   1      35.616  33.497  34.711  1.00  0.00    -0.376 OA
BRANCH  35  36
ATOM     36  C   UNL A   1      36.653  32.645  34.265  1.00  0.00     0.202 C 
BRANCH  36  37
ATOM     37  C   UNL A   1      37.059  32.908  32.810  1.00  0.00     0.261 C 
BRANCH  37  38
ATOM     38  O   UNL A   1      36.512  31.989  31.843  1.00  0.00    -0.460 OA
BRANCH  38  39
ATOM     39  C   UNL A   1      36.967  30.720  31.886  1.00  0.00     0.338 C 
ATOM     40  O   UNL A   1      36.332  29.714  32.182  1.00  0.00    -0.246 OA
BRANCH  39  41
ATOM     41  C   UNL A   1      38.326  30.685  31.309  1.00  0.00     0.060 A 
ATOM     42  C   UNL A   1      38.472  30.829  29.923  1.00  0.00     0.016 A 
ATOM     43  C   UNL A   1      39.444  30.485  32.118  1.00  0.00     0.016 A 
ATOM     44  C   UNL A   1      39.731  30.714  29.333  1.00  0.00     0.010 A 
ATOM     45  C   UNL A   1      40.705  30.359  31.526  1.00  0.00     0.010 A 
ATOM     46  C   UNL A   1      40.848  30.429  30.128  1.00  0.00    -0.014 A 
BRANCH  46  47
ATOM     47  C   UNL A   1      42.119  30.009  29.487  1.00  0.00     0.031 A 
ATOM     48  C   UNL A   1      42.249  28.585  29.017  1.00  0.00     0.074 A 
ATOM     49  C   UNL A   1      43.135  30.868  29.305  1.00  0.00     0.049 A 
ATOM     50  N   UNL A   1      43.269  27.977  28.466  1.00  0.00    -0.248 NA
ATOM     51  C   UNL A   1      41.067  27.729  29.204  1.00  0.00     0.031 C 
ATOM     52  C   UNL A   1      43.129  32.277  29.692  1.00  0.00     0.029 A 
ATOM     53  N   UNL A   1      44.380  30.670  28.760  1.00  0.00    -0.354 N 
ATOM     54  C   UNL A   1      42.856  26.669  28.251  1.00  0.00     0.074 A 
ATOM     55  C   UNL A   1      41.509  26.561  28.768  1.00  0.00     0.031 C 
ATOM     56  C   UNL A   1      44.325  32.813  29.391  1.00  0.00     0.029 A 
ATOM     57  C   UNL A   1      45.187  31.778  28.819  1.00  0.00     0.049 A 
ATOM     58  H   UNL A   1      44.665  29.815  28.366  1.00  0.00     0.167 HD
ATOM     59  C   UNL A   1      43.530  25.651  27.666  1.00  0.00     0.037 A 
ATOM     60  C   UNL A   1      46.480  31.934  28.475  1.00  0.00     0.037 A 
ATOM     61  C   UNL A   1      44.874  25.756  27.161  1.00  0.00     0.049 A 
ATOM     62  C   UNL A   1      47.237  30.775  27.879  1.00  0.00     0.074 A 
ATOM     63  C   UNL A   1      45.637  24.790  26.528  1.00  0.00     0.029 A 
ATOM     64  N   UNL A   1      45.664  26.893  27.249  1.00  0.00    -0.354 N 
ATOM     65  N   UNL A   1      46.826  29.553  27.639  1.00  0.00    -0.248 NA
ATOM     66  C   UNL A   1      48.636  31.021  27.497  1.00  0.00     0.031 C 
ATOM     67  C   UNL A   1      46.907  25.324  26.287  1.00  0.00     0.029 A 
ATOM     68  C   UNL A   1      46.917  26.644  26.710  1.00  0.00     0.049 A 
ATOM     69  H   UNL A   1      45.377  27.751  27.638  1.00  0.00     0.167 HD
ATOM     70  C   UNL A   1      47.903  28.893  27.058  1.00  0.00     0.074 A 
ATOM     71  C   UNL A   1      48.982  29.854  26.970  1.00  0.00     0.031 C 
ATOM     72  C   UNL A   1      47.987  27.608  26.631  1.00  0.00     0.037 A 
BRANCH  59  73
ATOM     73  C   UNL A   1      42.827  24.325  27.579  1.00  0.00     0.057 A 
ATOM     74  C   UNL A   1      42.039  23.971  26.475  1.00  0.00     0.134 A 
ATOM     75  C   UNL A   1      42.929  23.396  28.622  1.00  0.00     0.134 A 
ATOM     76  F   UNL A   1      41.885  24.819  25.447  1.00  0.00    -0.206 F 
ATOM     77  C   UNL A   1      41.345  22.760  26.431  1.00  0.00     0.040 A 
ATOM     78  C   UNL A   1      42.266  22.168  28.574  1.00  0.00     0.040 A 
ATOM     79  F   UNL A   1      43.671  23.667  29.707  1.00  0.00    -0.206 F 
ATOM     80  C   UNL A   1      41.462  21.853  27.482  1.00  0.00     0.006 A 
ENDBRANCH  59  73
BRANCH  60  81
ATOM     81  C   UNL A   1      47.144  33.242  28.701  1.00  0.00     0.057 A 
ATOM     82  C   UNL A   1      47.767  33.546  29.917  1.00  0.00     0.134 A 
ATOM     83  C   UNL A   1      47.182  34.217  27.695  1.00  0.00     0.134 A 
ATOM     84  F   UNL A   1      47.743  32.664  30.926  1.00  0.00    -0.206 F 
ATOM     85  C   UNL A   1      48.399  34.774  30.127  1.00  0.00     0.040 A 
ATOM     86  C   UNL A   1      47.833  35.437  27.883  1.00  0.00     0.040 A 
ATOM     87  F   UNL A   1      46.602  33.987  26.508  1.00  0.00    -0.206 F 
ATOM     88  C   UNL A   1      48.441  35.719  29.103  1.00  0.00     0.006 A 
ENDBRANCH  60  81
BRANCH  72  89
ATOM     89  C   UNL A   1      49.279  27.168  25.999  1.00  0.00     0.057 A 
ATOM     90  C   UNL A   1      50.336  26.645  26.754  1.00  0.00     0.134 A 
ATOM     91  C   UNL A   1      49.446  27.225  24.610  1.00  0.00     0.134 A 
ATOM     92  F   UNL A   1      50.247  26.570  28.090  1.00  0.00    -0.206 F 
ATOM     93  C   UNL A   1      51.522  26.217  26.152  1.00  0.00     0.040 A 
ATOM     94  C   UNL A   1      50.615  26.774  23.993  1.00  0.00     0.040 A 
ATOM     95  F   UNL A   1      48.470  27.705  23.824  1.00  0.00    -0.206 F 
ATOM     96  C   UNL A   1      51.660  26.274  24.766  1.00  0.00     0.006 A 
ENDBRANCH  72  89
ENDBRANCH  46  47
ENDBRANCH  39  41
ENDBRANCH  38  39
ENDBRANCH  37  38
ENDBRANCH  36  37
ENDBRANCH  35  36
ENDBRANCH  34  35
ENDBRANCH  33  34
ENDBRANCH  32  33
ENDBRANCH  31  32
ENDBRANCH   1  31
TORSDOF 26
ENDMDL
