MODEL 1
REMARK VINA RESULT:      -9.4      0.000      0.000
REMARK SMILES COc1ccc(OC)c([C@@](C)(O)[C@H](F)C(=O)OCCOCCOCCOC(=O)c2ccc(-c3c4nc(c(-c5c(F)cccc5F)c5ccc([nH]5)c(-c5c(F)cccc5F)c5nc(c(-c6c(F)cccc6F)c6ccc3[nH]6)C=C5)C=C4)cc2)c1
REMARK SMILES IDX 21 1 20 2 19 3 18 4 17 5 15 6 16 7 13 8 14 9 10 10 11 11
REMARK SMILES IDX 9 12 3 13 4 14 83 15 5 16 6 17 2 18 1 19 7 20 8 21 12 22
REMARK SMILES IDX 22 24 23 25 24 26 25 27 26 28 27 29 28 30 29 31 30 32 82 33
REMARK SMILES IDX 31 34 81 35 32 36 33 37 34 38 75 39 35 40 80 41 74 42 76 43
REMARK SMILES IDX 36 44 79 45 73 46 72 47 37 49 63 50 46 51 62 52 47 53 50 54
REMARK SMILES IDX 61 55 77 56 48 57 49 58 60 60 78 61 51 62 38 63 39 64 44 65
REMARK SMILES IDX 40 66 41 67 43 68 45 69 42 70 64 71 65 72 70 73 66 74 67 75
REMARK SMILES IDX 69 76 71 77 68 78 52 79 53 80 58 81 54 82 55 83 57 84 59 85
REMARK SMILES IDX 56 86
REMARK H PARENT 12 23 76 48 50 59
REMARK Flexibility Score: inf
ROOT
ATOM      1  C   UNL A   1      41.234  21.517  26.252  1.00  0.00     0.188 C 
ENDROOT
BRANCH   1   2
ATOM      2  O   UNL A   1      39.927  22.067  26.209  1.00  0.00    -0.376 OA
BRANCH   2   3
ATOM      3  C   UNL A   1      39.557  23.170  27.028  1.00  0.00     0.202 C 
BRANCH   3   4
ATOM      4  C   UNL A   1      38.561  24.239  26.559  1.00  0.00     0.261 C 
BRANCH   4   5
ATOM      5  O   UNL A   1      37.727  23.839  25.466  1.00  0.00    -0.461 OA
BRANCH   5   6
ATOM      6  C   UNL A   1      36.431  23.580  25.781  1.00  0.00     0.344 C 
ATOM      7  O   UNL A   1      35.540  24.420  25.751  1.00  0.00    -0.249 OA
BRANCH   6   8
ATOM      8  C   UNL A   1      36.204  22.102  26.080  1.00  0.00     0.311 C 
ATOM      9  F   UNL A   1      35.055  21.886  26.807  1.00  0.00    -0.231 F 
BRANCH   8  10
ATOM     10  C   UNL A   1      36.096  21.263  24.793  1.00  0.00     0.133 C 
ATOM     11  C   UNL A   1      37.376  20.390  24.797  1.00  0.00     0.051 C 
BRANCH  10  12
ATOM     12  C   UNL A   1      34.782  20.488  24.621  1.00  0.00     0.033 A 
ATOM     13  C   UNL A   1      33.644  18.312  24.379  1.00  0.00     0.119 A 
ATOM     14  C   UNL A   1      32.519  18.966  23.894  1.00  0.00     0.050 A 
ATOM     15  C   UNL A   1      34.737  19.076  24.794  1.00  0.00     0.057 A 
ATOM     16  C   UNL A   1      32.478  20.359  23.854  1.00  0.00     0.050 A 
ATOM     17  C   UNL A   1      33.584  21.119  24.244  1.00  0.00     0.125 A 
BRANCH  13  18
ATOM     18  O   UNL A   1      33.566  16.947  24.359  1.00  0.00    -0.497 OA
ATOM     19  C   UNL A   1      34.589  16.198  25.007  1.00  0.00     0.278 C 
ENDBRANCH  13  18
BRANCH  17  20
ATOM     20  O   UNL A   1      33.422  22.472  24.122  1.00  0.00    -0.496 OA
ATOM     21  C   UNL A   1      32.815  22.876  22.891  1.00  0.00     0.278 C 
ENDBRANCH  17  20
ENDBRANCH  10  12
BRANCH  10  22
ATOM     22  O   UNL A   1      36.173  22.196  23.693  1.00  0.00    -0.382 OA
ATOM     23  H   UNL A   1      36.333  23.089  24.037  1.00  0.00     0.212 HD
ENDBRANCH  10  22
ENDBRANCH   8  10
ENDBRANCH   6   8
ENDBRANCH   5   6
ENDBRANCH   4   5
ENDBRANCH   3   4
ENDBRANCH   2   3
ENDBRANCH   1   2
BRANCH   1  24
ATOM     24  C   UNL A   1      41.778  20.880  27.543  1.00  0.00     0.188 C 
BRANCH  24  25
ATOM     25  O   UNL A   1      42.239  19.563  27.417  1.00  0.00    -0.376 OA
BRANCH  25  26
ATOM     26  C   UNL A   1      42.243  18.954  26.137  1.00  0.00     0.202 C 
BRANCH  26  27
ATOM     27  C   UNL A   1      43.491  18.362  25.435  1.00  0.00     0.261 C 
BRANCH  27  28
ATOM     28  O   UNL A   1      43.944  18.952  24.207  1.00  0.00    -0.460 OA
BRANCH  28  29
ATOM     29  C   UNL A   1      45.161  19.557  24.234  1.00  0.00     0.338 C 
ATOM     30  O   UNL A   1      46.200  19.144  23.762  1.00  0.00    -0.246 OA
BRANCH  29  31
ATOM     31  C   UNL A   1      44.980  20.941  24.736  1.00  0.00     0.060 A 
ATOM     32  C   UNL A   1      44.563  21.941  23.842  1.00  0.00     0.016 A 
ATOM     33  C   UNL A   1      45.226  21.253  26.072  1.00  0.00     0.016 A 
ATOM     34  C   UNL A   1      44.409  23.259  24.279  1.00  0.00     0.010 A 
ATOM     35  C   UNL A   1      45.103  22.579  26.501  1.00  0.00     0.010 A 
ATOM     36  C   UNL A   1      44.723  23.593  25.602  1.00  0.00    -0.014 A 
BRANCH  36  37
ATOM     37  C   UNL A   1      44.863  25.017  26.000  1.00  0.00     0.031 A 
ATOM     38  C   UNL A   1      46.222  25.655  25.885  1.00  0.00     0.074 A 
ATOM     39  C   UNL A   1      43.823  25.733  26.462  1.00  0.00     0.049 A 
ATOM     40  N   UNL A   1      46.620  26.844  26.259  1.00  0.00    -0.248 NA
ATOM     41  C   UNL A   1      47.275  24.831  25.269  1.00  0.00     0.031 C 
ATOM     42  C   UNL A   1      42.447  25.256  26.577  1.00  0.00     0.029 A 
ATOM     43  N   UNL A   1      43.774  27.020  26.940  1.00  0.00    -0.354 N 
ATOM     44  C   UNL A   1      47.973  26.902  25.945  1.00  0.00     0.074 A 
ATOM     45  C   UNL A   1      48.331  25.624  25.372  1.00  0.00     0.031 C 
ATOM     46  C   UNL A   1      41.690  26.234  27.106  1.00  0.00     0.029 A 
ATOM     47  C   UNL A   1      42.536  27.390  27.405  1.00  0.00     0.049 A 
ATOM     48  H   UNL A   1      44.555  27.621  26.949  1.00  0.00     0.167 HD
ATOM     49  C   UNL A   1      48.839  27.928  26.119  1.00  0.00     0.037 A 
ATOM     50  C   UNL A   1      42.141  28.520  28.026  1.00  0.00     0.037 A 
ATOM     51  C   UNL A   1      48.484  29.200  26.691  1.00  0.00     0.049 A 
ATOM     52  C   UNL A   1      43.144  29.616  28.287  1.00  0.00     0.074 A 
ATOM     53  C   UNL A   1      49.284  30.313  26.880  1.00  0.00     0.029 A 
ATOM     54  N   UNL A   1      47.227  29.522  27.182  1.00  0.00    -0.354 N 
ATOM     55  N   UNL A   1      44.413  29.677  27.961  1.00  0.00    -0.248 NA
ATOM     56  C   UNL A   1      42.658  30.801  29.010  1.00  0.00     0.031 C 
ATOM     57  C   UNL A   1      48.529  31.284  27.545  1.00  0.00     0.029 A 
ATOM     58  C   UNL A   1      47.240  30.803  27.707  1.00  0.00     0.049 A 
ATOM     59  H   UNL A   1      46.443  28.927  27.161  1.00  0.00     0.167 HD
ATOM     60  C   UNL A   1      44.864  30.917  28.400  1.00  0.00     0.074 A 
ATOM     61  C   UNL A   1      43.731  31.580  29.011  1.00  0.00     0.031 C 
ATOM     62  C   UNL A   1      46.103  31.461  28.302  1.00  0.00     0.037 A 
BRANCH  49  63
ATOM     63  C   UNL A   1      50.270  27.698  25.725  1.00  0.00     0.057 A 
ATOM     64  C   UNL A   1      50.705  27.802  24.397  1.00  0.00     0.134 A 
ATOM     65  C   UNL A   1      51.231  27.384  26.694  1.00  0.00     0.134 A 
ATOM     66  F   UNL A   1      49.836  28.084  23.415  1.00  0.00    -0.206 F 
ATOM     67  C   UNL A   1      52.037  27.571  24.045  1.00  0.00     0.040 A 
ATOM     68  C   UNL A   1      52.570  27.183  26.360  1.00  0.00     0.040 A 
ATOM     69  F   UNL A   1      50.884  27.274  27.986  1.00  0.00    -0.206 F 
ATOM     70  C   UNL A   1      52.976  27.268  25.030  1.00  0.00     0.006 A 
ENDBRANCH  49  63
BRANCH  50  71
ATOM     71  C   UNL A   1      40.728  28.684  28.458  1.00  0.00     0.057 A 
ATOM     72  C   UNL A   1      40.342  28.422  29.778  1.00  0.00     0.134 A 
ATOM     73  C   UNL A   1      39.725  29.067  27.559  1.00  0.00     0.134 A 
ATOM     74  F   UNL A   1      41.250  28.023  30.680  1.00  0.00    -0.206 F 
ATOM     75  C   UNL A   1      39.009  28.516  30.185  1.00  0.00     0.040 A 
ATOM     76  C   UNL A   1      38.394  29.193  27.958  1.00  0.00     0.040 A 
ATOM     77  F   UNL A   1      40.026  29.328  26.279  1.00  0.00    -0.206 F 
ATOM     78  C   UNL A   1      38.030  28.909  29.273  1.00  0.00     0.006 A 
ENDBRANCH  50  71
BRANCH  62  79
ATOM     79  C   UNL A   1      46.293  32.860  28.817  1.00  0.00     0.057 A 
ATOM     80  C   UNL A   1      46.726  33.124  30.123  1.00  0.00     0.134 A 
ATOM     81  C   UNL A   1      46.081  33.961  27.974  1.00  0.00     0.134 A 
ATOM     82  F   UNL A   1      46.938  32.119  30.985  1.00  0.00    -0.206 F 
ATOM     83  C   UNL A   1      46.916  34.431  30.579  1.00  0.00     0.040 A 
ATOM     84  C   UNL A   1      46.298  35.269  28.409  1.00  0.00     0.040 A 
ATOM     85  F   UNL A   1      45.677  33.782  26.708  1.00  0.00    -0.206 F 
ATOM     86  C   UNL A   1      46.710  35.507  29.719  1.00  0.00     0.006 A 
ENDBRANCH  62  79
ENDBRANCH  36  37
ENDBRANCH  29  31
ENDBRANCH  28  29
ENDBRANCH  27  28
ENDBRANCH  26  27
ENDBRANCH  25  26
ENDBRANCH  24  25
ENDBRANCH   1  24
TORSDOF 22
ENDMDL
MODEL 2
REMARK VINA RESULT:      -9.4      4.726      7.296
REMARK SMILES COc1ccc(OC)c([C@@](C)(O)[C@H](F)C(=O)OCCOCCOCCOC(=O)c2ccc(-c3c4nc(c(-c5c(F)cccc5F)c5ccc([nH]5)c(-c5c(F)cccc5F)c5nc(c(-c6c(F)cccc6F)c6ccc3[nH]6)C=C5)C=C4)cc2)c1
REMARK SMILES IDX 21 1 20 2 19 3 18 4 17 5 15 6 16 7 13 8 14 9 10 10 11 11
REMARK SMILES IDX 9 12 3 13 4 14 83 15 5 16 6 17 2 18 1 19 7 20 8 21 12 22
REMARK SMILES IDX 22 24 23 25 24 26 25 27 26 28 27 29 28 30 29 31 30 32 82 33
REMARK SMILES IDX 31 34 81 35 32 36 33 37 34 38 75 39 35 40 80 41 74 42 76 43
REMARK SMILES IDX 36 44 79 45 73 46 72 47 37 49 63 50 46 51 62 52 47 53 50 54
REMARK SMILES IDX 61 55 77 56 48 57 49 58 60 60 78 61 51 62 38 63 39 64 44 65
REMARK SMILES IDX 40 66 41 67 43 68 45 69 42 70 64 71 65 72 70 73 66 74 67 75
REMARK SMILES IDX 69 76 71 77 68 78 52 79 53 80 58 81 54 82 55 83 57 84 59 85
REMARK SMILES IDX 56 86
REMARK H PARENT 12 23 76 48 50 59
REMARK Flexibility Score: inf
ROOT
ATOM      1  C   UNL A   1      39.733  21.313  25.961  1.00  0.00     0.188 C 
ENDROOT
BRANCH   1   2
ATOM      2  O   UNL A   1      38.325  21.482  25.992  1.00  0.00    -0.376 OA
BRANCH   2   3
ATOM      3  C   UNL A   1      37.663  22.371  25.099  1.00  0.00     0.202 C 
BRANCH   3   4
ATOM      4  C   UNL A   1      36.497  21.919  24.210  1.00  0.00     0.261 C 
BRANCH   4   5
ATOM      5  O   UNL A   1      35.563  21.043  24.850  1.00  0.00    -0.461 OA
BRANCH   5   6
ATOM      6  C   UNL A   1      34.724  21.631  25.742  1.00  0.00     0.344 C 
ATOM      7  O   UNL A   1      34.779  21.452  26.952  1.00  0.00    -0.249 OA
BRANCH   6   8
ATOM      8  C   UNL A   1      33.773  22.612  25.064  1.00  0.00     0.311 C 
ATOM      9  F   UNL A   1      32.510  22.088  24.902  1.00  0.00    -0.231 F 
BRANCH   8  10
ATOM     10  C   UNL A   1      33.627  23.919  25.863  1.00  0.00     0.133 C 
ATOM     11  C   UNL A   1      34.980  24.646  25.661  1.00  0.00     0.051 C 
BRANCH  10  12
ATOM     12  C   UNL A   1      32.384  24.758  25.531  1.00  0.00     0.033 A 
ATOM     13  C   UNL A   1      31.411  26.692  24.347  1.00  0.00     0.119 A 
ATOM     14  C   UNL A   1      30.294  26.619  25.170  1.00  0.00     0.050 A 
ATOM     15  C   UNL A   1      32.413  25.730  24.493  1.00  0.00     0.057 A 
ATOM     16  C   UNL A   1      30.169  25.587  26.098  1.00  0.00     0.050 A 
ATOM     17  C   UNL A   1      31.187  24.643  26.258  1.00  0.00     0.125 A 
BRANCH  13  18
ATOM     18  O   UNL A   1      31.421  27.754  23.487  1.00  0.00    -0.497 OA
ATOM     19  C   UNL A   1      30.444  27.799  22.452  1.00  0.00     0.278 C 
ENDBRANCH  13  18
BRANCH  17  20
ATOM     20  O   UNL A   1      30.952  23.704  27.227  1.00  0.00    -0.496 OA
ATOM     21  C   UNL A   1      29.828  22.861  26.958  1.00  0.00     0.278 C 
ENDBRANCH  17  20
ENDBRANCH  10  12
BRANCH  10  22
ATOM     22  O   UNL A   1      33.509  23.536  27.251  1.00  0.00    -0.382 OA
ATOM     23  H   UNL A   1      33.472  22.569  27.317  1.00  0.00     0.212 HD
ENDBRANCH  10  22
ENDBRANCH   8  10
ENDBRANCH   6   8
ENDBRANCH   5   6
ENDBRANCH   4   5
ENDBRANCH   3   4
ENDBRANCH   2   3
ENDBRANCH   1   2
BRANCH   1  24
ATOM     24  C   UNL A   1      40.539  21.184  27.266  1.00  0.00     0.188 C 
BRANCH  24  25
ATOM     25  O   UNL A   1      41.617  20.291  27.223  1.00  0.00    -0.376 OA
BRANCH  25  26
ATOM     26  C   UNL A   1      42.492  20.322  26.109  1.00  0.00     0.202 C 
BRANCH  26  27
ATOM     27  C   UNL A   1      43.415  21.508  25.730  1.00  0.00     0.261 C 
BRANCH  27  28
ATOM     28  O   UNL A   1      42.854  22.631  25.032  1.00  0.00    -0.460 OA
BRANCH  28  29
ATOM     29  C   UNL A   1      43.603  23.765  25.002  1.00  0.00     0.338 C 
ATOM     30  O   UNL A   1      44.523  24.020  24.252  1.00  0.00    -0.246 OA
BRANCH  29  31
ATOM     31  C   UNL A   1      42.966  24.768  25.889  1.00  0.00     0.060 A 
ATOM     32  C   UNL A   1      43.501  26.065  25.948  1.00  0.00     0.016 A 
ATOM     33  C   UNL A   1      41.855  24.432  26.662  1.00  0.00     0.016 A 
ATOM     34  C   UNL A   1      42.939  27.024  26.794  1.00  0.00     0.010 A 
ATOM     35  C   UNL A   1      41.312  25.384  27.532  1.00  0.00     0.010 A 
ATOM     36  C   UNL A   1      41.868  26.674  27.625  1.00  0.00    -0.014 A 
BRANCH  36  37
ATOM     37  C   UNL A   1      41.461  27.569  28.737  1.00  0.00     0.031 A 
ATOM     38  C   UNL A   1      42.226  27.487  30.031  1.00  0.00     0.074 A 
ATOM     39  C   UNL A   1      40.435  28.431  28.619  1.00  0.00     0.049 A 
ATOM     40  N   UNL A   1      42.005  28.088  31.172  1.00  0.00    -0.248 NA
ATOM     41  C   UNL A   1      43.398  26.596  30.035  1.00  0.00     0.031 C 
ATOM     42  C   UNL A   1      39.644  28.649  27.410  1.00  0.00     0.029 A 
ATOM     43  N   UNL A   1      39.874  29.276  29.546  1.00  0.00    -0.354 N 
ATOM     44  C   UNL A   1      42.994  27.631  32.035  1.00  0.00     0.074 A 
ATOM     45  C   UNL A   1      43.802  26.688  31.293  1.00  0.00     0.031 C 
ATOM     46  C   UNL A   1      38.688  29.558  27.674  1.00  0.00     0.029 A 
ATOM     47  C   UNL A   1      38.775  29.955  29.080  1.00  0.00     0.049 A 
ATOM     48  H   UNL A   1      40.226  29.382  30.460  1.00  0.00     0.167 HD
ATOM     49  C   UNL A   1      43.210  27.966  33.328  1.00  0.00     0.037 A 
ATOM     50  C   UNL A   1      37.924  30.779  29.724  1.00  0.00     0.037 A 
ATOM     51  C   UNL A   1      42.406  28.903  34.067  1.00  0.00     0.049 A 
ATOM     52  C   UNL A   1      38.134  31.071  31.189  1.00  0.00     0.074 A 
ATOM     53  C   UNL A   1      42.564  29.331  35.373  1.00  0.00     0.029 A 
ATOM     54  N   UNL A   1      41.281  29.543  33.570  1.00  0.00    -0.354 N 
ATOM     55  N   UNL A   1      39.088  30.660  31.990  1.00  0.00    -0.248 NA
ATOM     56  C   UNL A   1      37.142  31.939  31.841  1.00  0.00     0.031 C 
ATOM     57  C   UNL A   1      41.497  30.180  35.686  1.00  0.00     0.029 A 
ATOM     58  C   UNL A   1      40.714  30.335  34.554  1.00  0.00     0.049 A 
ATOM     59  H   UNL A   1      40.936  29.447  32.653  1.00  0.00     0.167 HD
ATOM     60  C   UNL A   1      38.835  31.250  33.223  1.00  0.00     0.074 A 
ATOM     61  C   UNL A   1      37.641  32.054  33.065  1.00  0.00     0.031 C 
ATOM     62  C   UNL A   1      39.531  31.142  34.383  1.00  0.00     0.037 A 
BRANCH  49  63
ATOM     63  C   UNL A   1      44.340  27.278  34.040  1.00  0.00     0.057 A 
ATOM     64  C   UNL A   1      45.636  27.810  34.075  1.00  0.00     0.134 A 
ATOM     65  C   UNL A   1      44.121  26.071  34.718  1.00  0.00     0.134 A 
ATOM     66  F   UNL A   1      45.920  28.954  33.435  1.00  0.00    -0.206 F 
ATOM     67  C   UNL A   1      46.678  27.151  34.730  1.00  0.00     0.040 A 
ATOM     68  C   UNL A   1      45.147  25.420  35.402  1.00  0.00     0.040 A 
ATOM     69  F   UNL A   1      42.903  25.509  34.729  1.00  0.00    -0.206 F 
ATOM     70  C   UNL A   1      46.433  25.955  35.403  1.00  0.00     0.006 A 
ENDBRANCH  49  63
BRANCH  50  71
ATOM     71  C   UNL A   1      36.780  31.391  28.998  1.00  0.00     0.057 A 
ATOM     72  C   UNL A   1      36.797  32.743  28.633  1.00  0.00     0.134 A 
ATOM     73  C   UNL A   1      35.630  30.656  28.685  1.00  0.00     0.134 A 
ATOM     74  F   UNL A   1      37.858  33.508  28.930  1.00  0.00    -0.206 F 
ATOM     75  C   UNL A   1      35.708  33.346  28.000  1.00  0.00     0.040 A 
ATOM     76  C   UNL A   1      34.545  31.238  28.028  1.00  0.00     0.040 A 
ATOM     77  F   UNL A   1      35.547  29.358  29.011  1.00  0.00    -0.206 F 
ATOM     78  C   UNL A   1      34.578  32.590  27.691  1.00  0.00     0.006 A 
ENDBRANCH  50  71
BRANCH  62  79
ATOM     79  C   UNL A   1      39.056  31.948  35.559  1.00  0.00     0.057 A 
ATOM     80  C   UNL A   1      38.226  31.409  36.550  1.00  0.00     0.134 A 
ATOM     81  C   UNL A   1      39.476  33.276  35.725  1.00  0.00     0.134 A 
ATOM     82  F   UNL A   1      37.779  30.148  36.450  1.00  0.00    -0.206 F 
ATOM     83  C   UNL A   1      37.810  32.167  37.647  1.00  0.00     0.040 A 
ATOM     84  C   UNL A   1      39.093  34.034  36.832  1.00  0.00     0.040 A 
ATOM     85  F   UNL A   1      40.281  33.855  34.821  1.00  0.00    -0.206 F 
ATOM     86  C   UNL A   1      38.251  33.481  37.795  1.00  0.00     0.006 A 
ENDBRANCH  62  79
ENDBRANCH  36  37
ENDBRANCH  29  31
ENDBRANCH  28  29
ENDBRANCH  27  28
ENDBRANCH  26  27
ENDBRANCH  25  26
ENDBRANCH  24  25
ENDBRANCH   1  24
TORSDOF 22
ENDMDL
MODEL 3
REMARK VINA RESULT:      -9.0      3.208      8.225
REMARK SMILES COc1ccc(OC)c([C@@](C)(O)[C@H](F)C(=O)OCCOCCOCCOC(=O)c2ccc(-c3c4nc(c(-c5c(F)cccc5F)c5ccc([nH]5)c(-c5c(F)cccc5F)c5nc(c(-c6c(F)cccc6F)c6ccc3[nH]6)C=C5)C=C4)cc2)c1
REMARK SMILES IDX 21 1 20 2 19 3 18 4 17 5 15 6 16 7 13 8 14 9 10 10 11 11
REMARK SMILES IDX 9 12 3 13 4 14 83 15 5 16 6 17 2 18 1 19 7 20 8 21 12 22
REMARK SMILES IDX 22 24 23 25 24 26 25 27 26 28 27 29 28 30 29 31 30 32 82 33
REMARK SMILES IDX 31 34 81 35 32 36 33 37 34 38 75 39 35 40 80 41 74 42 76 43
REMARK SMILES IDX 36 44 79 45 73 46 72 47 37 49 63 50 46 51 62 52 47 53 50 54
REMARK SMILES IDX 61 55 77 56 48 57 49 58 60 60 78 61 51 62 38 63 39 64 44 65
REMARK SMILES IDX 40 66 41 67 43 68 45 69 42 70 64 71 65 72 70 73 66 74 67 75
REMARK SMILES IDX 69 76 71 77 68 78 52 79 53 80 58 81 54 82 55 83 57 84 59 85
REMARK SMILES IDX 56 86
REMARK H PARENT 12 23 76 48 50 59
REMARK Flexibility Score: inf
ROOT
ATOM      1  C   UNL A   1      34.208  22.344  26.765  1.00  0.00     0.188 C 
ENDROOT
BRANCH   1   2
ATOM      2  O   UNL A   1      32.861  22.078  27.120  1.00  0.00    -0.376 OA
BRANCH   2   3
ATOM      3  C   UNL A   1      31.786  22.390  26.242  1.00  0.00     0.202 C 
BRANCH   3   4
ATOM      4  C   UNL A   1      30.856  23.588  26.481  1.00  0.00     0.261 C 
BRANCH   4   5
ATOM      5  O   UNL A   1      30.863  24.566  25.436  1.00  0.00    -0.461 OA
BRANCH   5   6
ATOM      6  C   UNL A   1      32.024  25.253  25.283  1.00  0.00     0.344 C 
ATOM      7  O   UNL A   1      32.698  25.672  26.216  1.00  0.00    -0.249 OA
BRANCH   6   8
ATOM      8  C   UNL A   1      32.435  25.354  23.818  1.00  0.00     0.311 C 
ATOM      9  F   UNL A   1      31.425  24.970  22.964  1.00  0.00    -0.231 F 
BRANCH   8  10
ATOM     10  C   UNL A   1      32.842  26.787  23.430  1.00  0.00     0.133 C 
ATOM     11  C   UNL A   1      33.413  26.648  21.996  1.00  0.00     0.051 C 
BRANCH  10  12
ATOM     12  C   UNL A   1      31.747  27.850  23.592  1.00  0.00     0.033 A 
ATOM     13  C   UNL A   1      29.866  29.095  22.593  1.00  0.00     0.119 A 
ATOM     14  C   UNL A   1      29.974  30.046  23.600  1.00  0.00     0.050 A 
ATOM     15  C   UNL A   1      30.706  27.981  22.630  1.00  0.00     0.057 A 
ATOM     16  C   UNL A   1      30.886  29.868  24.640  1.00  0.00     0.050 A 
ATOM     17  C   UNL A   1      31.743  28.765  24.658  1.00  0.00     0.125 A 
BRANCH  13  18
ATOM     18  O   UNL A   1      28.944  29.389  21.626  1.00  0.00    -0.497 OA
ATOM     19  C   UNL A   1      27.997  30.420  21.882  1.00  0.00     0.278 C 
ENDBRANCH  13  18
BRANCH  17  20
ATOM     20  O   UNL A   1      32.611  28.730  25.717  1.00  0.00    -0.496 OA
ATOM     21  C   UNL A   1      32.598  29.915  26.518  1.00  0.00     0.278 C 
ENDBRANCH  17  20
ENDBRANCH  10  12
BRANCH  10  22
ATOM     22  O   UNL A   1      33.916  27.160  24.322  1.00  0.00    -0.382 OA
ATOM     23  H   UNL A   1      33.555  27.338  25.205  1.00  0.00     0.212 HD
ENDBRANCH  10  22
ENDBRANCH   8  10
ENDBRANCH   6   8
ENDBRANCH   5   6
ENDBRANCH   4   5
ENDBRANCH   3   4
ENDBRANCH   2   3
ENDBRANCH   1   2
BRANCH   1  24
ATOM     24  C   UNL A   1      34.599  22.610  25.300  1.00  0.00     0.188 C 
BRANCH  24  25
ATOM     25  O   UNL A   1      34.646  21.481  24.474  1.00  0.00    -0.376 OA
BRANCH  25  26
ATOM     26  C   UNL A   1      35.251  20.296  24.961  1.00  0.00     0.202 C 
BRANCH  26  27
ATOM     27  C   UNL A   1      36.775  20.021  24.999  1.00  0.00     0.261 C 
BRANCH  27  28
ATOM     28  O   UNL A   1      37.674  21.115  25.244  1.00  0.00    -0.460 OA
BRANCH  28  29
ATOM     29  C   UNL A   1      38.871  20.804  25.808  1.00  0.00     0.338 C 
ATOM     30  O   UNL A   1      39.483  19.760  25.708  1.00  0.00    -0.246 OA
BRANCH  29  31
ATOM     31  C   UNL A   1      39.447  22.042  26.388  1.00  0.00     0.060 A 
ATOM     32  C   UNL A   1      38.898  23.283  26.028  1.00  0.00     0.016 A 
ATOM     33  C   UNL A   1      40.522  21.981  27.272  1.00  0.00     0.016 A 
ATOM     34  C   UNL A   1      39.436  24.468  26.537  1.00  0.00     0.010 A 
ATOM     35  C   UNL A   1      41.080  23.169  27.757  1.00  0.00     0.010 A 
ATOM     36  C   UNL A   1      40.560  24.418  27.370  1.00  0.00    -0.014 A 
BRANCH  36  37
ATOM     37  C   UNL A   1      41.325  25.655  27.667  1.00  0.00     0.031 A 
ATOM     38  C   UNL A   1      40.631  26.754  28.427  1.00  0.00     0.074 A 
ATOM     39  C   UNL A   1      42.599  25.817  27.270  1.00  0.00     0.049 A 
ATOM     40  N   UNL A   1      41.047  27.958  28.722  1.00  0.00    -0.248 NA
ATOM     41  C   UNL A   1      39.275  26.448  28.915  1.00  0.00     0.031 C 
ATOM     42  C   UNL A   1      43.406  24.818  26.573  1.00  0.00     0.029 A 
ATOM     43  N   UNL A   1      43.435  26.902  27.388  1.00  0.00    -0.354 N 
ATOM     44  C   UNL A   1      39.999  28.561  29.407  1.00  0.00     0.074 A 
ATOM     45  C   UNL A   1      38.921  27.599  29.465  1.00  0.00     0.031 C 
ATOM     46  C   UNL A   1      44.616  25.342  26.311  1.00  0.00     0.029 A 
ATOM     47  C   UNL A   1      44.656  26.725  26.785  1.00  0.00     0.049 A 
ATOM     48  H   UNL A   1      43.180  27.729  27.858  1.00  0.00     0.167 HD
ATOM     49  C   UNL A   1      39.940  29.804  29.940  1.00  0.00     0.037 A 
ATOM     50  C   UNL A   1      45.675  27.593  26.613  1.00  0.00     0.037 A 
ATOM     51  C   UNL A   1      41.011  30.763  29.881  1.00  0.00     0.049 A 
ATOM     52  C   UNL A   1      45.552  29.001  27.140  1.00  0.00     0.074 A 
ATOM     53  C   UNL A   1      41.058  32.037  30.418  1.00  0.00     0.029 A 
ATOM     54  N   UNL A   1      42.219  30.558  29.231  1.00  0.00    -0.354 N 
ATOM     55  N   UNL A   1      44.572  29.554  27.813  1.00  0.00    -0.248 NA
ATOM     56  C   UNL A   1      46.680  29.908  26.876  1.00  0.00     0.031 C 
ATOM     57  C   UNL A   1      42.268  32.627  30.037  1.00  0.00     0.029 A 
ATOM     58  C   UNL A   1      43.004  31.696  29.323  1.00  0.00     0.049 A 
ATOM     59  H   UNL A   1      42.480  29.727  28.772  1.00  0.00     0.167 HD
ATOM     60  C   UNL A   1      44.980  30.855  28.088  1.00  0.00     0.074 A 
ATOM     61  C   UNL A   1      46.301  31.007  27.515  1.00  0.00     0.031 C 
ATOM     62  C   UNL A   1      44.324  31.834  28.759  1.00  0.00     0.037 A 
BRANCH  49  63
ATOM     63  C   UNL A   1      38.652  30.214  30.596  1.00  0.00     0.057 A 
ATOM     64  C   UNL A   1      38.414  30.018  31.963  1.00  0.00     0.134 A 
ATOM     65  C   UNL A   1      37.640  30.830  29.848  1.00  0.00     0.134 A 
ATOM     66  F   UNL A   1      39.334  29.420  32.735  1.00  0.00    -0.206 F 
ATOM     67  C   UNL A   1      37.206  30.392  32.554  1.00  0.00     0.040 A 
ATOM     68  C   UNL A   1      36.441  31.237  30.434  1.00  0.00     0.040 A 
ATOM     69  F   UNL A   1      37.803  31.052  28.535  1.00  0.00    -0.206 F 
ATOM     70  C   UNL A   1      36.218  31.010  31.790  1.00  0.00     0.006 A 
ENDBRANCH  49  63
BRANCH  50  71
ATOM     71  C   UNL A   1      46.910  27.167  25.902  1.00  0.00     0.057 A 
ATOM     72  C   UNL A   1      47.092  27.446  24.542  1.00  0.00     0.134 A 
ATOM     73  C   UNL A   1      47.916  26.441  26.549  1.00  0.00     0.134 A 
ATOM     74  F   UNL A   1      46.150  28.114  23.858  1.00  0.00    -0.206 F 
ATOM     75  C   UNL A   1      48.219  27.004  23.847  1.00  0.00     0.040 A 
ATOM     76  C   UNL A   1      49.062  26.017  25.875  1.00  0.00     0.040 A 
ATOM     77  F   UNL A   1      47.802  26.136  27.850  1.00  0.00    -0.206 F 
ATOM     78  C   UNL A   1      49.213  26.291  24.517  1.00  0.00     0.006 A 
ENDBRANCH  50  71
BRANCH  62  79
ATOM     79  C   UNL A   1      45.038  33.141  28.960  1.00  0.00     0.057 A 
ATOM     80  C   UNL A   1      45.887  33.370  30.050  1.00  0.00     0.134 A 
ATOM     81  C   UNL A   1      44.907  34.173  28.019  1.00  0.00     0.134 A 
ATOM     82  F   UNL A   1      46.051  32.429  30.992  1.00  0.00    -0.206 F 
ATOM     83  C   UNL A   1      46.559  34.584  30.211  1.00  0.00     0.040 A 
ATOM     84  C   UNL A   1      45.597  35.379  28.153  1.00  0.00     0.040 A 
ATOM     85  F   UNL A   1      44.119  34.020  26.944  1.00  0.00    -0.206 F 
ATOM     86  C   UNL A   1      46.421  35.590  29.257  1.00  0.00     0.006 A 
ENDBRANCH  62  79
ENDBRANCH  36  37
ENDBRANCH  29  31
ENDBRANCH  28  29
ENDBRANCH  27  28
ENDBRANCH  26  27
ENDBRANCH  25  26
ENDBRANCH  24  25
ENDBRANCH   1  24
TORSDOF 22
ENDMDL
