MODEL 1
REMARK VINA RESULT:     -10.2      0.000      0.000
REMARK SMILES C[C@@](NC(=O)NCC(N)=O)(C(=O)OCCOCCOCCOC(=O)c1ccc(-c2c3nc(c(-c4c(F)cccc4F)c4ccc([nH]4)c(-c4c(F)cccc4F)c4nc(c(-c5c(F)cccc5F)c5ccc2[nH]5)C=C4)C=C3)cc1)C(F)(F)F
REMARK SMILES IDX 17 1 16 2 15 3 14 4 13 5 11 6 12 7 2 8 1 9 3 10 4 11 5 13
REMARK SMILES IDX 6 14 7 16 8 17 9 18 10 19 79 22 80 23 81 24 82 25 18 26
REMARK SMILES IDX 19 27 20 28 21 29 22 30 23 31 24 32 25 33 26 34 78 35 27 36
REMARK SMILES IDX 77 37 28 38 29 39 30 40 71 41 31 42 76 43 70 44 72 45 32 46
REMARK SMILES IDX 75 47 69 48 68 49 33 51 59 52 42 53 58 54 43 55 46 56 57 57
REMARK SMILES IDX 73 58 44 59 45 60 56 62 74 63 47 64 34 65 35 66 40 67 36 68
REMARK SMILES IDX 37 69 39 70 41 71 38 72 60 73 61 74 66 75 62 76 63 77 65 78
REMARK SMILES IDX 67 79 64 80 48 81 49 82 54 83 50 84 51 85 53 86 55 87 52 88
REMARK H PARENT 3 12 6 15 9 20 9 21 72 50 46 61
REMARK Flexibility Score: inf
ROOT
ATOM      1  C   UNL A   1      39.394  21.153  26.014  1.00  0.00     0.188 C 
ENDROOT
BRANCH   1   2
ATOM      2  O   UNL A   1      38.251  20.825  25.242  1.00  0.00    -0.376 OA
BRANCH   2   3
ATOM      3  C   UNL A   1      37.277  21.851  25.141  1.00  0.00     0.202 C 
BRANCH   3   4
ATOM      4  C   UNL A   1      35.910  21.516  25.753  1.00  0.00     0.261 C 
BRANCH   4   5
ATOM      5  O   UNL A   1      34.667  21.989  25.175  1.00  0.00    -0.461 OA
BRANCH   5   6
ATOM      6  C   UNL A   1      33.640  22.550  25.863  1.00  0.00     0.341 C 
ATOM      7  O   UNL A   1      33.781  23.294  26.822  1.00  0.00    -0.249 OA
BRANCH   6   8
ATOM      8  C   UNL A   1      32.293  22.095  25.333  1.00  0.00     0.232 C 
ATOM      9  C   UNL A   1      32.422  20.583  25.006  1.00  0.00     0.058 C 
BRANCH   8  10
ATOM     10  N   UNL A   1      31.242  22.255  26.389  1.00  0.00    -0.315 N 
ATOM     11  C   UNL A   1      30.481  23.241  26.883  1.00  0.00     0.316 C 
ATOM     12  H   UNL A   1      31.062  21.402  26.847  1.00  0.00     0.166 HD
ATOM     13  O   UNL A   1      29.524  22.895  27.578  1.00  0.00    -0.249 OA
ATOM     14  N   UNL A   1      30.702  24.553  26.728  1.00  0.00    -0.329 N 
ATOM     15  H   UNL A   1      29.986  25.121  27.092  1.00  0.00     0.165 HD
BRANCH  14  16
ATOM     16  C   UNL A   1      31.786  25.292  26.134  1.00  0.00     0.217 C 
BRANCH  16  17
ATOM     17  C   UNL A   1      32.050  26.754  26.477  1.00  0.00     0.236 C 
ATOM     18  N   UNL A   1      31.084  27.329  27.266  1.00  0.00    -0.368 N 
ATOM     19  O   UNL A   1      33.063  27.365  26.164  1.00  0.00    -0.273 OA
ATOM     20  H   UNL A   1      30.277  26.820  27.505  1.00  0.00     0.159 HD
ATOM     21  H   UNL A   1      31.200  28.251  27.591  1.00  0.00     0.159 HD
ENDBRANCH  16  17
ENDBRANCH  14  16
ENDBRANCH   8  10
BRANCH   8  22
ATOM     22  C   UNL A   1      32.012  22.801  23.994  1.00  0.00     0.422 C 
ATOM     23  F   UNL A   1      32.882  23.817  23.771  1.00  0.00    -0.168 F 
ATOM     24  F   UNL A   1      32.174  21.933  22.962  1.00  0.00    -0.168 F 
ATOM     25  F   UNL A   1      30.766  23.300  23.885  1.00  0.00    -0.168 F 
ENDBRANCH   8  22
ENDBRANCH   6   8
ENDBRANCH   5   6
ENDBRANCH   4   5
ENDBRANCH   3   4
ENDBRANCH   2   3
ENDBRANCH   1   2
BRANCH   1  26
ATOM     26  C   UNL A   1      40.403  20.005  26.128  1.00  0.00     0.188 C 
BRANCH  26  27
ATOM     27  O   UNL A   1      41.434  20.049  27.092  1.00  0.00    -0.376 OA
BRANCH  27  28
ATOM     28  C   UNL A   1      42.372  21.109  27.053  1.00  0.00     0.202 C 
BRANCH  28  29
ATOM     29  C   UNL A   1      43.148  21.453  25.761  1.00  0.00     0.261 C 
BRANCH  29  30
ATOM     30  O   UNL A   1      42.709  22.582  24.990  1.00  0.00    -0.460 OA
BRANCH  30  31
ATOM     31  C   UNL A   1      43.486  23.697  25.037  1.00  0.00     0.338 C 
ATOM     32  O   UNL A   1      44.486  23.910  24.394  1.00  0.00    -0.246 OA
BRANCH  31  33
ATOM     33  C   UNL A   1      42.764  24.736  25.837  1.00  0.00     0.060 A 
ATOM     34  C   UNL A   1      43.408  25.968  26.046  1.00  0.00     0.016 A 
ATOM     35  C   UNL A   1      41.478  24.532  26.339  1.00  0.00     0.016 A 
ATOM     36  C   UNL A   1      42.793  26.976  26.788  1.00  0.00     0.010 A 
ATOM     37  C   UNL A   1      40.880  25.527  27.129  1.00  0.00     0.010 A 
ATOM     38  C   UNL A   1      41.558  26.732  27.396  1.00  0.00    -0.014 A 
BRANCH  38  39
ATOM     39  C   UNL A   1      41.155  27.581  28.550  1.00  0.00     0.031 A 
ATOM     40  C   UNL A   1      41.962  27.449  29.817  1.00  0.00     0.074 A 
ATOM     41  C   UNL A   1      40.162  28.486  28.483  1.00  0.00     0.049 A 
ATOM     42  N   UNL A   1      41.814  28.044  30.972  1.00  0.00    -0.248 NA
ATOM     43  C   UNL A   1      43.097  26.511  29.767  1.00  0.00     0.031 C 
ATOM     44  C   UNL A   1      39.350  28.776  27.305  1.00  0.00     0.029 A 
ATOM     45  N   UNL A   1      39.673  29.334  29.448  1.00  0.00    -0.354 N 
ATOM     46  C   UNL A   1      42.826  27.546  31.784  1.00  0.00     0.074 A 
ATOM     47  C   UNL A   1      43.562  26.577  31.003  1.00  0.00     0.031 C 
ATOM     48  C   UNL A   1      38.453  29.730  27.620  1.00  0.00     0.029 A 
ATOM     49  C   UNL A   1      38.610  30.094  29.029  1.00  0.00     0.049 A 
ATOM     50  H   UNL A   1      40.051  29.390  30.356  1.00  0.00     0.167 HD
ATOM     51  C   UNL A   1      43.128  27.869  33.063  1.00  0.00     0.037 A 
ATOM     52  C   UNL A   1      37.843  30.969  29.712  1.00  0.00     0.037 A 
ATOM     53  C   UNL A   1      42.403  28.831  33.845  1.00  0.00     0.049 A 
ATOM     54  C   UNL A   1      38.135  31.242  31.167  1.00  0.00     0.074 A 
ATOM     55  C   UNL A   1      42.635  29.232  35.149  1.00  0.00     0.029 A 
ATOM     56  N   UNL A   1      41.298  29.539  33.400  1.00  0.00    -0.354 N 
ATOM     57  N   UNL A   1      39.099  30.774  31.923  1.00  0.00    -0.248 NA
ATOM     58  C   UNL A   1      37.229  32.169  31.862  1.00  0.00     0.031 C 
ATOM     59  C   UNL A   1      41.635  30.140  35.512  1.00  0.00     0.029 A 
ATOM     60  C   UNL A   1      40.818  30.352  34.413  1.00  0.00     0.049 A 
ATOM     61  H   UNL A   1      40.911  29.472  32.497  1.00  0.00     0.167 HD
ATOM     62  C   UNL A   1      38.939  31.379  33.166  1.00  0.00     0.074 A 
ATOM     63  C   UNL A   1      37.791  32.253  33.061  1.00  0.00     0.031 C 
ATOM     64  C   UNL A   1      39.681  31.229  34.292  1.00  0.00     0.037 A 
BRANCH  51  65
ATOM     65  C   UNL A   1      44.272  27.138  33.702  1.00  0.00     0.057 A 
ATOM     66  C   UNL A   1      44.091  25.939  34.405  1.00  0.00     0.134 A 
ATOM     67  C   UNL A   1      45.576  27.642  33.611  1.00  0.00     0.134 A 
ATOM     68  F   UNL A   1      42.865  25.414  34.550  1.00  0.00    -0.206 F 
ATOM     69  C   UNL A   1      45.161  25.284  35.018  1.00  0.00     0.040 A 
ATOM     70  C   UNL A   1      46.657  26.981  34.193  1.00  0.00     0.040 A 
ATOM     71  F   UNL A   1      45.819  28.786  32.952  1.00  0.00    -0.206 F 
ATOM     72  C   UNL A   1      46.449  25.803  34.907  1.00  0.00     0.006 A 
ENDBRANCH  51  65
BRANCH  52  73
ATOM     73  C   UNL A   1      36.705  31.654  29.040  1.00  0.00     0.057 A 
ATOM     74  C   UNL A   1      36.777  33.007  28.689  1.00  0.00     0.134 A 
ATOM     75  C   UNL A   1      35.503  30.985  28.781  1.00  0.00     0.134 A 
ATOM     76  F   UNL A   1      37.889  33.712  28.943  1.00  0.00    -0.206 F 
ATOM     77  C   UNL A   1      35.690  33.675  28.121  1.00  0.00     0.040 A 
ATOM     78  C   UNL A   1      34.417  31.634  28.189  1.00  0.00     0.040 A 
ATOM     79  F   UNL A   1      35.364  29.690  29.102  1.00  0.00    -0.206 F 
ATOM     80  C   UNL A   1      34.506  32.986  27.865  1.00  0.00     0.006 A 
ENDBRANCH  52  73
BRANCH  64  81
ATOM     81  C   UNL A   1      39.310  32.063  35.486  1.00  0.00     0.057 A 
ATOM     82  C   UNL A   1      38.401  31.619  36.455  1.00  0.00     0.134 A 
ATOM     83  C   UNL A   1      39.905  33.316  35.689  1.00  0.00     0.134 A 
ATOM     84  F   UNL A   1      37.788  30.433  36.319  1.00  0.00    -0.206 F 
ATOM     85  C   UNL A   1      38.074  32.403  37.564  1.00  0.00     0.040 A 
ATOM     86  C   UNL A   1      39.611  34.095  36.809  1.00  0.00     0.040 A 
ATOM     87  F   UNL A   1      40.795  33.798  34.809  1.00  0.00    -0.206 F 
ATOM     88  C   UNL A   1      38.685  33.642  37.746  1.00  0.00     0.006 A 
ENDBRANCH  64  81
ENDBRANCH  38  39
ENDBRANCH  31  33
ENDBRANCH  30  31
ENDBRANCH  29  30
ENDBRANCH  28  29
ENDBRANCH  27  28
ENDBRANCH  26  27
ENDBRANCH   1  26
TORSDOF 21
ENDMDL
MODEL 2
REMARK VINA RESULT:     -10.1      2.960      8.192
REMARK SMILES C[C@@](NC(=O)NCC(N)=O)(C(=O)OCCOCCOCCOC(=O)c1ccc(-c2c3nc(c(-c4c(F)cccc4F)c4ccc([nH]4)c(-c4c(F)cccc4F)c4nc(c(-c5c(F)cccc5F)c5ccc2[nH]5)C=C4)C=C3)cc1)C(F)(F)F
REMARK SMILES IDX 17 1 16 2 15 3 14 4 13 5 11 6 12 7 2 8 1 9 3 10 4 11 5 13
REMARK SMILES IDX 6 14 7 16 8 17 9 18 10 19 79 22 80 23 81 24 82 25 18 26
REMARK SMILES IDX 19 27 20 28 21 29 22 30 23 31 24 32 25 33 26 34 78 35 27 36
REMARK SMILES IDX 77 37 28 38 29 39 30 40 71 41 31 42 76 43 70 44 72 45 32 46
REMARK SMILES IDX 75 47 69 48 68 49 33 51 59 52 42 53 58 54 43 55 46 56 57 57
REMARK SMILES IDX 73 58 44 59 45 60 56 62 74 63 47 64 34 65 35 66 40 67 36 68
REMARK SMILES IDX 37 69 39 70 41 71 38 72 60 73 61 74 66 75 62 76 63 77 65 78
REMARK SMILES IDX 67 79 64 80 48 81 49 82 54 83 50 84 51 85 53 86 55 87 52 88
REMARK H PARENT 3 12 6 15 9 20 9 21 72 50 46 61
REMARK Flexibility Score: inf
ROOT
ATOM      1  C   UNL A   1      30.894  28.846  24.255  1.00  0.00     0.188 C 
ENDROOT
BRANCH   1   2
ATOM      2  O   UNL A   1      30.340  27.553  24.430  1.00  0.00    -0.376 OA
BRANCH   2   3
ATOM      3  C   UNL A   1      31.286  26.505  24.564  1.00  0.00     0.202 C 
BRANCH   3   4
ATOM      4  C   UNL A   1      30.800  25.282  25.353  1.00  0.00     0.261 C 
BRANCH   4   5
ATOM      5  O   UNL A   1      31.427  23.981  25.228  1.00  0.00    -0.461 OA
BRANCH   5   6
ATOM      6  C   UNL A   1      32.448  23.520  25.993  1.00  0.00     0.341 C 
ATOM      7  O   UNL A   1      32.349  23.251  27.182  1.00  0.00    -0.249 OA
BRANCH   6   8
ATOM      8  C   UNL A   1      33.744  23.432  25.209  1.00  0.00     0.232 C 
ATOM      9  C   UNL A   1      34.615  22.346  25.894  1.00  0.00     0.058 C 
BRANCH   8  10
ATOM     10  N   UNL A   1      33.468  22.990  23.804  1.00  0.00    -0.315 N 
ATOM     11  C   UNL A   1      32.784  22.013  23.193  1.00  0.00     0.316 C 
ATOM     12  H   UNL A   1      33.911  23.578  23.150  1.00  0.00     0.166 HD
ATOM     13  O   UNL A   1      32.579  22.164  21.987  1.00  0.00    -0.249 OA
ATOM     14  N   UNL A   1      32.357  20.880  23.765  1.00  0.00    -0.329 N 
ATOM     15  H   UNL A   1      31.798  20.325  23.175  1.00  0.00     0.165 HD
BRANCH  14  16
ATOM     16  C   UNL A   1      32.558  20.318  25.075  1.00  0.00     0.217 C 
BRANCH  16  17
ATOM     17  C   UNL A   1      32.485  18.816  25.329  1.00  0.00     0.236 C 
ATOM     18  N   UNL A   1      32.849  18.443  26.599  1.00  0.00    -0.368 N 
ATOM     19  O   UNL A   1      32.063  17.999  24.521  1.00  0.00    -0.273 OA
ATOM     20  H   UNL A   1      33.186  19.116  27.232  1.00  0.00     0.159 HD
ATOM     21  H   UNL A   1      32.774  17.501  26.875  1.00  0.00     0.159 HD
ENDBRANCH  16  17
ENDBRANCH  14  16
ENDBRANCH   8  10
BRANCH   8  22
ATOM     22  C   UNL A   1      34.515  24.757  25.356  1.00  0.00     0.422 C 
ATOM     23  F   UNL A   1      34.470  25.492  24.218  1.00  0.00    -0.168 F 
ATOM     24  F   UNL A   1      33.947  25.525  26.324  1.00  0.00    -0.168 F 
ATOM     25  F   UNL A   1      35.809  24.606  25.695  1.00  0.00    -0.168 F 
ENDBRANCH   8  22
ENDBRANCH   6   8
ENDBRANCH   5   6
ENDBRANCH   4   5
ENDBRANCH   3   4
ENDBRANCH   2   3
ENDBRANCH   1   2
BRANCH   1  26
ATOM     26  C   UNL A   1      32.025  29.164  25.239  1.00  0.00     0.188 C 
BRANCH  26  27
ATOM     27  O   UNL A   1      32.298  30.499  25.613  1.00  0.00    -0.376 OA
BRANCH  27  28
ATOM     28  C   UNL A   1      31.250  31.298  26.133  1.00  0.00     0.202 C 
BRANCH  28  29
ATOM     29  C   UNL A   1      31.523  32.409  27.172  1.00  0.00     0.261 C 
BRANCH  29  30
ATOM     30  O   UNL A   1      32.715  33.196  27.022  1.00  0.00    -0.460 OA
BRANCH  30  31
ATOM     31  C   UNL A   1      33.265  33.700  28.159  1.00  0.00     0.338 C 
ATOM     32  O   UNL A   1      32.725  34.416  28.968  1.00  0.00    -0.246 OA
BRANCH  31  33
ATOM     33  C   UNL A   1      34.579  33.020  28.382  1.00  0.00     0.060 A 
ATOM     34  C   UNL A   1      34.588  31.616  28.450  1.00  0.00     0.016 A 
ATOM     35  C   UNL A   1      35.778  33.726  28.486  1.00  0.00     0.016 A 
ATOM     36  C   UNL A   1      35.778  30.920  28.663  1.00  0.00     0.010 A 
ATOM     37  C   UNL A   1      36.968  33.030  28.752  1.00  0.00     0.010 A 
ATOM     38  C   UNL A   1      36.962  31.628  28.891  1.00  0.00    -0.014 A 
BRANCH  38  39
ATOM     39  C   UNL A   1      38.079  30.937  29.588  1.00  0.00     0.031 A 
ATOM     40  C   UNL A   1      38.289  31.265  31.045  1.00  0.00     0.074 A 
ATOM     41  C   UNL A   1      38.847  30.005  28.997  1.00  0.00     0.049 A 
ATOM     42  N   UNL A   1      39.198  30.832  31.880  1.00  0.00    -0.248 NA
ATOM     43  C   UNL A   1      37.335  32.218  31.639  1.00  0.00     0.031 C 
ATOM     44  C   UNL A   1      38.710  29.532  27.623  1.00  0.00     0.029 A 
ATOM     45  N   UNL A   1      39.908  29.286  29.498  1.00  0.00    -0.354 N 
ATOM     46  C   UNL A   1      38.930  31.465  33.088  1.00  0.00     0.074 A 
ATOM     47  C   UNL A   1      37.797  32.336  32.872  1.00  0.00     0.031 C 
ATOM     48  C   UNL A   1      39.660  28.607  27.385  1.00  0.00     0.029 A 
ATOM     49  C   UNL A   1      40.489  28.446  28.581  1.00  0.00     0.049 A 
ATOM     50  H   UNL A   1      40.220  29.367  30.428  1.00  0.00     0.167 HD
ATOM     51  C   UNL A   1      39.561  31.330  34.278  1.00  0.00     0.037 A 
ATOM     52  C   UNL A   1      41.575  27.654  28.692  1.00  0.00     0.037 A 
ATOM     53  C   UNL A   1      40.687  30.467  34.502  1.00  0.00     0.049 A 
ATOM     54  C   UNL A   1      42.324  27.593  30.000  1.00  0.00     0.074 A 
ATOM     55  C   UNL A   1      41.392  30.257  35.674  1.00  0.00     0.029 A 
ATOM     56  N   UNL A   1      41.279  29.675  33.531  1.00  0.00    -0.354 N 
ATOM     57  N   UNL A   1      42.059  28.187  31.139  1.00  0.00    -0.248 NA
ATOM     58  C   UNL A   1      43.527  26.747  30.036  1.00  0.00     0.031 C 
ATOM     59  C   UNL A   1      42.447  29.381  35.398  1.00  0.00     0.029 A 
ATOM     60  C   UNL A   1      42.360  28.997  34.069  1.00  0.00     0.049 A 
ATOM     61  H   UNL A   1      40.976  29.605  32.597  1.00  0.00     0.167 HD
ATOM     62  C   UNL A   1      43.034  27.757  32.033  1.00  0.00     0.074 A 
ATOM     63  C   UNL A   1      43.893  26.846  31.307  1.00  0.00     0.031 C 
ATOM     64  C   UNL A   1      43.200  28.082  33.340  1.00  0.00     0.037 A 
BRANCH  51  65
ATOM     65  C   UNL A   1      39.064  32.174  35.416  1.00  0.00     0.057 A 
ATOM     66  C   UNL A   1      39.415  33.524  35.551  1.00  0.00     0.134 A 
ATOM     67  C   UNL A   1      38.221  31.626  36.390  1.00  0.00     0.134 A 
ATOM     68  F   UNL A   1      40.238  34.106  34.665  1.00  0.00    -0.206 F 
ATOM     69  C   UNL A   1      38.968  34.289  36.630  1.00  0.00     0.040 A 
ATOM     70  C   UNL A   1      37.743  32.388  37.456  1.00  0.00     0.040 A 
ATOM     71  F   UNL A   1      37.848  30.338  36.321  1.00  0.00    -0.206 F 
ATOM     72  C   UNL A   1      38.124  33.722  37.582  1.00  0.00     0.006 A 
ENDBRANCH  51  65
BRANCH  52  73
ATOM     73  C   UNL A   1      42.042  26.852  27.529  1.00  0.00     0.057 A 
ATOM     74  C   UNL A   1      42.855  27.415  26.538  1.00  0.00     0.134 A 
ATOM     75  C   UNL A   1      41.646  25.520  27.356  1.00  0.00     0.134 A 
ATOM     76  F   UNL A   1      43.241  28.696  26.629  1.00  0.00    -0.206 F 
ATOM     77  C   UNL A   1      43.242  26.691  25.409  1.00  0.00     0.040 A 
ATOM     78  C   UNL A   1      42.048  24.776  26.245  1.00  0.00     0.040 A 
ATOM     79  F   UNL A   1      40.859  24.923  28.263  1.00  0.00    -0.206 F 
ATOM     80  C   UNL A   1      42.841  25.364  25.263  1.00  0.00     0.006 A 
ENDBRANCH  52  73
BRANCH  64  81
ATOM     81  C   UNL A   1      44.319  27.411  34.087  1.00  0.00     0.057 A 
ATOM     82  C   UNL A   1      44.156  26.175  34.725  1.00  0.00     0.134 A 
ATOM     83  C   UNL A   1      45.592  27.996  34.134  1.00  0.00     0.134 A 
ATOM     84  F   UNL A   1      42.961  25.563  34.727  1.00  0.00    -0.206 F 
ATOM     85  C   UNL A   1      45.209  25.560  35.408  1.00  0.00     0.040 A 
ATOM     86  C   UNL A   1      46.660  27.376  34.785  1.00  0.00     0.040 A 
ATOM     87  F   UNL A   1      45.824  29.172  33.532  1.00  0.00    -0.206 F 
ATOM     88  C   UNL A   1      46.466  26.158  35.432  1.00  0.00     0.006 A 
ENDBRANCH  64  81
ENDBRANCH  38  39
ENDBRANCH  31  33
ENDBRANCH  30  31
ENDBRANCH  29  30
ENDBRANCH  28  29
ENDBRANCH  27  28
ENDBRANCH  26  27
ENDBRANCH   1  26
TORSDOF 21
ENDMDL
MODEL 3
REMARK VINA RESULT:     -10.0      4.542      9.653
REMARK SMILES C[C@@](NC(=O)NCC(N)=O)(C(=O)OCCOCCOCCOC(=O)c1ccc(-c2c3nc(c(-c4c(F)cccc4F)c4ccc([nH]4)c(-c4c(F)cccc4F)c4nc(c(-c5c(F)cccc5F)c5ccc2[nH]5)C=C4)C=C3)cc1)C(F)(F)F
REMARK SMILES IDX 17 1 16 2 15 3 14 4 13 5 11 6 12 7 2 8 1 9 3 10 4 11 5 13
REMARK SMILES IDX 6 14 7 16 8 17 9 18 10 19 79 22 80 23 81 24 82 25 18 26
REMARK SMILES IDX 19 27 20 28 21 29 22 30 23 31 24 32 25 33 26 34 78 35 27 36
REMARK SMILES IDX 77 37 28 38 29 39 30 40 71 41 31 42 76 43 70 44 72 45 32 46
REMARK SMILES IDX 75 47 69 48 68 49 33 51 59 52 42 53 58 54 43 55 46 56 57 57
REMARK SMILES IDX 73 58 44 59 45 60 56 62 74 63 47 64 34 65 35 66 40 67 36 68
REMARK SMILES IDX 37 69 39 70 41 71 38 72 60 73 61 74 66 75 62 76 63 77 65 78
REMARK SMILES IDX 67 79 64 80 48 81 49 82 54 83 50 84 51 85 53 86 55 87 52 88
REMARK H PARENT 3 12 6 15 9 20 9 21 72 50 46 61
REMARK Flexibility Score: inf
ROOT
ATOM      1  C   UNL A   1      34.611  31.603  27.804  1.00  0.00     0.188 C 
ENDROOT
BRANCH   1   2
ATOM      2  O   UNL A   1      34.173  30.404  27.186  1.00  0.00    -0.376 OA
BRANCH   2   3
ATOM      3  C   UNL A   1      32.808  30.386  26.803  1.00  0.00     0.202 C 
BRANCH   3   4
ATOM      4  C   UNL A   1      32.151  29.000  26.793  1.00  0.00     0.261 C 
BRANCH   4   5
ATOM      5  O   UNL A   1      31.857  28.291  25.562  1.00  0.00    -0.461 OA
BRANCH   5   6
ATOM      6  C   UNL A   1      32.752  27.592  24.820  1.00  0.00     0.341 C 
ATOM      7  O   UNL A   1      33.760  28.077  24.325  1.00  0.00    -0.249 OA
BRANCH   6   8
ATOM      8  C   UNL A   1      32.323  26.150  24.631  1.00  0.00     0.232 C 
ATOM      9  C   UNL A   1      30.771  26.137  24.622  1.00  0.00     0.058 C 
BRANCH   8  10
ATOM     10  N   UNL A   1      32.800  25.639  23.305  1.00  0.00    -0.315 N 
ATOM     11  C   UNL A   1      32.696  25.991  22.017  1.00  0.00     0.316 C 
ATOM     12  H   UNL A   1      33.337  24.820  23.409  1.00  0.00     0.166 HD
ATOM     13  O   UNL A   1      33.482  25.447  21.239  1.00  0.00    -0.249 OA
ATOM     14  N   UNL A   1      31.788  26.832  21.505  1.00  0.00    -0.329 N 
ATOM     15  H   UNL A   1      31.926  27.031  20.552  1.00  0.00     0.165 HD
BRANCH  14  16
ATOM     16  C   UNL A   1      30.650  27.500  22.082  1.00  0.00     0.217 C 
BRANCH  16  17
ATOM     17  C   UNL A   1      30.527  29.020  22.093  1.00  0.00     0.236 C 
ATOM     18  N   UNL A   1      31.672  29.673  22.477  1.00  0.00    -0.368 N 
ATOM     19  O   UNL A   1      29.537  29.635  21.718  1.00  0.00    -0.273 OA
ATOM     20  H   UNL A   1      32.456  29.159  22.775  1.00  0.00     0.159 HD
ATOM     21  H   UNL A   1      31.707  30.657  22.454  1.00  0.00     0.159 HD
ENDBRANCH  16  17
ENDBRANCH  14  16
ENDBRANCH   8  10
BRANCH   8  22
ATOM     22  C   UNL A   1      32.752  25.329  25.861  1.00  0.00     0.422 C 
ATOM     23  F   UNL A   1      32.870  24.010  25.566  1.00  0.00    -0.168 F 
ATOM     24  F   UNL A   1      33.978  25.730  26.288  1.00  0.00    -0.168 F 
ATOM     25  F   UNL A   1      31.922  25.439  26.915  1.00  0.00    -0.168 F 
ENDBRANCH   8  22
ENDBRANCH   6   8
ENDBRANCH   5   6
ENDBRANCH   4   5
ENDBRANCH   3   4
ENDBRANCH   2   3
ENDBRANCH   1   2
BRANCH   1  26
ATOM     26  C   UNL A   1      33.485  32.619  28.028  1.00  0.00     0.188 C 
BRANCH  26  27
ATOM     27  O   UNL A   1      33.670  33.715  28.900  1.00  0.00    -0.376 OA
BRANCH  27  28
ATOM     28  C   UNL A   1      34.819  33.752  29.729  1.00  0.00     0.202 C 
BRANCH  28  29
ATOM     29  C   UNL A   1      34.736  33.426  31.237  1.00  0.00     0.261 C 
BRANCH  29  30
ATOM     30  O   UNL A   1      34.986  32.073  31.650  1.00  0.00    -0.460 OA
BRANCH  30  31
ATOM     31  C   UNL A   1      36.034  31.873  32.493  1.00  0.00     0.338 C 
ATOM     32  O   UNL A   1      36.055  32.073  33.683  1.00  0.00    -0.246 OA
BRANCH  31  33
ATOM     33  C   UNL A   1      37.093  31.121  31.748  1.00  0.00     0.060 A 
ATOM     34  C   UNL A   1      38.219  30.686  32.469  1.00  0.00     0.016 A 
ATOM     35  C   UNL A   1      36.978  30.813  30.392  1.00  0.00     0.016 A 
ATOM     36  C   UNL A   1      39.245  29.986  31.834  1.00  0.00     0.010 A 
ATOM     37  C   UNL A   1      38.033  30.154  29.742  1.00  0.00     0.010 A 
ATOM     38  C   UNL A   1      39.192  29.783  30.452  1.00  0.00    -0.014 A 
BRANCH  38  39
ATOM     39  C   UNL A   1      40.459  29.500  29.727  1.00  0.00     0.031 A 
ATOM     40  C   UNL A   1      40.625  28.119  29.143  1.00  0.00     0.074 A 
ATOM     41  C   UNL A   1      41.410  30.428  29.523  1.00  0.00     0.049 A 
ATOM     42  N   UNL A   1      41.632  27.599  28.492  1.00  0.00    -0.248 NA
ATOM     43  C   UNL A   1      39.488  27.199  29.324  1.00  0.00     0.031 C 
ATOM     44  C   UNL A   1      41.353  31.820  29.961  1.00  0.00     0.029 A 
ATOM     45  N   UNL A   1      42.624  30.325  28.884  1.00  0.00    -0.354 N 
ATOM     46  C   UNL A   1      41.255  26.294  28.195  1.00  0.00     0.074 A 
ATOM     47  C   UNL A   1      39.942  26.090  28.765  1.00  0.00     0.031 C 
ATOM     48  C   UNL A   1      42.487  32.441  29.586  1.00  0.00     0.029 A 
ATOM     49  C   UNL A   1      43.362  31.482  28.910  1.00  0.00     0.049 A 
ATOM     50  H   UNL A   1      42.933  29.498  28.448  1.00  0.00     0.167 HD
ATOM     51  C   UNL A   1      41.931  25.349  27.503  1.00  0.00     0.037 A 
ATOM     52  C   UNL A   1      44.608  31.729  28.454  1.00  0.00     0.037 A 
ATOM     53  C   UNL A   1      43.236  25.544  26.933  1.00  0.00     0.049 A 
ATOM     54  C   UNL A   1      45.386  30.631  27.771  1.00  0.00     0.074 A 
ATOM     55  C   UNL A   1      44.002  24.648  26.208  1.00  0.00     0.029 A 
ATOM     56  N   UNL A   1      43.972  26.714  27.030  1.00  0.00    -0.354 N 
ATOM     57  N   UNL A   1      45.018  29.404  27.487  1.00  0.00    -0.248 NA
ATOM     58  C   UNL A   1      46.755  30.955  27.344  1.00  0.00     0.031 C 
ATOM     59  C   UNL A   1      45.226  25.258  25.916  1.00  0.00     0.029 A 
ATOM     60  C   UNL A   1      45.197  26.554  26.404  1.00  0.00     0.049 A 
ATOM     61  H   UNL A   1      43.670  27.536  27.478  1.00  0.00     0.167 HD
ATOM     62  C   UNL A   1      46.091  28.828  26.815  1.00  0.00     0.074 A 
ATOM     63  C   UNL A   1      47.121  29.840  26.728  1.00  0.00     0.031 C 
ATOM     64  C   UNL A   1      46.210  27.574  26.311  1.00  0.00     0.037 A 
BRANCH  51  65
ATOM     65  C   UNL A   1      41.280  24.004  27.364  1.00  0.00     0.057 A 
ATOM     66  C   UNL A   1      40.213  23.779  26.484  1.00  0.00     0.134 A 
ATOM     67  C   UNL A   1      41.730  22.917  28.124  1.00  0.00     0.134 A 
ATOM     68  F   UNL A   1      39.719  24.783  25.743  1.00  0.00    -0.206 F 
ATOM     69  C   UNL A   1      39.600  22.529  26.385  1.00  0.00     0.040 A 
ATOM     70  C   UNL A   1      41.145  21.656  28.012  1.00  0.00     0.040 A 
ATOM     71  F   UNL A   1      42.747  23.064  28.987  1.00  0.00    -0.206 F 
ATOM     72  C   UNL A   1      40.070  21.462  27.147  1.00  0.00     0.006 A 
ENDBRANCH  51  65
BRANCH  52  73
ATOM     73  C   UNL A   1      45.221  33.073  28.634  1.00  0.00     0.057 A 
ATOM     74  C   UNL A   1      45.993  33.374  29.761  1.00  0.00     0.134 A 
ATOM     75  C   UNL A   1      45.005  34.102  27.709  1.00  0.00     0.134 A 
ATOM     76  F   UNL A   1      46.208  32.441  30.702  1.00  0.00    -0.206 F 
ATOM     77  C   UNL A   1      46.516  34.652  29.973  1.00  0.00     0.040 A 
ATOM     78  C   UNL A   1      45.544  35.377  27.894  1.00  0.00     0.040 A 
ATOM     79  F   UNL A   1      44.266  33.883  26.612  1.00  0.00    -0.206 F 
ATOM     80  C   UNL A   1      46.294  35.657  29.033  1.00  0.00     0.006 A 
ENDBRANCH  52  73
BRANCH  64  81
ATOM     81  C   UNL A   1      47.476  27.239  25.572  1.00  0.00     0.057 A 
ATOM     82  C   UNL A   1      48.586  26.672  26.211  1.00  0.00     0.134 A 
ATOM     83  C   UNL A   1      47.568  27.451  24.190  1.00  0.00     0.134 A 
ATOM     84  F   UNL A   1      48.569  26.450  27.535  1.00  0.00    -0.206 F 
ATOM     85  C   UNL A   1      49.752  26.358  25.509  1.00  0.00     0.040 A 
ATOM     86  C   UNL A   1      48.716  27.111  23.471  1.00  0.00     0.040 A 
ATOM     87  F   UNL A   1      46.538  27.976  23.511  1.00  0.00    -0.206 F 
ATOM     88  C   UNL A   1      49.815  26.571  24.133  1.00  0.00     0.006 A 
ENDBRANCH  64  81
ENDBRANCH  38  39
ENDBRANCH  31  33
ENDBRANCH  30  31
ENDBRANCH  29  30
ENDBRANCH  28  29
ENDBRANCH  27  28
ENDBRANCH  26  27
ENDBRANCH   1  26
TORSDOF 21
ENDMDL
