MODEL 1
REMARK VINA RESULT:     -11.7      0.000      0.000
REMARK SMILES COc1cc(Cl)c(C)cc1N1C(=O)C[C@H](Nc2cc(C(=O)OCCOCCOCCOC(=O)c3ccc(-c4c5nc(c(-c6c(F)cccc6F)c6ccc([nH]6)c(-c6c(F)cccc6F)c6nc(c(-c7c(F)cccc7F)c7ccc4[nH]7)C=C6)C=C5)cc3)ccc2C)C1=O
REMARK SMILES IDX 26 1 25 2 24 3 23 4 22 5 20 6 21 7 19 8 17 9 18 10 90 11
REMARK SMILES IDX 89 12 91 13 88 14 16 15 15 17 11 18 12 19 92 20 13 21 14 22
REMARK SMILES IDX 93 23 10 24 3 25 4 26 5 27 9 28 6 29 7 30 8 31 2 32 1 33
REMARK SMILES IDX 27 34 28 35 29 36 30 37 31 38 32 39 33 40 34 41 35 42 87 43
REMARK SMILES IDX 36 44 86 45 37 46 38 47 39 48 80 49 40 50 85 51 79 52 81 53
REMARK SMILES IDX 41 54 84 55 78 56 77 57 42 59 68 60 51 61 67 62 52 63 55 64
REMARK SMILES IDX 66 65 82 66 53 67 54 68 65 70 83 71 56 72 43 73 44 74 49 75
REMARK SMILES IDX 45 76 46 77 48 78 50 79 47 80 69 81 70 82 75 83 71 84 72 85
REMARK SMILES IDX 74 86 76 87 73 88 57 89 58 90 63 91 59 92 60 93 62 94 64 95
REMARK SMILES IDX 61 96
REMARK H PARENT 16 16 81 58 55 69
REMARK Flexibility Score: inf
ROOT
ATOM      1  C   UNL A   1      34.749  31.874  27.673  1.00  0.00     0.188 C 
ENDROOT
BRANCH   1   2
ATOM      2  O   UNL A   1      33.328  31.611  27.603  1.00  0.00    -0.376 OA
BRANCH   2   3
ATOM      3  C   UNL A   1      32.704  30.511  26.933  1.00  0.00     0.202 C 
BRANCH   3   4
ATOM      4  C   UNL A   1      33.440  29.027  26.501  1.00  0.00     0.261 C 
BRANCH   4   5
ATOM      5  O   UNL A   1      33.964  28.425  25.043  1.00  0.00    -0.460 OA
BRANCH   5   6
ATOM      6  C   UNL A   1      33.662  28.593  23.673  1.00  0.00     0.338 C 
ATOM      7  O   UNL A   1      34.399  28.865  22.726  1.00  0.00    -0.246 OA
BRANCH   6   8
ATOM      8  C   UNL A   1      32.326  28.419  23.077  1.00  0.00     0.062 A 
ATOM      9  C   UNL A   1      30.810  26.565  22.995  1.00  0.00     0.038 A 
ATOM     10  C   UNL A   1      32.059  27.130  22.682  1.00  0.00     0.041 A 
ATOM     11  C   UNL A   1      29.738  27.361  23.458  1.00  0.00    -0.028 A 
ATOM     12  C   UNL A   1      29.973  28.706  23.745  1.00  0.00     0.006 A 
ATOM     13  C   UNL A   1      28.350  26.826  23.673  1.00  0.00     0.046 C 
ATOM     14  C   UNL A   1      31.266  29.207  23.615  1.00  0.00     0.016 A 
BRANCH   9  15
ATOM     15  N   UNL A   1      30.789  25.157  23.162  1.00  0.00    -0.373 N 
ATOM     16  H   UNL A   1      30.324  24.530  22.562  1.00  0.00     0.161 HD
BRANCH  15  17
ATOM     17  C   UNL A   1      31.568  24.755  24.370  1.00  0.00     0.179 C 
ATOM     18  N   UNL A   1      32.092  22.520  24.857  1.00  0.00    -0.245 N 
ATOM     19  C   UNL A   1      30.981  22.798  25.601  1.00  0.00     0.236 C 
ATOM     20  C   UNL A   1      32.489  23.574  24.078  1.00  0.00     0.256 C 
ATOM     21  O   UNL A   1      30.371  22.035  26.338  1.00  0.00    -0.274 OA
ATOM     22  C   UNL A   1      30.642  24.252  25.460  1.00  0.00     0.136 C 
ATOM     23  O   UNL A   1      33.339  23.550  23.196  1.00  0.00    -0.272 OA
BRANCH  18  24
ATOM     24  C   UNL A   1      32.692  21.249  24.760  1.00  0.00     0.094 A 
ATOM     25  C   UNL A   1      33.845  20.920  25.491  1.00  0.00     0.144 A 
ATOM     26  C   UNL A   1      34.491  19.702  25.271  1.00  0.00     0.069 A 
ATOM     27  C   UNL A   1      33.989  18.802  24.328  1.00  0.00     0.047 A 
ATOM     28  C   UNL A   1      32.181  20.326  23.836  1.00  0.00     0.035 A 
ATOM     29  Cl  UNL A   1      34.829  17.308  24.112  1.00  0.00    -0.084 Cl
ATOM     30  C   UNL A   1      32.839  19.110  23.585  1.00  0.00    -0.030 A 
ATOM     31  C   UNL A   1      32.310  18.192  22.519  1.00  0.00     0.046 C 
BRANCH  25  32
ATOM     32  O   UNL A   1      34.417  21.737  26.432  1.00  0.00    -0.495 OA
ATOM     33  C   UNL A   1      35.762  22.098  26.113  1.00  0.00     0.278 C 
ENDBRANCH  25  32
ENDBRANCH  18  24
ENDBRANCH  15  17
ENDBRANCH   9  15
ENDBRANCH   6   8
ENDBRANCH   5   6
ENDBRANCH   4   5
ENDBRANCH   3   4
ENDBRANCH   2   3
ENDBRANCH   1   2
BRANCH   1  34
ATOM     34  C   UNL A   1      35.356  33.110  28.343  1.00  0.00     0.188 C 
BRANCH  34  35
ATOM     35  O   UNL A   1      35.028  33.137  29.718  1.00  0.00    -0.376 OA
BRANCH  35  36
ATOM     36  C   UNL A   1      35.334  31.958  30.445  1.00  0.00     0.202 C 
BRANCH  36  37
ATOM     37  C   UNL A   1      36.849  31.678  30.540  1.00  0.00     0.261 C 
BRANCH  37  38
ATOM     38  O   UNL A   1      37.234  30.595  29.657  1.00  0.00    -0.460 OA
BRANCH  38  39
ATOM     39  C   UNL A   1      37.483  29.358  30.223  1.00  0.00     0.338 C 
ATOM     40  O   UNL A   1      37.015  28.960  31.250  1.00  0.00    -0.246 OA
BRANCH  39  41
ATOM     41  C   UNL A   1      38.639  28.699  29.495  1.00  0.00     0.060 A 
ATOM     42  C   UNL A   1      39.101  27.388  29.683  1.00  0.00     0.016 A 
ATOM     43  C   UNL A   1      39.540  29.547  28.962  1.00  0.00     0.016 A 
ATOM     44  C   UNL A   1      40.514  27.029  29.489  1.00  0.00     0.010 A 
ATOM     45  C   UNL A   1      40.872  29.196  29.181  1.00  0.00     0.010 A 
ATOM     46  C   UNL A   1      41.529  27.972  29.292  1.00  0.00    -0.014 A 
BRANCH  46  47
ATOM     47  C   UNL A   1      43.139  27.796  29.485  1.00  0.00     0.031 A 
ATOM     48  C   UNL A   1      44.467  28.814  29.569  1.00  0.00     0.074 A 
ATOM     49  C   UNL A   1      43.530  26.503  29.612  1.00  0.00     0.049 A 
ATOM     50  N   UNL A   1      45.688  28.445  29.195  1.00  0.00    -0.248 NA
ATOM     51  C   UNL A   1      44.603  30.255  29.963  1.00  0.00     0.031 C 
ATOM     52  C   UNL A   1      44.843  25.973  29.975  1.00  0.00     0.029 A 
ATOM     53  N   UNL A   1      42.802  25.356  29.272  1.00  0.00    -0.354 N 
ATOM     54  C   UNL A   1      46.592  29.474  29.470  1.00  0.00     0.074 A 
ATOM     55  C   UNL A   1      45.830  30.633  29.657  1.00  0.00     0.031 C 
ATOM     56  C   UNL A   1      44.949  24.731  29.483  1.00  0.00     0.029 A 
ATOM     57  C   UNL A   1      43.734  24.442  28.750  1.00  0.00     0.049 A 
ATOM     58  H   UNL A   1      41.833  25.218  29.378  1.00  0.00     0.167 HD
ATOM     59  C   UNL A   1      47.936  29.362  29.635  1.00  0.00     0.037 A 
ATOM     60  C   UNL A   1      43.619  24.017  27.463  1.00  0.00     0.037 A 
ATOM     61  C   UNL A   1      48.395  28.111  29.101  1.00  0.00     0.049 A 
ATOM     62  C   UNL A   1      44.795  24.422  26.597  1.00  0.00     0.074 A 
ATOM     63  C   UNL A   1      48.729  26.883  29.626  1.00  0.00     0.029 A 
ATOM     64  N   UNL A   1      48.211  27.928  27.745  1.00  0.00    -0.354 N 
ATOM     65  N   UNL A   1      45.903  24.957  27.039  1.00  0.00    -0.248 NA
ATOM     66  C   UNL A   1      44.768  24.345  25.134  1.00  0.00     0.031 C 
ATOM     67  C   UNL A   1      48.548  25.923  28.578  1.00  0.00     0.029 A 
ATOM     68  C   UNL A   1      48.175  26.591  27.422  1.00  0.00     0.049 A 
ATOM     69  H   UNL A   1      48.117  28.661  27.094  1.00  0.00     0.167 HD
ATOM     70  C   UNL A   1      46.623  25.431  25.975  1.00  0.00     0.074 A 
ATOM     71  C   UNL A   1      45.897  24.989  24.801  1.00  0.00     0.031 C 
ATOM     72  C   UNL A   1      47.725  26.223  26.092  1.00  0.00     0.037 A 
BRANCH  59  73
ATOM     73  C   UNL A   1      48.793  30.457  30.265  1.00  0.00     0.057 A 
ATOM     74  C   UNL A   1      48.962  30.546  31.655  1.00  0.00     0.134 A 
ATOM     75  C   UNL A   1      49.437  31.498  29.545  1.00  0.00     0.134 A 
ATOM     76  F   UNL A   1      48.354  29.680  32.478  1.00  0.00    -0.206 F 
ATOM     77  C   UNL A   1      49.761  31.536  32.263  1.00  0.00     0.040 A 
ATOM     78  C   UNL A   1      50.304  32.434  30.128  1.00  0.00     0.040 A 
ATOM     79  F   UNL A   1      49.222  31.696  28.236  1.00  0.00    -0.206 F 
ATOM     80  C   UNL A   1      50.465  32.460  31.500  1.00  0.00     0.006 A 
ENDBRANCH  59  73
BRANCH  60  81
ATOM     81  C   UNL A   1      42.194  23.850  27.036  1.00  0.00     0.057 A 
ATOM     82  C   UNL A   1      41.534  22.655  27.402  1.00  0.00     0.134 A 
ATOM     83  C   UNL A   1      41.380  24.894  26.591  1.00  0.00     0.134 A 
ATOM     84  F   UNL A   1      42.241  21.602  27.846  1.00  0.00    -0.206 F 
ATOM     85  C   UNL A   1      40.141  22.548  27.439  1.00  0.00     0.040 A 
ATOM     86  C   UNL A   1      39.979  24.785  26.591  1.00  0.00     0.040 A 
ATOM     87  F   UNL A   1      41.899  26.093  26.291  1.00  0.00    -0.206 F 
ATOM     88  C   UNL A   1      39.358  23.626  27.052  1.00  0.00     0.006 A 
ENDBRANCH  60  81
BRANCH  72  89
ATOM     89  C   UNL A   1      48.450  26.726  24.886  1.00  0.00     0.057 A 
ATOM     90  C   UNL A   1      47.783  27.496  23.929  1.00  0.00     0.134 A 
ATOM     91  C   UNL A   1      49.767  26.343  24.579  1.00  0.00     0.134 A 
ATOM     92  F   UNL A   1      46.527  27.915  24.146  1.00  0.00    -0.206 F 
ATOM     93  C   UNL A   1      48.381  27.842  22.715  1.00  0.00     0.040 A 
ATOM     94  C   UNL A   1      50.363  26.648  23.354  1.00  0.00     0.040 A 
ATOM     95  F   UNL A   1      50.513  25.652  25.456  1.00  0.00    -0.206 F 
ATOM     96  C   UNL A   1      49.665  27.398  22.414  1.00  0.00     0.006 A 
ENDBRANCH  72  89
ENDBRANCH  46  47
ENDBRANCH  39  41
ENDBRANCH  38  39
ENDBRANCH  37  38
ENDBRANCH  36  37
ENDBRANCH  35  36
ENDBRANCH  34  35
ENDBRANCH   1  34
TORSDOF 21
ENDMDL
MODEL 2
REMARK VINA RESULT:     -11.1      3.035      7.100
REMARK SMILES COc1cc(Cl)c(C)cc1N1C(=O)C[C@H](Nc2cc(C(=O)OCCOCCOCCOC(=O)c3ccc(-c4c5nc(c(-c6c(F)cccc6F)c6ccc([nH]6)c(-c6c(F)cccc6F)c6nc(c(-c7c(F)cccc7F)c7ccc4[nH]7)C=C6)C=C5)cc3)ccc2C)C1=O
REMARK SMILES IDX 26 1 25 2 24 3 23 4 22 5 20 6 21 7 19 8 17 9 18 10 90 11
REMARK SMILES IDX 89 12 91 13 88 14 16 15 15 17 11 18 12 19 92 20 13 21 14 22
REMARK SMILES IDX 93 23 10 24 3 25 4 26 5 27 9 28 6 29 7 30 8 31 2 32 1 33
REMARK SMILES IDX 27 34 28 35 29 36 30 37 31 38 32 39 33 40 34 41 35 42 87 43
REMARK SMILES IDX 36 44 86 45 37 46 38 47 39 48 80 49 40 50 85 51 79 52 81 53
REMARK SMILES IDX 41 54 84 55 78 56 77 57 42 59 68 60 51 61 67 62 52 63 55 64
REMARK SMILES IDX 66 65 82 66 53 67 54 68 65 70 83 71 56 72 43 73 44 74 49 75
REMARK SMILES IDX 45 76 46 77 48 78 50 79 47 80 69 81 70 82 75 83 71 84 72 85
REMARK SMILES IDX 74 86 76 87 73 88 57 89 58 90 63 91 59 92 60 93 62 94 64 95
REMARK SMILES IDX 61 96
REMARK H PARENT 16 16 81 58 55 69
REMARK Flexibility Score: inf
ROOT
ATOM      1  C   UNL A   1      34.788  31.547  27.655  1.00  0.00     0.188 C 
ENDROOT
BRANCH   1   2
ATOM      2  O   UNL A   1      33.399  31.177  27.819  1.00  0.00    -0.376 OA
BRANCH   2   3
ATOM      3  C   UNL A   1      32.593  30.470  26.871  1.00  0.00     0.202 C 
BRANCH   3   4
ATOM      4  C   UNL A   1      32.954  28.960  26.149  1.00  0.00     0.261 C 
BRANCH   4   5
ATOM      5  O   UNL A   1      33.493  28.550  24.631  1.00  0.00    -0.460 OA
BRANCH   5   6
ATOM      6  C   UNL A   1      33.050  28.673  23.295  1.00  0.00     0.338 C 
ATOM      7  O   UNL A   1      33.617  29.146  22.312  1.00  0.00    -0.246 OA
BRANCH   6   8
ATOM      8  C   UNL A   1      31.756  28.182  22.788  1.00  0.00     0.062 A 
ATOM      9  C   UNL A   1      30.344  26.356  23.428  1.00  0.00     0.038 A 
ATOM     10  C   UNL A   1      31.576  26.829  22.944  1.00  0.00     0.041 A 
ATOM     11  C   UNL A   1      29.210  27.197  23.501  1.00  0.00    -0.028 A 
ATOM     12  C   UNL A   1      29.361  28.556  23.223  1.00  0.00     0.006 A 
ATOM     13  C   UNL A   1      27.843  26.702  23.880  1.00  0.00     0.046 C 
ATOM     14  C   UNL A   1      30.632  29.048  22.933  1.00  0.00     0.016 A 
BRANCH   9  15
ATOM     15  N   UNL A   1      30.387  25.138  24.152  1.00  0.00    -0.373 N 
ATOM     16  H   UNL A   1      29.658  24.476  24.176  1.00  0.00     0.161 HD
BRANCH  15  17
ATOM     17  C   UNL A   1      31.687  24.994  24.871  1.00  0.00     0.179 C 
ATOM     18  N   UNL A   1      32.623  22.906  25.397  1.00  0.00    -0.245 N 
ATOM     19  C   UNL A   1      31.979  23.308  26.533  1.00  0.00     0.236 C 
ATOM     20  C   UNL A   1      32.480  23.793  24.363  1.00  0.00     0.256 C 
ATOM     21  O   UNL A   1      31.882  22.696  27.588  1.00  0.00    -0.274 OA
ATOM     22  C   UNL A   1      31.456  24.700  26.340  1.00  0.00     0.136 C 
ATOM     23  O   UNL A   1      32.803  23.609  23.196  1.00  0.00    -0.272 OA
BRANCH  18  24
ATOM     24  C   UNL A   1      33.239  21.651  25.230  1.00  0.00     0.094 A 
ATOM     25  C   UNL A   1      34.633  21.498  25.305  1.00  0.00     0.144 A 
ATOM     26  C   UNL A   1      35.220  20.268  25.000  1.00  0.00     0.069 A 
ATOM     27  C   UNL A   1      34.424  19.183  24.627  1.00  0.00     0.047 A 
ATOM     28  C   UNL A   1      32.447  20.548  24.879  1.00  0.00     0.035 A 
ATOM     29  Cl  UNL A   1      35.213  17.687  24.273  1.00  0.00    -0.084 Cl
ATOM     30  C   UNL A   1      33.029  19.314  24.543  1.00  0.00    -0.030 A 
ATOM     31  C   UNL A   1      32.150  18.185  24.083  1.00  0.00     0.046 C 
BRANCH  25  32
ATOM     32  O   UNL A   1      35.498  22.502  25.656  1.00  0.00    -0.495 OA
ATOM     33  C   UNL A   1      36.350  22.904  24.582  1.00  0.00     0.278 C 
ENDBRANCH  25  32
ENDBRANCH  18  24
ENDBRANCH  15  17
ENDBRANCH   9  15
ENDBRANCH   6   8
ENDBRANCH   5   6
ENDBRANCH   4   5
ENDBRANCH   3   4
ENDBRANCH   2   3
ENDBRANCH   1   2
BRANCH   1  34
ATOM     34  C   UNL A   1      35.745  31.810  28.819  1.00  0.00     0.188 C 
BRANCH  34  35
ATOM     35  O   UNL A   1      35.058  31.729  30.052  1.00  0.00    -0.376 OA
BRANCH  35  36
ATOM     36  C   UNL A   1      35.700  32.348  31.154  1.00  0.00     0.202 C 
BRANCH  36  37
ATOM     37  C   UNL A   1      37.078  31.734  31.479  1.00  0.00     0.261 C 
BRANCH  37  38
ATOM     38  O   UNL A   1      37.697  32.409  32.601  1.00  0.00    -0.460 OA
BRANCH  38  39
ATOM     39  C   UNL A   1      38.351  33.604  32.356  1.00  0.00     0.338 C 
ATOM     40  O   UNL A   1      37.819  34.665  32.202  1.00  0.00    -0.246 OA
BRANCH  39  41
ATOM     41  C   UNL A   1      39.808  33.320  32.043  1.00  0.00     0.060 A 
ATOM     42  C   UNL A   1      40.428  33.445  30.791  1.00  0.00     0.016 A 
ATOM     43  C   UNL A   1      40.430  32.493  32.905  1.00  0.00     0.016 A 
ATOM     44  C   UNL A   1      41.557  32.590  30.397  1.00  0.00     0.010 A 
ATOM     45  C   UNL A   1      41.216  31.510  32.304  1.00  0.00     0.010 A 
ATOM     46  C   UNL A   1      41.978  31.480  31.139  1.00  0.00    -0.014 A 
BRANCH  46  47
ATOM     47  C   UNL A   1      42.890  30.215  30.657  1.00  0.00     0.031 A 
ATOM     48  C   UNL A   1      42.610  28.710  29.976  1.00  0.00     0.074 A 
ATOM     49  C   UNL A   1      44.220  30.405  30.846  1.00  0.00     0.049 A 
ATOM     50  N   UNL A   1      43.414  27.669  30.165  1.00  0.00    -0.248 NA
ATOM     51  C   UNL A   1      41.481  28.181  29.142  1.00  0.00     0.031 C 
ATOM     52  C   UNL A   1      45.339  29.587  30.381  1.00  0.00     0.029 A 
ATOM     53  N   UNL A   1      44.836  31.355  31.671  1.00  0.00    -0.354 N 
ATOM     54  C   UNL A   1      42.968  26.590  29.397  1.00  0.00     0.074 A 
ATOM     55  C   UNL A   1      41.645  26.876  29.040  1.00  0.00     0.031 C 
ATOM     56  C   UNL A   1      46.385  29.800  31.191  1.00  0.00     0.029 A 
ATOM     57  C   UNL A   1      45.960  30.720  32.227  1.00  0.00     0.049 A 
ATOM     58  H   UNL A   1      44.541  32.281  31.829  1.00  0.00     0.167 HD
ATOM     59  C   UNL A   1      43.700  25.523  28.981  1.00  0.00     0.037 A 
ATOM     60  C   UNL A   1      46.048  30.554  33.575  1.00  0.00     0.037 A 
ATOM     61  C   UNL A   1      44.904  25.419  29.755  1.00  0.00     0.049 A 
ATOM     62  C   UNL A   1      46.065  29.097  33.994  1.00  0.00     0.074 A 
ATOM     63  C   UNL A   1      46.223  25.765  29.568  1.00  0.00     0.029 A 
ATOM     64  N   UNL A   1      44.737  25.200  31.108  1.00  0.00    -0.354 N 
ATOM     65  N   UNL A   1      46.175  28.083  33.176  1.00  0.00    -0.248 NA
ATOM     66  C   UNL A   1      45.857  28.667  35.379  1.00  0.00     0.031 C 
ATOM     67  C   UNL A   1      46.793  25.937  30.871  1.00  0.00     0.029 A 
ATOM     68  C   UNL A   1      45.833  25.627  31.822  1.00  0.00     0.049 A 
ATOM     69  H   UNL A   1      43.936  24.791  31.509  1.00  0.00     0.167 HD
ATOM     70  C   UNL A   1      45.891  26.930  33.859  1.00  0.00     0.074 A 
ATOM     71  C   UNL A   1      45.740  27.337  35.241  1.00  0.00     0.031 C 
ATOM     72  C   UNL A   1      45.713  25.717  33.265  1.00  0.00     0.037 A 
BRANCH  59  73
ATOM     73  C   UNL A   1      43.239  24.577  27.874  1.00  0.00     0.057 A 
ATOM     74  C   UNL A   1      43.317  24.940  26.522  1.00  0.00     0.134 A 
ATOM     75  C   UNL A   1      42.651  23.303  28.090  1.00  0.00     0.134 A 
ATOM     76  F   UNL A   1      43.779  26.145  26.159  1.00  0.00    -0.206 F 
ATOM     77  C   UNL A   1      42.914  24.081  25.478  1.00  0.00     0.040 A 
ATOM     78  C   UNL A   1      42.330  22.404  27.061  1.00  0.00     0.040 A 
ATOM     79  F   UNL A   1      42.309  22.875  29.314  1.00  0.00    -0.206 F 
ATOM     80  C   UNL A   1      42.455  22.796  25.742  1.00  0.00     0.006 A 
ENDBRANCH  59  73
BRANCH  60  81
ATOM     81  C   UNL A   1      45.478  31.710  34.336  1.00  0.00     0.057 A 
ATOM     82  C   UNL A   1      46.253  32.888  34.420  1.00  0.00     0.134 A 
ATOM     83  C   UNL A   1      44.132  31.828  34.692  1.00  0.00     0.134 A 
ATOM     84  F   UNL A   1      47.556  32.864  34.092  1.00  0.00    -0.206 F 
ATOM     85  C   UNL A   1      45.696  34.133  34.721  1.00  0.00     0.040 A 
ATOM     86  C   UNL A   1      43.569  33.070  35.030  1.00  0.00     0.040 A 
ATOM     87  F   UNL A   1      43.294  30.789  34.576  1.00  0.00    -0.206 F 
ATOM     88  C   UNL A   1      44.342  34.230  35.008  1.00  0.00     0.006 A 
ENDBRANCH  60  81
BRANCH  72  89
ATOM     89  C   UNL A   1      45.382  24.501  34.070  1.00  0.00     0.057 A 
ATOM     90  C   UNL A   1      46.364  23.544  34.343  1.00  0.00     0.134 A 
ATOM     91  C   UNL A   1      44.070  24.187  34.462  1.00  0.00     0.134 A 
ATOM     92  F   UNL A   1      47.645  23.768  34.012  1.00  0.00    -0.206 F 
ATOM     93  C   UNL A   1      46.054  22.323  34.946  1.00  0.00     0.040 A 
ATOM     94  C   UNL A   1      43.740  22.955  35.031  1.00  0.00     0.040 A 
ATOM     95  F   UNL A   1      43.065  25.063  34.298  1.00  0.00    -0.206 F 
ATOM     96  C   UNL A   1      44.736  22.015  35.269  1.00  0.00     0.006 A 
ENDBRANCH  72  89
ENDBRANCH  46  47
ENDBRANCH  39  41
ENDBRANCH  38  39
ENDBRANCH  37  38
ENDBRANCH  36  37
ENDBRANCH  35  36
ENDBRANCH  34  35
ENDBRANCH   1  34
TORSDOF 21
ENDMDL
MODEL 3
REMARK VINA RESULT:     -11.1      6.737     11.600
REMARK SMILES COc1cc(Cl)c(C)cc1N1C(=O)C[C@H](Nc2cc(C(=O)OCCOCCOCCOC(=O)c3ccc(-c4c5nc(c(-c6c(F)cccc6F)c6ccc([nH]6)c(-c6c(F)cccc6F)c6nc(c(-c7c(F)cccc7F)c7ccc4[nH]7)C=C6)C=C5)cc3)ccc2C)C1=O
REMARK SMILES IDX 26 1 25 2 24 3 23 4 22 5 20 6 21 7 19 8 17 9 18 10 90 11
REMARK SMILES IDX 89 12 91 13 88 14 16 15 15 17 11 18 12 19 92 20 13 21 14 22
REMARK SMILES IDX 93 23 10 24 3 25 4 26 5 27 9 28 6 29 7 30 8 31 2 32 1 33
REMARK SMILES IDX 27 34 28 35 29 36 30 37 31 38 32 39 33 40 34 41 35 42 87 43
REMARK SMILES IDX 36 44 86 45 37 46 38 47 39 48 80 49 40 50 85 51 79 52 81 53
REMARK SMILES IDX 41 54 84 55 78 56 77 57 42 59 68 60 51 61 67 62 52 63 55 64
REMARK SMILES IDX 66 65 82 66 53 67 54 68 65 70 83 71 56 72 43 73 44 74 49 75
REMARK SMILES IDX 45 76 46 77 48 78 50 79 47 80 69 81 70 82 75 83 71 84 72 85
REMARK SMILES IDX 74 86 76 87 73 88 57 89 58 90 63 91 59 92 60 93 62 94 64 95
REMARK SMILES IDX 61 96
REMARK H PARENT 16 16 81 58 55 69
REMARK Flexibility Score: inf
ROOT
ATOM      1  C   UNL A   1      34.343  33.033  32.471  1.00  0.00     0.188 C 
ENDROOT
BRANCH   1   2
ATOM      2  O   UNL A   1      34.734  33.114  33.862  1.00  0.00    -0.376 OA
BRANCH   2   3
ATOM      3  C   UNL A   1      35.786  33.923  34.399  1.00  0.00     0.202 C 
BRANCH   3   4
ATOM      4  C   UNL A   1      37.412  33.969  33.867  1.00  0.00     0.261 C 
BRANCH   4   5
ATOM      5  O   UNL A   1      38.608  35.113  34.031  1.00  0.00    -0.460 OA
BRANCH   5   6
ATOM      6  C   UNL A   1      39.592  35.468  34.981  1.00  0.00     0.338 C 
ATOM      7  O   UNL A   1      39.698  36.478  35.673  1.00  0.00    -0.246 OA
BRANCH   6   8
ATOM      8  C   UNL A   1      40.726  34.614  35.378  1.00  0.00     0.062 A 
ATOM      9  C   UNL A   1      40.951  32.847  36.979  1.00  0.00     0.038 A 
ATOM     10  C   UNL A   1      40.672  34.193  36.685  1.00  0.00     0.041 A 
ATOM     11  C   UNL A   1      41.540  31.990  36.021  1.00  0.00    -0.028 A 
ATOM     12  C   UNL A   1      41.711  32.456  34.718  1.00  0.00     0.006 A 
ATOM     13  C   UNL A   1      41.979  30.588  36.333  1.00  0.00     0.046 C 
ATOM     14  C   UNL A   1      41.251  33.729  34.390  1.00  0.00     0.016 A 
BRANCH   9  15
ATOM     15  N   UNL A   1      40.304  32.314  38.123  1.00  0.00    -0.373 N 
ATOM     16  H   UNL A   1      40.710  31.669  38.746  1.00  0.00     0.161 HD
BRANCH  15  17
ATOM     17  C   UNL A   1      38.922  32.864  38.255  1.00  0.00     0.179 C 
ATOM     18  N   UNL A   1      37.433  32.168  39.930  1.00  0.00    -0.245 N 
ATOM     19  C   UNL A   1      37.094  31.441  38.823  1.00  0.00     0.236 C 
ATOM     20  C   UNL A   1      38.506  32.992  39.718  1.00  0.00     0.256 C 
ATOM     21  O   UNL A   1      36.223  30.587  38.734  1.00  0.00    -0.274 OA
ATOM     22  C   UNL A   1      37.907  31.911  37.655  1.00  0.00     0.136 C 
ATOM     23  O   UNL A   1      39.122  33.620  40.569  1.00  0.00    -0.272 OA
BRANCH  18  24
ATOM     24  C   UNL A   1      36.862  31.993  41.206  1.00  0.00     0.094 A 
ATOM     25  C   UNL A   1      37.356  31.040  42.111  1.00  0.00     0.144 A 
ATOM     26  C   UNL A   1      36.685  30.798  43.311  1.00  0.00     0.069 A 
ATOM     27  C   UNL A   1      35.523  31.508  43.620  1.00  0.00     0.047 A 
ATOM     28  C   UNL A   1      35.709  32.719  41.538  1.00  0.00     0.035 A 
ATOM     29  Cl  UNL A   1      34.747  31.169  45.126  1.00  0.00    -0.084 Cl
ATOM     30  C   UNL A   1      35.010  32.464  42.730  1.00  0.00    -0.030 A 
ATOM     31  C   UNL A   1      33.728  33.200  43.004  1.00  0.00     0.046 C 
BRANCH  25  32
ATOM     32  O   UNL A   1      38.484  30.290  41.896  1.00  0.00    -0.495 OA
ATOM     33  C   UNL A   1      39.250  30.084  43.085  1.00  0.00     0.278 C 
ENDBRANCH  25  32
ENDBRANCH  18  24
ENDBRANCH  15  17
ENDBRANCH   9  15
ENDBRANCH   6   8
ENDBRANCH   5   6
ENDBRANCH   4   5
ENDBRANCH   3   4
ENDBRANCH   2   3
ENDBRANCH   1   2
BRANCH   1  34
ATOM     34  C   UNL A   1      34.810  34.014  31.394  1.00  0.00     0.188 C 
BRANCH  34  35
ATOM     35  O   UNL A   1      35.498  33.329  30.366  1.00  0.00    -0.376 OA
BRANCH  35  36
ATOM     36  C   UNL A   1      35.255  33.796  29.049  1.00  0.00     0.202 C 
BRANCH  36  37
ATOM     37  C   UNL A   1      35.087  32.657  28.021  1.00  0.00     0.261 C 
BRANCH  37  38
ATOM     38  O   UNL A   1      34.745  31.411  28.678  1.00  0.00    -0.460 OA
BRANCH  38  39
ATOM     39  C   UNL A   1      35.171  30.233  28.091  1.00  0.00     0.338 C 
ATOM     40  O   UNL A   1      34.532  29.572  27.325  1.00  0.00    -0.246 OA
BRANCH  39  41
ATOM     41  C   UNL A   1      36.446  29.771  28.769  1.00  0.00     0.060 A 
ATOM     42  C   UNL A   1      36.674  29.702  30.152  1.00  0.00     0.016 A 
ATOM     43  C   UNL A   1      37.559  29.846  28.014  1.00  0.00     0.016 A 
ATOM     44  C   UNL A   1      38.014  29.891  30.727  1.00  0.00     0.010 A 
ATOM     45  C   UNL A   1      38.670  30.381  28.665  1.00  0.00     0.010 A 
ATOM     46  C   UNL A   1      39.115  30.334  29.985  1.00  0.00    -0.014 A 
BRANCH  46  47
ATOM     47  C   UNL A   1      40.510  30.991  30.518  1.00  0.00     0.031 A 
ATOM     48  C   UNL A   1      41.095  32.538  30.789  1.00  0.00     0.074 A 
ATOM     49  C   UNL A   1      41.456  30.070  30.829  1.00  0.00     0.049 A 
ATOM     50  N   UNL A   1      42.384  32.849  30.706  1.00  0.00    -0.248 NA
ATOM     51  C   UNL A   1      40.401  33.835  31.083  1.00  0.00     0.031 C 
ATOM     52  C   UNL A   1      42.742  30.265  31.496  1.00  0.00     0.029 A 
ATOM     53  N   UNL A   1      41.495  28.724  30.442  1.00  0.00    -0.354 N 
ATOM     54  C   UNL A   1      42.566  34.185  31.075  1.00  0.00     0.074 A 
ATOM     55  C   UNL A   1      41.307  34.791  31.005  1.00  0.00     0.031 C 
ATOM     56  C   UNL A   1      43.560  29.265  31.141  1.00  0.00     0.029 A 
ATOM     57  C   UNL A   1      42.847  28.425  30.200  1.00  0.00     0.049 A 
ATOM     58  H   UNL A   1      40.729  28.111  30.358  1.00  0.00     0.167 HD
ATOM     59  C   UNL A   1      43.712  34.762  31.521  1.00  0.00     0.037 A 
ATOM     60  C   UNL A   1      43.245  28.045  28.956  1.00  0.00     0.037 A 
ATOM     61  C   UNL A   1      44.840  33.935  31.198  1.00  0.00     0.049 A 
ATOM     62  C   UNL A   1      44.217  29.018  28.320  1.00  0.00     0.074 A 
ATOM     63  C   UNL A   1      45.619  33.027  31.879  1.00  0.00     0.029 A 
ATOM     64  N   UNL A   1      45.073  33.730  29.853  1.00  0.00    -0.354 N 
ATOM     65  N   UNL A   1      44.781  30.025  28.935  1.00  0.00    -0.248 NA
ATOM     66  C   UNL A   1      44.553  28.987  26.894  1.00  0.00     0.031 C 
ATOM     67  C   UNL A   1      46.176  32.144  30.899  1.00  0.00     0.029 A 
ATOM     68  C   UNL A   1      45.783  32.570  29.641  1.00  0.00     0.049 A 
ATOM     69  H   UNL A   1      44.771  34.336  29.138  1.00  0.00     0.167 HD
ATOM     70  C   UNL A   1      45.379  30.833  28.005  1.00  0.00     0.074 A 
ATOM     71  C   UNL A   1      45.249  30.125  26.748  1.00  0.00     0.031 C 
ATOM     72  C   UNL A   1      45.880  32.069  28.281  1.00  0.00     0.037 A 
BRANCH  59  73
ATOM     73  C   UNL A   1      43.744  36.119  32.222  1.00  0.00     0.057 A 
ATOM     74  C   UNL A   1      43.828  37.315  31.496  1.00  0.00     0.134 A 
ATOM     75  C   UNL A   1      43.752  36.303  33.630  1.00  0.00     0.134 A 
ATOM     76  F   UNL A   1      43.907  37.305  30.158  1.00  0.00    -0.206 F 
ATOM     77  C   UNL A   1      43.843  38.583  32.116  1.00  0.00     0.040 A 
ATOM     78  C   UNL A   1      43.676  37.556  34.256  1.00  0.00     0.040 A 
ATOM     79  F   UNL A   1      43.882  35.275  34.482  1.00  0.00    -0.206 F 
ATOM     80  C   UNL A   1      43.728  38.709  33.496  1.00  0.00     0.006 A 
ENDBRANCH  59  73
BRANCH  60  81
ATOM     81  C   UNL A   1      42.228  27.194  28.261  1.00  0.00     0.057 A 
ATOM     82  C   UNL A   1      42.167  25.826  28.608  1.00  0.00     0.134 A 
ATOM     83  C   UNL A   1      41.141  27.699  27.543  1.00  0.00     0.134 A 
ATOM     84  F   UNL A   1      43.169  25.261  29.303  1.00  0.00    -0.206 F 
ATOM     85  C   UNL A   1      41.038  25.039  28.364  1.00  0.00     0.040 A 
ATOM     86  C   UNL A   1      40.015  26.906  27.262  1.00  0.00     0.040 A 
ATOM     87  F   UNL A   1      41.065  28.999  27.229  1.00  0.00    -0.206 F 
ATOM     88  C   UNL A   1      39.947  25.587  27.706  1.00  0.00     0.006 A 
ENDBRANCH  60  81
BRANCH  72  89
ATOM     89  C   UNL A   1      46.501  32.911  27.213  1.00  0.00     0.057 A 
ATOM     90  C   UNL A   1      47.892  32.997  27.099  1.00  0.00     0.134 A 
ATOM     91  C   UNL A   1      45.748  33.754  26.378  1.00  0.00     0.134 A 
ATOM     92  F   UNL A   1      48.687  32.219  27.849  1.00  0.00    -0.206 F 
ATOM     93  C   UNL A   1      48.505  33.897  26.224  1.00  0.00     0.040 A 
ATOM     94  C   UNL A   1      46.346  34.685  25.527  1.00  0.00     0.040 A 
ATOM     95  F   UNL A   1      44.406  33.705  26.369  1.00  0.00    -0.206 F 
ATOM     96  C   UNL A   1      47.733  34.761  25.453  1.00  0.00     0.006 A 
ENDBRANCH  72  89
ENDBRANCH  46  47
ENDBRANCH  39  41
ENDBRANCH  38  39
ENDBRANCH  37  38
ENDBRANCH  36  37
ENDBRANCH  35  36
ENDBRANCH  34  35
ENDBRANCH   1  34
TORSDOF 21
ENDMDL
