MODEL 1
REMARK VINA RESULT:     -10.9      0.000      0.000
REMARK SMILES O=Cc1ccc2c(c1)C=C(C(=O)OCCOCCOCCOC(=O)c1ccc(-c3c4nc(c(-c5c(F)cccc5F)c5ccc([nH]5)c(-c5c(F)cccc5F)c5nc(c(-c6c(F)cccc6F)c6ccc3[nH]6)C=C5)C=C4)cc1)[C@H](C(F)(F)F)O2
REMARK SMILES IDX 18 1 17 2 16 3 15 4 14 5 13 6 11 7 12 8 10 9 3 10 4 11 8 12
REMARK SMILES IDX 5 13 7 14 6 15 9 16 84 17 79 18 2 19 1 20 80 21 81 22 82 23
REMARK SMILES IDX 83 24 19 25 20 26 21 27 22 28 23 29 24 30 25 31 26 32 78 33
REMARK SMILES IDX 27 34 77 35 28 36 29 37 30 38 71 39 31 40 76 41 70 42 72 43
REMARK SMILES IDX 32 44 75 45 69 46 68 47 33 49 59 50 42 51 58 52 43 53 46 54
REMARK SMILES IDX 57 55 73 56 44 57 45 58 56 60 74 61 47 62 34 63 35 64 40 65
REMARK SMILES IDX 36 66 37 67 39 68 41 69 38 70 60 71 61 72 66 73 62 74 63 75
REMARK SMILES IDX 65 76 67 77 64 78 48 79 49 80 54 81 50 82 51 83 53 84 55 85
REMARK SMILES IDX 52 86
REMARK H PARENT 72 48 46 59
REMARK Flexibility Score: inf
ROOT
ATOM      1  C   UNL A   1      40.734  20.383  26.392  1.00  0.00     0.188 C 
ENDROOT
BRANCH   1   2
ATOM      2  C   UNL A   1      39.714  21.477  26.016  1.00  0.00     0.188 C 
BRANCH   2   3
ATOM      3  O   UNL A   1      38.452  21.014  25.604  1.00  0.00    -0.376 OA
BRANCH   3   4
ATOM      4  C   UNL A   1      37.444  21.927  25.205  1.00  0.00     0.202 C 
BRANCH   4   5
ATOM      5  C   UNL A   1      37.236  23.349  25.768  1.00  0.00     0.261 C 
BRANCH   5   6
ATOM      6  O   UNL A   1      36.130  24.114  25.279  1.00  0.00    -0.460 OA
BRANCH   6   7
ATOM      7  C   UNL A   1      34.928  23.869  25.858  1.00  0.00     0.338 C 
ATOM      8  O   UNL A   1      34.740  23.285  26.909  1.00  0.00    -0.246 OA
BRANCH   7   9
ATOM      9  C   UNL A   1      33.850  24.535  25.099  1.00  0.00     0.087 C 
ATOM     10  C   UNL A   1      31.146  28.353  23.953  1.00  0.00     0.015 A 
ATOM     11  C   UNL A   1      30.835  27.759  22.725  1.00  0.00     0.015 A 
ATOM     12  C   UNL A   1      31.972  27.699  24.877  1.00  0.00     0.023 A 
ATOM     13  C   UNL A   1      31.351  26.503  22.416  1.00  0.00     0.048 A 
ATOM     14  C   UNL A   1      32.504  26.446  24.558  1.00  0.00     0.018 A 
ATOM     15  C   UNL A   1      32.174  25.851  23.332  1.00  0.00     0.128 A 
ATOM     16  C   UNL A   1      33.499  25.794  25.411  1.00  0.00     0.027 C 
ATOM     17  O   UNL A   1      32.698  24.652  22.930  1.00  0.00    -0.475 OA
ATOM     18  C   UNL A   1      33.124  23.777  24.008  1.00  0.00     0.316 C 
BRANCH  10  19
ATOM     19  C   UNL A   1      30.640  29.708  24.258  1.00  0.00     0.260 C 
ATOM     20  O   UNL A   1      29.719  30.214  23.630  1.00  0.00    -0.298 OA
ENDBRANCH  10  19
BRANCH  18  21
ATOM     21  C   UNL A   1      33.801  22.546  23.382  1.00  0.00     0.430 C 
ATOM     22  F   UNL A   1      33.849  21.512  24.257  1.00  0.00    -0.167 F 
ATOM     23  F   UNL A   1      33.068  22.097  22.328  1.00  0.00    -0.167 F 
ATOM     24  F   UNL A   1      35.044  22.792  22.928  1.00  0.00    -0.167 F 
ENDBRANCH  18  21
ENDBRANCH   7   9
ENDBRANCH   6   7
ENDBRANCH   5   6
ENDBRANCH   4   5
ENDBRANCH   3   4
ENDBRANCH   2   3
ENDBRANCH   1   2
BRANCH   1  25
ATOM     25  O   UNL A   1      41.713  19.973  25.456  1.00  0.00    -0.376 OA
BRANCH  25  26
ATOM     26  C   UNL A   1      43.087  20.178  25.752  1.00  0.00     0.202 C 
BRANCH  26  27
ATOM     27  C   UNL A   1      43.789  21.535  25.536  1.00  0.00     0.261 C 
BRANCH  27  28
ATOM     28  O   UNL A   1      42.964  22.639  25.136  1.00  0.00    -0.460 OA
BRANCH  28  29
ATOM     29  C   UNL A   1      43.599  23.836  25.034  1.00  0.00     0.338 C 
ATOM     30  O   UNL A   1      44.472  24.146  24.248  1.00  0.00    -0.246 OA
BRANCH  29  31
ATOM     31  C   UNL A   1      42.941  24.816  25.923  1.00  0.00     0.060 A 
ATOM     32  C   UNL A   1      43.482  26.107  26.019  1.00  0.00     0.016 A 
ATOM     33  C   UNL A   1      41.844  24.449  26.703  1.00  0.00     0.016 A 
ATOM     34  C   UNL A   1      42.936  27.032  26.908  1.00  0.00     0.010 A 
ATOM     35  C   UNL A   1      41.316  25.370  27.613  1.00  0.00     0.010 A 
ATOM     36  C   UNL A   1      41.875  26.655  27.741  1.00  0.00    -0.014 A 
BRANCH  36  37
ATOM     37  C   UNL A   1      41.464  27.539  28.860  1.00  0.00     0.031 A 
ATOM     38  C   UNL A   1      42.217  27.454  30.160  1.00  0.00     0.074 A 
ATOM     39  C   UNL A   1      40.449  28.409  28.725  1.00  0.00     0.049 A 
ATOM     40  N   UNL A   1      41.992  28.070  31.293  1.00  0.00    -0.248 NA
ATOM     41  C   UNL A   1      43.379  26.552  30.183  1.00  0.00     0.031 C 
ATOM     42  C   UNL A   1      39.675  28.627  27.505  1.00  0.00     0.029 A 
ATOM     43  N   UNL A   1      39.890  29.269  29.638  1.00  0.00    -0.354 N 
ATOM     44  C   UNL A   1      42.977  27.622  32.165  1.00  0.00     0.074 A 
ATOM     45  C   UNL A   1      43.782  26.662  31.440  1.00  0.00     0.031 C 
ATOM     46  C   UNL A   1      38.728  29.549  27.751  1.00  0.00     0.029 A 
ATOM     47  C   UNL A   1      38.805  29.957  29.153  1.00  0.00     0.049 A 
ATOM     48  H   UNL A   1      40.234  29.381  30.553  1.00  0.00     0.167 HD
ATOM     49  C   UNL A   1      43.198  27.984  33.452  1.00  0.00     0.037 A 
ATOM     50  C   UNL A   1      37.956  30.796  29.778  1.00  0.00     0.037 A 
ATOM     51  C   UNL A   1      42.392  28.933  34.175  1.00  0.00     0.049 A 
ATOM     52  C   UNL A   1      38.165  31.114  31.237  1.00  0.00     0.074 A 
ATOM     53  C   UNL A   1      42.541  29.374  35.478  1.00  0.00     0.029 A 
ATOM     54  N   UNL A   1      41.280  29.582  33.659  1.00  0.00    -0.354 N 
ATOM     55  N   UNL A   1      39.109  30.702  32.049  1.00  0.00    -0.248 NA
ATOM     56  C   UNL A   1      37.188  32.015  31.866  1.00  0.00     0.031 C 
ATOM     57  C   UNL A   1      41.485  30.244  35.770  1.00  0.00     0.029 A 
ATOM     58  C   UNL A   1      40.716  30.397  34.627  1.00  0.00     0.049 A 
ATOM     59  H   UNL A   1      40.941  29.479  32.740  1.00  0.00     0.167 HD
ATOM     60  C   UNL A   1      38.862  31.321  33.269  1.00  0.00     0.074 A 
ATOM     61  C   UNL A   1      37.685  32.145  33.088  1.00  0.00     0.031 C 
ATOM     62  C   UNL A   1      39.550  31.221  34.434  1.00  0.00     0.037 A 
BRANCH  49  63
ATOM     63  C   UNL A   1      44.338  27.325  34.171  1.00  0.00     0.057 A 
ATOM     64  C   UNL A   1      44.185  26.105  34.845  1.00  0.00     0.134 A 
ATOM     65  C   UNL A   1      45.614  27.902  34.166  1.00  0.00     0.134 A 
ATOM     66  F   UNL A   1      42.988  25.505  34.902  1.00  0.00    -0.206 F 
ATOM     67  C   UNL A   1      45.254  25.498  35.508  1.00  0.00     0.040 A 
ATOM     68  C   UNL A   1      46.697  27.291  34.799  1.00  0.00     0.040 A 
ATOM     69  F   UNL A   1      45.832  29.067  33.535  1.00  0.00    -0.206 F 
ATOM     70  C   UNL A   1      46.516  26.088  35.479  1.00  0.00     0.006 A 
ENDBRANCH  49  63
BRANCH  50  71
ATOM     71  C   UNL A   1      36.813  31.391  29.038  1.00  0.00     0.057 A 
ATOM     72  C   UNL A   1      36.822  32.734  28.643  1.00  0.00     0.134 A 
ATOM     73  C   UNL A   1      35.667  30.641  28.742  1.00  0.00     0.134 A 
ATOM     74  F   UNL A   1      37.878  33.512  28.923  1.00  0.00    -0.206 F 
ATOM     75  C   UNL A   1      35.728  33.316  28.000  1.00  0.00     0.040 A 
ATOM     76  C   UNL A   1      34.577  31.202  28.074  1.00  0.00     0.040 A 
ATOM     77  F   UNL A   1      35.591  29.350  29.096  1.00  0.00    -0.206 F 
ATOM     78  C   UNL A   1      34.602  32.547  27.710  1.00  0.00     0.006 A 
ENDBRANCH  50  71
BRANCH  62  79
ATOM     79  C   UNL A   1      39.081  32.056  35.592  1.00  0.00     0.057 A 
ATOM     80  C   UNL A   1      38.236  31.547  36.586  1.00  0.00     0.134 A 
ATOM     81  C   UNL A   1      39.521  33.380  35.736  1.00  0.00     0.134 A 
ATOM     82  F   UNL A   1      37.770  30.292  36.505  1.00  0.00    -0.206 F 
ATOM     83  C   UNL A   1      37.824  32.332  37.666  1.00  0.00     0.040 A 
ATOM     84  C   UNL A   1      39.140  34.164  36.827  1.00  0.00     0.040 A 
ATOM     85  F   UNL A   1      40.341  33.929  34.828  1.00  0.00    -0.206 F 
ATOM     86  C   UNL A   1      38.282  33.642  37.792  1.00  0.00     0.006 A 
ENDBRANCH  62  79
ENDBRANCH  36  37
ENDBRANCH  29  31
ENDBRANCH  28  29
ENDBRANCH  27  28
ENDBRANCH  26  27
ENDBRANCH  25  26
ENDBRANCH   1  25
TORSDOF 19
ENDMDL
MODEL 2
REMARK VINA RESULT:     -10.5      4.432      9.773
REMARK SMILES O=Cc1ccc2c(c1)C=C(C(=O)OCCOCCOCCOC(=O)c1ccc(-c3c4nc(c(-c5c(F)cccc5F)c5ccc([nH]5)c(-c5c(F)cccc5F)c5nc(c(-c6c(F)cccc6F)c6ccc3[nH]6)C=C5)C=C4)cc1)[C@H](C(F)(F)F)O2
REMARK SMILES IDX 18 1 17 2 16 3 15 4 14 5 13 6 11 7 12 8 10 9 3 10 4 11 8 12
REMARK SMILES IDX 5 13 7 14 6 15 9 16 84 17 79 18 2 19 1 20 80 21 81 22 82 23
REMARK SMILES IDX 83 24 19 25 20 26 21 27 22 28 23 29 24 30 25 31 26 32 78 33
REMARK SMILES IDX 27 34 77 35 28 36 29 37 30 38 71 39 31 40 76 41 70 42 72 43
REMARK SMILES IDX 32 44 75 45 69 46 68 47 33 49 59 50 42 51 58 52 43 53 46 54
REMARK SMILES IDX 57 55 73 56 44 57 45 58 56 60 74 61 47 62 34 63 35 64 40 65
REMARK SMILES IDX 36 66 37 67 39 68 41 69 38 70 60 71 61 72 66 73 62 74 63 75
REMARK SMILES IDX 65 76 67 77 64 78 48 79 49 80 54 81 50 82 51 83 53 84 55 85
REMARK SMILES IDX 52 86
REMARK H PARENT 72 48 46 59
REMARK Flexibility Score: inf
ROOT
ATOM      1  C   UNL A   1      35.161  33.634  28.186  1.00  0.00     0.188 C 
ENDROOT
BRANCH   1   2
ATOM      2  C   UNL A   1      33.828  32.892  27.957  1.00  0.00     0.188 C 
BRANCH   2   3
ATOM      3  O   UNL A   1      33.834  31.522  28.271  1.00  0.00    -0.376 OA
BRANCH   3   4
ATOM      4  C   UNL A   1      34.419  30.582  27.386  1.00  0.00     0.202 C 
BRANCH   4   5
ATOM      5  C   UNL A   1      33.657  29.662  26.409  1.00  0.00     0.261 C 
BRANCH   5   6
ATOM      6  O   UNL A   1      33.810  28.248  26.553  1.00  0.00    -0.460 OA
BRANCH   6   7
ATOM      7  C   UNL A   1      32.666  27.518  26.571  1.00  0.00     0.338 C 
ATOM      8  O   UNL A   1      31.639  27.802  27.160  1.00  0.00    -0.246 OA
BRANCH   7   9
ATOM      9  C   UNL A   1      32.778  26.370  25.650  1.00  0.00     0.087 C 
ATOM     10  C   UNL A   1      33.524  21.711  24.679  1.00  0.00     0.015 A 
ATOM     11  C   UNL A   1      32.837  21.857  23.469  1.00  0.00     0.015 A 
ATOM     12  C   UNL A   1      33.702  22.803  25.539  1.00  0.00     0.023 A 
ATOM     13  C   UNL A   1      32.325  23.102  23.113  1.00  0.00     0.048 A 
ATOM     14  C   UNL A   1      33.171  24.049  25.189  1.00  0.00     0.018 A 
ATOM     15  C   UNL A   1      32.498  24.190  23.966  1.00  0.00     0.128 A 
ATOM     16  C   UNL A   1      33.184  25.179  26.119  1.00  0.00     0.027 C 
ATOM     17  O   UNL A   1      31.908  25.364  23.581  1.00  0.00    -0.475 OA
ATOM     18  C   UNL A   1      32.476  26.559  24.178  1.00  0.00     0.316 C 
BRANCH  10  19
ATOM     19  C   UNL A   1      34.022  20.379  25.079  1.00  0.00     0.260 C 
ATOM     20  O   UNL A   1      35.146  19.991  24.789  1.00  0.00    -0.298 OA
ENDBRANCH  10  19
BRANCH  18  21
ATOM     21  C   UNL A   1      31.619  27.760  23.744  1.00  0.00     0.430 C 
ATOM     22  F   UNL A   1      32.347  28.902  23.718  1.00  0.00    -0.167 F 
ATOM     23  F   UNL A   1      31.178  27.582  22.470  1.00  0.00    -0.167 F 
ATOM     24  F   UNL A   1      30.534  27.951  24.518  1.00  0.00    -0.167 F 
ENDBRANCH  18  21
ENDBRANCH   7   9
ENDBRANCH   6   7
ENDBRANCH   5   6
ENDBRANCH   4   5
ENDBRANCH   3   4
ENDBRANCH   2   3
ENDBRANCH   1   2
BRANCH   1  25
ATOM     25  O   UNL A   1      35.291  34.545  29.260  1.00  0.00    -0.376 OA
BRANCH  25  26
ATOM     26  C   UNL A   1      34.245  34.647  30.216  1.00  0.00     0.202 C 
BRANCH  26  27
ATOM     27  C   UNL A   1      34.315  33.965  31.598  1.00  0.00     0.261 C 
BRANCH  27  28
ATOM     28  O   UNL A   1      34.709  32.584  31.624  1.00  0.00    -0.460 OA
BRANCH  28  29
ATOM     29  C   UNL A   1      35.684  32.273  32.517  1.00  0.00     0.338 C 
ATOM     30  O   UNL A   1      35.675  32.457  33.718  1.00  0.00    -0.246 OA
BRANCH  29  31
ATOM     31  C   UNL A   1      36.733  31.483  31.839  1.00  0.00     0.060 A 
ATOM     32  C   UNL A   1      37.723  30.868  32.620  1.00  0.00     0.016 A 
ATOM     33  C   UNL A   1      36.781  31.406  30.447  1.00  0.00     0.016 A 
ATOM     34  C   UNL A   1      38.773  30.183  32.010  1.00  0.00     0.010 A 
ATOM     35  C   UNL A   1      37.851  30.742  29.837  1.00  0.00     0.010 A 
ATOM     36  C   UNL A   1      38.866  30.151  30.614  1.00  0.00    -0.014 A 
BRANCH  36  37
ATOM     37  C   UNL A   1      40.106  29.656  29.966  1.00  0.00     0.031 A 
ATOM     38  C   UNL A   1      41.249  30.613  29.767  1.00  0.00     0.074 A 
ATOM     39  C   UNL A   1      40.222  28.376  29.570  1.00  0.00     0.049 A 
ATOM     40  N   UNL A   1      42.395  30.428  29.163  1.00  0.00    -0.248 NA
ATOM     41  C   UNL A   1      41.074  31.963  30.327  1.00  0.00     0.031 C 
ATOM     42  C   UNL A   1      39.212  27.337  29.752  1.00  0.00     0.029 A 
ATOM     43  N   UNL A   1      41.250  27.739  28.919  1.00  0.00    -0.354 N 
ATOM     44  C   UNL A   1      43.071  31.638  29.260  1.00  0.00     0.074 A 
ATOM     45  C   UNL A   1      42.197  32.558  29.955  1.00  0.00     0.031 C 
ATOM     46  C   UNL A   1      39.663  26.193  29.208  1.00  0.00     0.029 A 
ATOM     47  C   UNL A   1      40.976  26.430  28.608  1.00  0.00     0.049 A 
ATOM     48  H   UNL A   1      42.102  28.178  28.697  1.00  0.00     0.167 HD
ATOM     49  C   UNL A   1      44.312  31.952  28.818  1.00  0.00     0.037 A 
ATOM     50  C   UNL A   1      41.691  25.536  27.897  1.00  0.00     0.037 A 
ATOM     51  C   UNL A   1      45.178  31.038  28.120  1.00  0.00     0.049 A 
ATOM     52  C   UNL A   1      43.031  25.937  27.333  1.00  0.00     0.074 A 
ATOM     53  C   UNL A   1      46.458  31.259  27.641  1.00  0.00     0.029 A 
ATOM     54  N   UNL A   1      44.850  29.731  27.793  1.00  0.00    -0.354 N 
ATOM     55  N   UNL A   1      43.672  27.075  27.446  1.00  0.00    -0.248 NA
ATOM     56  C   UNL A   1      43.747  24.925  26.543  1.00  0.00     0.031 C 
ATOM     57  C   UNL A   1      46.880  30.105  26.972  1.00  0.00     0.029 A 
ATOM     58  C   UNL A   1      45.891  29.143  27.092  1.00  0.00     0.049 A 
ATOM     59  H   UNL A   1      44.002  29.286  28.024  1.00  0.00     0.167 HD
ATOM     60  C   UNL A   1      44.878  26.904  26.776  1.00  0.00     0.074 A 
ATOM     61  C   UNL A   1      44.884  25.548  26.268  1.00  0.00     0.031 C 
ATOM     62  C   UNL A   1      45.892  27.789  26.600  1.00  0.00     0.037 A 
BRANCH  49  63
ATOM     63  C   UNL A   1      44.794  33.354  29.047  1.00  0.00     0.057 A 
ATOM     64  C   UNL A   1      44.533  34.388  28.138  1.00  0.00     0.134 A 
ATOM     65  C   UNL A   1      45.505  33.683  30.209  1.00  0.00     0.134 A 
ATOM     66  F   UNL A   1      43.870  34.141  26.999  1.00  0.00    -0.206 F 
ATOM     67  C   UNL A   1      44.984  35.691  28.363  1.00  0.00     0.040 A 
ATOM     68  C   UNL A   1      45.935  34.986  30.460  1.00  0.00     0.040 A 
ATOM     69  F   UNL A   1      45.786  32.742  31.125  1.00  0.00    -0.206 F 
ATOM     70  C   UNL A   1      45.680  35.994  29.532  1.00  0.00     0.006 A 
ENDBRANCH  49  63
BRANCH  50  71
ATOM     71  C   UNL A   1      41.153  24.172  27.655  1.00  0.00     0.057 A 
ATOM     72  C   UNL A   1      41.646  23.063  28.352  1.00  0.00     0.134 A 
ATOM     73  C   UNL A   1      40.162  23.939  26.692  1.00  0.00     0.134 A 
ATOM     74  F   UNL A   1      42.616  23.216  29.265  1.00  0.00    -0.206 F 
ATOM     75  C   UNL A   1      41.189  21.770  28.088  1.00  0.00     0.040 A 
ATOM     76  C   UNL A   1      39.675  22.656  26.439  1.00  0.00     0.040 A 
ATOM     77  F   UNL A   1      39.650  24.958  25.986  1.00  0.00    -0.206 F 
ATOM     78  C   UNL A   1      40.196  21.565  27.132  1.00  0.00     0.006 A 
ENDBRANCH  50  71
BRANCH  62  79
ATOM     79  C   UNL A   1      47.115  27.307  25.871  1.00  0.00     0.057 A 
ATOM     80  C   UNL A   1      48.167  26.657  26.527  1.00  0.00     0.134 A 
ATOM     81  C   UNL A   1      47.218  27.460  24.481  1.00  0.00     0.134 A 
ATOM     82  F   UNL A   1      48.138  26.487  27.857  1.00  0.00    -0.206 F 
ATOM     83  C   UNL A   1      49.290  26.200  25.832  1.00  0.00     0.040 A 
ATOM     84  C   UNL A   1      48.321  26.980  23.771  1.00  0.00     0.040 A 
ATOM     85  F   UNL A   1      46.242  28.063  23.786  1.00  0.00    -0.206 F 
ATOM     86  C   UNL A   1      49.364  26.354  24.449  1.00  0.00     0.006 A 
ENDBRANCH  62  79
ENDBRANCH  36  37
ENDBRANCH  29  31
ENDBRANCH  28  29
ENDBRANCH  27  28
ENDBRANCH  26  27
ENDBRANCH  25  26
ENDBRANCH   1  25
TORSDOF 19
ENDMDL
MODEL 3
REMARK VINA RESULT:     -10.5      4.582     11.009
REMARK SMILES O=Cc1ccc2c(c1)C=C(C(=O)OCCOCCOCCOC(=O)c1ccc(-c3c4nc(c(-c5c(F)cccc5F)c5ccc([nH]5)c(-c5c(F)cccc5F)c5nc(c(-c6c(F)cccc6F)c6ccc3[nH]6)C=C5)C=C4)cc1)[C@H](C(F)(F)F)O2
REMARK SMILES IDX 18 1 17 2 16 3 15 4 14 5 13 6 11 7 12 8 10 9 3 10 4 11 8 12
REMARK SMILES IDX 5 13 7 14 6 15 9 16 84 17 79 18 2 19 1 20 80 21 81 22 82 23
REMARK SMILES IDX 83 24 19 25 20 26 21 27 22 28 23 29 24 30 25 31 26 32 78 33
REMARK SMILES IDX 27 34 77 35 28 36 29 37 30 38 71 39 31 40 76 41 70 42 72 43
REMARK SMILES IDX 32 44 75 45 69 46 68 47 33 49 59 50 42 51 58 52 43 53 46 54
REMARK SMILES IDX 57 55 73 56 44 57 45 58 56 60 74 61 47 62 34 63 35 64 40 65
REMARK SMILES IDX 36 66 37 67 39 68 41 69 38 70 60 71 61 72 66 73 62 74 63 75
REMARK SMILES IDX 65 76 67 77 64 78 48 79 49 80 54 81 50 82 51 83 53 84 55 85
REMARK SMILES IDX 52 86
REMARK H PARENT 72 48 46 59
REMARK Flexibility Score: inf
ROOT
ATOM      1  C   UNL A   1      32.904  36.108  29.374  1.00  0.00     0.188 C 
ENDROOT
BRANCH   1   2
ATOM      2  C   UNL A   1      32.870  36.440  30.880  1.00  0.00     0.188 C 
BRANCH   2   3
ATOM      3  O   UNL A   1      33.325  35.423  31.736  1.00  0.00    -0.376 OA
BRANCH   3   4
ATOM      4  C   UNL A   1      34.157  35.729  32.842  1.00  0.00     0.202 C 
BRANCH   4   5
ATOM      5  C   UNL A   1      35.045  34.728  33.611  1.00  0.00     0.261 C 
BRANCH   5   6
ATOM      6  O   UNL A   1      36.458  34.954  33.629  1.00  0.00    -0.460 OA
BRANCH   6   7
ATOM      7  C   UNL A   1      37.243  33.853  33.519  1.00  0.00     0.338 C 
ATOM      8  O   UNL A   1      37.000  32.746  33.964  1.00  0.00    -0.246 OA
BRANCH   7   9
ATOM      9  C   UNL A   1      38.402  34.137  32.649  1.00  0.00     0.087 C 
ATOM     10  C   UNL A   1      43.081  34.991  31.885  1.00  0.00     0.015 A 
ATOM     11  C   UNL A   1      42.935  34.578  30.557  1.00  0.00     0.015 A 
ATOM     12  C   UNL A   1      41.983  35.002  32.757  1.00  0.00     0.023 A 
ATOM     13  C   UNL A   1      41.686  34.173  30.093  1.00  0.00     0.048 A 
ATOM     14  C   UNL A   1      40.733  34.578  32.295  1.00  0.00     0.018 A 
ATOM     15  C   UNL A   1      40.593  34.181  30.957  1.00  0.00     0.128 A 
ATOM     16  C   UNL A   1      39.595  34.414  33.201  1.00  0.00     0.027 C 
ATOM     17  O   UNL A   1      39.414  33.705  30.450  1.00  0.00    -0.475 OA
ATOM     18  C   UNL A   1      38.222  34.155  31.146  1.00  0.00     0.316 C 
BRANCH  10  19
ATOM     19  C   UNL A   1      44.417  35.371  32.389  1.00  0.00     0.260 C 
ATOM     20  O   UNL A   1      44.584  35.811  33.520  1.00  0.00    -0.298 OA
ENDBRANCH  10  19
BRANCH  18  21
ATOM     21  C   UNL A   1      37.012  33.429  30.533  1.00  0.00     0.430 C 
ATOM     22  F   UNL A   1      35.903  34.207  30.563  1.00  0.00    -0.167 F 
ATOM     23  F   UNL A   1      37.239  33.171  29.217  1.00  0.00    -0.167 F 
ATOM     24  F   UNL A   1      36.737  32.252  31.128  1.00  0.00    -0.167 F 
ENDBRANCH  18  21
ENDBRANCH   7   9
ENDBRANCH   6   7
ENDBRANCH   5   6
ENDBRANCH   4   5
ENDBRANCH   3   4
ENDBRANCH   2   3
ENDBRANCH   1   2
BRANCH   1  25
ATOM     25  O   UNL A   1      32.656  34.786  28.934  1.00  0.00    -0.376 OA
BRANCH  25  26
ATOM     26  C   UNL A   1      33.645  34.110  28.171  1.00  0.00     0.202 C 
BRANCH  26  27
ATOM     27  C   UNL A   1      34.036  32.641  28.435  1.00  0.00     0.261 C 
BRANCH  27  28
ATOM     28  O   UNL A   1      34.451  31.863  27.302  1.00  0.00    -0.460 OA
BRANCH  28  29
ATOM     29  C   UNL A   1      34.528  30.523  27.511  1.00  0.00     0.338 C 
ATOM     30  O   UNL A   1      33.777  29.664  27.093  1.00  0.00    -0.246 OA
BRANCH  29  31
ATOM     31  C   UNL A   1      35.800  30.207  28.193  1.00  0.00     0.060 A 
ATOM     32  C   UNL A   1      37.005  30.440  27.512  1.00  0.00     0.016 A 
ATOM     33  C   UNL A   1      35.806  29.626  29.460  1.00  0.00     0.016 A 
ATOM     34  C   UNL A   1      38.220  30.078  28.092  1.00  0.00     0.010 A 
ATOM     35  C   UNL A   1      37.024  29.239  30.029  1.00  0.00     0.010 A 
ATOM     36  C   UNL A   1      38.234  29.437  29.337  1.00  0.00    -0.014 A 
BRANCH  36  37
ATOM     37  C   UNL A   1      39.487  28.820  29.837  1.00  0.00     0.031 A 
ATOM     38  C   UNL A   1      40.147  29.409  31.054  1.00  0.00     0.074 A 
ATOM     39  C   UNL A   1      40.027  27.749  29.231  1.00  0.00     0.049 A 
ATOM     40  N   UNL A   1      41.279  29.087  31.626  1.00  0.00    -0.248 NA
ATOM     41  C   UNL A   1      39.430  30.512  31.715  1.00  0.00     0.031 C 
ATOM     42  C   UNL A   1      39.461  27.051  28.079  1.00  0.00     0.029 A 
ATOM     43  N   UNL A   1      41.188  27.066  29.503  1.00  0.00    -0.354 N 
ATOM     44  C   UNL A   1      41.415  29.953  32.704  1.00  0.00     0.074 A 
ATOM     45  C   UNL A   1      40.266  30.832  32.691  1.00  0.00     0.031 C 
ATOM     46  C   UNL A   1      40.286  26.049  27.730  1.00  0.00     0.029 A 
ATOM     47  C   UNL A   1      41.454  26.058  28.610  1.00  0.00     0.049 A 
ATOM     48  H   UNL A   1      41.773  27.280  30.265  1.00  0.00     0.167 HD
ATOM     49  C   UNL A   1      42.404  30.005  33.628  1.00  0.00     0.037 A 
ATOM     50  C   UNL A   1      42.531  25.255  28.500  1.00  0.00     0.037 A 
ATOM     51  C   UNL A   1      43.551  29.135  33.637  1.00  0.00     0.049 A 
ATOM     52  C   UNL A   1      43.664  25.393  29.484  1.00  0.00     0.074 A 
ATOM     53  C   UNL A   1      44.602  29.102  34.537  1.00  0.00     0.029 A 
ATOM     54  N   UNL A   1      43.803  28.149  32.694  1.00  0.00    -0.354 N 
ATOM     55  N   UNL A   1      43.777  26.200  30.512  1.00  0.00    -0.248 NA
ATOM     56  C   UNL A   1      44.822  24.507  29.292  1.00  0.00     0.031 C 
ATOM     57  C   UNL A   1      45.519  28.138  34.105  1.00  0.00     0.029 A 
ATOM     58  C   UNL A   1      45.007  27.523  32.974  1.00  0.00     0.049 A 
ATOM     59  H   UNL A   1      43.213  27.926  31.937  1.00  0.00     0.167 HD
ATOM     60  C   UNL A   1      44.995  25.893  31.109  1.00  0.00     0.074 A 
ATOM     61  C   UNL A   1      45.580  24.819  30.334  1.00  0.00     0.031 C 
ATOM     62  C   UNL A   1      45.575  26.447  32.203  1.00  0.00     0.037 A 
BRANCH  49  63
ATOM     63  C   UNL A   1      42.305  31.061  34.690  1.00  0.00     0.057 A 
ATOM     64  C   UNL A   1      43.064  32.238  34.639  1.00  0.00     0.134 A 
ATOM     65  C   UNL A   1      41.416  30.913  35.762  1.00  0.00     0.134 A 
ATOM     66  F   UNL A   1      43.945  32.438  33.648  1.00  0.00    -0.206 F 
ATOM     67  C   UNL A   1      42.961  33.217  35.631  1.00  0.00     0.040 A 
ATOM     68  C   UNL A   1      41.282  31.897  36.743  1.00  0.00     0.040 A 
ATOM     69  F   UNL A   1      40.655  29.813  35.870  1.00  0.00    -0.206 F 
ATOM     70  C   UNL A   1      42.061  33.051  36.682  1.00  0.00     0.006 A 
ENDBRANCH  49  63
BRANCH  50  71
ATOM     71  C   UNL A   1      42.607  24.253  27.404  1.00  0.00     0.057 A 
ATOM     72  C   UNL A   1      42.153  22.942  27.586  1.00  0.00     0.134 A 
ATOM     73  C   UNL A   1      43.172  24.572  26.162  1.00  0.00     0.134 A 
ATOM     74  F   UNL A   1      41.629  22.567  28.762  1.00  0.00    -0.206 F 
ATOM     75  C   UNL A   1      42.276  21.979  26.583  1.00  0.00     0.040 A 
ATOM     76  C   UNL A   1      43.274  23.628  25.140  1.00  0.00     0.040 A 
ATOM     77  F   UNL A   1      43.630  25.810  25.924  1.00  0.00    -0.206 F 
ATOM     78  C   UNL A   1      42.834  22.323  25.353  1.00  0.00     0.006 A 
ENDBRANCH  50  71
BRANCH  62  79
ATOM     79  C   UNL A   1      46.887  25.873  32.659  1.00  0.00     0.057 A 
ATOM     80  C   UNL A   1      46.963  24.860  33.623  1.00  0.00     0.134 A 
ATOM     81  C   UNL A   1      48.091  26.312  32.091  1.00  0.00     0.134 A 
ATOM     82  F   UNL A   1      45.851  24.400  34.216  1.00  0.00    -0.206 F 
ATOM     83  C   UNL A   1      48.189  24.323  34.024  1.00  0.00     0.040 A 
ATOM     84  C   UNL A   1      49.320  25.762  32.461  1.00  0.00     0.040 A 
ATOM     85  F   UNL A   1      48.092  27.271  31.153  1.00  0.00    -0.206 F 
ATOM     86  C   UNL A   1      49.371  24.770  33.437  1.00  0.00     0.006 A 
ENDBRANCH  62  79
ENDBRANCH  36  37
ENDBRANCH  29  31
ENDBRANCH  28  29
ENDBRANCH  27  28
ENDBRANCH  26  27
ENDBRANCH  25  26
ENDBRANCH   1  25
TORSDOF 19
ENDMDL
