MODEL 1
REMARK VINA RESULT:     -11.2      0.000      0.000
REMARK SMILES Nn1c(S[C@@H](C(=O)OCCOCCOCCOC(=O)c2ccc(-c3c4nc(c(-c5c(F)cccc5F)c5ccc([nH]5)c(-c5c(F)cccc5F)c5nc(c(-c6c(F)cccc6F)c6ccc3[nH]6)C=C5)C=C4)cc2)c2ccccc2)nc2ccc(Br)cc2c1=O
REMARK SMILES IDX 12 1 11 2 10 3 9 4 8 5 6 6 7 7 5 8 4 9 3 10 2 11 88 12 80 13
REMARK SMILES IDX 87 14 89 15 81 16 86 17 82 18 84 19 83 20 85 21 1 22 74 25
REMARK SMILES IDX 75 26 79 27 76 28 78 29 77 30 13 31 14 32 15 33 16 34 17 35
REMARK SMILES IDX 18 36 19 37 20 38 21 39 73 40 22 41 72 42 23 43 24 44 25 45
REMARK SMILES IDX 66 46 26 47 71 48 65 49 67 50 27 51 70 52 64 53 63 54 28 56
REMARK SMILES IDX 54 57 37 58 53 59 38 60 41 61 52 62 68 63 39 64 40 65 51 67
REMARK SMILES IDX 69 68 42 69 29 70 30 71 35 72 31 73 32 74 34 75 36 76 33 77
REMARK SMILES IDX 55 78 56 79 61 80 57 81 58 82 60 83 62 84 59 85 43 86 44 87
REMARK SMILES IDX 49 88 45 89 46 90 48 91 50 92 47 93
REMARK H PARENT 1 23 1 24 67 55 41 66
REMARK Flexibility Score: inf
ROOT
ATOM      1  C   UNL A   1      34.729  31.436  27.644  1.00  0.00     0.188 C 
ENDROOT
BRANCH   1   2
ATOM      2  O   UNL A   1      33.399  30.991  27.928  1.00  0.00    -0.376 OA
BRANCH   2   3
ATOM      3  C   UNL A   1      32.563  30.752  26.804  1.00  0.00     0.202 C 
BRANCH   3   4
ATOM      4  C   UNL A   1      33.087  29.706  25.810  1.00  0.00     0.261 C 
BRANCH   4   5
ATOM      5  O   UNL A   1      32.108  28.705  25.422  1.00  0.00    -0.462 OA
BRANCH   5   6
ATOM      6  C   UNL A   1      31.656  28.800  24.144  1.00  0.00     0.324 C 
ATOM      7  O   UNL A   1      32.420  28.949  23.187  1.00  0.00    -0.251 OA
BRANCH   6   8
ATOM      8  C   UNL A   1      30.135  28.699  23.925  1.00  0.00     0.194 C 
BRANCH   8   9
ATOM      9  S   UNL A   1      29.366  27.051  23.799  1.00  0.00    -0.066 SA
BRANCH   9  10
ATOM     10  C   UNL A   1      30.276  25.644  24.329  1.00  0.00     0.191 A 
ATOM     11  N   UNL A   1      30.649  25.434  25.636  1.00  0.00    -0.202 N 
ATOM     12  C   UNL A   1      30.660  24.136  26.053  1.00  0.00     0.280 A 
ATOM     13  N   UNL A   1      30.539  24.731  23.420  1.00  0.00    -0.222 NA
ATOM     14  C   UNL A   1      31.280  23.186  25.166  1.00  0.00     0.069 A 
ATOM     15  O   UNL A   1      30.075  23.780  27.064  1.00  0.00    -0.267 OA
ATOM     16  C   UNL A   1      31.206  23.535  23.825  1.00  0.00     0.079 A 
ATOM     17  C   UNL A   1      31.896  22.030  25.656  1.00  0.00     0.031 A 
ATOM     18  C   UNL A   1      31.765  22.623  22.928  1.00  0.00     0.030 A 
ATOM     19  C   UNL A   1      32.472  21.160  24.752  1.00  0.00     0.018 A 
ATOM     20  C   UNL A   1      32.399  21.443  23.389  1.00  0.00     0.018 A 
ATOM     21  Br  UNL A   1      33.341  19.608  25.389  1.00  0.00    -0.051 Br
BRANCH  11  22
ATOM     22  N   UNL A   1      30.653  26.365  26.652  1.00  0.00    -0.334 N 
ATOM     23  H   UNL A   1      30.604  27.325  26.440  1.00  0.00     0.178 HD
ATOM     24  H   UNL A   1      30.706  26.069  27.589  1.00  0.00     0.178 HD
ENDBRANCH  11  22
ENDBRANCH   9  10
ENDBRANCH   8   9
BRANCH   8  25
ATOM     25  C   UNL A   1      29.533  29.902  23.196  1.00  0.00    -0.023 A 
ATOM     26  C   UNL A   1      29.359  31.123  23.869  1.00  0.00     0.005 A 
ATOM     27  C   UNL A   1      29.085  29.818  21.855  1.00  0.00     0.005 A 
ATOM     28  C   UNL A   1      28.686  32.184  23.260  1.00  0.00     0.000 A 
ATOM     29  C   UNL A   1      28.404  30.879  21.253  1.00  0.00     0.000 A 
ATOM     30  C   UNL A   1      28.192  32.056  21.962  1.00  0.00     0.000 A 
ENDBRANCH   8  25
ENDBRANCH   6   8
ENDBRANCH   5   6
ENDBRANCH   4   5
ENDBRANCH   3   4
ENDBRANCH   2   3
ENDBRANCH   1   2
BRANCH   1  31
ATOM     31  C   UNL A   1      35.113  32.860  28.075  1.00  0.00     0.188 C 
BRANCH  31  32
ATOM     32  O   UNL A   1      34.047  33.508  28.762  1.00  0.00    -0.376 OA
BRANCH  32  33
ATOM     33  C   UNL A   1      33.804  34.833  28.295  1.00  0.00     0.202 C 
BRANCH  33  34
ATOM     34  C   UNL A   1      33.047  35.670  29.330  1.00  0.00     0.261 C 
BRANCH  34  35
ATOM     35  O   UNL A   1      32.633  34.952  30.514  1.00  0.00    -0.460 OA
BRANCH  35  36
ATOM     36  C   UNL A   1      32.959  35.489  31.716  1.00  0.00     0.338 C 
ATOM     37  O   UNL A   1      32.376  36.391  32.301  1.00  0.00    -0.246 OA
BRANCH  36  38
ATOM     38  C   UNL A   1      34.147  34.795  32.274  1.00  0.00     0.060 A 
ATOM     39  C   UNL A   1      34.025  33.723  33.156  1.00  0.00     0.016 A 
ATOM     40  C   UNL A   1      35.423  35.181  31.858  1.00  0.00     0.016 A 
ATOM     41  C   UNL A   1      35.184  33.077  33.618  1.00  0.00     0.010 A 
ATOM     42  C   UNL A   1      36.566  34.669  32.432  1.00  0.00     0.010 A 
ATOM     43  C   UNL A   1      36.454  33.567  33.269  1.00  0.00    -0.014 A 
BRANCH  43  44
ATOM     44  C   UNL A   1      37.712  32.866  33.571  1.00  0.00     0.031 A 
ATOM     45  C   UNL A   1      38.575  33.292  34.709  1.00  0.00     0.074 A 
ATOM     46  C   UNL A   1      38.166  31.995  32.651  1.00  0.00     0.049 A 
ATOM     47  N   UNL A   1      39.628  32.699  35.200  1.00  0.00    -0.248 NA
ATOM     48  C   UNL A   1      38.244  34.575  35.348  1.00  0.00     0.031 C 
ATOM     49  C   UNL A   1      37.509  31.696  31.372  1.00  0.00     0.029 A 
ATOM     50  N   UNL A   1      39.305  31.240  32.622  1.00  0.00    -0.354 N 
ATOM     51  C   UNL A   1      40.052  33.500  36.250  1.00  0.00     0.074 A 
ATOM     52  C   UNL A   1      39.205  34.673  36.258  1.00  0.00     0.031 C 
ATOM     53  C   UNL A   1      38.257  30.820  30.687  1.00  0.00     0.029 A 
ATOM     54  C   UNL A   1      39.400  30.446  31.506  1.00  0.00     0.049 A 
ATOM     55  H   UNL A   1      39.989  31.263  33.331  1.00  0.00     0.167 HD
ATOM     56  C   UNL A   1      41.035  33.236  37.145  1.00  0.00     0.037 A 
ATOM     57  C   UNL A   1      40.276  29.468  31.224  1.00  0.00     0.037 A 
ATOM     58  C   UNL A   1      41.884  32.073  37.052  1.00  0.00     0.049 A 
ATOM     59  C   UNL A   1      41.282  29.107  32.277  1.00  0.00     0.074 A 
ATOM     60  C   UNL A   1      42.835  31.609  37.942  1.00  0.00     0.029 A 
ATOM     61  N   UNL A   1      41.890  31.199  35.971  1.00  0.00    -0.354 N 
ATOM     62  N   UNL A   1      41.528  29.703  33.420  1.00  0.00    -0.248 NA
ATOM     63  C   UNL A   1      42.085  27.907  32.032  1.00  0.00     0.031 C 
ATOM     64  C   UNL A   1      43.439  30.476  37.382  1.00  0.00     0.029 A 
ATOM     65  C   UNL A   1      42.837  30.209  36.162  1.00  0.00     0.049 A 
ATOM     66  H   UNL A   1      41.304  31.274  35.183  1.00  0.00     0.167 HD
ATOM     67  C   UNL A   1      42.494  28.932  34.049  1.00  0.00     0.074 A 
ATOM     68  C   UNL A   1      42.769  27.816  33.164  1.00  0.00     0.031 C 
ATOM     69  C   UNL A   1      43.097  29.124  35.248  1.00  0.00     0.037 A 
BRANCH  56  70
ATOM     70  C   UNL A   1      41.196  34.180  38.303  1.00  0.00     0.057 A 
ATOM     71  C   UNL A   1      42.110  35.238  38.270  1.00  0.00     0.134 A 
ATOM     72  C   UNL A   1      40.456  34.010  39.486  1.00  0.00     0.134 A 
ATOM     73  F   UNL A   1      42.861  35.458  37.179  1.00  0.00    -0.206 F 
ATOM     74  C   UNL A   1      42.279  36.095  39.362  1.00  0.00     0.040 A 
ATOM     75  C   UNL A   1      40.595  34.876  40.572  1.00  0.00     0.040 A 
ATOM     76  F   UNL A   1      39.562  33.015  39.591  1.00  0.00    -0.206 F 
ATOM     77  C   UNL A   1      41.513  35.920  40.514  1.00  0.00     0.006 A 
ENDBRANCH  56  70
BRANCH  57  78
ATOM     78  C   UNL A   1      40.102  28.660  29.994  1.00  0.00     0.057 A 
ATOM     79  C   UNL A   1      40.726  28.999  28.790  1.00  0.00     0.134 A 
ATOM     80  C   UNL A   1      39.259  27.542  29.994  1.00  0.00     0.134 A 
ATOM     81  F   UNL A   1      41.517  30.078  28.718  1.00  0.00    -0.206 F 
ATOM     82  C   UNL A   1      40.527  28.245  27.630  1.00  0.00     0.040 A 
ATOM     83  C   UNL A   1      39.067  26.768  28.849  1.00  0.00     0.040 A 
ATOM     84  F   UNL A   1      38.626  27.174  31.118  1.00  0.00    -0.206 F 
ATOM     85  C   UNL A   1      39.702  27.122  27.661  1.00  0.00     0.006 A 
ENDBRANCH  57  78
BRANCH  69  86
ATOM     86  C   UNL A   1      44.111  28.096  35.650  1.00  0.00     0.057 A 
ATOM     87  C   UNL A   1      43.743  27.005  36.447  1.00  0.00     0.134 A 
ATOM     88  C   UNL A   1      45.449  28.188  35.249  1.00  0.00     0.134 A 
ATOM     89  F   UNL A   1      42.478  26.863  36.867  1.00  0.00    -0.206 F 
ATOM     90  C   UNL A   1      44.673  26.038  36.826  1.00  0.00     0.040 A 
ATOM     91  C   UNL A   1      46.382  27.212  35.599  1.00  0.00     0.040 A 
ATOM     92  F   UNL A   1      45.857  29.201  34.469  1.00  0.00    -0.206 F 
ATOM     93  C   UNL A   1      45.994  26.135  36.394  1.00  0.00     0.006 A 
ENDBRANCH  69  86
ENDBRANCH  43  44
ENDBRANCH  36  38
ENDBRANCH  35  36
ENDBRANCH  34  35
ENDBRANCH  33  34
ENDBRANCH  32  33
ENDBRANCH  31  32
ENDBRANCH   1  31
TORSDOF 21
ENDMDL
MODEL 2
REMARK VINA RESULT:     -11.2      4.710      8.372
REMARK SMILES Nn1c(S[C@@H](C(=O)OCCOCCOCCOC(=O)c2ccc(-c3c4nc(c(-c5c(F)cccc5F)c5ccc([nH]5)c(-c5c(F)cccc5F)c5nc(c(-c6c(F)cccc6F)c6ccc3[nH]6)C=C5)C=C4)cc2)c2ccccc2)nc2ccc(Br)cc2c1=O
REMARK SMILES IDX 12 1 11 2 10 3 9 4 8 5 6 6 7 7 5 8 4 9 3 10 2 11 88 12 80 13
REMARK SMILES IDX 87 14 89 15 81 16 86 17 82 18 84 19 83 20 85 21 1 22 74 25
REMARK SMILES IDX 75 26 79 27 76 28 78 29 77 30 13 31 14 32 15 33 16 34 17 35
REMARK SMILES IDX 18 36 19 37 20 38 21 39 73 40 22 41 72 42 23 43 24 44 25 45
REMARK SMILES IDX 66 46 26 47 71 48 65 49 67 50 27 51 70 52 64 53 63 54 28 56
REMARK SMILES IDX 54 57 37 58 53 59 38 60 41 61 52 62 68 63 39 64 40 65 51 67
REMARK SMILES IDX 69 68 42 69 29 70 30 71 35 72 31 73 32 74 34 75 36 76 33 77
REMARK SMILES IDX 55 78 56 79 61 80 57 81 58 82 60 83 62 84 59 85 43 86 44 87
REMARK SMILES IDX 49 88 45 89 46 90 48 91 50 92 47 93
REMARK H PARENT 1 23 1 24 67 55 41 66
REMARK Flexibility Score: inf
ROOT
ATOM      1  C   UNL A   1      34.691  29.600  27.735  1.00  0.00     0.188 C 
ENDROOT
BRANCH   1   2
ATOM      2  O   UNL A   1      33.714  28.582  27.499  1.00  0.00    -0.376 OA
BRANCH   2   3
ATOM      3  C   UNL A   1      34.007  27.657  26.461  1.00  0.00     0.202 C 
BRANCH   3   4
ATOM      4  C   UNL A   1      33.517  28.064  25.064  1.00  0.00     0.261 C 
BRANCH   4   5
ATOM      5  O   UNL A   1      32.191  28.658  25.044  1.00  0.00    -0.462 OA
BRANCH   5   6
ATOM      6  C   UNL A   1      31.618  28.755  23.815  1.00  0.00     0.324 C 
ATOM      7  O   UNL A   1      32.287  28.894  22.788  1.00  0.00    -0.251 OA
BRANCH   6   8
ATOM      8  C   UNL A   1      30.081  28.669  23.745  1.00  0.00     0.194 C 
BRANCH   8   9
ATOM      9  S   UNL A   1      29.287  27.028  23.712  1.00  0.00    -0.066 SA
BRANCH   9  10
ATOM     10  C   UNL A   1      30.193  25.632  24.276  1.00  0.00     0.191 A 
ATOM     11  N   UNL A   1      30.570  25.455  25.587  1.00  0.00    -0.202 N 
ATOM     12  C   UNL A   1      30.577  24.169  26.039  1.00  0.00     0.280 A 
ATOM     13  N   UNL A   1      30.449  24.694  23.392  1.00  0.00    -0.222 NA
ATOM     14  C   UNL A   1      31.190  23.193  25.175  1.00  0.00     0.069 A 
ATOM     15  O   UNL A   1      29.994  23.843  27.061  1.00  0.00    -0.267 OA
ATOM     16  C   UNL A   1      31.112  23.507  23.825  1.00  0.00     0.079 A 
ATOM     17  C   UNL A   1      31.803  22.048  25.694  1.00  0.00     0.031 A 
ATOM     18  C   UNL A   1      31.665  22.568  22.952  1.00  0.00     0.030 A 
ATOM     19  C   UNL A   1      32.372  21.152  24.811  1.00  0.00     0.018 A 
ATOM     20  C   UNL A   1      32.295  21.399  23.442  1.00  0.00     0.018 A 
ATOM     21  Br  UNL A   1      33.237  19.613  25.486  1.00  0.00    -0.051 Br
BRANCH  11  22
ATOM     22  N   UNL A   1      30.581  26.413  26.578  1.00  0.00    -0.334 N 
ATOM     23  H   UNL A   1      31.105  27.238  26.459  1.00  0.00     0.178 HD
ATOM     24  H   UNL A   1      30.066  26.271  27.405  1.00  0.00     0.178 HD
ENDBRANCH  11  22
ENDBRANCH   9  10
ENDBRANCH   8   9
BRANCH   8  25
ATOM     25  C   UNL A   1      29.424  29.872  23.066  1.00  0.00    -0.023 A 
ATOM     26  C   UNL A   1      29.240  31.071  23.773  1.00  0.00     0.005 A 
ATOM     27  C   UNL A   1      28.935  29.806  21.738  1.00  0.00     0.005 A 
ATOM     28  C   UNL A   1      28.519  32.127  23.211  1.00  0.00     0.000 A 
ATOM     29  C   UNL A   1      28.206  30.862  21.183  1.00  0.00     0.000 A 
ATOM     30  C   UNL A   1      27.986  32.015  21.927  1.00  0.00     0.000 A 
ENDBRANCH   8  25
ENDBRANCH   6   8
ENDBRANCH   5   6
ENDBRANCH   4   5
ENDBRANCH   3   4
ENDBRANCH   2   3
ENDBRANCH   1   2
BRANCH   1  31
ATOM     31  C   UNL A   1      34.360  31.028  27.277  1.00  0.00     0.188 C 
BRANCH  31  32
ATOM     32  O   UNL A   1      33.627  31.742  28.269  1.00  0.00    -0.376 OA
BRANCH  32  33
ATOM     33  C   UNL A   1      34.127  33.057  28.495  1.00  0.00     0.202 C 
BRANCH  33  34
ATOM     34  C   UNL A   1      34.445  33.298  29.974  1.00  0.00     0.261 C 
BRANCH  34  35
ATOM     35  O   UNL A   1      34.926  32.140  30.693  1.00  0.00    -0.460 OA
BRANCH  35  36
ATOM     36  C   UNL A   1      36.036  32.295  31.456  1.00  0.00     0.338 C 
ATOM     37  O   UNL A   1      36.120  32.888  32.522  1.00  0.00    -0.246 OA
BRANCH  36  38
ATOM     38  C   UNL A   1      37.185  31.597  30.823  1.00  0.00     0.060 A 
ATOM     39  C   UNL A   1      37.293  31.466  29.440  1.00  0.00     0.016 A 
ATOM     40  C   UNL A   1      38.218  31.113  31.627  1.00  0.00     0.016 A 
ATOM     41  C   UNL A   1      38.423  30.833  28.896  1.00  0.00     0.010 A 
ATOM     42  C   UNL A   1      39.242  30.345  31.118  1.00  0.00     0.010 A 
ATOM     43  C   UNL A   1      39.387  30.256  29.740  1.00  0.00    -0.014 A 
BRANCH  43  44
ATOM     44  C   UNL A   1      40.672  29.719  29.268  1.00  0.00     0.031 A 
ATOM     45  C   UNL A   1      40.820  28.279  28.914  1.00  0.00     0.074 A 
ATOM     46  C   UNL A   1      41.753  30.512  29.393  1.00  0.00     0.049 A 
ATOM     47  N   UNL A   1      41.831  27.678  28.347  1.00  0.00    -0.248 NA
ATOM     48  C   UNL A   1      39.714  27.387  29.291  1.00  0.00     0.031 C 
ATOM     49  C   UNL A   1      41.748  31.863  29.970  1.00  0.00     0.029 A 
ATOM     50  N   UNL A   1      43.067  30.285  29.095  1.00  0.00    -0.354 N 
ATOM     51  C   UNL A   1      41.459  26.347  28.236  1.00  0.00     0.074 A 
ATOM     52  C   UNL A   1      40.175  26.209  28.890  1.00  0.00     0.031 C 
ATOM     53  C   UNL A   1      43.000  32.342  29.980  1.00  0.00     0.029 A 
ATOM     54  C   UNL A   1      43.874  31.365  29.348  1.00  0.00     0.049 A 
ATOM     55  H   UNL A   1      43.401  29.431  28.734  1.00  0.00     0.167 HD
ATOM     56  C   UNL A   1      42.126  25.354  27.599  1.00  0.00     0.037 A 
ATOM     57  C   UNL A   1      45.163  31.564  29.027  1.00  0.00     0.037 A 
ATOM     58  C   UNL A   1      43.431  25.541  27.013  1.00  0.00     0.049 A 
ATOM     59  C   UNL A   1      45.851  30.506  28.217  1.00  0.00     0.074 A 
ATOM     60  C   UNL A   1      44.175  24.672  26.236  1.00  0.00     0.029 A 
ATOM     61  N   UNL A   1      44.197  26.690  27.171  1.00  0.00    -0.354 N 
ATOM     62  N   UNL A   1      45.413  29.320  27.868  1.00  0.00    -0.248 NA
ATOM     63  C   UNL A   1      47.183  30.836  27.703  1.00  0.00     0.031 C 
ATOM     64  C   UNL A   1      45.404  25.283  25.955  1.00  0.00     0.029 A 
ATOM     65  C   UNL A   1      45.410  26.549  26.522  1.00  0.00     0.049 A 
ATOM     66  H   UNL A   1      43.916  27.489  27.672  1.00  0.00     0.167 HD
ATOM     67  C   UNL A   1      46.401  28.771  27.066  1.00  0.00     0.074 A 
ATOM     68  C   UNL A   1      47.451  29.767  26.966  1.00  0.00     0.031 C 
ATOM     69  C   UNL A   1      46.440  27.557  26.462  1.00  0.00     0.037 A 
BRANCH  56  70
ATOM     70  C   UNL A   1      41.437  24.026  27.465  1.00  0.00     0.057 A 
ATOM     71  C   UNL A   1      41.853  22.902  28.188  1.00  0.00     0.134 A 
ATOM     72  C   UNL A   1      40.366  23.850  26.572  1.00  0.00     0.134 A 
ATOM     73  F   UNL A   1      42.876  22.988  29.053  1.00  0.00    -0.206 F 
ATOM     74  C   UNL A   1      41.229  21.661  28.037  1.00  0.00     0.040 A 
ATOM     75  C   UNL A   1      39.717  22.622  26.433  1.00  0.00     0.040 A 
ATOM     76  F   UNL A   1      39.914  24.882  25.842  1.00  0.00    -0.206 F 
ATOM     77  C   UNL A   1      40.151  21.521  27.163  1.00  0.00     0.006 A 
ENDBRANCH  56  70
BRANCH  57  78
ATOM     78  C   UNL A   1      45.794  32.877  29.303  1.00  0.00     0.057 A 
ATOM     79  C   UNL A   1      46.505  33.124  30.481  1.00  0.00     0.134 A 
ATOM     80  C   UNL A   1      45.654  33.935  28.397  1.00  0.00     0.134 A 
ATOM     81  F   UNL A   1      46.643  32.162  31.404  1.00  0.00    -0.206 F 
ATOM     82  C   UNL A   1      47.067  34.376  30.742  1.00  0.00     0.040 A 
ATOM     83  C   UNL A   1      46.228  35.184  28.634  1.00  0.00     0.040 A 
ATOM     84  F   UNL A   1      44.976  33.759  27.254  1.00  0.00    -0.206 F 
ATOM     85  C   UNL A   1      46.936  35.407  29.813  1.00  0.00     0.006 A 
ENDBRANCH  57  78
BRANCH  69  86
ATOM     86  C   UNL A   1      47.665  27.261  25.650  1.00  0.00     0.057 A 
ATOM     87  C   UNL A   1      47.697  27.543  24.279  1.00  0.00     0.134 A 
ATOM     88  C   UNL A   1      48.809  26.696  26.226  1.00  0.00     0.134 A 
ATOM     89  F   UNL A   1      46.632  28.082  23.668  1.00  0.00    -0.206 F 
ATOM     90  C   UNL A   1      48.830  27.278  23.511  1.00  0.00     0.040 A 
ATOM     91  C   UNL A   1      49.957  26.452  25.473  1.00  0.00     0.040 A 
ATOM     92  F   UNL A   1      48.844  26.420  27.538  1.00  0.00    -0.206 F 
ATOM     93  C   UNL A   1      49.967  26.740  24.110  1.00  0.00     0.006 A 
ENDBRANCH  69  86
ENDBRANCH  43  44
ENDBRANCH  36  38
ENDBRANCH  35  36
ENDBRANCH  34  35
ENDBRANCH  33  34
ENDBRANCH  32  33
ENDBRANCH  31  32
ENDBRANCH   1  31
TORSDOF 21
ENDMDL
MODEL 3
REMARK VINA RESULT:     -11.1      4.666      8.811
REMARK SMILES Nn1c(S[C@@H](C(=O)OCCOCCOCCOC(=O)c2ccc(-c3c4nc(c(-c5c(F)cccc5F)c5ccc([nH]5)c(-c5c(F)cccc5F)c5nc(c(-c6c(F)cccc6F)c6ccc3[nH]6)C=C5)C=C4)cc2)c2ccccc2)nc2ccc(Br)cc2c1=O
REMARK SMILES IDX 12 1 11 2 10 3 9 4 8 5 6 6 7 7 5 8 4 9 3 10 2 11 88 12 80 13
REMARK SMILES IDX 87 14 89 15 81 16 86 17 82 18 84 19 83 20 85 21 1 22 74 25
REMARK SMILES IDX 75 26 79 27 76 28 78 29 77 30 13 31 14 32 15 33 16 34 17 35
REMARK SMILES IDX 18 36 19 37 20 38 21 39 73 40 22 41 72 42 23 43 24 44 25 45
REMARK SMILES IDX 66 46 26 47 71 48 65 49 67 50 27 51 70 52 64 53 63 54 28 56
REMARK SMILES IDX 54 57 37 58 53 59 38 60 41 61 52 62 68 63 39 64 40 65 51 67
REMARK SMILES IDX 69 68 42 69 29 70 30 71 35 72 31 73 32 74 34 75 36 76 33 77
REMARK SMILES IDX 55 78 56 79 61 80 57 81 58 82 60 83 62 84 59 85 43 86 44 87
REMARK SMILES IDX 49 88 45 89 46 90 48 91 50 92 47 93
REMARK H PARENT 1 23 1 24 67 55 41 66
REMARK Flexibility Score: inf
ROOT
ATOM      1  C   UNL A   1      34.412  25.007  23.491  1.00  0.00     0.188 C 
ENDROOT
BRANCH   1   2
ATOM      2  O   UNL A   1      33.947  25.200  22.152  1.00  0.00    -0.376 OA
BRANCH   2   3
ATOM      3  C   UNL A   1      33.104  26.323  21.936  1.00  0.00     0.202 C 
BRANCH   3   4
ATOM      4  C   UNL A   1      33.201  27.429  22.998  1.00  0.00     0.261 C 
BRANCH   4   5
ATOM      5  O   UNL A   1      32.257  28.518  22.815  1.00  0.00    -0.462 OA
BRANCH   5   6
ATOM      6  C   UNL A   1      31.541  28.856  23.921  1.00  0.00     0.324 C 
ATOM      7  O   UNL A   1      32.082  29.247  24.958  1.00  0.00    -0.251 OA
BRANCH   6   8
ATOM      8  C   UNL A   1      30.007  28.749  23.827  1.00  0.00     0.194 C 
BRANCH   8   9
ATOM      9  S   UNL A   1      29.238  27.097  23.771  1.00  0.00    -0.066 SA
BRANCH   9  10
ATOM     10  C   UNL A   1      30.181  25.701  24.270  1.00  0.00     0.191 A 
ATOM     11  N   UNL A   1      30.676  25.540  25.542  1.00  0.00    -0.202 N 
ATOM     12  C   UNL A   1      30.715  24.260  26.012  1.00  0.00     0.280 A 
ATOM     13  N   UNL A   1      30.345  24.747  23.380  1.00  0.00    -0.222 NA
ATOM     14  C   UNL A   1      31.236  23.266  25.109  1.00  0.00     0.069 A 
ATOM     15  O   UNL A   1      30.227  23.955  27.088  1.00  0.00    -0.267 OA
ATOM     16  C   UNL A   1      31.035  23.560  23.768  1.00  0.00     0.079 A 
ATOM     17  C   UNL A   1      31.885  22.122  25.586  1.00  0.00     0.031 A 
ATOM     18  C   UNL A   1      31.496  22.604  22.861  1.00  0.00     0.030 A 
ATOM     19  C   UNL A   1      32.362  21.208  24.669  1.00  0.00     0.018 A 
ATOM     20  C   UNL A   1      32.160  21.435  23.308  1.00  0.00     0.018 A 
ATOM     21  Br  UNL A   1      33.273  19.670  25.284  1.00  0.00    -0.051 Br
BRANCH  11  22
ATOM     22  N   UNL A   1      30.788  26.512  26.513  1.00  0.00    -0.334 N 
ATOM     23  H   UNL A   1      31.499  26.451  27.191  1.00  0.00     0.178 HD
ATOM     24  H   UNL A   1      30.156  27.266  26.529  1.00  0.00     0.178 HD
ENDBRANCH  11  22
ENDBRANCH   9  10
ENDBRANCH   8   9
BRANCH   8  25
ATOM     25  C   UNL A   1      29.343  29.947  23.147  1.00  0.00    -0.023 A 
ATOM     26  C   UNL A   1      29.055  29.911  21.773  1.00  0.00     0.005 A 
ATOM     27  C   UNL A   1      29.048  31.139  23.853  1.00  0.00     0.005 A 
ATOM     28  C   UNL A   1      28.577  31.046  21.114  1.00  0.00     0.000 A 
ATOM     29  C   UNL A   1      28.579  32.276  23.188  1.00  0.00     0.000 A 
ATOM     30  C   UNL A   1      28.359  32.232  21.816  1.00  0.00     0.000 A 
ENDBRANCH   8  25
ENDBRANCH   6   8
ENDBRANCH   5   6
ENDBRANCH   4   5
ENDBRANCH   3   4
ENDBRANCH   2   3
ENDBRANCH   1   2
BRANCH   1  31
ATOM     31  C   UNL A   1      35.022  23.642  23.846  1.00  0.00     0.188 C 
BRANCH  31  32
ATOM     32  O   UNL A   1      36.439  23.717  23.976  1.00  0.00    -0.376 OA
BRANCH  32  33
ATOM     33  C   UNL A   1      36.896  23.431  25.295  1.00  0.00     0.202 C 
BRANCH  33  34
ATOM     34  C   UNL A   1      37.854  22.236  25.317  1.00  0.00     0.261 C 
BRANCH  34  35
ATOM     35  O   UNL A   1      38.699  22.150  26.487  1.00  0.00    -0.460 OA
BRANCH  35  36
ATOM     36  C   UNL A   1      40.008  22.470  26.337  1.00  0.00     0.338 C 
ATOM     37  O   UNL A   1      40.867  21.809  25.772  1.00  0.00    -0.246 OA
BRANCH  36  38
ATOM     38  C   UNL A   1      40.276  23.799  26.946  1.00  0.00     0.060 A 
ATOM     39  C   UNL A   1      40.570  23.940  28.301  1.00  0.00     0.016 A 
ATOM     40  C   UNL A   1      40.298  24.932  26.132  1.00  0.00     0.016 A 
ATOM     41  C   UNL A   1      40.857  25.216  28.813  1.00  0.00     0.010 A 
ATOM     42  C   UNL A   1      40.409  26.204  26.651  1.00  0.00     0.010 A 
ATOM     43  C   UNL A   1      40.756  26.349  27.988  1.00  0.00    -0.014 A 
BRANCH  43  44
ATOM     44  C   UNL A   1      41.190  27.696  28.390  1.00  0.00     0.031 A 
ATOM     45  C   UNL A   1      42.633  28.068  28.395  1.00  0.00     0.074 A 
ATOM     46  C   UNL A   1      40.273  28.489  28.974  1.00  0.00     0.049 A 
ATOM     47  N   UNL A   1      43.171  29.243  28.577  1.00  0.00    -0.248 NA
ATOM     48  C   UNL A   1      43.600  26.974  28.224  1.00  0.00     0.031 C 
ATOM     49  C   UNL A   1      38.879  28.113  29.245  1.00  0.00     0.029 A 
ATOM     50  N   UNL A   1      40.380  29.750  29.489  1.00  0.00    -0.354 N 
ATOM     51  C   UNL A   1      44.540  29.046  28.477  1.00  0.00     0.074 A 
ATOM     52  C   UNL A   1      44.754  27.622  28.324  1.00  0.00     0.031 C 
ATOM     53  C   UNL A   1      38.264  29.123  29.875  1.00  0.00     0.029 A 
ATOM     54  C   UNL A   1      39.196  30.235  29.985  1.00  0.00     0.049 A 
ATOM     55  H   UNL A   1      41.223  30.259  29.504  1.00  0.00     0.167 HD
ATOM     56  C   UNL A   1      45.512  29.990  28.470  1.00  0.00     0.037 A 
ATOM     57  C   UNL A   1      38.887  31.473  30.405  1.00  0.00     0.037 A 
ATOM     58  C   UNL A   1      45.241  31.391  28.684  1.00  0.00     0.049 A 
ATOM     59  C   UNL A   1      39.939  32.535  30.277  1.00  0.00     0.074 A 
ATOM     60  C   UNL A   1      46.096  32.474  28.586  1.00  0.00     0.029 A 
ATOM     61  N   UNL A   1      44.003  31.894  29.067  1.00  0.00    -0.354 N 
ATOM     62  N   UNL A   1      41.196  32.412  29.923  1.00  0.00    -0.248 NA
ATOM     63  C   UNL A   1      39.516  33.913  30.544  1.00  0.00     0.031 C 
ATOM     64  C   UNL A   1      45.383  33.625  28.946  1.00  0.00     0.029 A 
ATOM     65  C   UNL A   1      44.073  33.266  29.227  1.00  0.00     0.049 A 
ATOM     66  H   UNL A   1      43.194  31.351  29.206  1.00  0.00     0.167 HD
ATOM     67  C   UNL A   1      41.710  33.699  29.893  1.00  0.00     0.074 A 
ATOM     68  C   UNL A   1      40.618  34.586  30.245  1.00  0.00     0.031 C 
ATOM     69  C   UNL A   1      42.967  34.114  29.599  1.00  0.00     0.037 A 
BRANCH  56  70
ATOM     70  C   UNL A   1      46.916  29.544  28.175  1.00  0.00     0.057 A 
ATOM     71  C   UNL A   1      47.829  29.256  29.196  1.00  0.00     0.134 A 
ATOM     72  C   UNL A   1      47.381  29.436  26.853  1.00  0.00     0.134 A 
ATOM     73  F   UNL A   1      47.463  29.346  30.484  1.00  0.00    -0.206 F 
ATOM     74  C   UNL A   1      49.143  28.871  28.917  1.00  0.00     0.040 A 
ATOM     75  C   UNL A   1      48.682  29.026  26.561  1.00  0.00     0.040 A 
ATOM     76  F   UNL A   1      46.562  29.699  25.822  1.00  0.00    -0.206 F 
ATOM     77  C   UNL A   1      49.570  28.747  27.595  1.00  0.00     0.006 A 
ENDBRANCH  56  70
BRANCH  57  78
ATOM     78  C   UNL A   1      37.491  31.792  30.786  1.00  0.00     0.057 A 
ATOM     79  C   UNL A   1      36.547  32.220  29.848  1.00  0.00     0.134 A 
ATOM     80  C   UNL A   1      37.085  31.715  32.124  1.00  0.00     0.134 A 
ATOM     81  F   UNL A   1      36.885  32.348  28.557  1.00  0.00    -0.206 F 
ATOM     82  C   UNL A   1      35.243  32.547  30.225  1.00  0.00     0.040 A 
ATOM     83  C   UNL A   1      35.780  32.019  32.513  1.00  0.00     0.040 A 
ATOM     84  F   UNL A   1      37.950  31.319  33.069  1.00  0.00    -0.206 F 
ATOM     85  C   UNL A   1      34.855  32.438  31.560  1.00  0.00     0.006 A 
ENDBRANCH  57  78
BRANCH  69  86
ATOM     86  C   UNL A   1      43.206  35.593  29.654  1.00  0.00     0.057 A 
ATOM     87  C   UNL A   1      42.862  36.412  28.572  1.00  0.00     0.134 A 
ATOM     88  C   UNL A   1      43.776  36.203  30.778  1.00  0.00     0.134 A 
ATOM     89  F   UNL A   1      42.316  35.887  27.465  1.00  0.00    -0.206 F 
ATOM     90  C   UNL A   1      43.073  37.789  28.609  1.00  0.00     0.040 A 
ATOM     91  C   UNL A   1      43.966  37.583  30.837  1.00  0.00     0.040 A 
ATOM     92  F   UNL A   1      44.109  35.473  31.853  1.00  0.00    -0.206 F 
ATOM     93  C   UNL A   1      43.617  38.380  29.748  1.00  0.00     0.006 A 
ENDBRANCH  69  86
ENDBRANCH  43  44
ENDBRANCH  36  38
ENDBRANCH  35  36
ENDBRANCH  34  35
ENDBRANCH  33  34
ENDBRANCH  32  33
ENDBRANCH  31  32
ENDBRANCH   1  31
TORSDOF 21
ENDMDL
