MODEL 1
REMARK VINA RESULT:     -10.7      0.000      0.000
REMARK SMILES Cc1nn(Cc2ccc(C(=O)OCCOCCOCCOC(=O)c3ccc(-c4c5nc(c(-c6c(F)cccc6F)c6ccc([nH]6)c(-c6c(F)cccc6F)c6nc(c(-c7c(F)cccc7F)c7ccc4[nH]7)C=C6)C=C5)cc3)o2)c(C)c1C
REMARK SMILES IDX 16 1 15 2 14 3 13 4 12 5 10 6 11 7 9 8 6 9 7 10 78 11 8 12
REMARK SMILES IDX 5 13 4 14 1 15 2 16 3 17 81 18 79 19 82 20 80 21 17 22 18 23
REMARK SMILES IDX 19 24 20 25 21 26 22 27 23 28 24 29 25 30 77 31 26 32 76 33
REMARK SMILES IDX 27 34 28 35 29 36 70 37 30 38 75 39 69 40 71 41 31 42 74 43
REMARK SMILES IDX 68 44 67 45 32 47 58 48 41 49 57 50 42 51 45 52 56 53 72 54
REMARK SMILES IDX 43 55 44 56 55 58 73 59 46 60 33 61 34 62 39 63 35 64 36 65
REMARK SMILES IDX 38 66 40 67 37 68 59 69 60 70 65 71 61 72 62 73 64 74 66 75
REMARK SMILES IDX 63 76 47 77 48 78 53 79 49 80 50 81 52 82 54 83 51 84
REMARK H PARENT 71 46 45 57
REMARK Flexibility Score: inf
ROOT
ATOM      1  C   UNL A   1      40.080  21.934  26.378  1.00  0.00     0.188 C 
ENDROOT
BRANCH   1   2
ATOM      2  O   UNL A   1      38.831  21.382  26.030  1.00  0.00    -0.376 OA
BRANCH   2   3
ATOM      3  C   UNL A   1      37.804  22.237  25.552  1.00  0.00     0.202 C 
BRANCH   3   4
ATOM      4  C   UNL A   1      37.034  22.028  24.224  1.00  0.00     0.261 C 
BRANCH   4   5
ATOM      5  O   UNL A   1      35.603  22.097  24.253  1.00  0.00    -0.457 OA
BRANCH   5   6
ATOM      6  C   UNL A   1      34.942  21.100  24.914  1.00  0.00     0.374 C 
ATOM      7  O   UNL A   1      35.210  19.920  24.823  1.00  0.00    -0.242 OA
BRANCH   6   8
ATOM      8  C   UNL A   1      34.049  21.685  25.900  1.00  0.00     0.211 A 
ATOM      9  C   UNL A   1      32.368  22.893  26.687  1.00  0.00     0.126 A 
ATOM     10  C   UNL A   1      33.043  22.391  27.781  1.00  0.00     0.048 A 
ATOM     11  O   UNL A   1      33.001  22.491  25.533  1.00  0.00    -0.452 OA
ATOM     12  C   UNL A   1      34.093  21.591  27.279  1.00  0.00     0.058 A 
BRANCH   9  13
ATOM     13  C   UNL A   1      31.082  23.632  26.538  1.00  0.00     0.219 C 
BRANCH  13  14
ATOM     14  N   UNL A   1      31.219  25.035  26.136  1.00  0.00    -0.262 N 
ATOM     15  C   UNL A   1      31.565  28.418  27.159  1.00  0.00     0.069 C 
ATOM     16  C   UNL A   1      31.347  27.144  26.423  1.00  0.00     0.063 A 
ATOM     17  N   UNL A   1      31.472  25.980  27.072  1.00  0.00    -0.177 NA
ATOM     18  C   UNL A   1      30.961  26.958  25.069  1.00  0.00    -0.007 A 
ATOM     19  C   UNL A   1      30.869  25.584  24.920  1.00  0.00     0.039 A 
ATOM     20  C   UNL A   1      30.677  27.991  24.039  1.00  0.00     0.048 C 
ATOM     21  C   UNL A   1      30.454  24.776  23.744  1.00  0.00     0.066 C 
ENDBRANCH  13  14
ENDBRANCH   9  13
ENDBRANCH   6   8
ENDBRANCH   5   6
ENDBRANCH   4   5
ENDBRANCH   3   4
ENDBRANCH   2   3
ENDBRANCH   1   2
BRANCH   1  22
ATOM     22  C   UNL A   1      40.802  21.183  27.516  1.00  0.00     0.188 C 
BRANCH  22  23
ATOM     23  O   UNL A   1      41.445  19.937  27.289  1.00  0.00    -0.376 OA
BRANCH  23  24
ATOM     24  C   UNL A   1      41.756  19.455  25.991  1.00  0.00     0.202 C 
BRANCH  24  25
ATOM     25  C   UNL A   1      43.129  18.907  25.613  1.00  0.00     0.261 C 
BRANCH  25  26
ATOM     26  O   UNL A   1      44.190  19.837  25.690  1.00  0.00    -0.460 OA
BRANCH  26  27
ATOM     27  C   UNL A   1      44.507  20.382  24.500  1.00  0.00     0.338 C 
ATOM     28  O   UNL A   1      44.621  19.816  23.425  1.00  0.00    -0.246 OA
BRANCH  27  29
ATOM     29  C   UNL A   1      44.811  21.796  24.699  1.00  0.00     0.060 A 
ATOM     30  C   UNL A   1      45.792  22.098  25.644  1.00  0.00     0.016 A 
ATOM     31  C   UNL A   1      43.912  22.754  24.209  1.00  0.00     0.016 A 
ATOM     32  C   UNL A   1      45.726  23.317  26.275  1.00  0.00     0.010 A 
ATOM     33  C   UNL A   1      43.836  23.963  24.852  1.00  0.00     0.010 A 
ATOM     34  C   UNL A   1      44.681  24.183  25.937  1.00  0.00    -0.014 A 
BRANCH  34  35
ATOM     35  C   UNL A   1      44.478  25.340  26.775  1.00  0.00     0.031 A 
ATOM     36  C   UNL A   1      45.546  26.354  26.676  1.00  0.00     0.074 A 
ATOM     37  C   UNL A   1      43.346  25.499  27.484  1.00  0.00     0.049 A 
ATOM     38  N   UNL A   1      46.330  26.780  27.608  1.00  0.00    -0.248 NA
ATOM     39  C   UNL A   1      45.856  26.871  25.333  1.00  0.00     0.031 C 
ATOM     40  C   UNL A   1      42.114  24.706  27.412  1.00  0.00     0.029 A 
ATOM     41  N   UNL A   1      43.023  26.491  28.353  1.00  0.00    -0.354 N 
ATOM     42  C   UNL A   1      47.107  27.765  27.010  1.00  0.00     0.074 A 
ATOM     43  C   UNL A   1      46.890  27.667  25.591  1.00  0.00     0.031 C 
ATOM     44  C   UNL A   1      41.118  25.380  28.032  1.00  0.00     0.029 A 
ATOM     45  C   UNL A   1      41.671  26.578  28.642  1.00  0.00     0.049 A 
ATOM     46  H   UNL A   1      43.693  27.097  28.745  1.00  0.00     0.167 HD
ATOM     47  C   UNL A   1      47.675  28.759  27.739  1.00  0.00     0.037 A 
ATOM     48  C   UNL A   1      41.054  27.613  29.263  1.00  0.00     0.037 A 
ATOM     49  C   UNL A   1      47.799  28.409  29.128  1.00  0.00     0.049 A 
ATOM     50  C   UNL A   1      42.098  28.408  29.959  1.00  0.00     0.074 A 
ATOM     51  C   UNL A   1      48.437  27.392  29.813  1.00  0.00     0.029 A 
ATOM     52  N   UNL A   1      46.904  28.951  30.017  1.00  0.00    -0.354 N 
ATOM     53  N   UNL A   1      42.758  27.999  31.005  1.00  0.00    -0.248 NA
ATOM     54  C   UNL A   1      42.715  29.504  29.224  1.00  0.00     0.031 C 
ATOM     55  C   UNL A   1      47.567  27.071  30.897  1.00  0.00     0.029 A 
ATOM     56  C   UNL A   1      46.473  27.933  30.830  1.00  0.00     0.049 A 
ATOM     57  H   UNL A   1      46.624  29.893  30.062  1.00  0.00     0.167 HD
ATOM     58  C   UNL A   1      44.048  28.479  30.823  1.00  0.00     0.074 A 
ATOM     59  C   UNL A   1      43.935  29.480  29.767  1.00  0.00     0.031 C 
ATOM     60  C   UNL A   1      45.126  27.823  31.342  1.00  0.00     0.037 A 
BRANCH  47  61
ATOM     61  C   UNL A   1      47.781  30.166  27.228  1.00  0.00     0.057 A 
ATOM     62  C   UNL A   1      49.015  30.831  27.259  1.00  0.00     0.134 A 
ATOM     63  C   UNL A   1      46.661  30.980  26.950  1.00  0.00     0.134 A 
ATOM     64  F   UNL A   1      50.142  30.171  27.561  1.00  0.00    -0.206 F 
ATOM     65  C   UNL A   1      49.121  32.211  27.051  1.00  0.00     0.040 A 
ATOM     66  C   UNL A   1      46.762  32.345  26.684  1.00  0.00     0.040 A 
ATOM     67  F   UNL A   1      45.405  30.515  27.018  1.00  0.00    -0.206 F 
ATOM     68  C   UNL A   1      47.994  32.971  26.759  1.00  0.00     0.006 A 
ENDBRANCH  47  61
BRANCH  48  69
ATOM     69  C   UNL A   1      39.686  28.133  29.039  1.00  0.00     0.057 A 
ATOM     70  C   UNL A   1      38.746  28.162  30.076  1.00  0.00     0.134 A 
ATOM     71  C   UNL A   1      39.351  28.858  27.881  1.00  0.00     0.134 A 
ATOM     72  F   UNL A   1      38.993  27.536  31.236  1.00  0.00    -0.206 F 
ATOM     73  C   UNL A   1      37.552  28.888  29.979  1.00  0.00     0.040 A 
ATOM     74  C   UNL A   1      38.157  29.578  27.767  1.00  0.00     0.040 A 
ATOM     75  F   UNL A   1      40.208  28.968  26.856  1.00  0.00    -0.206 F 
ATOM     76  C   UNL A   1      37.258  29.607  28.825  1.00  0.00     0.006 A 
ENDBRANCH  48  69
BRANCH  60  77
ATOM     77  C   UNL A   1      44.861  26.717  32.327  1.00  0.00     0.057 A 
ATOM     78  C   UNL A   1      44.649  25.378  31.962  1.00  0.00     0.134 A 
ATOM     79  C   UNL A   1      44.964  26.986  33.697  1.00  0.00     0.134 A 
ATOM     80  F   UNL A   1      44.642  25.002  30.676  1.00  0.00    -0.206 F 
ATOM     81  C   UNL A   1      44.495  24.366  32.915  1.00  0.00     0.040 A 
ATOM     82  C   UNL A   1      44.847  25.980  34.658  1.00  0.00     0.040 A 
ATOM     83  F   UNL A   1      45.227  28.232  34.122  1.00  0.00    -0.206 F 
ATOM     84  C   UNL A   1      44.599  24.666  34.269  1.00  0.00     0.006 A 
ENDBRANCH  60  77
ENDBRANCH  34  35
ENDBRANCH  27  29
ENDBRANCH  26  27
ENDBRANCH  25  26
ENDBRANCH  24  25
ENDBRANCH  23  24
ENDBRANCH  22  23
ENDBRANCH   1  22
TORSDOF 19
ENDMDL
MODEL 2
REMARK VINA RESULT:     -10.5      1.977      3.257
REMARK SMILES Cc1nn(Cc2ccc(C(=O)OCCOCCOCCOC(=O)c3ccc(-c4c5nc(c(-c6c(F)cccc6F)c6ccc([nH]6)c(-c6c(F)cccc6F)c6nc(c(-c7c(F)cccc7F)c7ccc4[nH]7)C=C6)C=C5)cc3)o2)c(C)c1C
REMARK SMILES IDX 16 1 15 2 14 3 13 4 12 5 10 6 11 7 9 8 6 9 7 10 78 11 8 12
REMARK SMILES IDX 5 13 4 14 1 15 2 16 3 17 81 18 79 19 82 20 80 21 17 22 18 23
REMARK SMILES IDX 19 24 20 25 21 26 22 27 23 28 24 29 25 30 77 31 26 32 76 33
REMARK SMILES IDX 27 34 28 35 29 36 70 37 30 38 75 39 69 40 71 41 31 42 74 43
REMARK SMILES IDX 68 44 67 45 32 47 58 48 41 49 57 50 42 51 45 52 56 53 72 54
REMARK SMILES IDX 43 55 44 56 55 58 73 59 46 60 33 61 34 62 39 63 35 64 36 65
REMARK SMILES IDX 38 66 40 67 37 68 59 69 60 70 65 71 61 72 62 73 64 74 66 75
REMARK SMILES IDX 63 76 47 77 48 78 53 79 49 80 50 81 52 82 54 83 51 84
REMARK H PARENT 71 46 45 57
REMARK Flexibility Score: inf
ROOT
ATOM      1  C   UNL A   1      41.106  20.298  26.734  1.00  0.00     0.188 C 
ENDROOT
BRANCH   1   2
ATOM      2  O   UNL A   1      40.804  21.442  25.968  1.00  0.00    -0.376 OA
BRANCH   2   3
ATOM      3  C   UNL A   1      39.557  22.093  26.156  1.00  0.00     0.202 C 
BRANCH   3   4
ATOM      4  C   UNL A   1      38.212  21.602  25.563  1.00  0.00     0.261 C 
BRANCH   4   5
ATOM      5  O   UNL A   1      37.416  22.538  24.824  1.00  0.00    -0.457 OA
BRANCH   5   6
ATOM      6  C   UNL A   1      36.728  23.475  25.542  1.00  0.00     0.374 C 
ATOM      7  O   UNL A   1      37.237  24.259  26.316  1.00  0.00    -0.242 OA
BRANCH   6   8
ATOM      8  C   UNL A   1      35.358  23.539  25.062  1.00  0.00     0.211 A 
ATOM      9  C   UNL A   1      33.262  22.898  24.743  1.00  0.00     0.126 A 
ATOM     10  C   UNL A   1      33.434  24.065  24.026  1.00  0.00     0.048 A 
ATOM     11  O   UNL A   1      34.447  22.553  25.351  1.00  0.00    -0.452 OA
ATOM     12  C   UNL A   1      34.760  24.493  24.260  1.00  0.00     0.058 A 
BRANCH   9  13
ATOM     13  C   UNL A   1      32.065  22.070  25.064  1.00  0.00     0.219 C 
BRANCH  13  14
ATOM     14  N   UNL A   1      32.160  20.663  24.662  1.00  0.00    -0.262 N 
ATOM     15  C   UNL A   1      33.042  17.347  25.576  1.00  0.00     0.069 C 
ATOM     16  C   UNL A   1      32.672  18.604  24.873  1.00  0.00     0.063 A 
ATOM     17  N   UNL A   1      32.482  19.723  25.582  1.00  0.00    -0.177 NA
ATOM     18  C   UNL A   1      32.522  18.827  23.478  1.00  0.00    -0.007 A 
ATOM     19  C   UNL A   1      32.209  20.173  23.374  1.00  0.00     0.039 A 
ATOM     20  C   UNL A   1      32.696  17.861  22.364  1.00  0.00     0.048 C 
ATOM     21  C   UNL A   1      31.989  21.013  22.168  1.00  0.00     0.066 C 
ENDBRANCH  13  14
ENDBRANCH   9  13
ENDBRANCH   6   8
ENDBRANCH   5   6
ENDBRANCH   4   5
ENDBRANCH   3   4
ENDBRANCH   2   3
ENDBRANCH   1   2
BRANCH   1  22
ATOM     22  C   UNL A   1      42.490  19.688  26.431  1.00  0.00     0.188 C 
BRANCH  22  23
ATOM     23  O   UNL A   1      42.818  19.199  25.138  1.00  0.00    -0.376 OA
BRANCH  23  24
ATOM     24  C   UNL A   1      44.128  18.792  24.777  1.00  0.00     0.202 C 
BRANCH  24  25
ATOM     25  C   UNL A   1      45.061  19.647  23.924  1.00  0.00     0.261 C 
BRANCH  25  26
ATOM     26  O   UNL A   1      44.626  20.974  23.703  1.00  0.00    -0.460 OA
BRANCH  26  27
ATOM     27  C   UNL A   1      45.401  21.894  24.310  1.00  0.00     0.338 C 
ATOM     28  O   UNL A   1      46.593  22.094  24.145  1.00  0.00    -0.246 OA
BRANCH  27  29
ATOM     29  C   UNL A   1      44.602  22.585  25.319  1.00  0.00     0.060 A 
ATOM     30  C   UNL A   1      43.529  23.346  24.853  1.00  0.00     0.016 A 
ATOM     31  C   UNL A   1      45.126  22.726  26.612  1.00  0.00     0.016 A 
ATOM     32  C   UNL A   1      43.123  24.419  25.611  1.00  0.00     0.010 A 
ATOM     33  C   UNL A   1      44.731  23.807  27.359  1.00  0.00     0.010 A 
ATOM     34  C   UNL A   1      43.807  24.687  26.801  1.00  0.00    -0.014 A 
BRANCH  34  35
ATOM     35  C   UNL A   1      43.539  25.946  27.453  1.00  0.00     0.031 A 
ATOM     36  C   UNL A   1      44.548  26.990  27.190  1.00  0.00     0.074 A 
ATOM     37  C   UNL A   1      42.400  26.149  28.140  1.00  0.00     0.049 A 
ATOM     38  N   UNL A   1      45.308  27.598  28.039  1.00  0.00    -0.248 NA
ATOM     39  C   UNL A   1      44.827  27.311  25.781  1.00  0.00     0.031 C 
ATOM     40  C   UNL A   1      41.215  25.286  28.201  1.00  0.00     0.029 A 
ATOM     41  N   UNL A   1      42.022  27.243  28.849  1.00  0.00    -0.354 N 
ATOM     42  C   UNL A   1      46.027  28.521  27.290  1.00  0.00     0.074 A 
ATOM     43  C   UNL A   1      45.815  28.194  25.904  1.00  0.00     0.031 C 
ATOM     44  C   UNL A   1      40.183  25.991  28.720  1.00  0.00     0.029 A 
ATOM     45  C   UNL A   1      40.667  27.298  29.134  1.00  0.00     0.049 A 
ATOM     46  H   UNL A   1      42.657  27.938  29.138  1.00  0.00     0.167 HD
ATOM     47  C   UNL A   1      46.538  29.645  27.852  1.00  0.00     0.037 A 
ATOM     48  C   UNL A   1      39.994  28.380  29.594  1.00  0.00     0.037 A 
ATOM     49  C   UNL A   1      46.682  29.520  29.277  1.00  0.00     0.049 A 
ATOM     50  C   UNL A   1      40.991  29.329  30.150  1.00  0.00     0.074 A 
ATOM     51  C   UNL A   1      47.377  28.658  30.104  1.00  0.00     0.029 A 
ATOM     52  N   UNL A   1      45.759  30.141  30.080  1.00  0.00    -0.354 N 
ATOM     53  N   UNL A   1      41.674  29.123  31.241  1.00  0.00    -0.248 NA
ATOM     54  C   UNL A   1      41.545  30.332  29.251  1.00  0.00     0.031 C 
ATOM     55  C   UNL A   1      46.528  28.459  31.232  1.00  0.00     0.029 A 
ATOM     56  C   UNL A   1      45.386  29.238  31.044  1.00  0.00     0.049 A 
ATOM     57  H   UNL A   1      45.426  31.063  29.983  1.00  0.00     0.167 HD
ATOM     58  C   UNL A   1      42.934  29.641  30.976  1.00  0.00     0.074 A 
ATOM     59  C   UNL A   1      42.765  30.460  29.780  1.00  0.00     0.031 C 
ATOM     60  C   UNL A   1      44.048  29.133  31.580  1.00  0.00     0.037 A 
BRANCH  47  61
ATOM     61  C   UNL A   1      46.564  30.960  27.131  1.00  0.00     0.057 A 
ATOM     62  C   UNL A   1      47.760  31.688  27.043  1.00  0.00     0.134 A 
ATOM     63  C   UNL A   1      45.400  31.660  26.745  1.00  0.00     0.134 A 
ATOM     64  F   UNL A   1      48.923  31.144  27.429  1.00  0.00    -0.206 F 
ATOM     65  C   UNL A   1      47.789  33.023  26.625  1.00  0.00     0.040 A 
ATOM     66  C   UNL A   1      45.425  32.972  26.272  1.00  0.00     0.040 A 
ATOM     67  F   UNL A   1      44.172  31.145  26.899  1.00  0.00    -0.206 F 
ATOM     68  C   UNL A   1      46.621  33.668  26.234  1.00  0.00     0.006 A 
ENDBRANCH  47  61
BRANCH  48  69
ATOM     69  C   UNL A   1      38.598  28.782  29.306  1.00  0.00     0.057 A 
ATOM     70  C   UNL A   1      37.645  28.862  30.328  1.00  0.00     0.134 A 
ATOM     71  C   UNL A   1      38.233  29.353  28.074  1.00  0.00     0.134 A 
ATOM     72  F   UNL A   1      37.915  28.384  31.551  1.00  0.00    -0.206 F 
ATOM     73  C   UNL A   1      36.408  29.494  30.144  1.00  0.00     0.040 A 
ATOM     74  C   UNL A   1      36.998  29.977  27.874  1.00  0.00     0.040 A 
ATOM     75  F   UNL A   1      39.096  29.407  27.048  1.00  0.00    -0.206 F 
ATOM     76  C   UNL A   1      36.084  30.063  28.916  1.00  0.00     0.006 A 
ENDBRANCH  48  69
BRANCH  60  77
ATOM     77  C   UNL A   1      43.846  28.178  32.725  1.00  0.00     0.057 A 
ATOM     78  C   UNL A   1      43.602  28.583  34.047  1.00  0.00     0.134 A 
ATOM     79  C   UNL A   1      43.754  26.807  32.459  1.00  0.00     0.134 A 
ATOM     80  F   UNL A   1      43.563  29.880  34.379  1.00  0.00    -0.206 F 
ATOM     81  C   UNL A   1      43.332  27.663  35.064  1.00  0.00     0.040 A 
ATOM     82  C   UNL A   1      43.450  25.880  33.459  1.00  0.00     0.040 A 
ATOM     83  F   UNL A   1      43.914  26.349  31.208  1.00  0.00    -0.206 F 
ATOM     84  C   UNL A   1      43.250  26.306  34.770  1.00  0.00     0.006 A 
ENDBRANCH  60  77
ENDBRANCH  34  35
ENDBRANCH  27  29
ENDBRANCH  26  27
ENDBRANCH  25  26
ENDBRANCH  24  25
ENDBRANCH  23  24
ENDBRANCH  22  23
ENDBRANCH   1  22
TORSDOF 19
ENDMDL
MODEL 3
REMARK VINA RESULT:     -10.5      1.733      2.548
REMARK SMILES Cc1nn(Cc2ccc(C(=O)OCCOCCOCCOC(=O)c3ccc(-c4c5nc(c(-c6c(F)cccc6F)c6ccc([nH]6)c(-c6c(F)cccc6F)c6nc(c(-c7c(F)cccc7F)c7ccc4[nH]7)C=C6)C=C5)cc3)o2)c(C)c1C
REMARK SMILES IDX 16 1 15 2 14 3 13 4 12 5 10 6 11 7 9 8 6 9 7 10 78 11 8 12
REMARK SMILES IDX 5 13 4 14 1 15 2 16 3 17 81 18 79 19 82 20 80 21 17 22 18 23
REMARK SMILES IDX 19 24 20 25 21 26 22 27 23 28 24 29 25 30 77 31 26 32 76 33
REMARK SMILES IDX 27 34 28 35 29 36 70 37 30 38 75 39 69 40 71 41 31 42 74 43
REMARK SMILES IDX 68 44 67 45 32 47 58 48 41 49 57 50 42 51 45 52 56 53 72 54
REMARK SMILES IDX 43 55 44 56 55 58 73 59 46 60 33 61 34 62 39 63 35 64 36 65
REMARK SMILES IDX 38 66 40 67 37 68 59 69 60 70 65 71 61 72 62 73 64 74 66 75
REMARK SMILES IDX 63 76 47 77 48 78 53 79 49 80 50 81 52 82 54 83 51 84
REMARK H PARENT 71 46 45 57
REMARK Flexibility Score: inf
ROOT
ATOM      1  C   UNL A   1      42.253  19.607  27.452  1.00  0.00     0.188 C 
ENDROOT
BRANCH   1   2
ATOM      2  O   UNL A   1      40.944  20.121  27.526  1.00  0.00    -0.376 OA
BRANCH   2   3
ATOM      3  C   UNL A   1      40.382  20.755  26.387  1.00  0.00     0.202 C 
BRANCH   3   4
ATOM      4  C   UNL A   1      39.661  22.126  26.411  1.00  0.00     0.261 C 
BRANCH   4   5
ATOM      5  O   UNL A   1      38.324  22.197  25.901  1.00  0.00    -0.457 OA
BRANCH   5   6
ATOM      6  C   UNL A   1      37.720  23.423  25.897  1.00  0.00     0.374 C 
ATOM      7  O   UNL A   1      38.169  24.411  26.439  1.00  0.00    -0.242 OA
BRANCH   6   8
ATOM      8  C   UNL A   1      36.608  23.410  24.963  1.00  0.00     0.211 A 
ATOM      9  C   UNL A   1      34.537  23.696  24.232  1.00  0.00     0.126 A 
ATOM     10  C   UNL A   1      35.242  23.100  23.205  1.00  0.00     0.048 A 
ATOM     11  O   UNL A   1      35.360  23.856  25.322  1.00  0.00    -0.452 OA
ATOM     12  C   UNL A   1      36.571  22.952  23.659  1.00  0.00     0.058 A 
BRANCH   9  13
ATOM     13  C   UNL A   1      33.169  24.281  24.318  1.00  0.00     0.219 C 
BRANCH  13  14
ATOM     14  N   UNL A   1      33.121  25.678  24.763  1.00  0.00    -0.262 N 
ATOM     15  C   UNL A   1      32.090  27.988  27.254  1.00  0.00     0.069 C 
ATOM     16  C   UNL A   1      32.568  27.307  26.022  1.00  0.00     0.063 A 
ATOM     17  N   UNL A   1      32.662  25.972  26.002  1.00  0.00    -0.177 NA
ATOM     18  C   UNL A   1      32.918  27.883  24.772  1.00  0.00    -0.007 A 
ATOM     19  C   UNL A   1      33.254  26.801  23.973  1.00  0.00     0.039 A 
ATOM     20  C   UNL A   1      32.899  29.314  24.375  1.00  0.00     0.048 C 
ATOM     21  C   UNL A   1      33.653  26.756  22.542  1.00  0.00     0.066 C 
ENDBRANCH  13  14
ENDBRANCH   9  13
ENDBRANCH   6   8
ENDBRANCH   5   6
ENDBRANCH   4   5
ENDBRANCH   3   4
ENDBRANCH   2   3
ENDBRANCH   1   2
BRANCH   1  22
ATOM     22  C   UNL A   1      42.419  18.452  26.443  1.00  0.00     0.188 C 
BRANCH  22  23
ATOM     23  O   UNL A   1      42.992  18.666  25.160  1.00  0.00    -0.376 OA
BRANCH  23  24
ATOM     24  C   UNL A   1      44.387  18.827  24.957  1.00  0.00     0.202 C 
BRANCH  24  25
ATOM     25  C   UNL A   1      44.973  19.695  23.847  1.00  0.00     0.261 C 
BRANCH  25  26
ATOM     26  O   UNL A   1      44.528  21.037  23.834  1.00  0.00    -0.460 OA
BRANCH  26  27
ATOM     27  C   UNL A   1      45.319  21.865  24.542  1.00  0.00     0.338 C 
ATOM     28  O   UNL A   1      46.534  21.965  24.490  1.00  0.00    -0.246 OA
BRANCH  27  29
ATOM     29  C   UNL A   1      44.494  22.592  25.503  1.00  0.00     0.060 A 
ATOM     30  C   UNL A   1      43.452  23.358  24.980  1.00  0.00     0.016 A 
ATOM     31  C   UNL A   1      44.970  22.755  26.812  1.00  0.00     0.016 A 
ATOM     32  C   UNL A   1      43.034  24.454  25.697  1.00  0.00     0.010 A 
ATOM     33  C   UNL A   1      44.564  23.858  27.519  1.00  0.00     0.010 A 
ATOM     34  C   UNL A   1      43.676  24.739  26.906  1.00  0.00    -0.014 A 
BRANCH  34  35
ATOM     35  C   UNL A   1      43.404  26.017  27.519  1.00  0.00     0.031 A 
ATOM     36  C   UNL A   1      44.413  27.054  27.229  1.00  0.00     0.074 A 
ATOM     37  C   UNL A   1      42.262  26.239  28.195  1.00  0.00     0.049 A 
ATOM     38  N   UNL A   1      45.168  27.688  28.062  1.00  0.00    -0.248 NA
ATOM     39  C   UNL A   1      44.698  27.333  25.812  1.00  0.00     0.031 C 
ATOM     40  C   UNL A   1      41.078  25.377  28.277  1.00  0.00     0.029 A 
ATOM     41  N   UNL A   1      41.880  27.353  28.869  1.00  0.00    -0.354 N 
ATOM     42  C   UNL A   1      45.890  28.589  27.288  1.00  0.00     0.074 A 
ATOM     43  C   UNL A   1      45.684  28.220  25.913  1.00  0.00     0.031 C 
ATOM     44  C   UNL A   1      40.043  26.095  28.770  1.00  0.00     0.029 A 
ATOM     45  C   UNL A   1      40.524  27.415  29.147  1.00  0.00     0.049 A 
ATOM     46  H   UNL A   1      42.513  28.058  29.139  1.00  0.00     0.167 HD
ATOM     47  C   UNL A   1      46.397  29.730  27.819  1.00  0.00     0.037 A 
ATOM     48  C   UNL A   1      39.847  28.509  29.571  1.00  0.00     0.037 A 
ATOM     49  C   UNL A   1      46.536  29.649  29.248  1.00  0.00     0.049 A 
ATOM     50  C   UNL A   1      40.841  29.476  30.103  1.00  0.00     0.074 A 
ATOM     51  C   UNL A   1      47.228  28.813  30.103  1.00  0.00     0.029 A 
ATOM     52  N   UNL A   1      45.608  30.292  30.028  1.00  0.00    -0.354 N 
ATOM     53  N   UNL A   1      41.519  29.304  31.202  1.00  0.00    -0.248 NA
ATOM     54  C   UNL A   1      41.398  30.452  29.175  1.00  0.00     0.031 C 
ATOM     55  C   UNL A   1      46.374  28.646  31.233  1.00  0.00     0.029 A 
ATOM     56  C   UNL A   1      45.232  29.418  31.017  1.00  0.00     0.049 A 
ATOM     57  H   UNL A   1      45.275  31.210  29.902  1.00  0.00     0.167 HD
ATOM     58  C   UNL A   1      42.780  29.815  30.926  1.00  0.00     0.074 A 
ATOM     59  C   UNL A   1      42.615  30.598  29.705  1.00  0.00     0.031 C 
ATOM     60  C   UNL A   1      43.892  29.327  31.550  1.00  0.00     0.037 A 
BRANCH  47  61
ATOM     61  C   UNL A   1      46.425  31.024  27.058  1.00  0.00     0.057 A 
ATOM     62  C   UNL A   1      47.618  31.755  26.962  1.00  0.00     0.134 A 
ATOM     63  C   UNL A   1      45.261  31.705  26.638  1.00  0.00     0.134 A 
ATOM     64  F   UNL A   1      48.779  31.229  27.378  1.00  0.00    -0.206 F 
ATOM     65  C   UNL A   1      47.644  33.077  26.504  1.00  0.00     0.040 A 
ATOM     66  C   UNL A   1      45.284  33.001  26.126  1.00  0.00     0.040 A 
ATOM     67  F   UNL A   1      44.035  31.188  26.794  1.00  0.00    -0.206 F 
ATOM     68  C   UNL A   1      46.477  33.703  26.081  1.00  0.00     0.006 A 
ENDBRANCH  47  61
BRANCH  48  69
ATOM     69  C   UNL A   1      38.453  28.900  29.265  1.00  0.00     0.057 A 
ATOM     70  C   UNL A   1      37.507  29.058  30.286  1.00  0.00     0.134 A 
ATOM     71  C   UNL A   1      38.082  29.388  27.999  1.00  0.00     0.134 A 
ATOM     72  F   UNL A   1      37.783  28.664  31.537  1.00  0.00    -0.206 F 
ATOM     73  C   UNL A   1      36.273  29.685  30.067  1.00  0.00     0.040 A 
ATOM     74  C   UNL A   1      36.850  30.005  27.764  1.00  0.00     0.040 A 
ATOM     75  F   UNL A   1      38.938  29.364  26.966  1.00  0.00    -0.206 F 
ATOM     76  C   UNL A   1      35.945  30.170  28.804  1.00  0.00     0.006 A 
ENDBRANCH  48  69
BRANCH  60  77
ATOM     77  C   UNL A   1      43.687  28.407  32.722  1.00  0.00     0.057 A 
ATOM     78  C   UNL A   1      43.428  28.851  34.029  1.00  0.00     0.134 A 
ATOM     79  C   UNL A   1      43.607  27.028  32.499  1.00  0.00     0.134 A 
ATOM     80  F   UNL A   1      43.375  30.157  34.320  1.00  0.00    -0.206 F 
ATOM     81  C   UNL A   1      43.154  27.961  35.072  1.00  0.00     0.040 A 
ATOM     82  C   UNL A   1      43.301  26.130  33.525  1.00  0.00     0.040 A 
ATOM     83  F   UNL A   1      43.783  26.532  31.264  1.00  0.00    -0.206 F 
ATOM     84  C   UNL A   1      43.085  26.595  34.820  1.00  0.00     0.006 A 
ENDBRANCH  60  77
ENDBRANCH  34  35
ENDBRANCH  27  29
ENDBRANCH  26  27
ENDBRANCH  25  26
ENDBRANCH  24  25
ENDBRANCH  23  24
ENDBRANCH  22  23
ENDBRANCH   1  22
TORSDOF 19
ENDMDL
