MODEL 1
REMARK VINA RESULT:     -11.2      0.000      0.000
REMARK SMILES COc1cc(NC(=O)[C@@H]2[C@@H](C(=O)OCCOCCOCCOC(=O)c3ccc(-c4c5nc(c(-c6c(F)cccc6F)c6ccc([nH]6)c(-c6c(F)cccc6F)c6nc(c(-c7c(F)cccc7F)c7ccc4[nH]7)C=C6)C=C5)cc3)[C@H]3C=C[C@@H]2C3)ccc1NC(=O)c1ccccc1
REMARK SMILES IDX 17 1 16 2 15 3 14 4 13 5 11 6 12 7 10 8 9 9 82 10 79 11
REMARK SMILES IDX 81 12 83 13 80 14 7 15 6 16 8 18 5 19 3 20 4 21 86 22 85 23
REMARK SMILES IDX 84 24 2 25 1 26 87 27 88 28 89 30 90 31 91 32 95 33 92 34
REMARK SMILES IDX 94 35 93 36 18 37 19 38 20 39 21 40 22 41 23 42 24 43 25 44
REMARK SMILES IDX 26 45 78 46 27 47 77 48 28 49 29 50 30 51 71 52 31 53 76 54
REMARK SMILES IDX 70 55 72 56 32 57 75 58 69 59 68 60 33 62 59 63 42 64 58 65
REMARK SMILES IDX 43 66 46 67 57 68 73 69 44 70 45 71 56 73 74 74 47 75 34 76
REMARK SMILES IDX 35 77 40 78 36 79 37 80 39 81 41 82 38 83 60 84 61 85 66 86
REMARK SMILES IDX 62 87 63 88 65 89 67 90 64 91 48 92 49 93 54 94 50 95 51 96
REMARK SMILES IDX 53 97 55 98 52 99
REMARK H PARENT 6 17 87 29 72 61 46 72
REMARK Flexibility Score: inf
ROOT
ATOM      1  C   UNL A   1      35.402  32.798  28.011  1.00  0.00     0.188 C 
ENDROOT
BRANCH   1   2
ATOM      2  O   UNL A   1      34.642  31.732  27.445  1.00  0.00    -0.376 OA
BRANCH   2   3
ATOM      3  C   UNL A   1      33.231  31.763  27.561  1.00  0.00     0.202 C 
BRANCH   3   4
ATOM      4  C   UNL A   1      32.474  30.567  26.980  1.00  0.00     0.261 C 
BRANCH   4   5
ATOM      5  O   UNL A   1      33.140  29.925  25.881  1.00  0.00    -0.463 OA
BRANCH   5   6
ATOM      6  C   UNL A   1      33.356  28.594  26.044  1.00  0.00     0.310 C 
ATOM      7  O   UNL A   1      34.394  28.106  26.477  1.00  0.00    -0.252 OA
BRANCH   6   8
ATOM      8  C   UNL A   1      32.256  27.775  25.394  1.00  0.00     0.119 C 
ATOM      9  C   UNL A   1      32.218  26.243  25.544  1.00  0.00     0.100 C 
ATOM     10  C   UNL A   1      32.353  25.731  24.080  1.00  0.00     0.025 C 
ATOM     11  C   UNL A   1      32.274  27.951  23.848  1.00  0.00     0.027 C 
ATOM     12  C   UNL A   1      33.697  26.183  23.544  1.00  0.00    -0.027 C 
ATOM     13  C   UNL A   1      31.524  26.735  23.295  1.00  0.00     0.017 C 
ATOM     14  C   UNL A   1      33.643  27.513  23.376  1.00  0.00    -0.027 C 
BRANCH   9  15
ATOM     15  C   UNL A   1      31.060  25.621  26.346  1.00  0.00     0.228 C 
ATOM     16  N   UNL A   1      30.844  24.322  26.701  1.00  0.00    -0.326 N 
ATOM     17  H   UNL A   1      30.031  24.219  27.245  1.00  0.00     0.169 HD
ATOM     18  O   UNL A   1      30.250  26.421  26.850  1.00  0.00    -0.274 OA
BRANCH  16  19
ATOM     19  C   UNL A   1      31.490  23.091  26.486  1.00  0.00     0.045 A 
ATOM     20  C   UNL A   1      32.171  21.289  25.026  1.00  0.00     0.144 A 
ATOM     21  C   UNL A   1      31.227  22.221  25.432  1.00  0.00     0.074 A 
ATOM     22  C   UNL A   1      33.224  20.982  25.878  1.00  0.00     0.084 A 
ATOM     23  C   UNL A   1      33.383  21.693  27.069  1.00  0.00     0.032 A 
ATOM     24  C   UNL A   1      32.528  22.763  27.361  1.00  0.00     0.028 A 
BRANCH  20  25
ATOM     25  O   UNL A   1      32.232  20.745  23.772  1.00  0.00    -0.494 OA
ATOM     26  C   UNL A   1      32.128  21.597  22.645  1.00  0.00     0.278 C 
ENDBRANCH  20  25
BRANCH  22  27
ATOM     27  N   UNL A   1      34.006  19.882  25.493  1.00  0.00    -0.319 N 
ATOM     28  C   UNL A   1      35.289  19.884  25.003  1.00  0.00     0.255 C 
ATOM     29  H   UNL A   1      33.581  18.998  25.585  1.00  0.00     0.170 HD
ATOM     30  O   UNL A   1      35.889  18.839  24.772  1.00  0.00    -0.269 OA
BRANCH  28  31
ATOM     31  C   UNL A   1      35.973  21.176  24.816  1.00  0.00     0.040 A 
ATOM     32  C   UNL A   1      35.629  21.930  23.697  1.00  0.00     0.014 A 
ATOM     33  C   UNL A   1      36.845  21.684  25.792  1.00  0.00     0.014 A 
ATOM     34  C   UNL A   1      36.095  23.238  23.592  1.00  0.00     0.001 A 
ATOM     35  C   UNL A   1      37.298  22.996  25.686  1.00  0.00     0.001 A 
ATOM     36  C   UNL A   1      36.911  23.774  24.593  1.00  0.00     0.000 A 
ENDBRANCH  28  31
ENDBRANCH  22  27
ENDBRANCH  16  19
ENDBRANCH   9  15
ENDBRANCH   6   8
ENDBRANCH   5   6
ENDBRANCH   4   5
ENDBRANCH   3   4
ENDBRANCH   2   3
ENDBRANCH   1   2
BRANCH   1  37
ATOM     37  C   UNL A   1      34.694  34.055  28.543  1.00  0.00     0.188 C 
BRANCH  37  38
ATOM     38  O   UNL A   1      35.159  34.362  29.854  1.00  0.00    -0.376 OA
BRANCH  38  39
ATOM     39  C   UNL A   1      34.135  34.582  30.808  1.00  0.00     0.202 C 
BRANCH  39  40
ATOM     40  C   UNL A   1      34.293  33.736  32.079  1.00  0.00     0.261 C 
BRANCH  40  41
ATOM     41  O   UNL A   1      34.985  32.482  31.923  1.00  0.00    -0.460 OA
BRANCH  41  42
ATOM     42  C   UNL A   1      36.007  32.217  32.770  1.00  0.00     0.338 C 
ATOM     43  O   UNL A   1      36.035  32.453  33.962  1.00  0.00    -0.246 OA
BRANCH  42  44
ATOM     44  C   UNL A   1      37.075  31.481  32.036  1.00  0.00     0.060 A 
ATOM     45  C   UNL A   1      38.103  30.873  32.766  1.00  0.00     0.016 A 
ATOM     46  C   UNL A   1      37.099  31.427  30.637  1.00  0.00     0.016 A 
ATOM     47  C   UNL A   1      39.168  30.247  32.100  1.00  0.00     0.010 A 
ATOM     48  C   UNL A   1      38.167  30.802  29.972  1.00  0.00     0.010 A 
ATOM     49  C   UNL A   1      39.220  30.222  30.698  1.00  0.00    -0.014 A 
BRANCH  49  50
ATOM     50  C   UNL A   1      40.450  29.749  30.000  1.00  0.00     0.031 A 
ATOM     51  C   UNL A   1      41.558  30.739  29.750  1.00  0.00     0.074 A 
ATOM     52  C   UNL A   1      40.604  28.475  29.589  1.00  0.00     0.049 A 
ATOM     53  N   UNL A   1      42.698  30.574  29.129  1.00  0.00    -0.248 NA
ATOM     54  C   UNL A   1      41.344  32.101  30.265  1.00  0.00     0.031 C 
ATOM     55  C   UNL A   1      39.628  27.404  29.763  1.00  0.00     0.029 A 
ATOM     56  N   UNL A   1      41.649  27.868  28.930  1.00  0.00    -0.354 N 
ATOM     57  C   UNL A   1      43.330  31.810  29.167  1.00  0.00     0.074 A 
ATOM     58  C   UNL A   1      42.447  32.717  29.869  1.00  0.00     0.031 C 
ATOM     59  C   UNL A   1      40.124  26.268  29.241  1.00  0.00     0.029 A 
ATOM     60  C   UNL A   1      41.431  26.540  28.646  1.00  0.00     0.049 A 
ATOM     61  H   UNL A   1      42.477  28.342  28.684  1.00  0.00     0.167 HD
ATOM     62  C   UNL A   1      44.534  32.164  28.658  1.00  0.00     0.037 A 
ATOM     63  C   UNL A   1      42.182  25.654  27.959  1.00  0.00     0.037 A 
ATOM     64  C   UNL A   1      45.420  31.280  27.950  1.00  0.00     0.049 A 
ATOM     65  C   UNL A   1      43.499  26.089  27.362  1.00  0.00     0.074 A 
ATOM     66  C   UNL A   1      46.666  31.559  27.414  1.00  0.00     0.029 A 
ATOM     67  N   UNL A   1      45.151  29.950  27.671  1.00  0.00    -0.354 N 
ATOM     68  N   UNL A   1      44.098  27.253  27.435  1.00  0.00    -0.248 NA
ATOM     69  C   UNL A   1      44.236  25.087  26.573  1.00  0.00     0.031 C 
ATOM     70  C   UNL A   1      47.131  30.409  26.770  1.00  0.00     0.029 A 
ATOM     71  C   UNL A   1      46.197  29.402  26.947  1.00  0.00     0.049 A 
ATOM     72  H   UNL A   1      44.338  29.467  27.945  1.00  0.00     0.167 HD
ATOM     73  C   UNL A   1      45.285  27.115  26.723  1.00  0.00     0.074 A 
ATOM     74  C   UNL A   1      45.334  25.753  26.242  1.00  0.00     0.031 C 
ATOM     75  C   UNL A   1      46.247  28.040  26.485  1.00  0.00     0.037 A 
BRANCH  62  76
ATOM     76  C   UNL A   1      44.953  33.594  28.817  1.00  0.00     0.057 A 
ATOM     77  C   UNL A   1      44.594  34.575  27.887  1.00  0.00     0.134 A 
ATOM     78  C   UNL A   1      45.686  33.997  29.941  1.00  0.00     0.134 A 
ATOM     79  F   UNL A   1      43.906  34.248  26.783  1.00  0.00    -0.206 F 
ATOM     80  C   UNL A   1      44.959  35.911  28.064  1.00  0.00     0.040 A 
ATOM     81  C   UNL A   1      46.038  35.332  30.139  1.00  0.00     0.040 A 
ATOM     82  F   UNL A   1      46.059  33.102  30.868  1.00  0.00    -0.206 F 
ATOM     83  C   UNL A   1      45.676  36.294  29.197  1.00  0.00     0.006 A 
ENDBRANCH  62  76
BRANCH  63  84
ATOM     84  C   UNL A   1      41.703  24.262  27.742  1.00  0.00     0.057 A 
ATOM     85  C   UNL A   1      40.774  23.958  26.739  1.00  0.00     0.134 A 
ATOM     86  C   UNL A   1      42.106  23.216  28.581  1.00  0.00     0.134 A 
ATOM     87  F   UNL A   1      40.319  24.923  25.925  1.00  0.00    -0.206 F 
ATOM     88  C   UNL A   1      40.243  22.674  26.596  1.00  0.00     0.040 A 
ATOM     89  C   UNL A   1      41.606  21.921  28.430  1.00  0.00     0.040 A 
ATOM     90  F   UNL A   1      42.986  23.442  29.568  1.00  0.00    -0.206 F 
ATOM     91  C   UNL A   1      40.662  21.650  27.443  1.00  0.00     0.006 A 
ENDBRANCH  63  84
BRANCH  75  92
ATOM     92  C   UNL A   1      47.451  27.608  25.700  1.00  0.00     0.057 A 
ATOM     93  C   UNL A   1      48.590  27.079  26.322  1.00  0.00     0.134 A 
ATOM     94  C   UNL A   1      47.452  27.676  24.300  1.00  0.00     0.134 A 
ATOM     95  F   UNL A   1      48.657  26.997  27.659  1.00  0.00    -0.206 F 
ATOM     96  C   UNL A   1      49.692  26.651  25.580  1.00  0.00     0.040 A 
ATOM     97  C   UNL A   1      48.538  27.227  23.548  1.00  0.00     0.040 A 
ATOM     98  F   UNL A   1      46.389  28.162  23.642  1.00  0.00    -0.206 F 
ATOM     99  C   UNL A   1      49.666  26.718  24.189  1.00  0.00     0.006 A 
ENDBRANCH  75  92
ENDBRANCH  49  50
ENDBRANCH  42  44
ENDBRANCH  41  42
ENDBRANCH  40  41
ENDBRANCH  39  40
ENDBRANCH  38  39
ENDBRANCH  37  38
ENDBRANCH   1  37
TORSDOF 22
ENDMDL
MODEL 2
REMARK VINA RESULT:     -11.0      4.259      6.597
REMARK SMILES COc1cc(NC(=O)[C@@H]2[C@@H](C(=O)OCCOCCOCCOC(=O)c3ccc(-c4c5nc(c(-c6c(F)cccc6F)c6ccc([nH]6)c(-c6c(F)cccc6F)c6nc(c(-c7c(F)cccc7F)c7ccc4[nH]7)C=C6)C=C5)cc3)[C@H]3C=C[C@@H]2C3)ccc1NC(=O)c1ccccc1
REMARK SMILES IDX 17 1 16 2 15 3 14 4 13 5 11 6 12 7 10 8 9 9 82 10 79 11
REMARK SMILES IDX 81 12 83 13 80 14 7 15 6 16 8 18 5 19 3 20 4 21 86 22 85 23
REMARK SMILES IDX 84 24 2 25 1 26 87 27 88 28 89 30 90 31 91 32 95 33 92 34
REMARK SMILES IDX 94 35 93 36 18 37 19 38 20 39 21 40 22 41 23 42 24 43 25 44
REMARK SMILES IDX 26 45 78 46 27 47 77 48 28 49 29 50 30 51 71 52 31 53 76 54
REMARK SMILES IDX 70 55 72 56 32 57 75 58 69 59 68 60 33 62 59 63 42 64 58 65
REMARK SMILES IDX 43 66 46 67 57 68 73 69 44 70 45 71 56 73 74 74 47 75 34 76
REMARK SMILES IDX 35 77 40 78 36 79 37 80 39 81 41 82 38 83 60 84 61 85 66 86
REMARK SMILES IDX 62 87 63 88 65 89 67 90 64 91 48 92 49 93 54 94 50 95 51 96
REMARK SMILES IDX 53 97 55 98 52 99
REMARK H PARENT 6 17 87 29 72 61 46 72
REMARK Flexibility Score: inf
ROOT
ATOM      1  C   UNL A   1      34.860  31.742  28.512  1.00  0.00     0.188 C 
ENDROOT
BRANCH   1   2
ATOM      2  O   UNL A   1      34.874  30.658  27.584  1.00  0.00    -0.376 OA
BRANCH   2   3
ATOM      3  C   UNL A   1      33.665  30.295  26.942  1.00  0.00     0.202 C 
BRANCH   3   4
ATOM      4  C   UNL A   1      33.570  28.853  26.438  1.00  0.00     0.261 C 
BRANCH   4   5
ATOM      5  O   UNL A   1      32.230  28.403  26.186  1.00  0.00    -0.463 OA
BRANCH   5   6
ATOM      6  C   UNL A   1      31.873  28.382  24.875  1.00  0.00     0.310 C 
ATOM      7  O   UNL A   1      31.812  29.372  24.155  1.00  0.00    -0.252 OA
BRANCH   6   8
ATOM      8  C   UNL A   1      31.320  27.026  24.478  1.00  0.00     0.119 C 
ATOM      9  C   UNL A   1      31.773  25.745  25.204  1.00  0.00     0.100 C 
ATOM     10  C   UNL A   1      32.436  24.903  24.074  1.00  0.00     0.025 C 
ATOM     11  C   UNL A   1      31.662  26.699  22.996  1.00  0.00     0.027 C 
ATOM     12  C   UNL A   1      33.632  25.674  23.551  1.00  0.00    -0.027 C 
ATOM     13  C   UNL A   1      31.537  25.177  22.880  1.00  0.00     0.017 C 
ATOM     14  C   UNL A   1      33.169  26.738  22.878  1.00  0.00    -0.027 C 
BRANCH   9  15
ATOM     15  C   UNL A   1      30.738  24.988  26.056  1.00  0.00     0.228 C 
ATOM     16  N   UNL A   1      30.728  23.687  26.464  1.00  0.00    -0.326 N 
ATOM     17  H   UNL A   1      29.950  23.486  27.032  1.00  0.00     0.169 HD
ATOM     18  O   UNL A   1      29.826  25.677  26.549  1.00  0.00    -0.274 OA
BRANCH  16  19
ATOM     19  C   UNL A   1      31.550  22.561  26.280  1.00  0.00     0.045 A 
ATOM     20  C   UNL A   1      32.442  20.803  24.882  1.00  0.00     0.144 A 
ATOM     21  C   UNL A   1      31.382  21.600  25.287  1.00  0.00     0.074 A 
ATOM     22  C   UNL A   1      33.566  20.712  25.693  1.00  0.00     0.084 A 
ATOM     23  C   UNL A   1      33.662  21.509  26.836  1.00  0.00     0.032 A 
ATOM     24  C   UNL A   1      32.663  22.449  27.116  1.00  0.00     0.028 A 
BRANCH  20  25
ATOM     25  O   UNL A   1      32.533  20.201  23.656  1.00  0.00    -0.494 OA
ATOM     26  C   UNL A   1      32.125  20.918  22.505  1.00  0.00     0.278 C 
ENDBRANCH  20  25
BRANCH  22  27
ATOM     27  N   UNL A   1      34.493  19.725  25.325  1.00  0.00    -0.319 N 
ATOM     28  C   UNL A   1      35.807  19.890  24.961  1.00  0.00     0.255 C 
ATOM     29  H   UNL A   1      34.159  18.798  25.328  1.00  0.00     0.170 HD
ATOM     30  O   UNL A   1      36.535  18.929  24.732  1.00  0.00    -0.269 OA
BRANCH  28  31
ATOM     31  C   UNL A   1      36.361  21.255  24.911  1.00  0.00     0.040 A 
ATOM     32  C   UNL A   1      35.840  22.127  23.958  1.00  0.00     0.014 A 
ATOM     33  C   UNL A   1      37.289  21.697  25.867  1.00  0.00     0.014 A 
ATOM     34  C   UNL A   1      36.185  23.474  24.012  1.00  0.00     0.001 A 
ATOM     35  C   UNL A   1      37.622  23.048  25.921  1.00  0.00     0.001 A 
ATOM     36  C   UNL A   1      37.058  23.935  25.001  1.00  0.00     0.000 A 
ENDBRANCH  28  31
ENDBRANCH  22  27
ENDBRANCH  16  19
ENDBRANCH   9  15
ENDBRANCH   6   8
ENDBRANCH   5   6
ENDBRANCH   4   5
ENDBRANCH   3   4
ENDBRANCH   2   3
ENDBRANCH   1   2
BRANCH   1  37
ATOM     37  C   UNL A   1      33.876  32.908  28.325  1.00  0.00     0.188 C 
BRANCH  37  38
ATOM     38  O   UNL A   1      34.227  33.988  29.184  1.00  0.00    -0.376 OA
BRANCH  38  39
ATOM     39  C   UNL A   1      33.897  35.273  28.684  1.00  0.00     0.202 C 
BRANCH  39  40
ATOM     40  C   UNL A   1      33.004  36.084  29.632  1.00  0.00     0.261 C 
BRANCH  40  41
ATOM     41  O   UNL A   1      32.385  35.349  30.705  1.00  0.00    -0.460 OA
BRANCH  41  42
ATOM     42  C   UNL A   1      32.610  35.772  31.971  1.00  0.00     0.338 C 
ATOM     43  O   UNL A   1      31.921  36.547  32.605  1.00  0.00    -0.246 OA
BRANCH  42  44
ATOM     44  C   UNL A   1      33.791  35.053  32.527  1.00  0.00     0.060 A 
ATOM     45  C   UNL A   1      35.050  35.660  32.454  1.00  0.00     0.016 A 
ATOM     46  C   UNL A   1      33.676  33.768  33.072  1.00  0.00     0.016 A 
ATOM     47  C   UNL A   1      36.193  34.971  32.890  1.00  0.00     0.010 A 
ATOM     48  C   UNL A   1      34.821  33.080  33.507  1.00  0.00     0.010 A 
ATOM     49  C   UNL A   1      36.092  33.669  33.403  1.00  0.00    -0.014 A 
BRANCH  49  50
ATOM     50  C   UNL A   1      37.322  32.867  33.663  1.00  0.00     0.031 A 
ATOM     51  C   UNL A   1      38.079  33.110  34.942  1.00  0.00     0.074 A 
ATOM     52  C   UNL A   1      37.776  31.938  32.799  1.00  0.00     0.049 A 
ATOM     53  N   UNL A   1      39.192  32.569  35.367  1.00  0.00    -0.248 NA
ATOM     54  C   UNL A   1      37.504  34.106  35.861  1.00  0.00     0.031 C 
ATOM     55  C   UNL A   1      37.151  31.585  31.528  1.00  0.00     0.029 A 
ATOM     56  N   UNL A   1      38.881  31.120  32.864  1.00  0.00    -0.354 N 
ATOM     57  C   UNL A   1      39.457  33.165  36.593  1.00  0.00     0.074 A 
ATOM     58  C   UNL A   1      38.392  34.112  36.844  1.00  0.00     0.031 C 
ATOM     59  C   UNL A   1      37.871  30.613  30.939  1.00  0.00     0.029 A 
ATOM     60  C   UNL A   1      39.039  30.308  31.765  1.00  0.00     0.049 A 
ATOM     61  H   UNL A   1      39.502  31.116  33.629  1.00  0.00     0.167 HD
ATOM     62  C   UNL A   1      40.497  32.953  37.434  1.00  0.00     0.037 A 
ATOM     63  C   UNL A   1      40.025  29.445  31.443  1.00  0.00     0.037 A 
ATOM     64  C   UNL A   1      41.569  32.024  37.197  1.00  0.00     0.049 A 
ATOM     65  C   UNL A   1      41.197  29.263  32.378  1.00  0.00     0.074 A 
ATOM     66  C   UNL A   1      42.655  31.739  38.008  1.00  0.00     0.029 A 
ATOM     67  N   UNL A   1      41.697  31.238  36.064  1.00  0.00    -0.354 N 
ATOM     68  N   UNL A   1      41.416  29.810  33.549  1.00  0.00    -0.248 NA
ATOM     69  C   UNL A   1      42.266  28.352  31.936  1.00  0.00     0.031 C 
ATOM     70  C   UNL A   1      43.465  30.814  37.344  1.00  0.00     0.029 A 
ATOM     71  C   UNL A   1      42.859  30.486  36.143  1.00  0.00     0.049 A 
ATOM     72  H   UNL A   1      41.059  31.217  35.315  1.00  0.00     0.167 HD
ATOM     73  C   UNL A   1      42.631  29.294  33.989  1.00  0.00     0.074 A 
ATOM     74  C   UNL A   1      43.093  28.377  32.972  1.00  0.00     0.031 C 
ATOM     75  C   UNL A   1      43.305  29.563  35.133  1.00  0.00     0.037 A 
BRANCH  62  76
ATOM     76  C   UNL A   1      40.548  33.774  38.686  1.00  0.00     0.057 A 
ATOM     77  C   UNL A   1      39.849  33.404  39.840  1.00  0.00     0.134 A 
ATOM     78  C   UNL A   1      41.345  34.925  38.747  1.00  0.00     0.134 A 
ATOM     79  F   UNL A   1      39.057  32.321  39.838  1.00  0.00    -0.206 F 
ATOM     80  C   UNL A   1      39.933  34.157  41.012  1.00  0.00     0.040 A 
ATOM     81  C   UNL A   1      41.452  35.673  39.919  1.00  0.00     0.040 A 
ATOM     82  F   UNL A   1      42.039  35.330  37.673  1.00  0.00    -0.206 F 
ATOM     83  C   UNL A   1      40.743  35.291  41.056  1.00  0.00     0.006 A 
ENDBRANCH  62  76
BRANCH  63  84
ATOM     84  C   UNL A   1      39.995  28.705  30.154  1.00  0.00     0.057 A 
ATOM     85  C   UNL A   1      40.612  29.215  29.005  1.00  0.00     0.134 A 
ATOM     86  C   UNL A   1      39.283  27.507  30.021  1.00  0.00     0.134 A 
ATOM     87  F   UNL A   1      41.278  30.378  29.057  1.00  0.00    -0.206 F 
ATOM     88  C   UNL A   1      40.501  28.577  27.767  1.00  0.00     0.040 A 
ATOM     89  C   UNL A   1      39.188  26.842  28.796  1.00  0.00     0.040 A 
ATOM     90  F   UNL A   1      38.659  26.969  31.079  1.00  0.00    -0.206 F 
ATOM     91  C   UNL A   1      39.788  27.384  27.662  1.00  0.00     0.006 A 
ENDBRANCH  63  84
BRANCH  75  92
ATOM     92  C   UNL A   1      44.597  28.836  35.369  1.00  0.00     0.057 A 
ATOM     93  C   UNL A   1      44.639  27.587  36.002  1.00  0.00     0.134 A 
ATOM     94  C   UNL A   1      45.810  29.369  34.913  1.00  0.00     0.134 A 
ATOM     95  F   UNL A   1      43.514  27.025  36.473  1.00  0.00    -0.206 F 
ATOM     96  C   UNL A   1      45.842  26.903  36.188  1.00  0.00     0.040 A 
ATOM     97  C   UNL A   1      47.015  28.684  35.071  1.00  0.00     0.040 A 
ATOM     98  F   UNL A   1      45.839  30.557  34.289  1.00  0.00    -0.206 F 
ATOM     99  C   UNL A   1      47.034  27.449  35.716  1.00  0.00     0.006 A 
ENDBRANCH  75  92
ENDBRANCH  49  50
ENDBRANCH  42  44
ENDBRANCH  41  42
ENDBRANCH  40  41
ENDBRANCH  39  40
ENDBRANCH  38  39
ENDBRANCH  37  38
ENDBRANCH   1  37
TORSDOF 22
ENDMDL
MODEL 3
REMARK VINA RESULT:     -11.0      4.153      9.890
REMARK SMILES COc1cc(NC(=O)[C@@H]2[C@@H](C(=O)OCCOCCOCCOC(=O)c3ccc(-c4c5nc(c(-c6c(F)cccc6F)c6ccc([nH]6)c(-c6c(F)cccc6F)c6nc(c(-c7c(F)cccc7F)c7ccc4[nH]7)C=C6)C=C5)cc3)[C@H]3C=C[C@@H]2C3)ccc1NC(=O)c1ccccc1
REMARK SMILES IDX 17 1 16 2 15 3 14 4 13 5 11 6 12 7 10 8 9 9 82 10 79 11
REMARK SMILES IDX 81 12 83 13 80 14 7 15 6 16 8 18 5 19 3 20 4 21 86 22 85 23
REMARK SMILES IDX 84 24 2 25 1 26 87 27 88 28 89 30 90 31 91 32 95 33 92 34
REMARK SMILES IDX 94 35 93 36 18 37 19 38 20 39 21 40 22 41 23 42 24 43 25 44
REMARK SMILES IDX 26 45 78 46 27 47 77 48 28 49 29 50 30 51 71 52 31 53 76 54
REMARK SMILES IDX 70 55 72 56 32 57 75 58 69 59 68 60 33 62 59 63 42 64 58 65
REMARK SMILES IDX 43 66 46 67 57 68 73 69 44 70 45 71 56 73 74 74 47 75 34 76
REMARK SMILES IDX 35 77 40 78 36 79 37 80 39 81 41 82 38 83 60 84 61 85 66 86
REMARK SMILES IDX 62 87 63 88 65 89 67 90 64 91 48 92 49 93 54 94 50 95 51 96
REMARK SMILES IDX 53 97 55 98 52 99
REMARK H PARENT 6 17 87 29 72 61 46 72
REMARK Flexibility Score: inf
ROOT
ATOM      1  C   UNL A   1      39.719  21.280  26.117  1.00  0.00     0.188 C 
ENDROOT
BRANCH   1   2
ATOM      2  O   UNL A   1      39.016  22.480  26.441  1.00  0.00    -0.376 OA
BRANCH   2   3
ATOM      3  C   UNL A   1      37.830  22.788  25.729  1.00  0.00     0.202 C 
BRANCH   3   4
ATOM      4  C   UNL A   1      37.444  21.824  24.605  1.00  0.00     0.261 C 
BRANCH   4   5
ATOM      5  O   UNL A   1      36.046  21.831  24.276  1.00  0.00    -0.463 OA
BRANCH   5   6
ATOM      6  C   UNL A   1      35.345  20.766  24.748  1.00  0.00     0.310 C 
ATOM      7  O   UNL A   1      35.809  19.642  24.902  1.00  0.00    -0.252 OA
BRANCH   6   8
ATOM      8  C   UNL A   1      33.861  21.075  24.822  1.00  0.00     0.119 C 
ATOM      9  C   UNL A   1      33.321  22.458  24.410  1.00  0.00     0.100 C 
ATOM     10  C   UNL A   1      32.676  23.000  25.719  1.00  0.00     0.025 C 
ATOM     11  C   UNL A   1      33.340  20.944  26.282  1.00  0.00     0.027 C 
ATOM     12  C   UNL A   1      33.768  23.141  26.760  1.00  0.00    -0.027 C 
ATOM     13  C   UNL A   1      32.042  21.757  26.322  1.00  0.00     0.017 C 
ATOM     14  C   UNL A   1      34.149  21.907  27.122  1.00  0.00    -0.027 C 
BRANCH   9  15
ATOM     15  C   UNL A   1      32.426  22.544  23.160  1.00  0.00     0.228 C 
ATOM     16  N   UNL A   1      31.698  23.592  22.680  1.00  0.00    -0.326 N 
ATOM     17  H   UNL A   1      31.244  23.368  21.836  1.00  0.00     0.169 HD
ATOM     18  O   UNL A   1      32.448  21.558  22.401  1.00  0.00    -0.274 OA
BRANCH  16  19
ATOM     19  C   UNL A   1      31.432  24.912  23.085  1.00  0.00     0.045 A 
ATOM     20  C   UNL A   1      31.779  27.295  22.882  1.00  0.00     0.144 A 
ATOM     21  C   UNL A   1      32.275  26.000  22.877  1.00  0.00     0.074 A 
ATOM     22  C   UNL A   1      30.529  27.536  23.437  1.00  0.00     0.084 A 
ATOM     23  C   UNL A   1      29.745  26.465  23.871  1.00  0.00     0.032 A 
ATOM     24  C   UNL A   1      30.188  25.152  23.675  1.00  0.00     0.028 A 
BRANCH  20  25
ATOM     25  O   UNL A   1      32.368  28.352  22.243  1.00  0.00    -0.494 OA
ATOM     26  C   UNL A   1      33.774  28.357  22.072  1.00  0.00     0.278 C 
ENDBRANCH  20  25
BRANCH  22  27
ATOM     27  N   UNL A   1      30.196  28.890  23.601  1.00  0.00    -0.319 N 
ATOM     28  C   UNL A   1      30.708  29.783  24.510  1.00  0.00     0.255 C 
ATOM     29  H   UNL A   1      29.510  29.243  22.988  1.00  0.00     0.170 HD
ATOM     30  O   UNL A   1      30.383  30.966  24.499  1.00  0.00    -0.269 OA
BRANCH  28  31
ATOM     31  C   UNL A   1      31.719  29.313  25.473  1.00  0.00     0.040 A 
ATOM     32  C   UNL A   1      31.304  28.419  26.457  1.00  0.00     0.014 A 
ATOM     33  C   UNL A   1      33.073  29.654  25.329  1.00  0.00     0.014 A 
ATOM     34  C   UNL A   1      32.260  27.794  27.252  1.00  0.00     0.001 A 
ATOM     35  C   UNL A   1      34.025  29.018  26.122  1.00  0.00     0.001 A 
ATOM     36  C   UNL A   1      33.617  28.079  27.072  1.00  0.00     0.000 A 
ENDBRANCH  28  31
ENDBRANCH  22  27
ENDBRANCH  16  19
ENDBRANCH   9  15
ENDBRANCH   6   8
ENDBRANCH   5   6
ENDBRANCH   4   5
ENDBRANCH   3   4
ENDBRANCH   2   3
ENDBRANCH   1   2
BRANCH   1  37
ATOM     37  C   UNL A   1      40.706  20.667  27.124  1.00  0.00     0.188 C 
BRANCH  37  38
ATOM     38  O   UNL A   1      41.918  21.413  27.138  1.00  0.00    -0.376 OA
BRANCH  38  39
ATOM     39  C   UNL A   1      42.949  20.882  26.322  1.00  0.00     0.202 C 
BRANCH  39  40
ATOM     40  C   UNL A   1      43.363  21.817  25.177  1.00  0.00     0.261 C 
BRANCH  40  41
ATOM     41  O   UNL A   1      42.792  23.140  25.201  1.00  0.00    -0.460 OA
BRANCH  41  42
ATOM     42  C   UNL A   1      43.643  24.192  25.224  1.00  0.00     0.338 C 
ATOM     43  O   UNL A   1      44.458  24.480  24.368  1.00  0.00    -0.246 OA
BRANCH  42  44
ATOM     44  C   UNL A   1      43.359  25.028  26.424  1.00  0.00     0.060 A 
ATOM     45  C   UNL A   1      42.477  24.542  27.395  1.00  0.00     0.016 A 
ATOM     46  C   UNL A   1      43.915  26.305  26.576  1.00  0.00     0.016 A 
ATOM     47  C   UNL A   1      42.124  25.343  28.493  1.00  0.00     0.010 A 
ATOM     48  C   UNL A   1      43.559  27.105  27.674  1.00  0.00     0.010 A 
ATOM     49  C   UNL A   1      42.646  26.638  28.633  1.00  0.00    -0.014 A 
BRANCH  49  50
ATOM     50  C   UNL A   1      42.107  27.556  29.676  1.00  0.00     0.031 A 
ATOM     51  C   UNL A   1      42.761  27.563  31.033  1.00  0.00     0.074 A 
ATOM     52  C   UNL A   1      41.061  28.376  29.448  1.00  0.00     0.049 A 
ATOM     53  N   UNL A   1      42.445  28.241  32.106  1.00  0.00    -0.248 NA
ATOM     54  C   UNL A   1      43.925  26.678  31.200  1.00  0.00     0.031 C 
ATOM     55  C   UNL A   1      40.331  28.488  28.190  1.00  0.00     0.029 A 
ATOM     56  N   UNL A   1      40.429  29.272  30.281  1.00  0.00    -0.354 N 
ATOM     57  C   UNL A   1      43.360  27.856  33.078  1.00  0.00     0.074 A 
ATOM     58  C   UNL A   1      44.241  26.884  32.470  1.00  0.00     0.031 C 
ATOM     59  C   UNL A   1      39.361  29.410  28.326  1.00  0.00     0.029 A 
ATOM     60  C   UNL A   1      39.365  29.919  29.696  1.00  0.00     0.049 A 
ATOM     61  H   UNL A   1      40.714  29.435  31.209  1.00  0.00     0.167 HD
ATOM     62  C   UNL A   1      43.456  28.267  34.365  1.00  0.00     0.037 A 
ATOM     63  C   UNL A   1      38.477  30.793  30.213  1.00  0.00     0.037 A 
ATOM     64  C   UNL A   1      42.583  29.225  34.989  1.00  0.00     0.049 A 
ATOM     65  C   UNL A   1      38.580  31.198  31.664  1.00  0.00     0.074 A 
ATOM     66  C   UNL A   1      42.623  29.706  36.287  1.00  0.00     0.029 A 
ATOM     67  N   UNL A   1      41.510  29.839  34.366  1.00  0.00    -0.354 N 
ATOM     68  N   UNL A   1      39.470  30.850  32.561  1.00  0.00    -0.248 NA
ATOM     69  C   UNL A   1      37.541  32.108  32.177  1.00  0.00     0.031 C 
ATOM     70  C   UNL A   1      41.545  30.578  36.463  1.00  0.00     0.029 A 
ATOM     71  C   UNL A   1      40.864  30.677  35.261  1.00  0.00     0.049 A 
ATOM     72  H   UNL A   1      41.246  29.702  33.428  1.00  0.00     0.167 HD
ATOM     73  C   UNL A   1      39.112  31.512  33.731  1.00  0.00     0.074 A 
ATOM     74  C   UNL A   1      37.937  32.298  33.428  1.00  0.00     0.031 C 
ATOM     75  C   UNL A   1      39.703  31.468  34.949  1.00  0.00     0.037 A 
BRANCH  62  76
ATOM     76  C   UNL A   1      44.531  27.649  35.206  1.00  0.00     0.057 A 
ATOM     77  C   UNL A   1      44.344  26.427  35.861  1.00  0.00     0.134 A 
ATOM     78  C   UNL A   1      45.784  28.264  35.319  1.00  0.00     0.134 A 
ATOM     79  F   UNL A   1      43.160  25.798  35.803  1.00  0.00    -0.206 F 
ATOM     80  C   UNL A   1      45.365  25.842  36.612  1.00  0.00     0.040 A 
ATOM     81  C   UNL A   1      46.819  27.679  36.049  1.00  0.00     0.040 A 
ATOM     82  F   UNL A   1      46.025  29.437  34.713  1.00  0.00    -0.206 F 
ATOM     83  C   UNL A   1      46.609  26.465  36.700  1.00  0.00     0.006 A 
ENDBRANCH  62  76
BRANCH  63  84
ATOM     84  C   UNL A   1      37.366  31.328  29.380  1.00  0.00     0.057 A 
ATOM     85  C   UNL A   1      37.433  32.604  28.807  1.00  0.00     0.134 A 
ATOM     86  C   UNL A   1      36.180  30.606  29.202  1.00  0.00     0.134 A 
ATOM     87  F   UNL A   1      38.528  33.361  28.973  1.00  0.00    -0.206 F 
ATOM     88  C   UNL A   1      36.353  33.152  28.110  1.00  0.00     0.040 A 
ATOM     89  C   UNL A   1      35.104  31.130  28.483  1.00  0.00     0.040 A 
ATOM     90  F   UNL A   1      36.046  29.382  29.734  1.00  0.00    -0.206 F 
ATOM     91  C   UNL A   1      35.184  32.412  27.945  1.00  0.00     0.006 A 
ENDBRANCH  63  84
BRANCH  75  92
ATOM     92  C   UNL A   1      39.116  32.314  36.041  1.00  0.00     0.057 A 
ATOM     93  C   UNL A   1      38.208  31.795  36.974  1.00  0.00     0.134 A 
ATOM     94  C   UNL A   1      39.502  33.653  36.191  1.00  0.00     0.134 A 
ATOM     95  F   UNL A   1      37.789  30.524  36.879  1.00  0.00    -0.206 F 
ATOM     96  C   UNL A   1      37.693  32.582  38.005  1.00  0.00     0.040 A 
ATOM     97  C   UNL A   1      39.013  34.442  37.233  1.00  0.00     0.040 A 
ATOM     98  F   UNL A   1      40.376  34.209  35.338  1.00  0.00    -0.206 F 
ATOM     99  C   UNL A   1      38.100  33.908  38.141  1.00  0.00     0.006 A 
ENDBRANCH  75  92
ENDBRANCH  49  50
ENDBRANCH  42  44
ENDBRANCH  41  42
ENDBRANCH  40  41
ENDBRANCH  39  40
ENDBRANCH  38  39
ENDBRANCH  37  38
ENDBRANCH   1  37
TORSDOF 22
ENDMDL
