MODEL 1
REMARK VINA RESULT:      -9.2      0.000      0.000
REMARK SMILES CC[C@@H](C(=O)OCCOCCOCCOC(=O)c1ccc(-c2c3nc(c(-c4c(F)cccc4F)c4ccc([nH]4)c(-c4c(F)cccc4F)c4nc(c(-c5c(F)cccc5F)c5ccc2[nH]5)C=C4)C=C3)cc1)N(C)C(=O)N(C)CC(C)(C)O
REMARK SMILES IDX 8 1 7 2 6 3 4 4 5 5 3 6 2 7 1 8 72 9 73 10 74 11 75 12 76 13
REMARK SMILES IDX 77 14 78 15 79 16 80 17 81 18 82 19 9 21 10 22 11 23 12 24
REMARK SMILES IDX 13 25 14 26 15 27 16 28 17 29 18 30 19 31 71 32 20 33 70 34
REMARK SMILES IDX 21 35 22 36 23 37 64 38 24 39 69 40 63 41 65 42 25 43 68 44
REMARK SMILES IDX 62 45 61 46 26 48 52 49 35 50 51 51 36 52 39 53 50 54 66 55
REMARK SMILES IDX 37 56 38 57 49 59 67 60 40 61 27 62 28 63 33 64 29 65 30 66
REMARK SMILES IDX 32 67 34 68 31 69 53 70 54 71 59 72 55 73 56 74 58 75 60 76
REMARK SMILES IDX 57 77 41 78 42 79 47 80 43 81 44 82 46 83 48 84 45 85
REMARK H PARENT 82 20 65 47 39 58
REMARK Flexibility Score: inf
ROOT
ATOM      1  C   UNL A   1      32.942  27.771  25.410  1.00  0.00     0.202 C 
ENDROOT
BRANCH   1   2
ATOM      2  C   UNL A   1      33.527  26.631  24.541  1.00  0.00     0.261 C 
BRANCH   2   3
ATOM      3  O   UNL A   1      32.546  25.933  23.733  1.00  0.00    -0.462 OA
BRANCH   3   4
ATOM      4  C   UNL A   1      32.900  24.693  23.287  1.00  0.00     0.328 C 
ATOM      5  O   UNL A   1      33.552  24.521  22.259  1.00  0.00    -0.250 OA
BRANCH   4   6
ATOM      6  C   UNL A   1      32.343  23.512  24.150  1.00  0.00     0.196 C 
BRANCH   6   7
ATOM      7  C   UNL A   1      31.806  23.745  25.587  1.00  0.00     0.034 C 
ATOM      8  C   UNL A   1      30.619  22.924  26.060  1.00  0.00     0.007 C 
ENDBRANCH   6   7
BRANCH   6   9
ATOM      9  N   UNL A   1      33.369  22.394  24.082  1.00  0.00    -0.314 N 
ATOM     10  C   UNL A   1      34.717  22.770  24.458  1.00  0.00     0.149 C 
BRANCH   9  11
ATOM     11  C   UNL A   1      32.935  21.091  23.907  1.00  0.00     0.320 C 
ATOM     12  O   UNL A   1      32.232  20.801  22.938  1.00  0.00    -0.248 OA
BRANCH  11  13
ATOM     13  N   UNL A   1      33.146  20.115  24.866  1.00  0.00    -0.325 N 
ATOM     14  C   UNL A   1      33.262  20.385  26.296  1.00  0.00     0.148 C 
BRANCH  13  15
ATOM     15  C   UNL A   1      33.940  18.945  24.402  1.00  0.00     0.155 C 
BRANCH  15  16
ATOM     16  C   UNL A   1      33.184  17.583  24.115  1.00  0.00     0.077 C 
ATOM     17  C   UNL A   1      34.124  16.707  23.286  1.00  0.00     0.043 C 
ATOM     18  C   UNL A   1      32.766  16.728  25.331  1.00  0.00     0.043 C 
BRANCH  16  19
ATOM     19  O   UNL A   1      31.980  17.809  23.379  1.00  0.00    -0.389 OA
ATOM     20  H   UNL A   1      31.980  17.260  22.579  1.00  0.00     0.211 HD
ENDBRANCH  16  19
ENDBRANCH  15  16
ENDBRANCH  13  15
ENDBRANCH  11  13
ENDBRANCH   9  11
ENDBRANCH   6   9
ENDBRANCH   4   6
ENDBRANCH   3   4
ENDBRANCH   2   3
ENDBRANCH   1   2
BRANCH   1  21
ATOM     21  O   UNL A   1      33.833  28.783  25.879  1.00  0.00    -0.376 OA
BRANCH  21  22
ATOM     22  C   UNL A   1      33.150  29.921  26.394  1.00  0.00     0.188 C 
BRANCH  22  23
ATOM     23  C   UNL A   1      31.793  30.149  25.795  1.00  0.00     0.188 C 
BRANCH  23  24
ATOM     24  O   UNL A   1      31.361  31.489  26.046  1.00  0.00    -0.376 OA
BRANCH  24  25
ATOM     25  C   UNL A   1      31.952  32.036  27.211  1.00  0.00     0.202 C 
BRANCH  25  26
ATOM     26  C   UNL A   1      32.273  33.536  27.078  1.00  0.00     0.261 C 
BRANCH  26  27
ATOM     27  O   UNL A   1      32.345  34.262  28.330  1.00  0.00    -0.460 OA
BRANCH  27  28
ATOM     28  C   UNL A   1      33.539  34.872  28.617  1.00  0.00     0.338 C 
ATOM     29  O   UNL A   1      33.722  36.063  28.733  1.00  0.00    -0.246 OA
BRANCH  28  30
ATOM     30  C   UNL A   1      34.601  33.837  28.893  1.00  0.00     0.060 A 
ATOM     31  C   UNL A   1      34.373  32.835  29.853  1.00  0.00     0.016 A 
ATOM     32  C   UNL A   1      35.830  33.849  28.234  1.00  0.00     0.016 A 
ATOM     33  C   UNL A   1      35.367  31.872  30.166  1.00  0.00     0.010 A 
ATOM     34  C   UNL A   1      36.825  32.901  28.562  1.00  0.00     0.010 A 
ATOM     35  C   UNL A   1      36.620  31.887  29.531  1.00  0.00    -0.014 A 
BRANCH  35  36
ATOM     36  C   UNL A   1      37.807  31.107  30.073  1.00  0.00     0.031 A 
ATOM     37  C   UNL A   1      38.188  31.450  31.493  1.00  0.00     0.074 A 
ATOM     38  C   UNL A   1      38.590  30.191  29.442  1.00  0.00     0.049 A 
ATOM     39  N   UNL A   1      39.156  30.974  32.232  1.00  0.00    -0.248 NA
ATOM     40  C   UNL A   1      37.378  32.489  32.155  1.00  0.00     0.031 C 
ATOM     41  C   UNL A   1      38.453  29.716  28.085  1.00  0.00     0.029 A 
ATOM     42  N   UNL A   1      39.719  29.494  29.854  1.00  0.00    -0.354 N 
ATOM     43  C   UNL A   1      39.047  31.626  33.447  1.00  0.00     0.074 A 
ATOM     44  C   UNL A   1      37.991  32.605  33.318  1.00  0.00     0.031 C 
ATOM     45  C   UNL A   1      39.426  28.872  27.738  1.00  0.00     0.029 A 
ATOM     46  C   UNL A   1      40.301  28.712  28.869  1.00  0.00     0.049 A 
ATOM     47  H   UNL A   1      40.075  29.552  30.770  1.00  0.00     0.167 HD
ATOM     48  C   UNL A   1      39.729  31.408  34.592  1.00  0.00     0.037 A 
ATOM     49  C   UNL A   1      41.406  27.942  28.817  1.00  0.00     0.037 A 
ATOM     50  C   UNL A   1      40.812  30.477  34.731  1.00  0.00     0.049 A 
ATOM     51  C   UNL A   1      42.205  27.774  30.061  1.00  0.00     0.074 A 
ATOM     52  C   UNL A   1      41.547  30.179  35.864  1.00  0.00     0.029 A 
ATOM     53  N   UNL A   1      41.338  29.713  33.699  1.00  0.00    -0.354 N 
ATOM     54  N   UNL A   1      42.017  28.337  31.226  1.00  0.00    -0.248 NA
ATOM     55  C   UNL A   1      43.338  26.843  30.006  1.00  0.00     0.031 C 
ATOM     56  C   UNL A   1      42.552  29.277  35.507  1.00  0.00     0.029 A 
ATOM     57  C   UNL A   1      42.404  28.962  34.167  1.00  0.00     0.049 A 
ATOM     58  H   UNL A   1      41.005  29.707  32.773  1.00  0.00     0.167 HD
ATOM     59  C   UNL A   1      42.973  27.791  32.061  1.00  0.00     0.074 A 
ATOM     60  C   UNL A   1      43.742  26.853  31.267  1.00  0.00     0.031 C 
ATOM     61  C   UNL A   1      43.174  28.036  33.377  1.00  0.00     0.037 A 
BRANCH  48  62
ATOM     62  C   UNL A   1      39.296  32.219  35.776  1.00  0.00     0.057 A 
ATOM     63  C   UNL A   1      39.844  33.484  36.037  1.00  0.00     0.134 A 
ATOM     64  C   UNL A   1      38.373  31.709  36.693  1.00  0.00     0.134 A 
ATOM     65  F   UNL A   1      40.761  34.012  35.211  1.00  0.00    -0.206 F 
ATOM     66  C   UNL A   1      39.518  34.195  37.191  1.00  0.00     0.040 A 
ATOM     67  C   UNL A   1      38.015  32.425  37.834  1.00  0.00     0.040 A 
ATOM     68  F   UNL A   1      37.822  30.500  36.507  1.00  0.00    -0.206 F 
ATOM     69  C   UNL A   1      38.596  33.666  38.092  1.00  0.00     0.006 A 
ENDBRANCH  48  62
BRANCH  49  70
ATOM     70  C   UNL A   1      41.790  27.235  27.558  1.00  0.00     0.057 A 
ATOM     71  C   UNL A   1      42.557  27.866  26.569  1.00  0.00     0.134 A 
ATOM     72  C   UNL A   1      41.404  25.910  27.314  1.00  0.00     0.134 A 
ATOM     73  F   UNL A   1      42.951  29.138  26.731  1.00  0.00    -0.206 F 
ATOM     74  C   UNL A   1      42.906  27.218  25.381  1.00  0.00     0.040 A 
ATOM     75  C   UNL A   1      41.768  25.240  26.141  1.00  0.00     0.040 A 
ATOM     76  F   UNL A   1      40.682  25.238  28.222  1.00  0.00    -0.206 F 
ATOM     77  C   UNL A   1      42.514  25.899  25.166  1.00  0.00     0.006 A 
ENDBRANCH  49  70
BRANCH  61  78
ATOM     78  C   UNL A   1      44.235  27.229  34.052  1.00  0.00     0.057 A 
ATOM     79  C   UNL A   1      43.972  25.978  34.624  1.00  0.00     0.134 A 
ATOM     80  C   UNL A   1      45.542  27.723  34.137  1.00  0.00     0.134 A 
ATOM     81  F   UNL A   1      42.732  25.464  34.598  1.00  0.00    -0.206 F 
ATOM     82  C   UNL A   1      44.969  25.259  35.283  1.00  0.00     0.040 A 
ATOM     83  C   UNL A   1      46.554  26.998  34.763  1.00  0.00     0.040 A 
ATOM     84  F   UNL A   1      45.856  28.917  33.611  1.00  0.00    -0.206 F 
ATOM     85  C   UNL A   1      46.266  25.766  35.346  1.00  0.00     0.006 A 
ENDBRANCH  61  78
ENDBRANCH  35  36
ENDBRANCH  28  30
ENDBRANCH  27  28
ENDBRANCH  26  27
ENDBRANCH  25  26
ENDBRANCH  24  25
ENDBRANCH  23  24
ENDBRANCH  22  23
ENDBRANCH  21  22
ENDBRANCH   1  21
TORSDOF 24
ENDMDL
MODEL 2
REMARK VINA RESULT:      -8.9      4.540     10.076
REMARK SMILES CC[C@@H](C(=O)OCCOCCOCCOC(=O)c1ccc(-c2c3nc(c(-c4c(F)cccc4F)c4ccc([nH]4)c(-c4c(F)cccc4F)c4nc(c(-c5c(F)cccc5F)c5ccc2[nH]5)C=C4)C=C3)cc1)N(C)C(=O)N(C)CC(C)(C)O
REMARK SMILES IDX 8 1 7 2 6 3 4 4 5 5 3 6 2 7 1 8 72 9 73 10 74 11 75 12 76 13
REMARK SMILES IDX 77 14 78 15 79 16 80 17 81 18 82 19 9 21 10 22 11 23 12 24
REMARK SMILES IDX 13 25 14 26 15 27 16 28 17 29 18 30 19 31 71 32 20 33 70 34
REMARK SMILES IDX 21 35 22 36 23 37 64 38 24 39 69 40 63 41 65 42 25 43 68 44
REMARK SMILES IDX 62 45 61 46 26 48 52 49 35 50 51 51 36 52 39 53 50 54 66 55
REMARK SMILES IDX 37 56 38 57 49 59 67 60 40 61 27 62 28 63 33 64 29 65 30 66
REMARK SMILES IDX 32 67 34 68 31 69 53 70 54 71 59 72 55 73 56 74 58 75 60 76
REMARK SMILES IDX 57 77 41 78 42 79 47 80 43 81 44 82 46 83 48 84 45 85
REMARK H PARENT 82 20 65 47 39 58
REMARK Flexibility Score: inf
ROOT
ATOM      1  C   UNL A   1      35.499  22.684  25.791  1.00  0.00     0.202 C 
ENDROOT
BRANCH   1   2
ATOM      2  C   UNL A   1      34.345  23.391  26.546  1.00  0.00     0.261 C 
BRANCH   2   3
ATOM      3  O   UNL A   1      33.782  24.528  25.844  1.00  0.00    -0.462 OA
BRANCH   3   4
ATOM      4  C   UNL A   1      32.429  24.520  25.665  1.00  0.00     0.328 C 
ATOM      5  O   UNL A   1      31.638  24.652  26.596  1.00  0.00    -0.250 OA
BRANCH   4   6
ATOM      6  C   UNL A   1      31.974  24.255  24.191  1.00  0.00     0.196 C 
BRANCH   6   7
ATOM      7  C   UNL A   1      32.719  23.237  23.287  1.00  0.00     0.034 C 
ATOM      8  C   UNL A   1      32.302  21.778  23.341  1.00  0.00     0.007 C 
ENDBRANCH   6   7
BRANCH   6   9
ATOM      9  N   UNL A   1      31.803  25.612  23.531  1.00  0.00    -0.314 N 
ATOM     10  C   UNL A   1      32.408  25.741  22.220  1.00  0.00     0.149 C 
BRANCH   9  11
ATOM     11  C   UNL A   1      30.918  26.523  24.083  1.00  0.00     0.320 C 
ATOM     12  O   UNL A   1      29.755  26.187  24.315  1.00  0.00    -0.248 OA
BRANCH  11  13
ATOM     13  N   UNL A   1      31.253  27.854  24.258  1.00  0.00    -0.325 N 
ATOM     14  C   UNL A   1      30.978  28.902  23.279  1.00  0.00     0.148 C 
BRANCH  13  15
ATOM     15  C   UNL A   1      32.475  28.089  25.073  1.00  0.00     0.155 C 
BRANCH  15  16
ATOM     16  C   UNL A   1      32.305  28.514  26.589  1.00  0.00     0.077 C 
ATOM     17  C   UNL A   1      33.686  28.439  27.241  1.00  0.00     0.043 C 
ATOM     18  C   UNL A   1      31.773  29.935  26.877  1.00  0.00     0.043 C 
BRANCH  16  19
ATOM     19  O   UNL A   1      31.413  27.630  27.273  1.00  0.00    -0.389 OA
ATOM     20  H   UNL A   1      30.525  28.019  27.296  1.00  0.00     0.211 HD
ENDBRANCH  16  19
ENDBRANCH  15  16
ENDBRANCH  13  15
ENDBRANCH  11  13
ENDBRANCH   9  11
ENDBRANCH   6   9
ENDBRANCH   4   6
ENDBRANCH   3   4
ENDBRANCH   2   3
ENDBRANCH   1   2
BRANCH   1  21
ATOM     21  O   UNL A   1      36.599  23.480  25.351  1.00  0.00    -0.376 OA
BRANCH  21  22
ATOM     22  C   UNL A   1      37.551  23.720  26.382  1.00  0.00     0.188 C 
BRANCH  22  23
ATOM     23  C   UNL A   1      38.900  23.115  26.129  1.00  0.00     0.188 C 
BRANCH  23  24
ATOM     24  O   UNL A   1      38.896  21.730  26.487  1.00  0.00    -0.376 OA
BRANCH  24  25
ATOM     25  C   UNL A   1      38.663  20.888  25.373  1.00  0.00     0.202 C 
BRANCH  25  26
ATOM     26  C   UNL A   1      39.323  19.503  25.514  1.00  0.00     0.261 C 
BRANCH  26  27
ATOM     27  O   UNL A   1      40.383  19.427  26.499  1.00  0.00    -0.460 OA
BRANCH  27  28
ATOM     28  C   UNL A   1      41.661  19.607  26.038  1.00  0.00     0.338 C 
ATOM     29  O   UNL A   1      42.300  18.820  25.376  1.00  0.00    -0.246 OA
BRANCH  28  30
ATOM     30  C   UNL A   1      42.144  20.998  26.370  1.00  0.00     0.060 A 
ATOM     31  C   UNL A   1      42.321  21.378  27.713  1.00  0.00     0.016 A 
ATOM     32  C   UNL A   1      42.406  21.943  25.380  1.00  0.00     0.016 A 
ATOM     33  C   UNL A   1      42.733  22.690  28.061  1.00  0.00     0.010 A 
ATOM     34  C   UNL A   1      42.797  23.254  25.730  1.00  0.00     0.010 A 
ATOM     35  C   UNL A   1      42.975  23.662  27.076  1.00  0.00    -0.014 A 
BRANCH  35  36
ATOM     36  C   UNL A   1      43.078  25.141  27.411  1.00  0.00     0.031 A 
ATOM     37  C   UNL A   1      44.449  25.738  27.205  1.00  0.00     0.074 A 
ATOM     38  C   UNL A   1      42.124  25.974  27.909  1.00  0.00     0.049 A 
ATOM     39  N   UNL A   1      44.862  26.961  27.410  1.00  0.00    -0.248 NA
ATOM     40  C   UNL A   1      45.496  24.819  26.724  1.00  0.00     0.031 C 
ATOM     41  C   UNL A   1      40.753  25.643  28.218  1.00  0.00     0.029 A 
ATOM     42  N   UNL A   1      42.168  27.309  28.293  1.00  0.00    -0.354 N 
ATOM     43  C   UNL A   1      46.199  26.963  27.052  1.00  0.00     0.074 A 
ATOM     44  C   UNL A   1      46.558  25.604  26.717  1.00  0.00     0.031 C 
ATOM     45  C   UNL A   1      40.091  26.664  28.765  1.00  0.00     0.029 A 
ATOM     46  C   UNL A   1      40.993  27.781  28.856  1.00  0.00     0.049 A 
ATOM     47  H   UNL A   1      42.967  27.871  28.175  1.00  0.00     0.167 HD
ATOM     48  C   UNL A   1      47.052  28.007  26.963  1.00  0.00     0.037 A 
ATOM     49  C   UNL A   1      40.624  28.956  29.403  1.00  0.00     0.037 A 
ATOM     50  C   UNL A   1      46.732  29.356  27.335  1.00  0.00     0.049 A 
ATOM     51  C   UNL A   1      41.600  30.080  29.380  1.00  0.00     0.074 A 
ATOM     52  C   UNL A   1      47.534  30.479  27.257  1.00  0.00     0.029 A 
ATOM     53  N   UNL A   1      45.525  29.762  27.884  1.00  0.00    -0.354 N 
ATOM     54  N   UNL A   1      42.833  30.072  28.945  1.00  0.00    -0.248 NA
ATOM     55  C   UNL A   1      41.134  31.379  29.880  1.00  0.00     0.031 C 
ATOM     56  C   UNL A   1      46.833  31.555  27.808  1.00  0.00     0.029 A 
ATOM     57  C   UNL A   1      45.571  31.117  28.171  1.00  0.00     0.049 A 
ATOM     58  H   UNL A   1      44.752  29.174  28.047  1.00  0.00     0.167 HD
ATOM     59  C   UNL A   1      43.278  31.375  29.067  1.00  0.00     0.074 A 
ATOM     60  C   UNL A   1      42.182  32.146  29.621  1.00  0.00     0.031 C 
ATOM     61  C   UNL A   1      44.485  31.881  28.727  1.00  0.00     0.037 A 
BRANCH  48  62
ATOM     62  C   UNL A   1      48.419  27.690  26.437  1.00  0.00     0.057 A 
ATOM     63  C   UNL A   1      48.671  27.598  25.060  1.00  0.00     0.134 A 
ATOM     64  C   UNL A   1      49.476  27.418  27.310  1.00  0.00     0.134 A 
ATOM     65  F   UNL A   1      47.687  27.815  24.172  1.00  0.00    -0.206 F 
ATOM     66  C   UNL A   1      49.916  27.205  24.571  1.00  0.00     0.040 A 
ATOM     67  C   UNL A   1      50.735  27.056  26.832  1.00  0.00     0.040 A 
ATOM     68  F   UNL A   1      49.297  27.478  28.638  1.00  0.00    -0.206 F 
ATOM     69  C   UNL A   1      50.954  26.937  25.460  1.00  0.00     0.006 A 
ENDBRANCH  48  62
BRANCH  49  70
ATOM     70  C   UNL A   1      39.254  29.143  29.970  1.00  0.00     0.057 A 
ATOM     71  C   UNL A   1      38.187  29.582  29.175  1.00  0.00     0.134 A 
ATOM     72  C   UNL A   1      38.977  28.883  31.320  1.00  0.00     0.134 A 
ATOM     73  F   UNL A   1      38.383  29.862  27.878  1.00  0.00    -0.206 F 
ATOM     74  C   UNL A   1      36.906  29.776  29.702  1.00  0.00     0.040 A 
ATOM     75  C   UNL A   1      37.695  29.048  31.854  1.00  0.00     0.040 A 
ATOM     76  F   UNL A   1      39.946  28.445  32.136  1.00  0.00    -0.206 F 
ATOM     77  C   UNL A   1      36.657  29.505  31.045  1.00  0.00     0.006 A 
ENDBRANCH  49  70
BRANCH  61  78
ATOM     78  C   UNL A   1      44.661  33.357  28.891  1.00  0.00     0.057 A 
ATOM     79  C   UNL A   1      45.173  33.923  30.065  1.00  0.00     0.134 A 
ATOM     80  C   UNL A   1      44.300  34.224  27.853  1.00  0.00     0.134 A 
ATOM     81  F   UNL A   1      45.511  33.145  31.105  1.00  0.00    -0.206 F 
ATOM     82  C   UNL A   1      45.292  35.304  30.210  1.00  0.00     0.040 A 
ATOM     83  C   UNL A   1      44.447  35.604  27.974  1.00  0.00     0.040 A 
ATOM     84  F   UNL A   1      43.801  33.742  26.704  1.00  0.00    -0.206 F 
ATOM     85  C   UNL A   1      44.935  36.148  29.159  1.00  0.00     0.006 A 
ENDBRANCH  61  78
ENDBRANCH  35  36
ENDBRANCH  28  30
ENDBRANCH  27  28
ENDBRANCH  26  27
ENDBRANCH  25  26
ENDBRANCH  24  25
ENDBRANCH  23  24
ENDBRANCH  22  23
ENDBRANCH  21  22
ENDBRANCH   1  21
TORSDOF 24
ENDMDL
MODEL 3
REMARK VINA RESULT:      -8.9      4.597     10.328
REMARK SMILES CC[C@@H](C(=O)OCCOCCOCCOC(=O)c1ccc(-c2c3nc(c(-c4c(F)cccc4F)c4ccc([nH]4)c(-c4c(F)cccc4F)c4nc(c(-c5c(F)cccc5F)c5ccc2[nH]5)C=C4)C=C3)cc1)N(C)C(=O)N(C)CC(C)(C)O
REMARK SMILES IDX 8 1 7 2 6 3 4 4 5 5 3 6 2 7 1 8 72 9 73 10 74 11 75 12 76 13
REMARK SMILES IDX 77 14 78 15 79 16 80 17 81 18 82 19 9 21 10 22 11 23 12 24
REMARK SMILES IDX 13 25 14 26 15 27 16 28 17 29 18 30 19 31 71 32 20 33 70 34
REMARK SMILES IDX 21 35 22 36 23 37 64 38 24 39 69 40 63 41 65 42 25 43 68 44
REMARK SMILES IDX 62 45 61 46 26 48 52 49 35 50 51 51 36 52 39 53 50 54 66 55
REMARK SMILES IDX 37 56 38 57 49 59 67 60 40 61 27 62 28 63 33 64 29 65 30 66
REMARK SMILES IDX 32 67 34 68 31 69 53 70 54 71 59 72 55 73 56 74 58 75 60 76
REMARK SMILES IDX 57 77 41 78 42 79 47 80 43 81 44 82 46 83 48 84 45 85
REMARK H PARENT 82 20 65 47 39 58
REMARK Flexibility Score: inf
ROOT
ATOM      1  C   UNL A   1      34.444  22.773  25.763  1.00  0.00     0.202 C 
ENDROOT
BRANCH   1   2
ATOM      2  C   UNL A   1      34.426  24.281  26.116  1.00  0.00     0.261 C 
BRANCH   2   3
ATOM      3  O   UNL A   1      33.236  24.982  25.675  1.00  0.00    -0.462 OA
BRANCH   3   4
ATOM      4  C   UNL A   1      33.436  26.088  24.901  1.00  0.00     0.328 C 
ATOM      5  O   UNL A   1      34.019  26.042  23.820  1.00  0.00    -0.250 OA
BRANCH   4   6
ATOM      6  C   UNL A   1      32.930  27.425  25.539  1.00  0.00     0.196 C 
BRANCH   6   7
ATOM      7  C   UNL A   1      33.707  28.115  26.691  1.00  0.00     0.034 C 
ATOM      8  C   UNL A   1      34.182  29.544  26.492  1.00  0.00     0.007 C 
ENDBRANCH   6   7
BRANCH   6   9
ATOM      9  N   UNL A   1      31.458  27.231  25.859  1.00  0.00    -0.314 N 
ATOM     10  C   UNL A   1      31.059  27.625  27.195  1.00  0.00     0.149 C 
BRANCH   9  11
ATOM     11  C   UNL A   1      30.579  26.932  24.831  1.00  0.00     0.320 C 
ATOM     12  O   UNL A   1      29.900  25.905  24.881  1.00  0.00    -0.248 OA
BRANCH  11  13
ATOM     13  N   UNL A   1      30.533  27.680  23.667  1.00  0.00    -0.325 N 
ATOM     14  C   UNL A   1      31.052  27.223  22.381  1.00  0.00     0.148 C 
BRANCH  13  15
ATOM     15  C   UNL A   1      30.612  29.152  23.866  1.00  0.00     0.155 C 
BRANCH  15  16
ATOM     16  C   UNL A   1      29.566  30.075  23.116  1.00  0.00     0.077 C 
ATOM     17  C   UNL A   1      28.331  29.221  22.827  1.00  0.00     0.043 C 
ATOM     18  C   UNL A   1      29.053  31.326  23.862  1.00  0.00     0.043 C 
BRANCH  16  19
ATOM     19  O   UNL A   1      30.101  30.561  21.883  1.00  0.00    -0.389 OA
ATOM     20  H   UNL A   1      31.000  30.895  22.030  1.00  0.00     0.211 HD
ENDBRANCH  16  19
ENDBRANCH  15  16
ENDBRANCH  13  15
ENDBRANCH  11  13
ENDBRANCH   9  11
ENDBRANCH   6   9
ENDBRANCH   4   6
ENDBRANCH   3   4
ENDBRANCH   2   3
ENDBRANCH   1   2
BRANCH   1  21
ATOM     21  O   UNL A   1      35.025  22.383  24.518  1.00  0.00    -0.376 OA
BRANCH  21  22
ATOM     22  C   UNL A   1      36.149  21.525  24.682  1.00  0.00     0.188 C 
BRANCH  22  23
ATOM     23  C   UNL A   1      35.799  20.101  24.998  1.00  0.00     0.188 C 
BRANCH  23  24
ATOM     24  O   UNL A   1      36.961  19.273  24.909  1.00  0.00    -0.376 OA
BRANCH  24  25
ATOM     25  C   UNL A   1      38.161  20.015  25.036  1.00  0.00     0.202 C 
BRANCH  25  26
ATOM     26  C   UNL A   1      39.278  19.238  25.755  1.00  0.00     0.261 C 
BRANCH  26  27
ATOM     27  O   UNL A   1      40.550  19.207  25.060  1.00  0.00    -0.460 OA
BRANCH  27  28
ATOM     28  C   UNL A   1      41.669  19.051  25.836  1.00  0.00     0.338 C 
ATOM     29  O   UNL A   1      42.235  18.007  26.073  1.00  0.00    -0.246 OA
BRANCH  28  30
ATOM     30  C   UNL A   1      42.191  20.398  26.275  1.00  0.00     0.060 A 
ATOM     31  C   UNL A   1      42.055  20.801  27.615  1.00  0.00     0.016 A 
ATOM     32  C   UNL A   1      42.796  21.280  25.381  1.00  0.00     0.016 A 
ATOM     33  C   UNL A   1      42.497  22.077  28.051  1.00  0.00     0.010 A 
ATOM     34  C   UNL A   1      43.217  22.557  25.813  1.00  0.00     0.010 A 
ATOM     35  C   UNL A   1      43.084  22.988  27.158  1.00  0.00    -0.014 A 
BRANCH  35  36
ATOM     36  C   UNL A   1      43.250  24.460  27.500  1.00  0.00     0.031 A 
ATOM     37  C   UNL A   1      44.680  24.941  27.529  1.00  0.00     0.074 A 
ATOM     38  C   UNL A   1      42.297  25.375  27.825  1.00  0.00     0.049 A 
ATOM     39  N   UNL A   1      45.151  26.130  27.797  1.00  0.00    -0.248 NA
ATOM     40  C   UNL A   1      45.715  23.933  27.237  1.00  0.00     0.031 C 
ATOM     41  C   UNL A   1      40.871  25.160  27.897  1.00  0.00     0.029 A 
ATOM     42  N   UNL A   1      42.384  26.708  28.207  1.00  0.00    -0.354 N 
ATOM     43  C   UNL A   1      46.525  26.019  27.672  1.00  0.00     0.074 A 
ATOM     44  C   UNL A   1      46.823  24.629  27.408  1.00  0.00     0.031 C 
ATOM     45  C   UNL A   1      40.211  26.241  28.320  1.00  0.00     0.029 A 
ATOM     46  C   UNL A   1      41.173  27.284  28.560  1.00  0.00     0.049 A 
ATOM     47  H   UNL A   1      43.235  27.203  28.225  1.00  0.00     0.167 HD
ATOM     48  C   UNL A   1      47.464  26.988  27.725  1.00  0.00     0.037 A 
ATOM     49  C   UNL A   1      40.815  28.494  29.031  1.00  0.00     0.037 A 
ATOM     50  C   UNL A   1      47.198  28.365  28.033  1.00  0.00     0.049 A 
ATOM     51  C   UNL A   1      41.870  29.535  29.171  1.00  0.00     0.074 A 
ATOM     52  C   UNL A   1      48.091  29.419  28.089  1.00  0.00     0.029 A 
ATOM     53  N   UNL A   1      45.952  28.876  28.367  1.00  0.00    -0.354 N 
ATOM     54  N   UNL A   1      43.154  29.420  28.953  1.00  0.00    -0.248 NA
ATOM     55  C   UNL A   1      41.434  30.875  29.580  1.00  0.00     0.031 C 
ATOM     56  C   UNL A   1      47.397  30.557  28.509  1.00  0.00     0.029 A 
ATOM     57  C   UNL A   1      46.060  30.228  28.652  1.00  0.00     0.049 A 
ATOM     58  H   UNL A   1      45.117  28.356  28.398  1.00  0.00     0.167 HD
ATOM     59  C   UNL A   1      43.677  30.685  29.145  1.00  0.00     0.074 A 
ATOM     60  C   UNL A   1      42.570  31.551  29.500  1.00  0.00     0.031 C 
ATOM     61  C   UNL A   1      44.962  31.087  29.014  1.00  0.00     0.037 A 
BRANCH  48  62
ATOM     62  C   UNL A   1      48.870  26.554  27.441  1.00  0.00     0.057 A 
ATOM     63  C   UNL A   1      49.753  26.212  28.476  1.00  0.00     0.134 A 
ATOM     64  C   UNL A   1      49.362  26.535  26.133  1.00  0.00     0.134 A 
ATOM     65  F   UNL A   1      49.349  26.244  29.756  1.00  0.00    -0.206 F 
ATOM     66  C   UNL A   1      51.090  25.905  28.221  1.00  0.00     0.040 A 
ATOM     67  C   UNL A   1      50.688  26.199  25.863  1.00  0.00     0.040 A 
ATOM     68  F   UNL A   1      48.570  26.864  25.102  1.00  0.00    -0.206 F 
ATOM     69  C   UNL A   1      51.558  25.895  26.910  1.00  0.00     0.006 A 
ENDBRANCH  48  62
BRANCH  49  70
ATOM     70  C   UNL A   1      39.389  28.800  29.357  1.00  0.00     0.057 A 
ATOM     71  C   UNL A   1      38.884  28.639  30.654  1.00  0.00     0.134 A 
ATOM     72  C   UNL A   1      38.497  29.264  28.380  1.00  0.00     0.134 A 
ATOM     73  F   UNL A   1      39.678  28.186  31.635  1.00  0.00    -0.206 F 
ATOM     74  C   UNL A   1      37.547  28.906  30.963  1.00  0.00     0.040 A 
ATOM     75  C   UNL A   1      37.164  29.559  28.681  1.00  0.00     0.040 A 
ATOM     76  F   UNL A   1      38.914  29.456  27.120  1.00  0.00    -0.206 F 
ATOM     77  C   UNL A   1      36.683  29.372  29.975  1.00  0.00     0.006 A 
ENDBRANCH  49  70
BRANCH  61  78
ATOM     78  C   UNL A   1      45.228  32.546  29.199  1.00  0.00     0.057 A 
ATOM     79  C   UNL A   1      45.568  33.091  30.443  1.00  0.00     0.134 A 
ATOM     80  C   UNL A   1      45.131  33.420  28.109  1.00  0.00     0.134 A 
ATOM     81  F   UNL A   1      45.650  32.308  31.531  1.00  0.00    -0.206 F 
ATOM     82  C   UNL A   1      45.774  34.461  30.602  1.00  0.00     0.040 A 
ATOM     83  C   UNL A   1      45.368  34.785  28.249  1.00  0.00     0.040 A 
ATOM     84  F   UNL A   1      44.806  32.958  26.892  1.00  0.00    -0.206 F 
ATOM     85  C   UNL A   1      45.682  35.310  29.500  1.00  0.00     0.006 A 
ENDBRANCH  61  78
ENDBRANCH  35  36
ENDBRANCH  28  30
ENDBRANCH  27  28
ENDBRANCH  26  27
ENDBRANCH  25  26
ENDBRANCH  24  25
ENDBRANCH  23  24
ENDBRANCH  22  23
ENDBRANCH  21  22
ENDBRANCH   1  21
TORSDOF 24
ENDMDL
