MODEL 1
REMARK VINA RESULT:     -11.3      0.000      0.000
REMARK SMILES C[C@@H](NC(=O)/C(=C/c1ccc(Cl)cc1)NC(=O)c1ccc(C(C)(C)C)cc1)C(=O)OCCOCCOCCOC(=O)c1ccc(-c2c3nc(c(-c4c(F)cccc4F)c4ccc([nH]4)c(-c4c(F)cccc4F)c4nc(c(-c5c(F)cccc5F)c5ccc2[nH]5)C=C4)C=C3)cc1
REMARK SMILES IDX 33 1 32 2 31 3 30 4 28 5 29 6 2 7 1 8 3 9 4 10 5 12 6 13
REMARK SMILES IDX 7 14 15 15 16 16 17 18 18 19 19 20 27 21 20 22 26 23 21 24
REMARK SMILES IDX 22 25 23 26 24 27 25 28 8 29 9 30 14 31 10 32 13 33 11 34
REMARK SMILES IDX 12 35 34 36 35 37 36 38 37 39 38 40 39 41 40 42 41 43 42 44
REMARK SMILES IDX 43 45 95 46 44 47 94 48 45 49 46 50 47 51 88 52 48 53 93 54
REMARK SMILES IDX 87 55 89 56 49 57 92 58 86 59 85 60 50 62 76 63 59 64 75 65
REMARK SMILES IDX 60 66 63 67 74 68 90 69 61 70 62 71 73 73 91 74 64 75 51 76
REMARK SMILES IDX 52 77 57 78 53 79 54 80 56 81 58 82 55 83 77 84 78 85 83 86
REMARK SMILES IDX 79 87 80 88 82 89 84 90 81 91 65 92 66 93 71 94 67 95 68 96
REMARK SMILES IDX 70 97 72 98 69 99
REMARK H PARENT 3 11 15 17 89 61 63 72
REMARK Flexibility Score: inf
ROOT
ATOM      1  O   UNL A   1      32.370  31.336  27.166  1.00  0.00    -0.376 OA
ENDROOT
BRANCH   1   2
ATOM      2  C   UNL A   1      31.955  30.416  26.177  1.00  0.00     0.202 C 
BRANCH   2   3
ATOM      3  C   UNL A   1      32.597  29.028  26.135  1.00  0.00     0.261 C 
BRANCH   3   4
ATOM      4  O   UNL A   1      33.338  28.502  25.009  1.00  0.00    -0.462 OA
BRANCH   4   5
ATOM      5  C   UNL A   1      33.036  28.518  23.696  1.00  0.00     0.328 C 
ATOM      6  O   UNL A   1      33.681  29.021  22.788  1.00  0.00    -0.250 OA
BRANCH   5   7
ATOM      7  C   UNL A   1      31.672  27.906  23.446  1.00  0.00     0.189 C 
ATOM      8  C   UNL A   1      30.791  28.883  22.655  1.00  0.00     0.043 C 
BRANCH   7   9
ATOM      9  N   UNL A   1      31.842  26.597  22.805  1.00  0.00    -0.338 N 
ATOM     10  C   UNL A   1      31.618  25.405  23.472  1.00  0.00     0.268 C 
ATOM     11  H   UNL A   1      32.125  26.566  21.864  1.00  0.00     0.164 HD
ATOM     12  O   UNL A   1      30.599  24.755  23.259  1.00  0.00    -0.268 OA
BRANCH  10  13
ATOM     13  C   UNL A   1      32.737  24.857  24.343  1.00  0.00     0.107 C 
ATOM     14  C   UNL A   1      33.962  24.773  23.779  1.00  0.00     0.040 C 
BRANCH  13  15
ATOM     15  N   UNL A   1      32.548  24.554  25.672  1.00  0.00    -0.317 N 
ATOM     16  C   UNL A   1      32.537  23.403  26.411  1.00  0.00     0.255 C 
ATOM     17  H   UNL A   1      32.382  25.355  26.221  1.00  0.00     0.170 HD
ATOM     18  O   UNL A   1      32.282  23.452  27.612  1.00  0.00    -0.269 OA
BRANCH  16  19
ATOM     19  C   UNL A   1      32.769  22.105  25.791  1.00  0.00     0.040 A 
ATOM     20  C   UNL A   1      33.825  21.335  26.264  1.00  0.00     0.014 A 
ATOM     21  C   UNL A   1      31.954  21.659  24.756  1.00  0.00     0.014 A 
ATOM     22  C   UNL A   1      34.011  20.058  25.747  1.00  0.00     0.005 A 
ATOM     23  C   UNL A   1      32.138  20.368  24.255  1.00  0.00     0.005 A 
ATOM     24  C   UNL A   1      33.147  19.530  24.765  1.00  0.00    -0.043 A 
BRANCH  24  25
ATOM     25  C   UNL A   1      33.350  18.088  24.274  1.00  0.00    -0.013 C 
ATOM     26  C   UNL A   1      32.771  17.977  22.852  1.00  0.00     0.016 C 
ATOM     27  C   UNL A   1      34.854  17.728  24.250  1.00  0.00     0.016 C 
ATOM     28  C   UNL A   1      32.658  17.032  25.163  1.00  0.00     0.016 C 
ENDBRANCH  24  25
ENDBRANCH  16  19
ENDBRANCH  13  15
BRANCH  14  29
ATOM     29  C   UNL A   1      35.228  24.104  24.210  1.00  0.00    -0.023 A 
ATOM     30  C   UNL A   1      35.899  24.339  25.426  1.00  0.00     0.010 A 
ATOM     31  C   UNL A   1      35.650  22.983  23.461  1.00  0.00     0.010 A 
ATOM     32  C   UNL A   1      36.953  23.519  25.859  1.00  0.00     0.021 A 
ATOM     33  C   UNL A   1      36.679  22.139  23.911  1.00  0.00     0.021 A 
ATOM     34  C   UNL A   1      37.329  22.413  25.108  1.00  0.00     0.041 A 
ATOM     35  Cl  UNL A   1      38.539  21.347  25.703  1.00  0.00    -0.084 Cl
ENDBRANCH  14  29
ENDBRANCH  10  13
ENDBRANCH   7   9
ENDBRANCH   5   7
ENDBRANCH   4   5
ENDBRANCH   3   4
ENDBRANCH   2   3
ENDBRANCH   1   2
BRANCH   1  36
ATOM     36  C   UNL A   1      33.767  31.345  27.384  1.00  0.00     0.188 C 
BRANCH  36  37
ATOM     37  C   UNL A   1      34.122  32.111  28.660  1.00  0.00     0.188 C 
BRANCH  37  38
ATOM     38  O   UNL A   1      34.569  33.448  28.554  1.00  0.00    -0.376 OA
BRANCH  38  39
ATOM     39  C   UNL A   1      33.639  34.468  28.231  1.00  0.00     0.202 C 
BRANCH  39  40
ATOM     40  C   UNL A   1      33.156  35.533  29.250  1.00  0.00     0.261 C 
BRANCH  40  41
ATOM     41  O   UNL A   1      32.447  35.125  30.433  1.00  0.00    -0.460 OA
BRANCH  41  42
ATOM     42  C   UNL A   1      32.757  35.702  31.614  1.00  0.00     0.338 C 
ATOM     43  O   UNL A   1      32.114  36.565  32.194  1.00  0.00    -0.246 OA
BRANCH  42  44
ATOM     44  C   UNL A   1      33.885  34.935  32.222  1.00  0.00     0.060 A 
ATOM     45  C   UNL A   1      35.201  35.406  32.062  1.00  0.00     0.016 A 
ATOM     46  C   UNL A   1      33.655  33.786  32.978  1.00  0.00     0.016 A 
ATOM     47  C   UNL A   1      36.280  34.744  32.652  1.00  0.00     0.010 A 
ATOM     48  C   UNL A   1      34.743  33.084  33.515  1.00  0.00     0.010 A 
ATOM     49  C   UNL A   1      36.061  33.546  33.336  1.00  0.00    -0.014 A 
BRANCH  49  50
ATOM     50  C   UNL A   1      37.203  32.655  33.663  1.00  0.00     0.031 A 
ATOM     51  C   UNL A   1      37.968  32.935  34.929  1.00  0.00     0.074 A 
ATOM     52  C   UNL A   1      37.578  31.644  32.859  1.00  0.00     0.049 A 
ATOM     53  N   UNL A   1      39.101  32.436  35.345  1.00  0.00    -0.248 NA
ATOM     54  C   UNL A   1      37.369  33.919  35.846  1.00  0.00     0.031 C 
ATOM     55  C   UNL A   1      36.881  31.218  31.648  1.00  0.00     0.029 A 
ATOM     56  N   UNL A   1      38.668  30.809  32.931  1.00  0.00    -0.354 N 
ATOM     57  C   UNL A   1      39.371  33.073  36.549  1.00  0.00     0.074 A 
ATOM     58  C   UNL A   1      38.283  33.990  36.803  1.00  0.00     0.031 C 
ATOM     59  C   UNL A   1      37.587  30.234  31.063  1.00  0.00     0.029 A 
ATOM     60  C   UNL A   1      38.807  29.995  31.833  1.00  0.00     0.049 A 
ATOM     61  H   UNL A   1      39.288  30.796  33.696  1.00  0.00     0.167 HD
ATOM     62  C   UNL A   1      40.438  32.912  37.365  1.00  0.00     0.037 A 
ATOM     63  C   UNL A   1      39.831  29.195  31.466  1.00  0.00     0.037 A 
ATOM     64  C   UNL A   1      41.510  31.987  37.116  1.00  0.00     0.049 A 
ATOM     65  C   UNL A   1      41.051  29.098  32.351  1.00  0.00     0.074 A 
ATOM     66  C   UNL A   1      42.612  31.716  37.910  1.00  0.00     0.029 A 
ATOM     67  N   UNL A   1      41.622  31.195  35.987  1.00  0.00    -0.354 N 
ATOM     68  N   UNL A   1      41.287  29.677  33.504  1.00  0.00    -0.248 NA
ATOM     69  C   UNL A   1      42.152  28.244  31.879  1.00  0.00     0.031 C 
ATOM     70  C   UNL A   1      43.426  30.811  37.225  1.00  0.00     0.029 A 
ATOM     71  C   UNL A   1      42.800  30.470  36.037  1.00  0.00     0.049 A 
ATOM     72  H   UNL A   1      40.963  31.154  35.256  1.00  0.00     0.167 HD
ATOM     73  C   UNL A   1      42.544  29.238  33.903  1.00  0.00     0.074 A 
ATOM     74  C   UNL A   1      43.016  28.331  32.880  1.00  0.00     0.031 C 
ATOM     75  C   UNL A   1      43.250  29.560  35.015  1.00  0.00     0.037 A 
BRANCH  62  76
ATOM     76  C   UNL A   1      40.533  33.787  38.580  1.00  0.00     0.057 A 
ATOM     77  C   UNL A   1      41.280  34.970  38.594  1.00  0.00     0.134 A 
ATOM     78  C   UNL A   1      39.803  33.468  39.733  1.00  0.00     0.134 A 
ATOM     79  F   UNL A   1      42.014  35.325  37.529  1.00  0.00    -0.206 F 
ATOM     80  C   UNL A   1      41.302  35.802  39.715  1.00  0.00     0.040 A 
ATOM     81  C   UNL A   1      39.796  34.304  40.849  1.00  0.00     0.040 A 
ATOM     82  F   UNL A   1      39.066  32.347  39.783  1.00  0.00    -0.206 F 
ATOM     83  C   UNL A   1      40.549  35.476  40.841  1.00  0.00     0.006 A 
ENDBRANCH  62  76
BRANCH  63  84
ATOM     84  C   UNL A   1      39.794  28.470  30.166  1.00  0.00     0.057 A 
ATOM     85  C   UNL A   1      39.167  27.225  30.041  1.00  0.00     0.134 A 
ATOM     86  C   UNL A   1      40.442  28.977  29.033  1.00  0.00     0.134 A 
ATOM     87  F   UNL A   1      38.553  26.669  31.098  1.00  0.00    -0.206 F 
ATOM     88  C   UNL A   1      39.208  26.498  28.849  1.00  0.00     0.040 A 
ATOM     89  C   UNL A   1      40.466  28.277  27.825  1.00  0.00     0.040 A 
ATOM     90  F   UNL A   1      41.070  30.162  29.082  1.00  0.00    -0.206 F 
ATOM     91  C   UNL A   1      39.857  27.027  27.735  1.00  0.00     0.006 A 
ENDBRANCH  63  84
BRANCH  75  92
ATOM     92  C   UNL A   1      44.590  28.910  35.207  1.00  0.00     0.057 A 
ATOM     93  C   UNL A   1      45.775  29.514  34.770  1.00  0.00     0.134 A 
ATOM     94  C   UNL A   1      44.700  27.697  35.901  1.00  0.00     0.134 A 
ATOM     95  F   UNL A   1      45.739  30.670  34.091  1.00  0.00    -0.206 F 
ATOM     96  C   UNL A   1      47.021  28.928  35.004  1.00  0.00     0.040 A 
ATOM     97  C   UNL A   1      45.942  27.117  36.166  1.00  0.00     0.040 A 
ATOM     98  F   UNL A   1      43.605  27.071  36.358  1.00  0.00    -0.206 F 
ATOM     99  C   UNL A   1      47.107  27.732  35.713  1.00  0.00     0.006 A 
ENDBRANCH  75  92
ENDBRANCH  49  50
ENDBRANCH  42  44
ENDBRANCH  41  42
ENDBRANCH  40  41
ENDBRANCH  39  40
ENDBRANCH  38  39
ENDBRANCH  37  38
ENDBRANCH  36  37
ENDBRANCH   1  36
TORSDOF 23
ENDMDL
MODEL 2
REMARK VINA RESULT:     -10.8      1.882      6.262
REMARK SMILES C[C@@H](NC(=O)/C(=C/c1ccc(Cl)cc1)NC(=O)c1ccc(C(C)(C)C)cc1)C(=O)OCCOCCOCCOC(=O)c1ccc(-c2c3nc(c(-c4c(F)cccc4F)c4ccc([nH]4)c(-c4c(F)cccc4F)c4nc(c(-c5c(F)cccc5F)c5ccc2[nH]5)C=C4)C=C3)cc1
REMARK SMILES IDX 33 1 32 2 31 3 30 4 28 5 29 6 2 7 1 8 3 9 4 10 5 12 6 13
REMARK SMILES IDX 7 14 15 15 16 16 17 18 18 19 19 20 27 21 20 22 26 23 21 24
REMARK SMILES IDX 22 25 23 26 24 27 25 28 8 29 9 30 14 31 10 32 13 33 11 34
REMARK SMILES IDX 12 35 34 36 35 37 36 38 37 39 38 40 39 41 40 42 41 43 42 44
REMARK SMILES IDX 43 45 95 46 44 47 94 48 45 49 46 50 47 51 88 52 48 53 93 54
REMARK SMILES IDX 87 55 89 56 49 57 92 58 86 59 85 60 50 62 76 63 59 64 75 65
REMARK SMILES IDX 60 66 63 67 74 68 90 69 61 70 62 71 73 73 91 74 64 75 51 76
REMARK SMILES IDX 52 77 57 78 53 79 54 80 56 81 58 82 55 83 77 84 78 85 83 86
REMARK SMILES IDX 79 87 80 88 82 89 84 90 81 91 65 92 66 93 71 94 67 95 68 96
REMARK SMILES IDX 70 97 72 98 69 99
REMARK H PARENT 3 11 15 17 89 61 63 72
REMARK Flexibility Score: inf
ROOT
ATOM      1  O   UNL A   1      32.467  31.192  26.844  1.00  0.00    -0.376 OA
ENDROOT
BRANCH   1   2
ATOM      2  C   UNL A   1      31.783  30.210  26.093  1.00  0.00     0.202 C 
BRANCH   2   3
ATOM      3  C   UNL A   1      32.426  28.834  25.905  1.00  0.00     0.261 C 
BRANCH   3   4
ATOM      4  O   UNL A   1      33.105  28.406  24.701  1.00  0.00    -0.462 OA
BRANCH   4   5
ATOM      5  C   UNL A   1      32.697  28.456  23.417  1.00  0.00     0.328 C 
ATOM      6  O   UNL A   1      33.251  29.008  22.479  1.00  0.00    -0.250 OA
BRANCH   5   7
ATOM      7  C   UNL A   1      31.336  27.809  23.257  1.00  0.00     0.189 C 
ATOM      8  C   UNL A   1      30.407  28.726  22.449  1.00  0.00     0.043 C 
BRANCH   7   9
ATOM      9  N   UNL A   1      31.504  26.469  22.684  1.00  0.00    -0.338 N 
ATOM     10  C   UNL A   1      31.286  25.312  23.413  1.00  0.00     0.268 C 
ATOM     11  H   UNL A   1      31.782  26.389  21.743  1.00  0.00     0.164 HD
ATOM     12  O   UNL A   1      30.267  24.651  23.240  1.00  0.00    -0.268 OA
BRANCH  10  13
ATOM     13  C   UNL A   1      32.410  24.812  24.305  1.00  0.00     0.107 C 
ATOM     14  C   UNL A   1      33.648  24.779  23.762  1.00  0.00     0.040 C 
BRANCH  13  15
ATOM     15  N   UNL A   1      32.211  24.502  25.630  1.00  0.00    -0.317 N 
ATOM     16  C   UNL A   1      32.249  23.353  26.372  1.00  0.00     0.255 C 
ATOM     17  H   UNL A   1      31.988  25.293  26.173  1.00  0.00     0.170 HD
ATOM     18  O   UNL A   1      31.966  23.390  27.567  1.00  0.00    -0.269 OA
BRANCH  16  19
ATOM     19  C   UNL A   1      32.568  22.069  25.762  1.00  0.00     0.040 A 
ATOM     20  C   UNL A   1      33.581  21.308  26.333  1.00  0.00     0.014 A 
ATOM     21  C   UNL A   1      31.875  21.628  24.639  1.00  0.00     0.014 A 
ATOM     22  C   UNL A   1      33.843  20.042  25.820  1.00  0.00     0.005 A 
ATOM     23  C   UNL A   1      32.133  20.349  24.142  1.00  0.00     0.005 A 
ATOM     24  C   UNL A   1      33.097  19.517  24.744  1.00  0.00    -0.043 A 
BRANCH  24  25
ATOM     25  C   UNL A   1      33.375  18.087  24.257  1.00  0.00    -0.013 C 
ATOM     26  C   UNL A   1      34.896  17.851  24.297  1.00  0.00     0.016 C 
ATOM     27  C   UNL A   1      32.667  17.055  25.165  1.00  0.00     0.016 C 
ATOM     28  C   UNL A   1      32.881  17.821  22.818  1.00  0.00     0.016 C 
ENDBRANCH  24  25
ENDBRANCH  16  19
ENDBRANCH  13  15
BRANCH  14  29
ATOM     29  C   UNL A   1      34.933  24.164  24.217  1.00  0.00    -0.023 A 
ATOM     30  C   UNL A   1      35.530  24.365  25.476  1.00  0.00     0.010 A 
ATOM     31  C   UNL A   1      35.460  23.119  23.427  1.00  0.00     0.010 A 
ATOM     32  C   UNL A   1      36.614  23.587  25.914  1.00  0.00     0.021 A 
ATOM     33  C   UNL A   1      36.519  22.313  23.877  1.00  0.00     0.021 A 
ATOM     34  C   UNL A   1      37.095  22.554  25.120  1.00  0.00     0.041 A 
ATOM     35  Cl  UNL A   1      38.342  21.529  25.711  1.00  0.00    -0.084 Cl
ENDBRANCH  14  29
ENDBRANCH  10  13
ENDBRANCH   7   9
ENDBRANCH   5   7
ENDBRANCH   4   5
ENDBRANCH   3   4
ENDBRANCH   2   3
ENDBRANCH   1   2
BRANCH   1  36
ATOM     36  C   UNL A   1      33.756  30.791  27.263  1.00  0.00     0.188 C 
BRANCH  36  37
ATOM     37  C   UNL A   1      34.372  31.819  28.215  1.00  0.00     0.188 C 
BRANCH  37  38
ATOM     38  O   UNL A   1      34.586  33.138  27.753  1.00  0.00    -0.376 OA
BRANCH  38  39
ATOM     39  C   UNL A   1      33.619  34.136  28.029  1.00  0.00     0.202 C 
BRANCH  39  40
ATOM     40  C   UNL A   1      33.532  34.885  29.384  1.00  0.00     0.261 C 
BRANCH  40  41
ATOM     41  O   UNL A   1      33.685  34.159  30.616  1.00  0.00    -0.460 OA
BRANCH  41  42
ATOM     42  C   UNL A   1      34.551  34.619  31.544  1.00  0.00     0.338 C 
ATOM     43  O   UNL A   1      34.311  35.428  32.428  1.00  0.00    -0.246 OA
BRANCH  42  44
ATOM     44  C   UNL A   1      35.791  33.789  31.472  1.00  0.00     0.060 A 
ATOM     45  C   UNL A   1      35.909  32.657  32.298  1.00  0.00     0.016 A 
ATOM     46  C   UNL A   1      36.814  34.093  30.575  1.00  0.00     0.016 A 
ATOM     47  C   UNL A   1      37.032  31.829  32.231  1.00  0.00     0.010 A 
ATOM     48  C   UNL A   1      37.971  33.301  30.553  1.00  0.00     0.010 A 
ATOM     49  C   UNL A   1      38.095  32.180  31.396  1.00  0.00    -0.014 A 
BRANCH  49  50
ATOM     50  C   UNL A   1      39.419  31.528  31.562  1.00  0.00     0.031 A 
ATOM     51  C   UNL A   1      39.748  30.374  30.653  1.00  0.00     0.074 A 
ATOM     52  C   UNL A   1      40.299  31.919  32.501  1.00  0.00     0.049 A 
ATOM     53  N   UNL A   1      40.738  29.524  30.712  1.00  0.00    -0.248 NA
ATOM     54  C   UNL A   1      38.825  30.148  29.528  1.00  0.00     0.031 C 
ATOM     55  C   UNL A   1      40.138  33.066  33.391  1.00  0.00     0.029 A 
ATOM     56  N   UNL A   1      41.498  31.363  32.881  1.00  0.00    -0.354 N 
ATOM     57  C   UNL A   1      40.537  28.641  29.659  1.00  0.00     0.074 A 
ATOM     58  C   UNL A   1      39.335  29.058  28.973  1.00  0.00     0.031 C 
ATOM     59  C   UNL A   1      41.176  33.100  34.247  1.00  0.00     0.029 A 
ATOM     60  C   UNL A   1      42.045  31.952  33.995  1.00  0.00     0.049 A 
ATOM     61  H   UNL A   1      41.922  30.616  32.399  1.00  0.00     0.167 HD
ATOM     62  C   UNL A   1      41.284  27.570  29.304  1.00  0.00     0.037 A 
ATOM     63  C   UNL A   1      43.093  31.570  34.756  1.00  0.00     0.037 A 
ATOM     64  C   UNL A   1      42.488  27.169  29.980  1.00  0.00     0.049 A 
ATOM     65  C   UNL A   1      43.860  30.322  34.389  1.00  0.00     0.074 A 
ATOM     66  C   UNL A   1      43.343  26.127  29.664  1.00  0.00     0.029 A 
ATOM     67  N   UNL A   1      42.998  27.780  31.113  1.00  0.00    -0.354 N 
ATOM     68  N   UNL A   1      43.685  29.509  33.375  1.00  0.00    -0.248 NA
ATOM     69  C   UNL A   1      44.965  29.932  35.279  1.00  0.00     0.031 C 
ATOM     70  C   UNL A   1      44.332  26.065  30.649  1.00  0.00     0.029 A 
ATOM     71  C   UNL A   1      44.130  27.107  31.539  1.00  0.00     0.049 A 
ATOM     72  H   UNL A   1      42.613  28.574  31.550  1.00  0.00     0.167 HD
ATOM     73  C   UNL A   1      44.669  28.533  33.492  1.00  0.00     0.074 A 
ATOM     74  C   UNL A   1      45.449  28.863  34.665  1.00  0.00     0.031 C 
ATOM     75  C   UNL A   1      44.904  27.456  32.702  1.00  0.00     0.037 A 
BRANCH  62  76
ATOM     76  C   UNL A   1      40.803  26.723  28.165  1.00  0.00     0.057 A 
ATOM     77  C   UNL A   1      41.408  26.750  26.903  1.00  0.00     0.134 A 
ATOM     78  C   UNL A   1      39.758  25.810  28.362  1.00  0.00     0.134 A 
ATOM     79  F   UNL A   1      42.404  27.611  26.644  1.00  0.00    -0.206 F 
ATOM     80  C   UNL A   1      40.986  25.905  25.875  1.00  0.00     0.040 A 
ATOM     81  C   UNL A   1      39.344  24.942  27.351  1.00  0.00     0.040 A 
ATOM     82  F   UNL A   1      39.136  25.733  29.549  1.00  0.00    -0.206 F 
ATOM     83  C   UNL A   1      39.960  24.989  26.102  1.00  0.00     0.006 A 
ENDBRANCH  62  76
BRANCH  63  84
ATOM     84  C   UNL A   1      43.447  32.327  35.988  1.00  0.00     0.057 A 
ATOM     85  C   UNL A   1      44.500  33.250  36.002  1.00  0.00     0.134 A 
ATOM     86  C   UNL A   1      42.780  32.098  37.199  1.00  0.00     0.134 A 
ATOM     87  F   UNL A   1      45.198  33.493  34.882  1.00  0.00    -0.206 F 
ATOM     88  C   UNL A   1      44.895  33.894  37.176  1.00  0.00     0.040 A 
ATOM     89  C   UNL A   1      43.144  32.758  38.374  1.00  0.00     0.040 A 
ATOM     90  F   UNL A   1      41.766  31.222  37.260  1.00  0.00    -0.206 F 
ATOM     91  C   UNL A   1      44.213  33.651  38.366  1.00  0.00     0.006 A 
ENDBRANCH  63  84
BRANCH  75  92
ATOM     92  C   UNL A   1      46.065  26.570  33.053  1.00  0.00     0.057 A 
ATOM     93  C   UNL A   1      47.361  26.832  32.593  1.00  0.00     0.134 A 
ATOM     94  C   UNL A   1      45.894  25.482  33.920  1.00  0.00     0.134 A 
ATOM     95  F   UNL A   1      47.591  27.851  31.752  1.00  0.00    -0.206 F 
ATOM     96  C   UNL A   1      48.444  26.034  32.971  1.00  0.00     0.040 A 
ATOM     97  C   UNL A   1      46.973  24.696  34.329  1.00  0.00     0.040 A 
ATOM     98  F   UNL A   1      44.681  25.183  34.409  1.00  0.00    -0.206 F 
ATOM     99  C   UNL A   1      48.252  24.970  33.849  1.00  0.00     0.006 A 
ENDBRANCH  75  92
ENDBRANCH  49  50
ENDBRANCH  42  44
ENDBRANCH  41  42
ENDBRANCH  40  41
ENDBRANCH  39  40
ENDBRANCH  38  39
ENDBRANCH  37  38
ENDBRANCH  36  37
ENDBRANCH   1  36
TORSDOF 23
ENDMDL
MODEL 3
REMARK VINA RESULT:     -10.4      4.941      8.859
REMARK SMILES C[C@@H](NC(=O)/C(=C/c1ccc(Cl)cc1)NC(=O)c1ccc(C(C)(C)C)cc1)C(=O)OCCOCCOCCOC(=O)c1ccc(-c2c3nc(c(-c4c(F)cccc4F)c4ccc([nH]4)c(-c4c(F)cccc4F)c4nc(c(-c5c(F)cccc5F)c5ccc2[nH]5)C=C4)C=C3)cc1
REMARK SMILES IDX 33 1 32 2 31 3 30 4 28 5 29 6 2 7 1 8 3 9 4 10 5 12 6 13
REMARK SMILES IDX 7 14 15 15 16 16 17 18 18 19 19 20 27 21 20 22 26 23 21 24
REMARK SMILES IDX 22 25 23 26 24 27 25 28 8 29 9 30 14 31 10 32 13 33 11 34
REMARK SMILES IDX 12 35 34 36 35 37 36 38 37 39 38 40 39 41 40 42 41 43 42 44
REMARK SMILES IDX 43 45 95 46 44 47 94 48 45 49 46 50 47 51 88 52 48 53 93 54
REMARK SMILES IDX 87 55 89 56 49 57 92 58 86 59 85 60 50 62 76 63 59 64 75 65
REMARK SMILES IDX 60 66 63 67 74 68 90 69 61 70 62 71 73 73 91 74 64 75 51 76
REMARK SMILES IDX 52 77 57 78 53 79 54 80 56 81 58 82 55 83 77 84 78 85 83 86
REMARK SMILES IDX 79 87 80 88 82 89 84 90 81 91 65 92 66 93 71 94 67 95 68 96
REMARK SMILES IDX 70 97 72 98 69 99
REMARK H PARENT 3 11 15 17 89 61 63 72
REMARK Flexibility Score: inf
ROOT
ATOM      1  O   UNL A   1      34.469  32.034  27.294  1.00  0.00    -0.376 OA
ENDROOT
BRANCH   1   2
ATOM      2  C   UNL A   1      34.022  30.740  27.645  1.00  0.00     0.202 C 
BRANCH   2   3
ATOM      3  C   UNL A   1      34.772  29.521  27.105  1.00  0.00     0.261 C 
BRANCH   3   4
ATOM      4  O   UNL A   1      34.166  28.473  26.312  1.00  0.00    -0.462 OA
BRANCH   4   5
ATOM      5  C   UNL A   1      33.122  28.529  25.463  1.00  0.00     0.328 C 
ATOM      6  O   UNL A   1      32.955  29.306  24.535  1.00  0.00    -0.250 OA
BRANCH   5   7
ATOM      7  C   UNL A   1      32.046  27.539  25.862  1.00  0.00     0.189 C 
ATOM      8  C   UNL A   1      31.400  27.966  27.187  1.00  0.00     0.043 C 
BRANCH   7   9
ATOM      9  N   UNL A   1      31.097  27.386  24.754  1.00  0.00    -0.338 N 
ATOM     10  C   UNL A   1      30.389  26.217  24.533  1.00  0.00     0.268 C 
ATOM     11  H   UNL A   1      30.958  28.145  24.143  1.00  0.00     0.164 HD
ATOM     12  O   UNL A   1      29.200  26.146  24.826  1.00  0.00    -0.268 OA
BRANCH  10  13
ATOM     13  C   UNL A   1      31.085  25.097  23.777  1.00  0.00     0.107 C 
ATOM     14  C   UNL A   1      30.968  23.852  24.291  1.00  0.00     0.040 C 
BRANCH  13  15
ATOM     15  N   UNL A   1      31.718  25.308  22.574  1.00  0.00    -0.317 N 
ATOM     16  C   UNL A   1      32.986  25.110  22.100  1.00  0.00     0.255 C 
ATOM     17  H   UNL A   1      31.118  25.693  21.895  1.00  0.00     0.170 HD
ATOM     18  O   UNL A   1      33.269  25.458  20.956  1.00  0.00    -0.269 OA
BRANCH  16  19
ATOM     19  C   UNL A   1      34.029  24.543  22.944  1.00  0.00     0.040 A 
ATOM     20  C   UNL A   1      34.231  25.105  24.200  1.00  0.00     0.014 A 
ATOM     21  C   UNL A   1      34.796  23.473  22.498  1.00  0.00     0.014 A 
ATOM     22  C   UNL A   1      35.161  24.526  25.055  1.00  0.00     0.005 A 
ATOM     23  C   UNL A   1      35.716  22.886  23.370  1.00  0.00     0.005 A 
ATOM     24  C   UNL A   1      35.891  23.379  24.678  1.00  0.00    -0.043 A 
BRANCH  24  25
ATOM     25  C   UNL A   1      36.857  22.732  25.682  1.00  0.00    -0.013 C 
ATOM     26  C   UNL A   1      36.029  22.163  26.850  1.00  0.00     0.016 C 
ATOM     27  C   UNL A   1      37.656  21.590  25.011  1.00  0.00     0.016 C 
ATOM     28  C   UNL A   1      37.896  23.717  26.260  1.00  0.00     0.016 C 
ENDBRANCH  24  25
ENDBRANCH  16  19
ENDBRANCH  13  15
BRANCH  14  29
ATOM     29  C   UNL A   1      31.664  22.564  23.986  1.00  0.00    -0.023 A 
ATOM     30  C   UNL A   1      32.345  21.766  24.925  1.00  0.00     0.010 A 
ATOM     31  C   UNL A   1      31.415  21.983  22.723  1.00  0.00     0.010 A 
ATOM     32  C   UNL A   1      32.782  20.468  24.613  1.00  0.00     0.021 A 
ATOM     33  C   UNL A   1      31.816  20.671  22.421  1.00  0.00     0.021 A 
ATOM     34  C   UNL A   1      32.503  19.919  23.369  1.00  0.00     0.041 A 
ATOM     35  Cl  UNL A   1      32.935  18.289  23.036  1.00  0.00    -0.084 Cl
ENDBRANCH  14  29
ENDBRANCH  10  13
ENDBRANCH   7   9
ENDBRANCH   5   7
ENDBRANCH   4   5
ENDBRANCH   3   4
ENDBRANCH   2   3
ENDBRANCH   1   2
BRANCH   1  36
ATOM     36  C   UNL A   1      35.123  32.714  28.346  1.00  0.00     0.188 C 
BRANCH  36  37
ATOM     37  C   UNL A   1      34.214  33.777  28.966  1.00  0.00     0.188 C 
BRANCH  37  38
ATOM     38  O   UNL A   1      34.655  34.469  30.117  1.00  0.00    -0.376 OA
BRANCH  38  39
ATOM     39  C   UNL A   1      34.688  33.794  31.363  1.00  0.00     0.202 C 
BRANCH  39  40
ATOM     40  C   UNL A   1      36.003  33.362  32.062  1.00  0.00     0.261 C 
BRANCH  40  41
ATOM     41  O   UNL A   1      36.945  32.526  31.366  1.00  0.00    -0.460 OA
BRANCH  41  42
ATOM     42  C   UNL A   1      36.870  31.187  31.519  1.00  0.00     0.338 C 
ATOM     43  O   UNL A   1      35.919  30.555  31.956  1.00  0.00    -0.246 OA
BRANCH  42  44
ATOM     44  C   UNL A   1      38.047  30.576  30.832  1.00  0.00     0.060 A 
ATOM     45  C   UNL A   1      39.087  30.029  31.606  1.00  0.00     0.016 A 
ATOM     46  C   UNL A   1      38.116  30.503  29.441  1.00  0.00     0.016 A 
ATOM     47  C   UNL A   1      40.184  29.408  31.004  1.00  0.00     0.010 A 
ATOM     48  C   UNL A   1      39.248  29.939  28.835  1.00  0.00     0.010 A 
ATOM     49  C   UNL A   1      40.297  29.411  29.612  1.00  0.00    -0.014 A 
BRANCH  49  50
ATOM     50  C   UNL A   1      41.594  29.080  28.969  1.00  0.00     0.031 A 
ATOM     51  C   UNL A   1      41.795  27.669  28.487  1.00  0.00     0.074 A 
ATOM     52  C   UNL A   1      42.579  29.986  28.834  1.00  0.00     0.049 A 
ATOM     53  N   UNL A   1      42.883  27.079  28.069  1.00  0.00    -0.248 NA
ATOM     54  C   UNL A   1      40.602  26.806  28.485  1.00  0.00     0.031 C 
ATOM     55  C   UNL A   1      42.488  31.400  29.186  1.00  0.00     0.029 A 
ATOM     56  N   UNL A   1      43.872  29.832  28.389  1.00  0.00    -0.354 N 
ATOM     57  C   UNL A   1      42.516  25.768  27.792  1.00  0.00     0.074 A 
ATOM     58  C   UNL A   1      41.105  25.647  28.084  1.00  0.00     0.031 C 
ATOM     59  C   UNL A   1      43.688  31.976  28.991  1.00  0.00     0.029 A 
ATOM     60  C   UNL A   1      44.641  30.960  28.546  1.00  0.00     0.049 A 
ATOM     61  H   UNL A   1      44.210  28.995  27.996  1.00  0.00     0.167 HD
ATOM     62  C   UNL A   1      43.291  24.754  27.345  1.00  0.00     0.037 A 
ATOM     63  C   UNL A   1      45.973  31.132  28.402  1.00  0.00     0.037 A 
ATOM     64  C   UNL A   1      44.690  24.883  27.042  1.00  0.00     0.049 A 
ATOM     65  C   UNL A   1      46.831  29.961  27.985  1.00  0.00     0.074 A 
ATOM     66  C   UNL A   1      45.551  23.924  26.536  1.00  0.00     0.029 A 
ATOM     67  N   UNL A   1      45.436  26.034  27.230  1.00  0.00    -0.354 N 
ATOM     68  N   UNL A   1      46.474  28.733  27.694  1.00  0.00    -0.248 NA
ATOM     69  C   UNL A   1      48.280  30.198  27.887  1.00  0.00     0.031 C 
ATOM     70  C   UNL A   1      46.833  24.476  26.485  1.00  0.00     0.029 A 
ATOM     71  C   UNL A   1      46.757  25.797  26.897  1.00  0.00     0.049 A 
ATOM     72  H   UNL A   1      45.078  26.893  27.554  1.00  0.00     0.167 HD
ATOM     73  C   UNL A   1      47.645  28.064  27.355  1.00  0.00     0.074 A 
ATOM     74  C   UNL A   1      48.722  29.025  27.459  1.00  0.00     0.031 C 
ATOM     75  C   UNL A   1      47.816  26.769  26.994  1.00  0.00     0.037 A 
BRANCH  62  76
ATOM     76  C   UNL A   1      42.664  23.399  27.201  1.00  0.00     0.057 A 
ATOM     77  C   UNL A   1      42.268  22.885  25.961  1.00  0.00     0.134 A 
ATOM     78  C   UNL A   1      42.521  22.569  28.321  1.00  0.00     0.134 A 
ATOM     79  F   UNL A   1      42.363  23.634  24.852  1.00  0.00    -0.206 F 
ATOM     80  C   UNL A   1      41.746  21.596  25.841  1.00  0.00     0.040 A 
ATOM     81  C   UNL A   1      42.027  21.269  28.211  1.00  0.00     0.040 A 
ATOM     82  F   UNL A   1      42.883  23.001  29.540  1.00  0.00    -0.206 F 
ATOM     83  C   UNL A   1      41.636  20.780  26.966  1.00  0.00     0.006 A 
ENDBRANCH  62  76
BRANCH  63  84
ATOM     84  C   UNL A   1      46.603  32.441  28.722  1.00  0.00     0.057 A 
ATOM     85  C   UNL A   1      46.703  33.458  27.765  1.00  0.00     0.134 A 
ATOM     86  C   UNL A   1      47.179  32.684  29.976  1.00  0.00     0.134 A 
ATOM     87  F   UNL A   1      46.198  33.279  26.535  1.00  0.00    -0.206 F 
ATOM     88  C   UNL A   1      47.374  34.654  28.032  1.00  0.00     0.040 A 
ATOM     89  C   UNL A   1      47.827  33.886  30.267  1.00  0.00     0.040 A 
ATOM     90  F   UNL A   1      47.127  31.751  30.939  1.00  0.00    -0.206 F 
ATOM     91  C   UNL A   1      47.936  34.871  29.289  1.00  0.00     0.006 A 
ENDBRANCH  63  84
BRANCH  75  92
ATOM     92  C   UNL A   1      49.207  26.314  26.653  1.00  0.00     0.057 A 
ATOM     93  C   UNL A   1      50.031  25.685  27.593  1.00  0.00     0.134 A 
ATOM     94  C   UNL A   1      49.699  26.446  25.347  1.00  0.00     0.134 A 
ATOM     95  F   UNL A   1      49.625  25.537  28.863  1.00  0.00    -0.206 F 
ATOM     96  C   UNL A   1      51.301  25.215  27.251  1.00  0.00     0.040 A 
ATOM     97  C   UNL A   1      50.954  25.954  24.986  1.00  0.00     0.040 A 
ATOM     98  F   UNL A   1      48.956  27.028  24.394  1.00  0.00    -0.206 F 
ATOM     99  C   UNL A   1      51.761  25.340  25.942  1.00  0.00     0.006 A 
ENDBRANCH  75  92
ENDBRANCH  49  50
ENDBRANCH  42  44
ENDBRANCH  41  42
ENDBRANCH  40  41
ENDBRANCH  39  40
ENDBRANCH  38  39
ENDBRANCH  37  38
ENDBRANCH  36  37
ENDBRANCH   1  36
TORSDOF 23
ENDMDL
