MODEL 1
REMARK VINA RESULT:     -11.3      0.000      0.000
REMARK SMILES O=C(OCCOCCOCCOC(=O)[C@@H]1CC(=O)N(c2ccc(Cl)cc2C(=O)c2ccccc2)C1)c1ccc(-c2c3nc(c(-c4c(F)cccc4F)c4ccc([nH]4)c(-c4c(F)cccc4F)c4nc(c(-c5c(F)cccc5F)c5ccc2[nH]5)C=C4)C=C3)cc1
REMARK SMILES IDX 8 1 7 2 6 3 5 4 4 5 3 6 2 7 1 8 36 9 37 10 89 11 38 12 88 13
REMARK SMILES IDX 39 14 40 15 41 16 82 17 42 18 87 19 81 20 83 21 43 22 86 23
REMARK SMILES IDX 80 24 79 25 44 27 70 28 53 29 69 30 54 31 57 32 68 33 84 34
REMARK SMILES IDX 55 35 56 36 67 38 85 39 58 40 45 41 46 42 51 43 47 44 48 45
REMARK SMILES IDX 50 46 52 47 49 48 71 49 72 50 77 51 73 52 74 53 76 54 78 55
REMARK SMILES IDX 75 56 59 57 60 58 65 59 61 60 62 61 64 62 66 63 63 64 9 65
REMARK SMILES IDX 10 66 11 67 12 68 13 69 14 70 15 71 16 72 35 73 17 74 19 75
REMARK SMILES IDX 18 76 20 77 21 78 26 79 22 80 25 81 23 82 24 83 27 84 28 85
REMARK SMILES IDX 29 86 30 87 34 88 31 89 33 90 32 91
REMARK H PARENT 83 26 57 37
REMARK Flexibility Score: inf
ROOT
ATOM      1  C   UNL A   1      38.293  21.990  25.742  1.00  0.00     0.188 C 
ENDROOT
BRANCH   1   2
ATOM      2  C   UNL A   1      39.711  21.544  26.111  1.00  0.00     0.188 C 
BRANCH   2   3
ATOM      3  O   UNL A   1      40.069  21.632  27.495  1.00  0.00    -0.376 OA
BRANCH   3   4
ATOM      4  C   UNL A   1      41.480  21.697  27.737  1.00  0.00     0.202 C 
BRANCH   4   5
ATOM      5  C   UNL A   1      42.399  22.030  26.544  1.00  0.00     0.261 C 
BRANCH   5   6
ATOM      6  O   UNL A   1      43.076  23.295  26.611  1.00  0.00    -0.460 OA
BRANCH   6   7
ATOM      7  C   UNL A   1      42.687  24.534  26.235  1.00  0.00     0.338 C 
ATOM      8  O   UNL A   1      42.686  24.793  25.032  1.00  0.00    -0.246 OA
BRANCH   7   9
ATOM      9  C   UNL A   1      42.305  25.632  27.179  1.00  0.00     0.060 A 
ATOM     10  C   UNL A   1      42.929  26.874  27.276  1.00  0.00     0.016 A 
ATOM     11  C   UNL A   1      41.198  25.391  28.021  1.00  0.00     0.016 A 
ATOM     12  C   UNL A   1      42.504  27.834  28.184  1.00  0.00     0.010 A 
ATOM     13  C   UNL A   1      40.769  26.343  28.952  1.00  0.00     0.010 A 
ATOM     14  C   UNL A   1      41.447  27.558  29.047  1.00  0.00    -0.014 A 
BRANCH  14  15
ATOM     15  C   UNL A   1      41.237  28.500  30.157  1.00  0.00     0.031 A 
ATOM     16  C   UNL A   1      40.076  29.439  30.055  1.00  0.00     0.074 A 
ATOM     17  C   UNL A   1      41.961  28.381  31.281  1.00  0.00     0.049 A 
ATOM     18  N   UNL A   1      39.630  30.296  30.931  1.00  0.00    -0.248 NA
ATOM     19  C   UNL A   1      39.297  29.390  28.804  1.00  0.00     0.031 C 
ATOM     20  C   UNL A   1      43.044  27.420  31.477  1.00  0.00     0.029 A 
ATOM     21  N   UNL A   1      41.868  29.034  32.480  1.00  0.00    -0.354 N 
ATOM     22  C   UNL A   1      38.544  30.912  30.325  1.00  0.00     0.074 A 
ATOM     23  C   UNL A   1      38.376  30.315  29.021  1.00  0.00     0.031 C 
ATOM     24  C   UNL A   1      43.500  27.530  32.735  1.00  0.00     0.029 A 
ATOM     25  C   UNL A   1      42.760  28.582  33.423  1.00  0.00     0.049 A 
ATOM     26  H   UNL A   1      41.226  29.759  32.651  1.00  0.00     0.167 HD
ATOM     27  C   UNL A   1      37.779  31.913  30.815  1.00  0.00     0.037 A 
ATOM     28  C   UNL A   1      42.949  28.988  34.693  1.00  0.00     0.037 A 
ATOM     29  C   UNL A   1      37.988  32.501  32.109  1.00  0.00     0.049 A 
ATOM     30  C   UNL A   1      42.105  30.134  35.192  1.00  0.00     0.074 A 
ATOM     31  C   UNL A   1      37.331  33.570  32.687  1.00  0.00     0.029 A 
ATOM     32  N   UNL A   1      38.938  32.066  33.023  1.00  0.00    -0.354 N 
ATOM     33  N   UNL A   1      41.108  30.748  34.596  1.00  0.00    -0.248 NA
ATOM     34  C   UNL A   1      42.432  30.670  36.519  1.00  0.00     0.031 C 
ATOM     35  C   UNL A   1      37.924  33.817  33.929  1.00  0.00     0.029 A 
ATOM     36  C   UNL A   1      38.904  32.862  34.152  1.00  0.00     0.049 A 
ATOM     37  H   UNL A   1      39.545  31.303  32.886  1.00  0.00     0.167 HD
ATOM     38  C   UNL A   1      40.694  31.742  35.473  1.00  0.00     0.074 A 
ATOM     39  C   UNL A   1      41.514  31.615  36.661  1.00  0.00     0.031 C 
ATOM     40  C   UNL A   1      39.741  32.693  35.312  1.00  0.00     0.037 A 
BRANCH  27  41
ATOM     41  C   UNL A   1      36.739  32.490  29.906  1.00  0.00     0.057 A 
ATOM     42  C   UNL A   1      37.045  33.417  28.903  1.00  0.00     0.134 A 
ATOM     43  C   UNL A   1      35.397  32.114  30.052  1.00  0.00     0.134 A 
ATOM     44  F   UNL A   1      38.305  33.848  28.735  1.00  0.00    -0.206 F 
ATOM     45  C   UNL A   1      36.051  33.957  28.084  1.00  0.00     0.040 A 
ATOM     46  C   UNL A   1      34.399  32.628  29.225  1.00  0.00     0.040 A 
ATOM     47  F   UNL A   1      35.035  31.242  31.005  1.00  0.00    -0.206 F 
ATOM     48  C   UNL A   1      34.725  33.556  28.239  1.00  0.00     0.006 A 
ENDBRANCH  27  41
BRANCH  28  49
ATOM     49  C   UNL A   1      43.989  28.371  35.565  1.00  0.00     0.057 A 
ATOM     50  C   UNL A   1      45.346  28.688  35.416  1.00  0.00     0.134 A 
ATOM     51  C   UNL A   1      43.667  27.398  36.521  1.00  0.00     0.134 A 
ATOM     52  F   UNL A   1      45.728  29.602  34.511  1.00  0.00    -0.206 F 
ATOM     53  C   UNL A   1      46.339  28.032  36.148  1.00  0.00     0.040 A 
ATOM     54  C   UNL A   1      44.645  26.763  37.287  1.00  0.00     0.040 A 
ATOM     55  F   UNL A   1      42.389  27.046  36.726  1.00  0.00    -0.206 F 
ATOM     56  C   UNL A   1      45.988  27.064  37.086  1.00  0.00     0.006 A 
ENDBRANCH  28  49
BRANCH  40  57
ATOM     57  C   UNL A   1      39.540  33.653  36.447  1.00  0.00     0.057 A 
ATOM     58  C   UNL A   1      38.704  33.348  37.529  1.00  0.00     0.134 A 
ATOM     59  C   UNL A   1      40.233  34.868  36.482  1.00  0.00     0.134 A 
ATOM     60  F   UNL A   1      38.006  32.202  37.548  1.00  0.00    -0.206 F 
ATOM     61  C   UNL A   1      38.546  34.232  38.596  1.00  0.00     0.040 A 
ATOM     62  C   UNL A   1      40.108  35.745  37.559  1.00  0.00     0.040 A 
ATOM     63  F   UNL A   1      41.060  35.211  35.482  1.00  0.00    -0.206 F 
ATOM     64  C   UNL A   1      39.258  35.429  38.617  1.00  0.00     0.006 A 
ENDBRANCH  40  57
ENDBRANCH  14  15
ENDBRANCH   7   9
ENDBRANCH   6   7
ENDBRANCH   5   6
ENDBRANCH   4   5
ENDBRANCH   3   4
ENDBRANCH   2   3
ENDBRANCH   1   2
BRANCH   1  65
ATOM     65  O   UNL A   1      37.484  21.060  25.032  1.00  0.00    -0.376 OA
BRANCH  65  66
ATOM     66  C   UNL A   1      36.108  21.019  25.368  1.00  0.00     0.202 C 
BRANCH  66  67
ATOM     67  C   UNL A   1      35.187  22.065  24.736  1.00  0.00     0.261 C 
BRANCH  67  68
ATOM     68  O   UNL A   1      34.040  21.533  24.041  1.00  0.00    -0.463 OA
BRANCH  68  69
ATOM     69  C   UNL A   1      32.828  21.855  24.570  1.00  0.00     0.311 C 
ATOM     70  O   UNL A   1      32.546  21.748  25.757  1.00  0.00    -0.252 OA
BRANCH  69  71
ATOM     71  C   UNL A   1      31.866  22.415  23.525  1.00  0.00     0.128 C 
ATOM     72  C   UNL A   1      32.679  22.977  22.376  1.00  0.00     0.117 C 
ATOM     73  C   UNL A   1      31.123  23.660  23.996  1.00  0.00     0.141 C 
ATOM     74  C   UNL A   1      33.043  24.352  22.899  1.00  0.00     0.227 C 
ATOM     75  N   UNL A   1      32.061  24.738  23.865  1.00  0.00    -0.311 N 
ATOM     76  O   UNL A   1      34.012  24.964  22.494  1.00  0.00    -0.274 OA
BRANCH  75  77
ATOM     77  C   UNL A   1      32.022  26.052  24.459  1.00  0.00     0.055 A 
ATOM     78  C   UNL A   1      32.767  26.152  25.668  1.00  0.00     0.028 A 
ATOM     79  C   UNL A   1      31.367  27.247  24.044  1.00  0.00     0.048 A 
ATOM     80  C   UNL A   1      32.782  27.271  26.504  1.00  0.00     0.023 A 
ATOM     81  C   UNL A   1      31.349  28.356  24.949  1.00  0.00     0.035 A 
ATOM     82  C   UNL A   1      32.031  28.364  26.157  1.00  0.00     0.041 A 
ATOM     83  Cl  UNL A   1      31.986  29.744  27.178  1.00  0.00    -0.084 Cl
BRANCH  79  84
ATOM     84  C   UNL A   1      30.696  27.664  22.767  1.00  0.00     0.195 C 
ATOM     85  O   UNL A   1      31.022  27.108  21.714  1.00  0.00    -0.289 OA
BRANCH  84  86
ATOM     86  C   UNL A   1      29.659  28.667  22.595  1.00  0.00     0.023 A 
ATOM     87  C   UNL A   1      28.385  28.378  23.115  1.00  0.00     0.012 A 
ATOM     88  C   UNL A   1      29.898  29.860  21.928  1.00  0.00     0.012 A 
ATOM     89  C   UNL A   1      27.397  29.357  23.124  1.00  0.00     0.001 A 
ATOM     90  C   UNL A   1      28.873  30.800  21.872  1.00  0.00     0.001 A 
ATOM     91  C   UNL A   1      27.653  30.583  22.523  1.00  0.00     0.000 A 
ENDBRANCH  84  86
ENDBRANCH  79  84
ENDBRANCH  75  77
ENDBRANCH  69  71
ENDBRANCH  68  69
ENDBRANCH  67  68
ENDBRANCH  66  67
ENDBRANCH  65  66
ENDBRANCH   1  65
TORSDOF 20
ENDMDL
MODEL 2
REMARK VINA RESULT:     -11.3      3.395      9.108
REMARK SMILES O=C(OCCOCCOCCOC(=O)[C@@H]1CC(=O)N(c2ccc(Cl)cc2C(=O)c2ccccc2)C1)c1ccc(-c2c3nc(c(-c4c(F)cccc4F)c4ccc([nH]4)c(-c4c(F)cccc4F)c4nc(c(-c5c(F)cccc5F)c5ccc2[nH]5)C=C4)C=C3)cc1
REMARK SMILES IDX 8 1 7 2 6 3 5 4 4 5 3 6 2 7 1 8 36 9 37 10 89 11 38 12 88 13
REMARK SMILES IDX 39 14 40 15 41 16 82 17 42 18 87 19 81 20 83 21 43 22 86 23
REMARK SMILES IDX 80 24 79 25 44 27 70 28 53 29 69 30 54 31 57 32 68 33 84 34
REMARK SMILES IDX 55 35 56 36 67 38 85 39 58 40 45 41 46 42 51 43 47 44 48 45
REMARK SMILES IDX 50 46 52 47 49 48 71 49 72 50 77 51 73 52 74 53 76 54 78 55
REMARK SMILES IDX 75 56 59 57 60 58 65 59 61 60 62 61 64 62 66 63 63 64 9 65
REMARK SMILES IDX 10 66 11 67 12 68 13 69 14 70 15 71 16 72 35 73 17 74 19 75
REMARK SMILES IDX 18 76 20 77 21 78 26 79 22 80 25 81 23 82 24 83 27 84 28 85
REMARK SMILES IDX 29 86 30 87 34 88 31 89 33 90 32 91
REMARK H PARENT 83 26 57 37
REMARK Flexibility Score: inf
ROOT
ATOM      1  C   UNL A   1      34.852  31.732  27.699  1.00  0.00     0.188 C 
ENDROOT
BRANCH   1   2
ATOM      2  C   UNL A   1      35.104  33.029  28.474  1.00  0.00     0.188 C 
BRANCH   2   3
ATOM      3  O   UNL A   1      34.303  34.159  28.106  1.00  0.00    -0.376 OA
BRANCH   3   4
ATOM      4  C   UNL A   1      33.244  34.455  29.025  1.00  0.00     0.202 C 
BRANCH   4   5
ATOM      5  C   UNL A   1      32.938  35.939  29.315  1.00  0.00     0.261 C 
BRANCH   5   6
ATOM      6  O   UNL A   1      32.482  36.234  30.645  1.00  0.00    -0.460 OA
BRANCH   6   7
ATOM      7  C   UNL A   1      32.612  35.548  31.803  1.00  0.00     0.338 C 
ATOM      8  O   UNL A   1      31.613  35.424  32.510  1.00  0.00    -0.246 OA
BRANCH   7   9
ATOM      9  C   UNL A   1      33.897  34.972  32.315  1.00  0.00     0.060 A 
ATOM     10  C   UNL A   1      35.140  35.600  32.279  1.00  0.00     0.016 A 
ATOM     11  C   UNL A   1      33.828  33.694  32.909  1.00  0.00     0.016 A 
ATOM     12  C   UNL A   1      36.280  34.986  32.780  1.00  0.00     0.010 A 
ATOM     13  C   UNL A   1      34.971  33.057  33.403  1.00  0.00     0.010 A 
ATOM     14  C   UNL A   1      36.205  33.701  33.310  1.00  0.00    -0.014 A 
BRANCH  14  15
ATOM     15  C   UNL A   1      37.481  33.014  33.560  1.00  0.00     0.031 A 
ATOM     16  C   UNL A   1      38.126  33.219  34.894  1.00  0.00     0.074 A 
ATOM     17  C   UNL A   1      37.934  32.106  32.680  1.00  0.00     0.049 A 
ATOM     18  N   UNL A   1      39.197  32.661  35.386  1.00  0.00    -0.248 NA
ATOM     19  C   UNL A   1      37.461  34.165  35.808  1.00  0.00     0.031 C 
ATOM     20  C   UNL A   1      37.297  31.792  31.404  1.00  0.00     0.029 A 
ATOM     21  N   UNL A   1      39.003  31.254  32.743  1.00  0.00    -0.354 N 
ATOM     22  C   UNL A   1      39.355  33.213  36.650  1.00  0.00     0.074 A 
ATOM     23  C   UNL A   1      38.258  34.128  36.865  1.00  0.00     0.031 C 
ATOM     24  C   UNL A   1      37.975  30.795  30.814  1.00  0.00     0.029 A 
ATOM     25  C   UNL A   1      39.104  30.419  31.656  1.00  0.00     0.049 A 
ATOM     26  H   UNL A   1      39.639  31.241  33.494  1.00  0.00     0.167 HD
ATOM     27  C   UNL A   1      40.353  32.992  37.533  1.00  0.00     0.037 A 
ATOM     28  C   UNL A   1      40.018  29.467  31.385  1.00  0.00     0.037 A 
ATOM     29  C   UNL A   1      41.443  32.091  37.278  1.00  0.00     0.049 A 
ATOM     30  C   UNL A   1      41.140  29.275  32.375  1.00  0.00     0.074 A 
ATOM     31  C   UNL A   1      42.554  31.838  38.059  1.00  0.00     0.029 A 
ATOM     32  N   UNL A   1      41.556  31.301  36.142  1.00  0.00    -0.354 N 
ATOM     33  N   UNL A   1      41.312  29.836  33.550  1.00  0.00    -0.248 NA
ATOM     34  C   UNL A   1      42.214  28.350  31.989  1.00  0.00     0.031 C 
ATOM     35  C   UNL A   1      43.368  30.936  37.367  1.00  0.00     0.029 A 
ATOM     36  C   UNL A   1      42.733  30.578  36.188  1.00  0.00     0.049 A 
ATOM     37  H   UNL A   1      40.896  31.262  35.413  1.00  0.00     0.167 HD
ATOM     38  C   UNL A   1      42.511  29.336  34.040  1.00  0.00     0.074 A 
ATOM     39  C   UNL A   1      42.998  28.388  33.057  1.00  0.00     0.031 C 
ATOM     40  C   UNL A   1      43.172  29.643  35.184  1.00  0.00     0.037 A 
BRANCH  27  41
ATOM     41  C   UNL A   1      40.358  33.812  38.785  1.00  0.00     0.057 A 
ATOM     42  C   UNL A   1      41.073  35.010  38.898  1.00  0.00     0.134 A 
ATOM     43  C   UNL A   1      39.637  33.381  39.906  1.00  0.00     0.134 A 
ATOM     44  F   UNL A   1      41.814  35.460  37.874  1.00  0.00    -0.206 F 
ATOM     45  C   UNL A   1      41.078  35.745  40.086  1.00  0.00     0.040 A 
ATOM     46  C   UNL A   1      39.615  34.117  41.089  1.00  0.00     0.040 A 
ATOM     47  F   UNL A   1      38.943  32.232  39.868  1.00  0.00    -0.206 F 
ATOM     48  C   UNL A   1      40.341  35.302  41.183  1.00  0.00     0.006 A 
ENDBRANCH  27  41
BRANCH  28  49
ATOM     49  C   UNL A   1      39.962  28.664  30.130  1.00  0.00     0.057 A 
ATOM     50  C   UNL A   1      40.593  29.102  28.958  1.00  0.00     0.134 A 
ATOM     51  C   UNL A   1      39.223  27.477  30.047  1.00  0.00     0.134 A 
ATOM     52  F   UNL A   1      41.307  30.237  28.961  1.00  0.00    -0.206 F 
ATOM     53  C   UNL A   1      40.451  28.417  27.748  1.00  0.00     0.040 A 
ATOM     54  C   UNL A   1      39.106  26.762  28.855  1.00  0.00     0.040 A 
ATOM     55  F   UNL A   1      38.597  26.990  31.130  1.00  0.00    -0.206 F 
ATOM     56  C   UNL A   1      39.704  27.243  27.695  1.00  0.00     0.006 A 
ENDBRANCH  28  49
BRANCH  40  57
ATOM     57  C   UNL A   1      44.475  28.941  35.425  1.00  0.00     0.057 A 
ATOM     58  C   UNL A   1      44.539  27.721  36.109  1.00  0.00     0.134 A 
ATOM     59  C   UNL A   1      45.670  29.465  34.917  1.00  0.00     0.134 A 
ATOM     60  F   UNL A   1      43.428  27.172  36.627  1.00  0.00    -0.206 F 
ATOM     61  C   UNL A   1      45.751  27.058  36.303  1.00  0.00     0.040 A 
ATOM     62  C   UNL A   1      46.883  28.795  35.076  1.00  0.00     0.040 A 
ATOM     63  F   UNL A   1      45.674  30.623  34.240  1.00  0.00    -0.206 F 
ATOM     64  C   UNL A   1      46.925  27.591  35.776  1.00  0.00     0.006 A 
ENDBRANCH  40  57
ENDBRANCH  14  15
ENDBRANCH   7   9
ENDBRANCH   6   7
ENDBRANCH   5   6
ENDBRANCH   4   5
ENDBRANCH   3   4
ENDBRANCH   2   3
ENDBRANCH   1   2
BRANCH   1  65
ATOM     65  O   UNL A   1      33.542  31.182  27.761  1.00  0.00    -0.376 OA
BRANCH  65  66
ATOM     66  C   UNL A   1      33.097  30.457  26.627  1.00  0.00     0.202 C 
BRANCH  66  67
ATOM     67  C   UNL A   1      33.306  28.941  26.623  1.00  0.00     0.261 C 
BRANCH  67  68
ATOM     68  O   UNL A   1      32.457  28.207  25.715  1.00  0.00    -0.463 OA
BRANCH  68  69
ATOM     69  C   UNL A   1      31.432  27.521  26.293  1.00  0.00     0.311 C 
ATOM     70  O   UNL A   1      31.068  27.676  27.452  1.00  0.00    -0.252 OA
BRANCH  69  71
ATOM     71  C   UNL A   1      30.750  26.565  25.318  1.00  0.00     0.128 C 
ATOM     72  C   UNL A   1      30.110  25.443  26.111  1.00  0.00     0.117 C 
ATOM     73  C   UNL A   1      31.731  25.788  24.449  1.00  0.00     0.141 C 
ATOM     74  C   UNL A   1      31.285  24.513  26.331  1.00  0.00     0.227 C 
ATOM     75  N   UNL A   1      32.238  24.740  25.288  1.00  0.00    -0.311 N 
ATOM     76  O   UNL A   1      31.322  23.721  27.253  1.00  0.00    -0.274 OA
BRANCH  75  77
ATOM     77  C   UNL A   1      33.413  23.922  25.110  1.00  0.00     0.055 A 
ATOM     78  C   UNL A   1      34.573  24.447  25.749  1.00  0.00     0.028 A 
ATOM     79  C   UNL A   1      33.603  22.697  24.408  1.00  0.00     0.048 A 
ATOM     80  C   UNL A   1      35.860  23.921  25.618  1.00  0.00     0.023 A 
ATOM     81  C   UNL A   1      34.941  22.216  24.240  1.00  0.00     0.035 A 
ATOM     82  C   UNL A   1      36.046  22.820  24.822  1.00  0.00     0.041 A 
ATOM     83  Cl  UNL A   1      37.618  22.167  24.601  1.00  0.00    -0.084 Cl
BRANCH  79  84
ATOM     84  C   UNL A   1      32.659  21.694  23.813  1.00  0.00     0.195 C 
ATOM     85  O   UNL A   1      31.779  22.089  23.041  1.00  0.00    -0.289 OA
BRANCH  84  86
ATOM     86  C   UNL A   1      32.644  20.255  24.019  1.00  0.00     0.023 A 
ATOM     87  C   UNL A   1      32.899  19.785  25.319  1.00  0.00     0.012 A 
ATOM     88  C   UNL A   1      32.408  19.369  22.978  1.00  0.00     0.012 A 
ATOM     89  C   UNL A   1      32.742  18.435  25.615  1.00  0.00     0.001 A 
ATOM     90  C   UNL A   1      32.336  18.011  23.274  1.00  0.00     0.001 A 
ATOM     91  C   UNL A   1      32.432  17.548  24.591  1.00  0.00     0.000 A 
ENDBRANCH  84  86
ENDBRANCH  79  84
ENDBRANCH  75  77
ENDBRANCH  69  71
ENDBRANCH  68  69
ENDBRANCH  67  68
ENDBRANCH  66  67
ENDBRANCH  65  66
ENDBRANCH   1  65
TORSDOF 20
ENDMDL
MODEL 3
REMARK VINA RESULT:     -11.2      3.354      8.623
REMARK SMILES O=C(OCCOCCOCCOC(=O)[C@@H]1CC(=O)N(c2ccc(Cl)cc2C(=O)c2ccccc2)C1)c1ccc(-c2c3nc(c(-c4c(F)cccc4F)c4ccc([nH]4)c(-c4c(F)cccc4F)c4nc(c(-c5c(F)cccc5F)c5ccc2[nH]5)C=C4)C=C3)cc1
REMARK SMILES IDX 8 1 7 2 6 3 5 4 4 5 3 6 2 7 1 8 36 9 37 10 89 11 38 12 88 13
REMARK SMILES IDX 39 14 40 15 41 16 82 17 42 18 87 19 81 20 83 21 43 22 86 23
REMARK SMILES IDX 80 24 79 25 44 27 70 28 53 29 69 30 54 31 57 32 68 33 84 34
REMARK SMILES IDX 55 35 56 36 67 38 85 39 58 40 45 41 46 42 51 43 47 44 48 45
REMARK SMILES IDX 50 46 52 47 49 48 71 49 72 50 77 51 73 52 74 53 76 54 78 55
REMARK SMILES IDX 75 56 59 57 60 58 65 59 61 60 62 61 64 62 66 63 63 64 9 65
REMARK SMILES IDX 10 66 11 67 12 68 13 69 14 70 15 71 16 72 35 73 17 74 19 75
REMARK SMILES IDX 18 76 20 77 21 78 26 79 22 80 25 81 23 82 24 83 27 84 28 85
REMARK SMILES IDX 29 86 30 87 34 88 31 89 33 90 32 91
REMARK H PARENT 83 26 57 37
REMARK Flexibility Score: inf
ROOT
ATOM      1  C   UNL A   1      33.875  31.657  27.834  1.00  0.00     0.188 C 
ENDROOT
BRANCH   1   2
ATOM      2  C   UNL A   1      34.936  32.700  28.197  1.00  0.00     0.188 C 
BRANCH   2   3
ATOM      3  O   UNL A   1      34.795  33.992  27.593  1.00  0.00    -0.376 OA
BRANCH   3   4
ATOM      4  C   UNL A   1      34.530  35.051  28.522  1.00  0.00     0.202 C 
BRANCH   4   5
ATOM      5  C   UNL A   1      33.093  35.187  29.066  1.00  0.00     0.261 C 
BRANCH   5   6
ATOM      6  O   UNL A   1      32.964  35.865  30.326  1.00  0.00    -0.460 OA
BRANCH   6   7
ATOM      7  C   UNL A   1      33.005  35.399  31.595  1.00  0.00     0.338 C 
ATOM      8  O   UNL A   1      31.987  35.507  32.277  1.00  0.00    -0.246 OA
BRANCH   7   9
ATOM      9  C   UNL A   1      34.216  34.809  32.250  1.00  0.00     0.060 A 
ATOM     10  C   UNL A   1      35.515  35.305  32.153  1.00  0.00     0.016 A 
ATOM     11  C   UNL A   1      34.012  33.668  33.055  1.00  0.00     0.016 A 
ATOM     12  C   UNL A   1      36.578  34.689  32.798  1.00  0.00     0.010 A 
ATOM     13  C   UNL A   1      35.077  33.028  33.697  1.00  0.00     0.010 A 
ATOM     14  C   UNL A   1      36.368  33.530  33.541  1.00  0.00    -0.014 A 
BRANCH  14  15
ATOM     15  C   UNL A   1      37.566  32.785  33.957  1.00  0.00     0.031 A 
ATOM     16  C   UNL A   1      38.151  31.815  32.978  1.00  0.00     0.074 A 
ATOM     17  C   UNL A   1      38.193  33.111  35.099  1.00  0.00     0.049 A 
ATOM     18  N   UNL A   1      39.243  31.109  33.070  1.00  0.00    -0.248 NA
ATOM     19  C   UNL A   1      37.415  31.633  31.713  1.00  0.00     0.031 C 
ATOM     20  C   UNL A   1      37.724  34.117  36.049  1.00  0.00     0.029 A 
ATOM     21  N   UNL A   1      39.373  32.669  35.630  1.00  0.00    -0.354 N 
ATOM     22  C   UNL A   1      39.308  30.373  31.895  1.00  0.00     0.074 A 
ATOM     23  C   UNL A   1      38.164  30.736  31.091  1.00  0.00     0.031 C 
ATOM     24  C   UNL A   1      38.625  34.233  37.038  1.00  0.00     0.029 A 
ATOM     25  C   UNL A   1      39.717  33.296  36.804  1.00  0.00     0.049 A 
ATOM     26  H   UNL A   1      39.924  31.968  35.213  1.00  0.00     0.167 HD
ATOM     27  C   UNL A   1      40.231  29.452  31.544  1.00  0.00     0.037 A 
ATOM     28  C   UNL A   1      40.794  33.116  37.592  1.00  0.00     0.037 A 
ATOM     29  C   UNL A   1      41.346  29.098  32.378  1.00  0.00     0.049 A 
ATOM     30  C   UNL A   1      41.784  32.051  37.189  1.00  0.00     0.074 A 
ATOM     31  C   UNL A   1      42.306  28.127  32.169  1.00  0.00     0.029 A 
ATOM     32  N   UNL A   1      41.639  29.705  33.592  1.00  0.00    -0.354 N 
ATOM     33  N   UNL A   1      41.815  31.322  36.097  1.00  0.00    -0.248 NA
ATOM     34  C   UNL A   1      42.864  31.756  38.139  1.00  0.00     0.031 C 
ATOM     35  C   UNL A   1      43.148  28.109  33.285  1.00  0.00     0.029 A 
ATOM     36  C   UNL A   1      42.751  29.111  34.158  1.00  0.00     0.049 A 
ATOM     37  H   UNL A   1      41.130  30.447  33.990  1.00  0.00     0.167 HD
ATOM     38  C   UNL A   1      42.912  30.482  36.232  1.00  0.00     0.074 A 
ATOM     39  C   UNL A   1      43.548  30.827  37.487  1.00  0.00     0.031 C 
ATOM     40  C   UNL A   1      43.349  29.494  35.411  1.00  0.00     0.037 A 
BRANCH  27  41
ATOM     41  C   UNL A   1      40.004  28.705  30.266  1.00  0.00     0.057 A 
ATOM     42  C   UNL A   1      39.223  27.545  30.201  1.00  0.00     0.134 A 
ATOM     43  C   UNL A   1      40.597  29.154  29.079  1.00  0.00     0.134 A 
ATOM     44  F   UNL A   1      38.659  27.041  31.309  1.00  0.00    -0.206 F 
ATOM     45  C   UNL A   1      39.046  26.855  29.000  1.00  0.00     0.040 A 
ATOM     46  C   UNL A   1      40.408  28.487  27.870  1.00  0.00     0.040 A 
ATOM     47  F   UNL A   1      41.370  30.251  29.077  1.00  0.00    -0.206 F 
ATOM     48  C   UNL A   1      39.633  27.330  27.829  1.00  0.00     0.006 A 
ENDBRANCH  27  41
BRANCH  28  49
ATOM     49  C   UNL A   1      40.983  33.896  38.848  1.00  0.00     0.057 A 
ATOM     50  C   UNL A   1      41.802  35.033  38.883  1.00  0.00     0.134 A 
ATOM     51  C   UNL A   1      40.410  33.492  40.061  1.00  0.00     0.134 A 
ATOM     52  F   UNL A   1      42.394  35.471  37.761  1.00  0.00    -0.206 F 
ATOM     53  C   UNL A   1      42.078  35.705  40.077  1.00  0.00     0.040 A 
ATOM     54  C   UNL A   1      40.645  34.176  41.254  1.00  0.00     0.040 A 
ATOM     55  F   UNL A   1      39.608  32.417  40.107  1.00  0.00    -0.206 F 
ATOM     56  C   UNL A   1      41.499  35.274  41.268  1.00  0.00     0.006 A 
ENDBRANCH  28  49
BRANCH  40  57
ATOM     57  C   UNL A   1      44.568  28.737  35.848  1.00  0.00     0.057 A 
ATOM     58  C   UNL A   1      44.474  27.591  36.649  1.00  0.00     0.134 A 
ATOM     59  C   UNL A   1      45.841  29.127  35.417  1.00  0.00     0.134 A 
ATOM     60  F   UNL A   1      43.282  27.172  37.101  1.00  0.00    -0.206 F 
ATOM     61  C   UNL A   1      45.610  26.874  37.026  1.00  0.00     0.040 A 
ATOM     62  C   UNL A   1      46.979  28.399  35.760  1.00  0.00     0.040 A 
ATOM     63  F   UNL A   1      45.995  30.208  34.636  1.00  0.00    -0.206 F 
ATOM     64  C   UNL A   1      46.865  27.273  36.572  1.00  0.00     0.006 A 
ENDBRANCH  40  57
ENDBRANCH  14  15
ENDBRANCH   7   9
ENDBRANCH   6   7
ENDBRANCH   5   6
ENDBRANCH   4   5
ENDBRANCH   3   4
ENDBRANCH   2   3
ENDBRANCH   1   2
BRANCH   1  65
ATOM     65  O   UNL A   1      34.304  30.526  27.087  1.00  0.00    -0.376 OA
BRANCH  65  66
ATOM     66  C   UNL A   1      33.525  29.347  27.203  1.00  0.00     0.202 C 
BRANCH  66  67
ATOM     67  C   UNL A   1      33.915  28.146  26.338  1.00  0.00     0.261 C 
BRANCH  67  68
ATOM     68  O   UNL A   1      33.048  26.999  26.456  1.00  0.00    -0.463 OA
BRANCH  68  69
ATOM     69  C   UNL A   1      33.172  26.063  25.474  1.00  0.00     0.311 C 
ATOM     70  O   UNL A   1      34.222  25.808  24.898  1.00  0.00    -0.252 OA
BRANCH  69  71
ATOM     71  C   UNL A   1      31.863  25.328  25.202  1.00  0.00     0.128 C 
ATOM     72  C   UNL A   1      31.357  24.745  26.507  1.00  0.00     0.117 C 
ATOM     73  C   UNL A   1      32.043  24.065  24.367  1.00  0.00     0.141 C 
ATOM     74  C   UNL A   1      32.156  23.461  26.602  1.00  0.00     0.227 C 
ATOM     75  N   UNL A   1      32.536  23.071  25.278  1.00  0.00    -0.311 N 
ATOM     76  O   UNL A   1      32.372  22.909  27.662  1.00  0.00    -0.274 OA
BRANCH  75  77
ATOM     77  C   UNL A   1      33.184  21.815  24.988  1.00  0.00     0.055 A 
ATOM     78  C   UNL A   1      32.294  20.702  24.997  1.00  0.00     0.028 A 
ATOM     79  C   UNL A   1      34.545  21.508  24.703  1.00  0.00     0.048 A 
ATOM     80  C   UNL A   1      32.689  19.368  24.880  1.00  0.00     0.023 A 
ATOM     81  C   UNL A   1      34.929  20.130  24.649  1.00  0.00     0.035 A 
ATOM     82  C   UNL A   1      34.024  19.083  24.746  1.00  0.00     0.041 A 
ATOM     83  Cl  UNL A   1      34.555  17.454  24.642  1.00  0.00    -0.084 Cl
BRANCH  79  84
ATOM     84  C   UNL A   1      35.742  22.349  24.366  1.00  0.00     0.195 C 
ATOM     85  O   UNL A   1      35.794  22.891  23.258  1.00  0.00    -0.289 OA
BRANCH  84  86
ATOM     86  C   UNL A   1      36.892  22.635  25.206  1.00  0.00     0.023 A 
ATOM     87  C   UNL A   1      37.839  21.610  25.380  1.00  0.00     0.012 A 
ATOM     88  C   UNL A   1      37.053  23.862  25.834  1.00  0.00     0.012 A 
ATOM     89  C   UNL A   1      39.035  21.870  26.038  1.00  0.00     0.001 A 
ATOM     90  C   UNL A   1      38.220  24.082  26.560  1.00  0.00     0.001 A 
ATOM     91  C   UNL A   1      39.238  23.122  26.607  1.00  0.00     0.000 A 
ENDBRANCH  84  86
ENDBRANCH  79  84
ENDBRANCH  75  77
ENDBRANCH  69  71
ENDBRANCH  68  69
ENDBRANCH  67  68
ENDBRANCH  66  67
ENDBRANCH  65  66
ENDBRANCH   1  65
TORSDOF 20
ENDMDL
