MODEL 1
REMARK VINA RESULT:      -8.9      0.000      0.000
REMARK SMILES C=CCN(CC(=O)OCCOCCOCCOC(=O)c1ccc(-c2c3nc(c(-c4c(F)cccc4F)c4ccc([nH]4)c(-c4c(F)cccc4F)c4nc(c(-c5c(F)cccc5F)c5ccc2[nH]5)C=C4)C=C3)cc1)C(=O)C1C[NH2+]C1
REMARK SMILES IDX 12 1 11 2 10 3 9 4 8 5 6 6 7 7 5 8 4 9 3 10 2 11 1 12 74 13
REMARK SMILES IDX 75 14 76 15 77 16 79 17 78 18 13 21 14 22 15 23 16 24 17 25
REMARK SMILES IDX 18 26 19 27 20 28 21 29 73 30 22 31 72 32 23 33 24 34 25 35
REMARK SMILES IDX 66 36 26 37 71 38 65 39 67 40 27 41 70 42 64 43 63 44 28 46
REMARK SMILES IDX 54 47 37 48 53 49 38 50 41 51 52 52 68 53 39 54 40 55 51 57
REMARK SMILES IDX 69 58 42 59 29 60 30 61 35 62 31 63 32 64 34 65 36 66 33 67
REMARK SMILES IDX 55 68 56 69 61 70 57 71 58 72 60 73 62 74 59 75 43 76 44 77
REMARK SMILES IDX 49 78 45 79 46 80 48 81 50 82 47 83
REMARK H PARENT 78 19 78 20 67 45 41 56
REMARK Flexibility Score: inf
ROOT
ATOM      1  C   UNL A   1      40.070  21.370  26.388  1.00  0.00     0.188 C 
ENDROOT
BRANCH   1   2
ATOM      2  O   UNL A   1      39.011  21.870  25.578  1.00  0.00    -0.376 OA
BRANCH   2   3
ATOM      3  C   UNL A   1      38.231  22.922  26.138  1.00  0.00     0.202 C 
BRANCH   3   4
ATOM      4  C   UNL A   1      37.261  23.612  25.169  1.00  0.00     0.261 C 
BRANCH   4   5
ATOM      5  O   UNL A   1      36.506  22.681  24.357  1.00  0.00    -0.462 OA
BRANCH   5   6
ATOM      6  C   UNL A   1      35.338  22.237  24.902  1.00  0.00     0.325 C 
ATOM      7  O   UNL A   1      34.882  21.110  24.734  1.00  0.00    -0.250 OA
BRANCH   6   8
ATOM      8  C   UNL A   1      34.655  23.243  25.847  1.00  0.00     0.242 C 
BRANCH   8   9
ATOM      9  N   UNL A   1      33.606  24.095  25.288  1.00  0.00    -0.327 N 
BRANCH   9  10
ATOM     10  C   UNL A   1      34.015  25.260  24.516  1.00  0.00     0.147 C 
BRANCH  10  11
ATOM     11  C   UNL A   1      33.967  24.871  23.059  1.00  0.00    -0.014 C 
ATOM     12  C   UNL A   1      32.872  24.964  22.291  1.00  0.00     0.006 C 
ENDBRANCH  10  11
ENDBRANCH   9  10
BRANCH   9  13
ATOM     13  C   UNL A   1      32.237  23.908  25.461  1.00  0.00     0.237 C 
ATOM     14  O   UNL A   1      31.745  22.790  25.240  1.00  0.00    -0.274 OA
BRANCH  13  15
ATOM     15  C   UNL A   1      31.398  25.023  26.099  1.00  0.00     0.188 C 
ATOM     16  C   UNL A   1      30.704  26.168  25.354  1.00  0.00     0.280 C 
ATOM     17  C   UNL A   1      29.985  24.576  26.499  1.00  0.00     0.280 C 
ATOM     18  N   UNL A   1      29.402  25.562  25.585  1.00  0.00    -0.345 N 
ATOM     19  H   UNL A   1      28.984  25.151  24.749  1.00  0.00     0.346 HD
ATOM     20  H   UNL A   1      28.623  26.142  25.897  1.00  0.00     0.346 HD
ENDBRANCH  13  15
ENDBRANCH   9  13
ENDBRANCH   8   9
ENDBRANCH   6   8
ENDBRANCH   5   6
ENDBRANCH   4   5
ENDBRANCH   3   4
ENDBRANCH   2   3
ENDBRANCH   1   2
BRANCH   1  21
ATOM     21  C   UNL A   1      40.578  19.953  26.088  1.00  0.00     0.188 C 
BRANCH  21  22
ATOM     22  O   UNL A   1      41.874  19.897  25.508  1.00  0.00    -0.376 OA
BRANCH  22  23
ATOM     23  C   UNL A   1      42.907  20.565  26.232  1.00  0.00     0.202 C 
BRANCH  23  24
ATOM     24  C   UNL A   1      43.734  21.530  25.378  1.00  0.00     0.261 C 
BRANCH  24  25
ATOM     25  O   UNL A   1      42.951  22.680  24.989  1.00  0.00    -0.460 OA
BRANCH  25  26
ATOM     26  C   UNL A   1      43.662  23.843  25.075  1.00  0.00     0.338 C 
ATOM     27  O   UNL A   1      44.590  24.184  24.380  1.00  0.00    -0.246 OA
BRANCH  26  28
ATOM     28  C   UNL A   1      43.039  24.727  26.082  1.00  0.00     0.060 A 
ATOM     29  C   UNL A   1      43.612  25.982  26.272  1.00  0.00     0.016 A 
ATOM     30  C   UNL A   1      41.919  24.344  26.825  1.00  0.00     0.016 A 
ATOM     31  C   UNL A   1      42.987  26.912  27.104  1.00  0.00     0.010 A 
ATOM     32  C   UNL A   1      41.353  25.246  27.742  1.00  0.00     0.010 A 
ATOM     33  C   UNL A   1      41.870  26.546  27.871  1.00  0.00    -0.014 A 
BRANCH  33  34
ATOM     34  C   UNL A   1      41.421  27.474  28.945  1.00  0.00     0.031 A 
ATOM     35  C   UNL A   1      42.188  27.461  30.241  1.00  0.00     0.074 A 
ATOM     36  C   UNL A   1      40.422  28.361  28.771  1.00  0.00     0.049 A 
ATOM     37  N   UNL A   1      42.043  28.206  31.306  1.00  0.00    -0.248 NA
ATOM     38  C   UNL A   1      43.303  26.501  30.329  1.00  0.00     0.031 C 
ATOM     39  C   UNL A   1      39.674  28.572  27.534  1.00  0.00     0.029 A 
ATOM     40  N   UNL A   1      39.873  29.267  29.651  1.00  0.00    -0.354 N 
ATOM     41  C   UNL A   1      43.068  27.831  32.165  1.00  0.00     0.074 A 
ATOM     42  C   UNL A   1      43.839  26.809  31.496  1.00  0.00     0.031 C 
ATOM     43  C   UNL A   1      38.747  29.527  27.740  1.00  0.00     0.029 A 
ATOM     44  C   UNL A   1      38.814  29.975  29.132  1.00  0.00     0.049 A 
ATOM     45  H   UNL A   1      40.208  29.396  30.568  1.00  0.00     0.167 HD
ATOM     46  C   UNL A   1      43.331  28.265  33.418  1.00  0.00     0.037 A 
ATOM     47  C   UNL A   1      37.982  30.859  29.726  1.00  0.00     0.037 A 
ATOM     48  C   UNL A   1      42.500  29.182  34.140  1.00  0.00     0.049 A 
ATOM     49  C   UNL A   1      38.188  31.197  31.186  1.00  0.00     0.074 A 
ATOM     50  C   UNL A   1      42.608  29.593  35.456  1.00  0.00     0.029 A 
ATOM     51  N   UNL A   1      41.376  29.798  33.613  1.00  0.00    -0.354 N 
ATOM     52  N   UNL A   1      39.149  30.822  31.996  1.00  0.00    -0.248 NA
ATOM     53  C   UNL A   1      37.185  32.070  31.818  1.00  0.00     0.031 C 
ATOM     54  C   UNL A   1      41.513  30.415  35.743  1.00  0.00     0.029 A 
ATOM     55  C   UNL A   1      40.760  30.563  34.588  1.00  0.00     0.049 A 
ATOM     56  H   UNL A   1      41.062  29.706  32.685  1.00  0.00     0.167 HD
ATOM     57  C   UNL A   1      38.878  31.426  33.220  1.00  0.00     0.074 A 
ATOM     58  C   UNL A   1      37.673  32.206  33.044  1.00  0.00     0.031 C 
ATOM     59  C   UNL A   1      39.564  31.340  34.388  1.00  0.00     0.037 A 
BRANCH  46  60
ATOM     60  C   UNL A   1      44.506  27.638  34.102  1.00  0.00     0.057 A 
ATOM     61  C   UNL A   1      45.788  28.200  34.036  1.00  0.00     0.134 A 
ATOM     62  C   UNL A   1      44.365  26.413  34.765  1.00  0.00     0.134 A 
ATOM     63  F   UNL A   1      45.992  29.352  33.381  1.00  0.00    -0.206 F 
ATOM     64  C   UNL A   1      46.894  27.548  34.584  1.00  0.00     0.040 A 
ATOM     65  C   UNL A   1      45.460  25.764  35.334  1.00  0.00     0.040 A 
ATOM     66  F   UNL A   1      43.165  25.817  34.846  1.00  0.00    -0.206 F 
ATOM     67  C   UNL A   1      46.730  26.326  35.235  1.00  0.00     0.006 A 
ENDBRANCH  46  60
BRANCH  47  68
ATOM     68  C   UNL A   1      36.830  31.444  28.983  1.00  0.00     0.057 A 
ATOM     69  C   UNL A   1      36.814  32.786  28.583  1.00  0.00     0.134 A 
ATOM     70  C   UNL A   1      35.676  30.690  28.726  1.00  0.00     0.134 A 
ATOM     71  F   UNL A   1      37.869  33.577  28.831  1.00  0.00    -0.206 F 
ATOM     72  C   UNL A   1      35.694  33.360  27.974  1.00  0.00     0.040 A 
ATOM     73  C   UNL A   1      34.560  31.243  28.093  1.00  0.00     0.040 A 
ATOM     74  F   UNL A   1      35.612  29.403  29.096  1.00  0.00    -0.206 F 
ATOM     75  C   UNL A   1      34.563  32.586  27.723  1.00  0.00     0.006 A 
ENDBRANCH  47  68
BRANCH  59  76
ATOM     76  C   UNL A   1      39.053  32.127  35.559  1.00  0.00     0.057 A 
ATOM     77  C   UNL A   1      38.222  31.556  36.531  1.00  0.00     0.134 A 
ATOM     78  C   UNL A   1      39.468  33.451  35.759  1.00  0.00     0.134 A 
ATOM     79  F   UNL A   1      37.783  30.295  36.395  1.00  0.00    -0.206 F 
ATOM     80  C   UNL A   1      37.813  32.277  37.654  1.00  0.00     0.040 A 
ATOM     81  C   UNL A   1      39.086  34.172  36.891  1.00  0.00     0.040 A 
ATOM     82  F   UNL A   1      40.274  34.052  34.872  1.00  0.00    -0.206 F 
ATOM     83  C   UNL A   1      38.254  33.586  37.841  1.00  0.00     0.006 A 
ENDBRANCH  59  76
ENDBRANCH  33  34
ENDBRANCH  26  28
ENDBRANCH  25  26
ENDBRANCH  24  25
ENDBRANCH  23  24
ENDBRANCH  22  23
ENDBRANCH  21  22
ENDBRANCH   1  21
TORSDOF 22
ENDMDL
MODEL 2
REMARK VINA RESULT:      -8.9      1.034      2.246
REMARK SMILES C=CCN(CC(=O)OCCOCCOCCOC(=O)c1ccc(-c2c3nc(c(-c4c(F)cccc4F)c4ccc([nH]4)c(-c4c(F)cccc4F)c4nc(c(-c5c(F)cccc5F)c5ccc2[nH]5)C=C4)C=C3)cc1)C(=O)C1C[NH2+]C1
REMARK SMILES IDX 12 1 11 2 10 3 9 4 8 5 6 6 7 7 5 8 4 9 3 10 2 11 1 12 74 13
REMARK SMILES IDX 75 14 76 15 77 16 79 17 78 18 13 21 14 22 15 23 16 24 17 25
REMARK SMILES IDX 18 26 19 27 20 28 21 29 73 30 22 31 72 32 23 33 24 34 25 35
REMARK SMILES IDX 66 36 26 37 71 38 65 39 67 40 27 41 70 42 64 43 63 44 28 46
REMARK SMILES IDX 54 47 37 48 53 49 38 50 41 51 52 52 68 53 39 54 40 55 51 57
REMARK SMILES IDX 69 58 42 59 29 60 30 61 35 62 31 63 32 64 34 65 36 66 33 67
REMARK SMILES IDX 55 68 56 69 61 70 57 71 58 72 60 73 62 74 59 75 43 76 44 77
REMARK SMILES IDX 49 78 45 79 46 80 48 81 50 82 47 83
REMARK H PARENT 78 19 78 20 67 45 41 56
REMARK Flexibility Score: inf
ROOT
ATOM      1  C   UNL A   1      39.905  21.464  26.222  1.00  0.00     0.188 C 
ENDROOT
BRANCH   1   2
ATOM      2  O   UNL A   1      38.757  21.792  25.445  1.00  0.00    -0.376 OA
BRANCH   2   3
ATOM      3  C   UNL A   1      38.137  23.042  25.733  1.00  0.00     0.202 C 
BRANCH   3   4
ATOM      4  C   UNL A   1      36.683  22.960  26.222  1.00  0.00     0.261 C 
BRANCH   4   5
ATOM      5  O   UNL A   1      35.895  24.121  25.865  1.00  0.00    -0.462 OA
BRANCH   5   6
ATOM      6  C   UNL A   1      35.005  23.940  24.849  1.00  0.00     0.325 C 
ATOM      7  O   UNL A   1      34.505  24.852  24.198  1.00  0.00    -0.250 OA
BRANCH   6   8
ATOM      8  C   UNL A   1      34.733  22.465  24.499  1.00  0.00     0.242 C 
BRANCH   8   9
ATOM      9  N   UNL A   1      33.448  21.896  24.907  1.00  0.00    -0.327 N 
BRANCH   9  10
ATOM     10  C   UNL A   1      33.099  21.948  26.320  1.00  0.00     0.147 C 
BRANCH  10  11
ATOM     11  C   UNL A   1      31.884  22.834  26.448  1.00  0.00    -0.014 C 
ATOM     12  C   UNL A   1      31.932  24.136  26.764  1.00  0.00     0.006 C 
ENDBRANCH  10  11
ENDBRANCH   9  10
BRANCH   9  13
ATOM     13  C   UNL A   1      32.538  21.271  24.059  1.00  0.00     0.237 C 
ATOM     14  O   UNL A   1      32.202  20.098  24.286  1.00  0.00    -0.274 OA
BRANCH  13  15
ATOM     15  C   UNL A   1      31.823  22.097  22.981  1.00  0.00     0.188 C 
ATOM     16  C   UNL A   1      31.298  23.528  23.142  1.00  0.00     0.280 C 
ATOM     17  C   UNL A   1      32.772  22.684  21.926  1.00  0.00     0.280 C 
ATOM     18  N   UNL A   1      32.369  24.042  22.302  1.00  0.00    -0.345 N 
ATOM     19  H   UNL A   1      33.085  24.556  22.816  1.00  0.00     0.346 HD
ATOM     20  H   UNL A   1      32.157  24.725  21.575  1.00  0.00     0.346 HD
ENDBRANCH  13  15
ENDBRANCH   9  13
ENDBRANCH   8   9
ENDBRANCH   6   8
ENDBRANCH   5   6
ENDBRANCH   4   5
ENDBRANCH   3   4
ENDBRANCH   2   3
ENDBRANCH   1   2
BRANCH   1  21
ATOM     21  C   UNL A   1      40.421  20.021  26.143  1.00  0.00     0.188 C 
BRANCH  21  22
ATOM     22  O   UNL A   1      41.769  19.895  25.710  1.00  0.00    -0.376 OA
BRANCH  22  23
ATOM     23  C   UNL A   1      42.705  20.773  26.334  1.00  0.00     0.202 C 
BRANCH  23  24
ATOM     24  C   UNL A   1      43.555  21.574  25.344  1.00  0.00     0.261 C 
BRANCH  24  25
ATOM     25  O   UNL A   1      42.865  22.768  24.916  1.00  0.00    -0.460 OA
BRANCH  25  26
ATOM     26  C   UNL A   1      43.638  23.888  25.051  1.00  0.00     0.338 C 
ATOM     27  O   UNL A   1      44.596  24.197  24.383  1.00  0.00    -0.246 OA
BRANCH  26  28
ATOM     28  C   UNL A   1      43.045  24.773  26.074  1.00  0.00     0.060 A 
ATOM     29  C   UNL A   1      43.642  26.018  26.264  1.00  0.00     0.016 A 
ATOM     30  C   UNL A   1      41.931  24.404  26.832  1.00  0.00     0.016 A 
ATOM     31  C   UNL A   1      43.046  26.952  27.112  1.00  0.00     0.010 A 
ATOM     32  C   UNL A   1      41.395  25.308  27.764  1.00  0.00     0.010 A 
ATOM     33  C   UNL A   1      41.936  26.599  27.894  1.00  0.00    -0.014 A 
BRANCH  33  34
ATOM     34  C   UNL A   1      41.520  27.526  28.982  1.00  0.00     0.031 A 
ATOM     35  C   UNL A   1      42.334  27.523  30.249  1.00  0.00     0.074 A 
ATOM     36  C   UNL A   1      40.507  28.404  28.844  1.00  0.00     0.049 A 
ATOM     37  N   UNL A   1      42.223  28.269  31.316  1.00  0.00    -0.248 NA
ATOM     38  C   UNL A   1      43.460  26.572  30.298  1.00  0.00     0.031 C 
ATOM     39  C   UNL A   1      39.712  28.606  27.635  1.00  0.00     0.029 A 
ATOM     40  N   UNL A   1      39.984  29.308  29.741  1.00  0.00    -0.354 N 
ATOM     41  C   UNL A   1      43.282  27.905  32.138  1.00  0.00     0.074 A 
ATOM     42  C   UNL A   1      44.036  26.887  31.443  1.00  0.00     0.031 C 
ATOM     43  C   UNL A   1      38.786  29.554  27.873  1.00  0.00     0.029 A 
ATOM     44  C   UNL A   1      38.900  30.006  29.260  1.00  0.00     0.049 A 
ATOM     45  H   UNL A   1      40.351  29.442  30.644  1.00  0.00     0.167 HD
ATOM     46  C   UNL A   1      43.588  28.344  33.379  1.00  0.00     0.037 A 
ATOM     47  C   UNL A   1      38.084  30.884  29.882  1.00  0.00     0.037 A 
ATOM     48  C   UNL A   1      42.777  29.257  34.130  1.00  0.00     0.049 A 
ATOM     49  C   UNL A   1      38.341  31.228  31.333  1.00  0.00     0.074 A 
ATOM     50  C   UNL A   1      42.930  29.672  35.439  1.00  0.00     0.029 A 
ATOM     51  N   UNL A   1      41.628  29.862  33.643  1.00  0.00    -0.354 N 
ATOM     52  N   UNL A   1      39.335  30.863  32.108  1.00  0.00    -0.248 NA
ATOM     53  C   UNL A   1      37.356  32.095  32.000  1.00  0.00     0.031 C 
ATOM     54  C   UNL A   1      41.840  30.486  35.765  1.00  0.00     0.029 A 
ATOM     55  C   UNL A   1      41.043  30.624  34.638  1.00  0.00     0.049 A 
ATOM     56  H   UNL A   1      41.282  29.765  32.727  1.00  0.00     0.167 HD
ATOM     57  C   UNL A   1      39.104  31.468  33.340  1.00  0.00     0.074 A 
ATOM     58  C   UNL A   1      37.887  32.239  33.206  1.00  0.00     0.031 C 
ATOM     59  C   UNL A   1      39.834  31.391  34.481  1.00  0.00     0.037 A 
BRANCH  46  60
ATOM     60  C   UNL A   1      44.793  27.728  34.021  1.00  0.00     0.057 A 
ATOM     61  C   UNL A   1      44.693  26.619  34.871  1.00  0.00     0.134 A 
ATOM     62  C   UNL A   1      46.056  28.306  33.848  1.00  0.00     0.134 A 
ATOM     63  F   UNL A   1      43.503  26.047  35.106  1.00  0.00    -0.206 F 
ATOM     64  C   UNL A   1      45.808  26.124  35.550  1.00  0.00     0.040 A 
ATOM     65  C   UNL A   1      47.179  27.806  34.505  1.00  0.00     0.040 A 
ATOM     66  F   UNL A   1      46.211  29.381  33.060  1.00  0.00    -0.206 F 
ATOM     67  C   UNL A   1      47.055  26.719  35.367  1.00  0.00     0.006 A 
ENDBRANCH  46  60
BRANCH  47  68
ATOM     68  C   UNL A   1      36.900  31.458  29.182  1.00  0.00     0.057 A 
ATOM     69  C   UNL A   1      35.782  30.678  28.862  1.00  0.00     0.134 A 
ATOM     70  C   UNL A   1      36.893  32.789  28.744  1.00  0.00     0.134 A 
ATOM     71  F   UNL A   1      35.737  29.384  29.216  1.00  0.00    -0.206 F 
ATOM     72  C   UNL A   1      34.713  31.191  28.119  1.00  0.00     0.040 A 
ATOM     73  C   UNL A   1      35.821  33.324  28.025  1.00  0.00     0.040 A 
ATOM     74  F   UNL A   1      37.937  33.592  28.998  1.00  0.00    -0.206 F 
ATOM     75  C   UNL A   1      34.729  32.520  27.703  1.00  0.00     0.006 A 
ENDBRANCH  47  68
BRANCH  59  76
ATOM     76  C   UNL A   1      39.360  32.177  35.669  1.00  0.00     0.057 A 
ATOM     77  C   UNL A   1      39.746  33.507  35.880  1.00  0.00     0.134 A 
ATOM     78  C   UNL A   1      38.439  31.621  36.566  1.00  0.00     0.134 A 
ATOM     79  F   UNL A   1      40.631  34.096  35.061  1.00  0.00    -0.206 F 
ATOM     80  C   UNL A   1      39.241  34.250  36.948  1.00  0.00     0.040 A 
ATOM     81  C   UNL A   1      37.908  32.362  37.622  1.00  0.00     0.040 A 
ATOM     82  F   UNL A   1      38.018  30.356  36.412  1.00  0.00    -0.206 F 
ATOM     83  C   UNL A   1      38.311  33.681  37.816  1.00  0.00     0.006 A 
ENDBRANCH  59  76
ENDBRANCH  33  34
ENDBRANCH  26  28
ENDBRANCH  25  26
ENDBRANCH  24  25
ENDBRANCH  23  24
ENDBRANCH  22  23
ENDBRANCH  21  22
ENDBRANCH   1  21
TORSDOF 22
ENDMDL
MODEL 3
REMARK VINA RESULT:      -8.7      2.860      7.978
REMARK SMILES C=CCN(CC(=O)OCCOCCOCCOC(=O)c1ccc(-c2c3nc(c(-c4c(F)cccc4F)c4ccc([nH]4)c(-c4c(F)cccc4F)c4nc(c(-c5c(F)cccc5F)c5ccc2[nH]5)C=C4)C=C3)cc1)C(=O)C1C[NH2+]C1
REMARK SMILES IDX 12 1 11 2 10 3 9 4 8 5 6 6 7 7 5 8 4 9 3 10 2 11 1 12 74 13
REMARK SMILES IDX 75 14 76 15 77 16 79 17 78 18 13 21 14 22 15 23 16 24 17 25
REMARK SMILES IDX 18 26 19 27 20 28 21 29 73 30 22 31 72 32 23 33 24 34 25 35
REMARK SMILES IDX 66 36 26 37 71 38 65 39 67 40 27 41 70 42 64 43 63 44 28 46
REMARK SMILES IDX 54 47 37 48 53 49 38 50 41 51 52 52 68 53 39 54 40 55 51 57
REMARK SMILES IDX 69 58 42 59 29 60 30 61 35 62 31 63 32 64 34 65 36 66 33 67
REMARK SMILES IDX 55 68 56 69 61 70 57 71 58 72 60 73 62 74 59 75 43 76 44 77
REMARK SMILES IDX 49 78 45 79 46 80 48 81 50 82 47 83
REMARK H PARENT 78 19 78 20 67 45 41 56
REMARK Flexibility Score: inf
ROOT
ATOM      1  C   UNL A   1      28.717  28.086  22.745  1.00  0.00     0.188 C 
ENDROOT
BRANCH   1   2
ATOM      2  O   UNL A   1      28.762  27.314  23.942  1.00  0.00    -0.376 OA
BRANCH   2   3
ATOM      3  C   UNL A   1      29.518  26.108  23.886  1.00  0.00     0.202 C 
BRANCH   3   4
ATOM      4  C   UNL A   1      30.074  25.615  25.230  1.00  0.00     0.261 C 
BRANCH   4   5
ATOM      5  O   UNL A   1      30.569  24.256  25.179  1.00  0.00    -0.462 OA
BRANCH   5   6
ATOM      6  C   UNL A   1      31.538  23.947  26.086  1.00  0.00     0.325 C 
ATOM      7  O   UNL A   1      31.406  24.054  27.302  1.00  0.00    -0.250 OA
BRANCH   6   8
ATOM      8  C   UNL A   1      32.816  23.347  25.472  1.00  0.00     0.242 C 
BRANCH   8   9
ATOM      9  N   UNL A   1      33.292  23.910  24.208  1.00  0.00    -0.327 N 
BRANCH   9  10
ATOM     10  C   UNL A   1      33.474  23.001  23.084  1.00  0.00     0.147 C 
BRANCH  10  11
ATOM     11  C   UNL A   1      32.227  22.157  22.985  1.00  0.00    -0.014 C 
ATOM     12  C   UNL A   1      32.146  21.013  22.290  1.00  0.00     0.006 C 
ENDBRANCH  10  11
ENDBRANCH   9  10
BRANCH   9  13
ATOM     13  C   UNL A   1      33.621  25.245  23.993  1.00  0.00     0.237 C 
ATOM     14  O   UNL A   1      34.108  25.909  24.923  1.00  0.00    -0.274 OA
BRANCH  13  15
ATOM     15  C   UNL A   1      33.556  25.818  22.571  1.00  0.00     0.188 C 
ATOM     16  C   UNL A   1      32.289  25.987  21.724  1.00  0.00     0.280 C 
ATOM     17  C   UNL A   1      33.659  27.349  22.519  1.00  0.00     0.280 C 
ATOM     18  N   UNL A   1      32.330  27.430  21.907  1.00  0.00    -0.345 N 
ATOM     19  H   UNL A   1      31.608  27.786  22.534  1.00  0.00     0.346 HD
ATOM     20  H   UNL A   1      32.179  28.044  21.106  1.00  0.00     0.346 HD
ENDBRANCH  13  15
ENDBRANCH   9  13
ENDBRANCH   8   9
ENDBRANCH   6   8
ENDBRANCH   5   6
ENDBRANCH   4   5
ENDBRANCH   3   4
ENDBRANCH   2   3
ENDBRANCH   1   2
BRANCH   1  21
ATOM     21  C   UNL A   1      29.347  29.485  22.785  1.00  0.00     0.188 C 
BRANCH  21  22
ATOM     22  O   UNL A   1      30.682  29.521  23.272  1.00  0.00    -0.376 OA
BRANCH  22  23
ATOM     23  C   UNL A   1      30.835  29.932  24.630  1.00  0.00     0.202 C 
BRANCH  23  24
ATOM     24  C   UNL A   1      32.274  29.830  25.145  1.00  0.00     0.261 C 
BRANCH  24  25
ATOM     25  O   UNL A   1      32.322  29.980  26.581  1.00  0.00    -0.460 OA
BRANCH  25  26
ATOM     26  C   UNL A   1      32.798  31.205  26.957  1.00  0.00     0.338 C 
ATOM     27  O   UNL A   1      32.244  32.272  26.833  1.00  0.00    -0.246 OA
BRANCH  26  28
ATOM     28  C   UNL A   1      34.070  31.034  27.688  1.00  0.00     0.060 A 
ATOM     29  C   UNL A   1      34.399  29.746  28.106  1.00  0.00     0.016 A 
ATOM     30  C   UNL A   1      34.928  32.103  27.961  1.00  0.00     0.016 A 
ATOM     31  C   UNL A   1      35.648  29.498  28.674  1.00  0.00     0.010 A 
ATOM     32  C   UNL A   1      36.141  31.865  28.629  1.00  0.00     0.010 A 
ATOM     33  C   UNL A   1      36.520  30.556  28.971  1.00  0.00    -0.014 A 
BRANCH  33  34
ATOM     34  C   UNL A   1      37.703  30.273  29.829  1.00  0.00     0.031 A 
ATOM     35  C   UNL A   1      38.776  29.379  29.262  1.00  0.00     0.074 A 
ATOM     36  C   UNL A   1      37.879  30.838  31.039  1.00  0.00     0.049 A 
ATOM     37  N   UNL A   1      39.926  29.026  29.774  1.00  0.00    -0.248 NA
ATOM     38  C   UNL A   1      38.532  28.847  27.909  1.00  0.00     0.031 C 
ATOM     39  C   UNL A   1      36.988  31.815  31.662  1.00  0.00     0.029 A 
ATOM     40  N   UNL A   1      38.889  30.675  31.960  1.00  0.00    -0.354 N 
ATOM     41  C   UNL A   1      40.553  28.269  28.793  1.00  0.00     0.074 A 
ATOM     42  C   UNL A   1      39.669  28.226  27.651  1.00  0.00     0.031 C 
ATOM     43  C   UNL A   1      37.478  32.145  32.872  1.00  0.00     0.029 A 
ATOM     44  C   UNL A   1      38.700  31.382  33.125  1.00  0.00     0.049 A 
ATOM     45  H   UNL A   1      39.675  30.105  31.800  1.00  0.00     0.167 HD
ATOM     46  C   UNL A   1      41.742  27.627  28.841  1.00  0.00     0.037 A 
ATOM     47  C   UNL A   1      39.419  31.385  34.269  1.00  0.00     0.037 A 
ATOM     48  C   UNL A   1      42.566  27.554  30.011  1.00  0.00     0.049 A 
ATOM     49  C   UNL A   1      40.655  30.518  34.363  1.00  0.00     0.074 A 
ATOM     50  C   UNL A   1      43.729  26.830  30.204  1.00  0.00     0.029 A 
ATOM     51  N   UNL A   1      42.287  28.200  31.205  1.00  0.00    -0.354 N 
ATOM     52  N   UNL A   1      41.230  29.789  33.437  1.00  0.00    -0.248 NA
ATOM     53  C   UNL A   1      41.335  30.462  35.668  1.00  0.00     0.031 C 
ATOM     54  C   UNL A   1      44.122  26.993  31.537  1.00  0.00     0.029 A 
ATOM     55  C   UNL A   1      43.237  27.866  32.153  1.00  0.00     0.049 A 
ATOM     56  H   UNL A   1      41.526  28.806  31.357  1.00  0.00     0.167 HD
ATOM     57  C   UNL A   1      42.342  29.208  34.038  1.00  0.00     0.074 A 
ATOM     58  C   UNL A   1      42.374  29.682  35.404  1.00  0.00     0.031 C 
ATOM     59  C   UNL A   1      43.255  28.356  33.507  1.00  0.00     0.037 A 
BRANCH  46  60
ATOM     60  C   UNL A   1      42.131  26.862  27.615  1.00  0.00     0.057 A 
ATOM     61  C   UNL A   1      41.825  25.503  27.462  1.00  0.00     0.134 A 
ATOM     62  C   UNL A   1      42.892  27.475  26.613  1.00  0.00     0.134 A 
ATOM     63  F   UNL A   1      41.132  24.851  28.407  1.00  0.00    -0.206 F 
ATOM     64  C   UNL A   1      42.290  24.774  26.366  1.00  0.00     0.040 A 
ATOM     65  C   UNL A   1      43.344  26.761  25.504  1.00  0.00     0.040 A 
ATOM     66  F   UNL A   1      43.232  28.769  26.712  1.00  0.00    -0.206 F 
ATOM     67  C   UNL A   1      43.051  25.404  25.383  1.00  0.00     0.006 A 
ENDBRANCH  46  60
BRANCH  47  68
ATOM     68  C   UNL A   1      38.971  32.171  35.453  1.00  0.00     0.057 A 
ATOM     69  C   UNL A   1      39.378  33.495  35.658  1.00  0.00     0.134 A 
ATOM     70  C   UNL A   1      38.184  31.586  36.455  1.00  0.00     0.134 A 
ATOM     71  F   UNL A   1      40.165  34.106  34.759  1.00  0.00    -0.206 F 
ATOM     72  C   UNL A   1      39.039  34.200  36.817  1.00  0.00     0.040 A 
ATOM     73  C   UNL A   1      37.813  32.286  37.605  1.00  0.00     0.040 A 
ATOM     74  F   UNL A   1      37.770  30.316  36.336  1.00  0.00    -0.206 F 
ATOM     75  C   UNL A   1      38.249  33.596  37.793  1.00  0.00     0.006 A 
ENDBRANCH  47  68
BRANCH  59  76
ATOM     76  C   UNL A   1      44.382  27.901  34.387  1.00  0.00     0.057 A 
ATOM     77  C   UNL A   1      44.297  26.733  35.156  1.00  0.00     0.134 A 
ATOM     78  C   UNL A   1      45.598  28.597  34.399  1.00  0.00     0.134 A 
ATOM     79  F   UNL A   1      43.158  26.025  35.194  1.00  0.00    -0.206 F 
ATOM     80  C   UNL A   1      45.379  26.281  35.914  1.00  0.00     0.040 A 
ATOM     81  C   UNL A   1      46.694  28.140  35.132  1.00  0.00     0.040 A 
ATOM     82  F   UNL A   1      45.749  29.716  33.674  1.00  0.00    -0.206 F 
ATOM     83  C   UNL A   1      46.585  26.980  35.895  1.00  0.00     0.006 A 
ENDBRANCH  59  76
ENDBRANCH  33  34
ENDBRANCH  26  28
ENDBRANCH  25  26
ENDBRANCH  24  25
ENDBRANCH  23  24
ENDBRANCH  22  23
ENDBRANCH  21  22
ENDBRANCH   1  21
TORSDOF 22
ENDMDL
