MODEL 1
REMARK VINA RESULT:     -11.9      0.000      0.000
REMARK SMILES Cc1ccccc1/C=C1\SC(=O)N(CC(=O)Nc2ccccc2C(=O)OCCOCCOCCOC(=O)c2ccc(-c3c4nc(c(-c5c(F)cccc5F)c5ccc([nH]5)c(-c5c(F)cccc5F)c5nc(c(-c6c(F)cccc6F)c6ccc3[nH]6)C=C5)C=C4)cc2)C1=O
REMARK SMILES IDX 30 1 29 2 28 3 27 4 26 5 24 6 25 7 23 8 18 9 19 10 20 11
REMARK SMILES IDX 22 12 21 13 17 14 15 15 16 16 14 18 13 19 8 20 9 21 10 22
REMARK SMILES IDX 92 23 11 24 93 25 12 26 7 27 1 28 2 29 3 30 4 31 6 32 5 33
REMARK SMILES IDX 31 34 32 35 33 36 34 37 35 38 36 39 37 40 38 41 39 42 91 43
REMARK SMILES IDX 40 44 90 45 41 46 42 47 43 48 84 49 44 50 89 51 83 52 85 53
REMARK SMILES IDX 45 54 88 55 82 56 81 57 46 59 72 60 55 61 71 62 56 63 59 64
REMARK SMILES IDX 70 65 86 66 57 67 58 68 69 70 87 71 60 72 47 73 48 74 53 75
REMARK SMILES IDX 49 76 50 77 52 78 54 79 51 80 73 81 74 82 79 83 75 84 76 85
REMARK SMILES IDX 78 86 80 87 77 88 61 89 62 90 67 91 63 92 64 93 66 94 68 95
REMARK SMILES IDX 65 96
REMARK H PARENT 17 17 85 58 59 69
REMARK Flexibility Score: inf
ROOT
ATOM      1  C   UNL A   1      45.906  22.628  25.075  1.00  0.00     0.188 C 
ENDROOT
BRANCH   1   2
ATOM      2  O   UNL A   1      46.353  21.338  25.423  1.00  0.00    -0.376 OA
BRANCH   2   3
ATOM      3  C   UNL A   1      45.681  20.195  24.913  1.00  0.00     0.202 C 
BRANCH   3   4
ATOM      4  C   UNL A   1      44.084  19.916  25.239  1.00  0.00     0.261 C 
BRANCH   4   5
ATOM      5  O   UNL A   1      42.381  21.050  25.409  1.00  0.00    -0.460 OA
BRANCH   5   6
ATOM      6  C   UNL A   1      41.196  21.502  26.445  1.00  0.00     0.340 C 
ATOM      7  O   UNL A   1      40.578  20.585  27.004  1.00  0.00    -0.246 OA
BRANCH   6   8
ATOM      8  C   UNL A   1      40.521  22.817  26.960  1.00  0.00     0.083 A 
ATOM      9  C   UNL A   1      39.224  23.065  26.501  1.00  0.00     0.055 A 
ATOM     10  C   UNL A   1      38.552  24.293  26.842  1.00  0.00     0.027 A 
ATOM     11  C   UNL A   1      39.108  25.274  27.664  1.00  0.00     0.002 A 
ATOM     12  C   UNL A   1      41.121  24.000  27.546  1.00  0.00     0.018 A 
ATOM     13  C   UNL A   1      40.425  25.137  28.007  1.00  0.00     0.001 A 
BRANCH   9  14
ATOM     14  N   UNL A   1      38.525  22.269  25.580  1.00  0.00    -0.324 N 
ATOM     15  C   UNL A   1      37.270  21.786  25.390  1.00  0.00     0.244 C 
ATOM     16  O   UNL A   1      37.257  20.910  24.500  1.00  0.00    -0.273 OA
ATOM     17  H   UNL A   1      39.123  21.972  24.857  1.00  0.00     0.170 HD
BRANCH  15  18
ATOM     18  C   UNL A   1      35.847  22.305  25.856  1.00  0.00     0.230 C 
BRANCH  18  19
ATOM     19  N   UNL A   1      34.701  23.095  25.285  1.00  0.00    -0.259 N 
ATOM     20  C   UNL A   1      31.327  26.028  25.221  1.00  0.00     0.029 C 
ATOM     21  C   UNL A   1      32.499  25.310  25.107  1.00  0.00     0.083 C 
ATOM     22  S   UNL A   1      33.617  25.444  23.159  1.00  0.00    -0.022 SA
ATOM     23  C   UNL A   1      33.322  23.851  26.184  1.00  0.00     0.268 C 
ATOM     24  C   UNL A   1      35.088  23.769  23.738  1.00  0.00     0.294 C 
ATOM     25  O   UNL A   1      32.771  23.325  27.141  1.00  0.00    -0.268 OA
ATOM     26  O   UNL A   1      35.856  23.243  22.956  1.00  0.00    -0.261 OA
BRANCH  20  27
ATOM     27  C   UNL A   1      30.703  27.206  24.461  1.00  0.00    -0.021 A 
ATOM     28  C   UNL A   1      32.589  28.937  24.609  1.00  0.00     0.045 C 
ATOM     29  C   UNL A   1      31.179  28.523  24.325  1.00  0.00    -0.044 A 
ATOM     30  C   UNL A   1      30.356  29.548  23.767  1.00  0.00     0.004 A 
ATOM     31  C   UNL A   1      29.115  29.274  23.208  1.00  0.00     0.000 A 
ATOM     32  C   UNL A   1      29.501  26.950  23.745  1.00  0.00     0.008 A 
ATOM     33  C   UNL A   1      28.711  27.956  23.148  1.00  0.00     0.001 A 
ENDBRANCH  20  27
ENDBRANCH  18  19
ENDBRANCH  15  18
ENDBRANCH   9  14
ENDBRANCH   6   8
ENDBRANCH   5   6
ENDBRANCH   4   5
ENDBRANCH   3   4
ENDBRANCH   2   3
ENDBRANCH   1   2
BRANCH   1  34
ATOM     34  C   UNL A   1      46.761  23.441  24.049  1.00  0.00     0.188 C 
BRANCH  34  35
ATOM     35  O   UNL A   1      46.819  24.828  24.348  1.00  0.00    -0.376 OA
BRANCH  35  36
ATOM     36  C   UNL A   1      48.052  25.550  24.523  1.00  0.00     0.202 C 
BRANCH  36  37
ATOM     37  C   UNL A   1      48.487  26.305  25.817  1.00  0.00     0.261 C 
BRANCH  37  38
ATOM     38  O   UNL A   1      47.311  26.484  26.709  1.00  0.00    -0.460 OA
BRANCH  38  39
ATOM     39  C   UNL A   1      46.962  25.453  27.559  1.00  0.00     0.338 C 
ATOM     40  O   UNL A   1      47.632  24.445  27.738  1.00  0.00    -0.246 OA
BRANCH  39  41
ATOM     41  C   UNL A   1      45.473  25.554  27.950  1.00  0.00     0.060 A 
ATOM     42  C   UNL A   1      44.674  26.531  27.353  1.00  0.00     0.016 A 
ATOM     43  C   UNL A   1      44.929  24.976  29.089  1.00  0.00     0.016 A 
ATOM     44  C   UNL A   1      43.540  27.084  28.044  1.00  0.00     0.010 A 
ATOM     45  C   UNL A   1      43.794  25.572  29.757  1.00  0.00     0.010 A 
ATOM     46  C   UNL A   1      43.213  26.822  29.387  1.00  0.00    -0.014 A 
BRANCH  46  47
ATOM     47  C   UNL A   1      42.338  27.695  30.553  1.00  0.00     0.031 A 
ATOM     48  C   UNL A   1      41.679  28.869  29.906  1.00  0.00     0.074 A 
ATOM     49  C   UNL A   1      42.141  27.840  31.986  1.00  0.00     0.049 A 
ATOM     50  N   UNL A   1      41.441  29.998  30.508  1.00  0.00    -0.248 NA
ATOM     51  C   UNL A   1      41.418  28.939  28.467  1.00  0.00     0.031 C 
ATOM     52  C   UNL A   1      40.926  28.329  32.676  1.00  0.00     0.029 A 
ATOM     53  N   UNL A   1      42.898  27.623  33.187  1.00  0.00    -0.354 N 
ATOM     54  C   UNL A   1      40.511  30.599  29.703  1.00  0.00     0.074 A 
ATOM     55  C   UNL A   1      40.865  30.151  28.391  1.00  0.00     0.031 C 
ATOM     56  C   UNL A   1      41.030  28.275  34.034  1.00  0.00     0.029 A 
ATOM     57  C   UNL A   1      42.321  27.746  34.456  1.00  0.00     0.049 A 
ATOM     58  H   UNL A   1      43.848  27.380  33.116  1.00  0.00     0.167 HD
ATOM     59  C   UNL A   1      39.322  30.982  30.257  1.00  0.00     0.037 A 
ATOM     60  C   UNL A   1      43.014  27.991  35.636  1.00  0.00     0.037 A 
ATOM     61  C   UNL A   1      39.408  31.188  31.733  1.00  0.00     0.049 A 
ATOM     62  C   UNL A   1      42.945  29.466  35.817  1.00  0.00     0.074 A 
ATOM     63  C   UNL A   1      38.592  30.829  32.797  1.00  0.00     0.029 A 
ATOM     64  N   UNL A   1      40.577  31.705  32.340  1.00  0.00    -0.354 N 
ATOM     65  N   UNL A   1      42.559  30.218  34.831  1.00  0.00    -0.248 NA
ATOM     66  C   UNL A   1      43.245  30.211  37.033  1.00  0.00     0.031 C 
ATOM     67  C   UNL A   1      39.270  31.097  34.015  1.00  0.00     0.029 A 
ATOM     68  C   UNL A   1      40.497  31.672  33.722  1.00  0.00     0.049 A 
ATOM     69  H   UNL A   1      41.353  32.046  31.840  1.00  0.00     0.167 HD
ATOM     70  C   UNL A   1      42.278  31.437  35.322  1.00  0.00     0.074 A 
ATOM     71  C   UNL A   1      42.849  31.444  36.661  1.00  0.00     0.031 C 
ATOM     72  C   UNL A   1      41.491  32.284  34.614  1.00  0.00     0.037 A 
BRANCH  59  73
ATOM     73  C   UNL A   1      37.993  30.846  29.465  1.00  0.00     0.057 A 
ATOM     74  C   UNL A   1      37.383  31.978  28.891  1.00  0.00     0.134 A 
ATOM     75  C   UNL A   1      37.197  29.674  29.315  1.00  0.00     0.134 A 
ATOM     76  F   UNL A   1      37.990  33.171  28.884  1.00  0.00    -0.206 F 
ATOM     77  C   UNL A   1      36.110  31.955  28.284  1.00  0.00     0.040 A 
ATOM     78  C   UNL A   1      35.960  29.628  28.655  1.00  0.00     0.040 A 
ATOM     79  F   UNL A   1      37.513  28.482  29.825  1.00  0.00    -0.206 F 
ATOM     80  C   UNL A   1      35.396  30.776  28.152  1.00  0.00     0.006 A 
ENDBRANCH  59  73
BRANCH  60  81
ATOM     81  C   UNL A   1      44.170  27.207  36.244  1.00  0.00     0.057 A 
ATOM     82  C   UNL A   1      43.948  26.289  37.293  1.00  0.00     0.134 A 
ATOM     83  C   UNL A   1      45.479  27.201  35.741  1.00  0.00     0.134 A 
ATOM     84  F   UNL A   1      42.764  26.272  37.928  1.00  0.00    -0.206 F 
ATOM     85  C   UNL A   1      44.868  25.259  37.617  1.00  0.00     0.040 A 
ATOM     86  C   UNL A   1      46.407  26.175  36.050  1.00  0.00     0.040 A 
ATOM     87  F   UNL A   1      45.848  28.105  34.821  1.00  0.00    -0.206 F 
ATOM     88  C   UNL A   1      46.071  25.153  36.931  1.00  0.00     0.006 A 
ENDBRANCH  60  81
BRANCH  72  89
ATOM     89  C   UNL A   1      41.422  33.732  34.928  1.00  0.00     0.057 A 
ATOM     90  C   UNL A   1      42.210  34.692  34.276  1.00  0.00     0.134 A 
ATOM     91  C   UNL A   1      40.430  34.219  35.793  1.00  0.00     0.134 A 
ATOM     92  F   UNL A   1      43.114  34.350  33.345  1.00  0.00    -0.206 F 
ATOM     93  C   UNL A   1      42.062  36.054  34.524  1.00  0.00     0.040 A 
ATOM     94  C   UNL A   1      40.238  35.577  36.005  1.00  0.00     0.040 A 
ATOM     95  F   UNL A   1      39.588  33.406  36.444  1.00  0.00    -0.206 F 
ATOM     96  C   UNL A   1      41.064  36.500  35.380  1.00  0.00     0.006 A 
ENDBRANCH  72  89
ENDBRANCH  46  47
ENDBRANCH  39  41
ENDBRANCH  38  39
ENDBRANCH  37  38
ENDBRANCH  36  37
ENDBRANCH  35  36
ENDBRANCH  34  35
ENDBRANCH   1  34
TORSDOF 21
ENDMDL
MODEL 2
REMARK VINA RESULT:     -11.6      3.356      9.394
REMARK SMILES Cc1ccccc1/C=C1\SC(=O)N(CC(=O)Nc2ccccc2C(=O)OCCOCCOCCOC(=O)c2ccc(-c3c4nc(c(-c5c(F)cccc5F)c5ccc([nH]5)c(-c5c(F)cccc5F)c5nc(c(-c6c(F)cccc6F)c6ccc3[nH]6)C=C5)C=C4)cc2)C1=O
REMARK SMILES IDX 30 1 29 2 28 3 27 4 26 5 24 6 25 7 23 8 18 9 19 10 20 11
REMARK SMILES IDX 22 12 21 13 17 14 15 15 16 16 14 18 13 19 8 20 9 21 10 22
REMARK SMILES IDX 92 23 11 24 93 25 12 26 7 27 1 28 2 29 3 30 4 31 6 32 5 33
REMARK SMILES IDX 31 34 32 35 33 36 34 37 35 38 36 39 37 40 38 41 39 42 91 43
REMARK SMILES IDX 40 44 90 45 41 46 42 47 43 48 84 49 44 50 89 51 83 52 85 53
REMARK SMILES IDX 45 54 88 55 82 56 81 57 46 59 72 60 55 61 71 62 56 63 59 64
REMARK SMILES IDX 70 65 86 66 57 67 58 68 69 70 87 71 60 72 47 73 48 74 53 75
REMARK SMILES IDX 49 76 50 77 52 78 54 79 51 80 73 81 74 82 79 83 75 84 76 85
REMARK SMILES IDX 78 86 80 87 77 88 61 89 62 90 67 91 63 92 64 93 66 94 68 95
REMARK SMILES IDX 65 96
REMARK H PARENT 17 17 85 58 59 69
REMARK Flexibility Score: inf
ROOT
ATOM      1  C   UNL A   1      33.624  29.250  26.702  1.00  0.00     0.188 C 
ENDROOT
BRANCH   1   2
ATOM      2  O   UNL A   1      32.702  28.445  27.399  1.00  0.00    -0.376 OA
BRANCH   2   3
ATOM      3  C   UNL A   1      32.089  27.344  26.745  1.00  0.00     0.202 C 
BRANCH   3   4
ATOM      4  C   UNL A   1      32.947  26.351  25.737  1.00  0.00     0.261 C 
BRANCH   4   5
ATOM      5  O   UNL A   1      32.823  24.400  25.112  1.00  0.00    -0.460 OA
BRANCH   5   6
ATOM      6  C   UNL A   1      32.623  23.448  23.794  1.00  0.00     0.340 C 
ATOM      7  O   UNL A   1      32.569  24.029  22.702  1.00  0.00    -0.246 OA
BRANCH   6   8
ATOM      8  C   UNL A   1      32.423  21.933  23.457  1.00  0.00     0.083 A 
ATOM      9  C   UNL A   1      32.946  21.022  24.379  1.00  0.00     0.055 A 
ATOM     10  C   UNL A   1      32.896  19.607  24.114  1.00  0.00     0.027 A 
ATOM     11  C   UNL A   1      32.305  19.054  22.977  1.00  0.00     0.002 A 
ATOM     12  C   UNL A   1      32.106  21.299  22.192  1.00  0.00     0.018 A 
ATOM     13  C   UNL A   1      31.920  19.916  21.985  1.00  0.00     0.001 A 
BRANCH   9  14
ATOM     14  N   UNL A   1      33.677  21.362  25.528  1.00  0.00    -0.324 N 
ATOM     15  C   UNL A   1      34.945  21.256  26.002  1.00  0.00     0.244 C 
ATOM     16  O   UNL A   1      34.992  21.528  27.221  1.00  0.00    -0.273 OA
ATOM     17  H   UNL A   1      33.098  21.810  26.185  1.00  0.00     0.170 HD
BRANCH  15  18
ATOM     18  C   UNL A   1      36.348  21.141  25.276  1.00  0.00     0.230 C 
BRANCH  18  19
ATOM     19  N   UNL A   1      37.758  21.627  25.479  1.00  0.00    -0.259 N 
ATOM     20  C   UNL A   1      41.078  24.084  27.191  1.00  0.00     0.029 C 
ATOM     21  C   UNL A   1      40.150  23.134  26.818  1.00  0.00     0.083 C 
ATOM     22  S   UNL A   1      40.871  21.019  26.553  1.00  0.00    -0.022 SA
ATOM     23  C   UNL A   1      38.293  23.240  26.106  1.00  0.00     0.268 C 
ATOM     24  C   UNL A   1      38.876  20.315  25.644  1.00  0.00     0.294 C 
ATOM     25  O   UNL A   1      37.737  24.292  25.823  1.00  0.00    -0.268 OA
ATOM     26  O   UNL A   1      38.723  19.238  25.102  1.00  0.00    -0.261 OA
BRANCH  20  27
ATOM     27  C   UNL A   1      42.480  24.039  27.815  1.00  0.00    -0.021 A 
ATOM     28  C   UNL A   1      43.848  23.073  25.872  1.00  0.00     0.045 C 
ATOM     29  C   UNL A   1      43.656  23.458  27.306  1.00  0.00    -0.044 A 
ATOM     30  C   UNL A   1      44.819  23.317  28.122  1.00  0.00     0.004 A 
ATOM     31  C   UNL A   1      44.895  23.864  29.396  1.00  0.00     0.000 A 
ATOM     32  C   UNL A   1      42.658  24.709  29.056  1.00  0.00     0.008 A 
ATOM     33  C   UNL A   1      43.826  24.613  29.843  1.00  0.00     0.001 A 
ENDBRANCH  20  27
ENDBRANCH  18  19
ENDBRANCH  15  18
ENDBRANCH   9  14
ENDBRANCH   6   8
ENDBRANCH   5   6
ENDBRANCH   4   5
ENDBRANCH   3   4
ENDBRANCH   2   3
ENDBRANCH   1   2
BRANCH   1  34
ATOM     34  C   UNL A   1      33.991  30.638  27.321  1.00  0.00     0.188 C 
BRANCH  34  35
ATOM     35  O   UNL A   1      35.221  30.623  28.031  1.00  0.00    -0.376 OA
BRANCH  35  36
ATOM     36  C   UNL A   1      35.581  31.613  29.013  1.00  0.00     0.202 C 
BRANCH  36  37
ATOM     37  C   UNL A   1      34.632  32.711  29.585  1.00  0.00     0.261 C 
BRANCH  37  38
ATOM     38  O   UNL A   1      34.428  32.487  31.040  1.00  0.00    -0.460 OA
BRANCH  38  39
ATOM     39  C   UNL A   1      34.528  33.567  31.896  1.00  0.00     0.338 C 
ATOM     40  O   UNL A   1      33.804  34.552  31.858  1.00  0.00    -0.246 OA
BRANCH  39  41
ATOM     41  C   UNL A   1      35.880  33.545  32.639  1.00  0.00     0.060 A 
ATOM     42  C   UNL A   1      36.952  34.281  32.132  1.00  0.00     0.016 A 
ATOM     43  C   UNL A   1      36.228  32.593  33.588  1.00  0.00     0.016 A 
ATOM     44  C   UNL A   1      38.309  33.866  32.359  1.00  0.00     0.010 A 
ATOM     45  C   UNL A   1      37.606  32.199  33.777  1.00  0.00     0.010 A 
ATOM     46  C   UNL A   1      38.687  32.652  32.964  1.00  0.00    -0.014 A 
BRANCH  46  47
ATOM     47  C   UNL A   1      40.092  31.703  32.865  1.00  0.00     0.031 A 
ATOM     48  C   UNL A   1      39.857  30.559  31.934  1.00  0.00     0.074 A 
ATOM     49  C   UNL A   1      41.383  31.473  33.493  1.00  0.00     0.049 A 
ATOM     50  N   UNL A   1      40.427  29.394  32.047  1.00  0.00    -0.248 NA
ATOM     51  C   UNL A   1      38.803  30.567  30.917  1.00  0.00     0.031 C 
ATOM     52  C   UNL A   1      42.603  30.930  32.857  1.00  0.00     0.029 A 
ATOM     53  N   UNL A   1      41.972  31.632  34.794  1.00  0.00    -0.354 N 
ATOM     54  C   UNL A   1      40.242  28.827  30.814  1.00  0.00     0.074 A 
ATOM     55  C   UNL A   1      38.981  29.354  30.391  1.00  0.00     0.031 C 
ATOM     56  C   UNL A   1      43.675  30.908  33.697  1.00  0.00     0.029 A 
ATOM     57  C   UNL A   1      43.338  31.429  35.016  1.00  0.00     0.049 A 
ATOM     58  H   UNL A   1      41.399  31.892  35.550  1.00  0.00     0.167 HD
ATOM     59  C   UNL A   1      41.340  28.398  30.126  1.00  0.00     0.037 A 
ATOM     60  C   UNL A   1      43.920  31.127  36.242  1.00  0.00     0.037 A 
ATOM     61  C   UNL A   1      42.507  28.109  31.012  1.00  0.00     0.049 A 
ATOM     62  C   UNL A   1      44.027  29.643  36.255  1.00  0.00     0.074 A 
ATOM     63  C   UNL A   1      43.862  28.396  30.932  1.00  0.00     0.029 A 
ATOM     64  N   UNL A   1      42.333  27.574  32.310  1.00  0.00    -0.354 N 
ATOM     65  N   UNL A   1      43.382  28.944  35.371  1.00  0.00    -0.248 NA
ATOM     66  C   UNL A   1      44.829  28.835  37.164  1.00  0.00     0.031 C 
ATOM     67  C   UNL A   1      44.482  28.068  32.165  1.00  0.00     0.029 A 
ATOM     68  C   UNL A   1      43.527  27.527  33.012  1.00  0.00     0.049 A 
ATOM     69  H   UNL A   1      41.469  27.273  32.671  1.00  0.00     0.167 HD
ATOM     70  C   UNL A   1      43.879  27.695  35.385  1.00  0.00     0.074 A 
ATOM     71  C   UNL A   1      44.672  27.620  36.603  1.00  0.00     0.031 C 
ATOM     72  C   UNL A   1      43.681  26.879  34.320  1.00  0.00     0.037 A 
BRANCH  59  73
ATOM     73  C   UNL A   1      41.428  28.560  28.583  1.00  0.00     0.057 A 
ATOM     74  C   UNL A   1      40.754  27.666  27.730  1.00  0.00     0.134 A 
ATOM     75  C   UNL A   1      42.233  29.487  27.862  1.00  0.00     0.134 A 
ATOM     76  F   UNL A   1      39.909  26.746  28.210  1.00  0.00    -0.206 F 
ATOM     77  C   UNL A   1      40.901  27.665  26.327  1.00  0.00     0.040 A 
ATOM     78  C   UNL A   1      42.336  29.536  26.463  1.00  0.00     0.040 A 
ATOM     79  F   UNL A   1      43.025  30.397  28.431  1.00  0.00    -0.206 F 
ATOM     80  C   UNL A   1      41.685  28.608  25.684  1.00  0.00     0.006 A 
ENDBRANCH  59  73
BRANCH  60  81
ATOM     81  C   UNL A   1      43.826  31.891  37.556  1.00  0.00     0.057 A 
ATOM     82  C   UNL A   1      44.977  32.449  38.151  1.00  0.00     0.134 A 
ATOM     83  C   UNL A   1      42.624  32.235  38.192  1.00  0.00     0.134 A 
ATOM     84  F   UNL A   1      46.196  32.112  37.697  1.00  0.00    -0.206 F 
ATOM     85  C   UNL A   1      44.913  33.487  39.117  1.00  0.00     0.040 A 
ATOM     86  C   UNL A   1      42.544  33.273  39.155  1.00  0.00     0.040 A 
ATOM     87  F   UNL A   1      41.471  31.677  37.794  1.00  0.00    -0.206 F 
ATOM     88  C   UNL A   1      43.684  33.957  39.560  1.00  0.00     0.006 A 
ENDBRANCH  60  81
BRANCH  72  89
ATOM     89  C   UNL A   1      43.901  25.415  34.408  1.00  0.00     0.057 A 
ATOM     90  C   UNL A   1      42.914  24.521  34.849  1.00  0.00     0.134 A 
ATOM     91  C   UNL A   1      45.074  24.846  33.890  1.00  0.00     0.134 A 
ATOM     92  F   UNL A   1      41.709  24.945  35.261  1.00  0.00    -0.206 F 
ATOM     93  C   UNL A   1      43.113  23.143  34.836  1.00  0.00     0.040 A 
ATOM     94  C   UNL A   1      45.260  23.472  33.821  1.00  0.00     0.040 A 
ATOM     95  F   UNL A   1      46.075  25.591  33.401  1.00  0.00    -0.206 F 
ATOM     96  C   UNL A   1      44.284  22.615  34.307  1.00  0.00     0.006 A 
ENDBRANCH  72  89
ENDBRANCH  46  47
ENDBRANCH  39  41
ENDBRANCH  38  39
ENDBRANCH  37  38
ENDBRANCH  36  37
ENDBRANCH  35  36
ENDBRANCH  34  35
ENDBRANCH   1  34
TORSDOF 21
ENDMDL
MODEL 3
REMARK VINA RESULT:     -10.8      3.646      4.706
REMARK SMILES Cc1ccccc1/C=C1\SC(=O)N(CC(=O)Nc2ccccc2C(=O)OCCOCCOCCOC(=O)c2ccc(-c3c4nc(c(-c5c(F)cccc5F)c5ccc([nH]5)c(-c5c(F)cccc5F)c5nc(c(-c6c(F)cccc6F)c6ccc3[nH]6)C=C5)C=C4)cc2)C1=O
REMARK SMILES IDX 30 1 29 2 28 3 27 4 26 5 24 6 25 7 23 8 18 9 19 10 20 11
REMARK SMILES IDX 22 12 21 13 17 14 15 15 16 16 14 18 13 19 8 20 9 21 10 22
REMARK SMILES IDX 92 23 11 24 93 25 12 26 7 27 1 28 2 29 3 30 4 31 6 32 5 33
REMARK SMILES IDX 31 34 32 35 33 36 34 37 35 38 36 39 37 40 38 41 39 42 91 43
REMARK SMILES IDX 40 44 90 45 41 46 42 47 43 48 84 49 44 50 89 51 83 52 85 53
REMARK SMILES IDX 45 54 88 55 82 56 81 57 46 59 72 60 55 61 71 62 56 63 59 64
REMARK SMILES IDX 70 65 86 66 57 67 58 68 69 70 87 71 60 72 47 73 48 74 53 75
REMARK SMILES IDX 49 76 50 77 52 78 54 79 51 80 73 81 74 82 79 83 75 84 76 85
REMARK SMILES IDX 78 86 80 87 77 88 61 89 62 90 67 91 63 92 64 93 66 94 68 95
REMARK SMILES IDX 65 96
REMARK H PARENT 17 17 85 58 59 69
REMARK Flexibility Score: inf
ROOT
ATOM      1  C   UNL A   1      44.206  21.701  25.095  1.00  0.00     0.188 C 
ENDROOT
BRANCH   1   2
ATOM      2  O   UNL A   1      44.878  20.470  25.227  1.00  0.00    -0.376 OA
BRANCH   2   3
ATOM      3  C   UNL A   1      44.161  19.253  25.083  1.00  0.00     0.202 C 
BRANCH   3   4
ATOM      4  C   UNL A   1      42.583  19.120  25.563  1.00  0.00     0.261 C 
BRANCH   4   5
ATOM      5  O   UNL A   1      41.215  20.314  26.519  1.00  0.00    -0.460 OA
BRANCH   5   6
ATOM      6  C   UNL A   1      41.052  21.670  27.423  1.00  0.00     0.340 C 
ATOM      7  O   UNL A   1      41.737  21.727  28.454  1.00  0.00    -0.246 OA
BRANCH   6   8
ATOM      8  C   UNL A   1      40.217  22.993  27.420  1.00  0.00     0.083 A 
ATOM      9  C   UNL A   1      39.119  23.027  26.556  1.00  0.00     0.055 A 
ATOM     10  C   UNL A   1      38.343  24.232  26.411  1.00  0.00     0.027 A 
ATOM     11  C   UNL A   1      38.592  25.403  27.129  1.00  0.00     0.002 A 
ATOM     12  C   UNL A   1      40.577  24.318  27.888  1.00  0.00     0.018 A 
ATOM     13  C   UNL A   1      39.743  25.456  27.867  1.00  0.00     0.001 A 
BRANCH   9  14
ATOM     14  N   UNL A   1      38.759  22.005  25.664  1.00  0.00    -0.324 N 
ATOM     15  C   UNL A   1      37.685  21.221  25.386  1.00  0.00     0.244 C 
ATOM     16  O   UNL A   1      37.999  20.288  24.617  1.00  0.00    -0.273 OA
ATOM     17  H   UNL A   1      39.506  21.794  25.061  1.00  0.00     0.170 HD
BRANCH  15  18
ATOM     18  C   UNL A   1      36.130  21.425  25.610  1.00  0.00     0.230 C 
BRANCH  18  19
ATOM     19  N   UNL A   1      35.102  22.506  25.411  1.00  0.00    -0.259 N 
ATOM     20  C   UNL A   1      32.422  25.914  26.502  1.00  0.00     0.029 C 
ATOM     21  C   UNL A   1      33.395  25.049  26.049  1.00  0.00     0.083 C 
ATOM     22  S   UNL A   1      34.241  25.416  23.996  1.00  0.00    -0.022 SA
ATOM     23  C   UNL A   1      34.042  23.270  26.666  1.00  0.00     0.268 C 
ATOM     24  C   UNL A   1      35.404  23.429  23.977  1.00  0.00     0.294 C 
ATOM     25  O   UNL A   1      33.531  22.648  27.587  1.00  0.00    -0.268 OA
ATOM     26  O   UNL A   1      35.934  22.965  22.987  1.00  0.00    -0.261 OA
BRANCH  20  27
ATOM     27  C   UNL A   1      31.953  27.320  26.103  1.00  0.00    -0.021 A 
ATOM     28  C   UNL A   1      30.553  26.792  24.019  1.00  0.00     0.045 C 
ATOM     29  C   UNL A   1      31.272  27.728  24.940  1.00  0.00    -0.044 A 
ATOM     30  C   UNL A   1      31.111  29.112  24.632  1.00  0.00     0.004 A 
ATOM     31  C   UNL A   1      31.487  30.113  25.517  1.00  0.00     0.000 A 
ATOM     32  C   UNL A   1      32.180  28.368  27.036  1.00  0.00     0.008 A 
ATOM     33  C   UNL A   1      31.974  29.735  26.751  1.00  0.00     0.001 A 
ENDBRANCH  20  27
ENDBRANCH  18  19
ENDBRANCH  15  18
ENDBRANCH   9  14
ENDBRANCH   6   8
ENDBRANCH   5   6
ENDBRANCH   4   5
ENDBRANCH   3   4
ENDBRANCH   2   3
ENDBRANCH   1   2
BRANCH   1  34
ATOM     34  C   UNL A   1      44.570  22.601  23.870  1.00  0.00     0.188 C 
BRANCH  34  35
ATOM     35  O   UNL A   1      45.287  23.772  24.233  1.00  0.00    -0.376 OA
BRANCH  35  36
ATOM     36  C   UNL A   1      46.554  23.745  24.918  1.00  0.00     0.202 C 
BRANCH  36  37
ATOM     37  C   UNL A   1      46.830  24.325  26.340  1.00  0.00     0.261 C 
BRANCH  37  38
ATOM     38  O   UNL A   1      45.540  24.596  27.028  1.00  0.00    -0.460 OA
BRANCH  38  39
ATOM     39  C   UNL A   1      45.293  23.980  28.239  1.00  0.00     0.338 C 
ATOM     40  O   UNL A   1      44.737  22.897  28.366  1.00  0.00    -0.246 OA
BRANCH  39  41
ATOM     41  C   UNL A   1      45.458  24.981  29.400  1.00  0.00     0.060 A 
ATOM     42  C   UNL A   1      44.485  25.037  30.399  1.00  0.00     0.016 A 
ATOM     43  C   UNL A   1      46.321  26.069  29.369  1.00  0.00     0.016 A 
ATOM     44  C   UNL A   1      44.230  26.257  31.117  1.00  0.00     0.010 A 
ATOM     45  C   UNL A   1      46.020  27.280  30.100  1.00  0.00     0.010 A 
ATOM     46  C   UNL A   1      44.802  27.505  30.808  1.00  0.00    -0.014 A 
BRANCH  46  47
ATOM     47  C   UNL A   1      44.302  29.104  31.090  1.00  0.00     0.031 A 
ATOM     48  C   UNL A   1      43.067  29.388  30.299  1.00  0.00     0.074 A 
ATOM     49  C   UNL A   1      44.731  30.368  31.664  1.00  0.00     0.049 A 
ATOM     50  N   UNL A   1      42.753  30.559  29.825  1.00  0.00    -0.248 NA
ATOM     51  C   UNL A   1      42.183  28.331  29.803  1.00  0.00     0.031 C 
ATOM     52  C   UNL A   1      43.871  31.436  32.220  1.00  0.00     0.029 A 
ATOM     53  N   UNL A   1      45.969  31.055  31.912  1.00  0.00    -0.354 N 
ATOM     54  C   UNL A   1      41.419  30.441  29.543  1.00  0.00     0.074 A 
ATOM     55  C   UNL A   1      41.278  29.071  29.159  1.00  0.00     0.031 C 
ATOM     56  C   UNL A   1      44.583  32.468  32.754  1.00  0.00     0.029 A 
ATOM     57  C   UNL A   1      46.019  32.250  32.637  1.00  0.00     0.049 A 
ATOM     58  H   UNL A   1      46.806  30.673  31.563  1.00  0.00     0.167 HD
ATOM     59  C   UNL A   1      40.554  31.335  30.109  1.00  0.00     0.037 A 
ATOM     60  C   UNL A   1      47.036  33.195  32.566  1.00  0.00     0.037 A 
ATOM     61  C   UNL A   1      41.216  32.613  30.506  1.00  0.00     0.049 A 
ATOM     62  C   UNL A   1      46.556  34.194  31.574  1.00  0.00     0.074 A 
ATOM     63  C   UNL A   1      41.141  33.417  31.635  1.00  0.00     0.029 A 
ATOM     64  N   UNL A   1      42.276  33.163  29.748  1.00  0.00    -0.354 N 
ATOM     65  N   UNL A   1      45.538  33.912  30.818  1.00  0.00    -0.248 NA
ATOM     66  C   UNL A   1      47.094  35.529  31.351  1.00  0.00     0.031 C 
ATOM     67  C   UNL A   1      42.154  34.408  31.569  1.00  0.00     0.029 A 
ATOM     68  C   UNL A   1      42.841  34.262  30.374  1.00  0.00     0.049 A 
ATOM     69  H   UNL A   1      42.577  32.806  28.881  1.00  0.00     0.167 HD
ATOM     70  C   UNL A   1      45.109  35.054  30.255  1.00  0.00     0.074 A 
ATOM     71  C   UNL A   1      46.178  36.014  30.489  1.00  0.00     0.031 C 
ATOM     72  C   UNL A   1      43.851  35.127  29.752  1.00  0.00     0.037 A 
BRANCH  59  73
ATOM     73  C   UNL A   1      39.148  30.886  30.592  1.00  0.00     0.057 A 
ATOM     74  C   UNL A   1      38.975  30.335  31.876  1.00  0.00     0.134 A 
ATOM     75  C   UNL A   1      37.945  30.858  29.829  1.00  0.00     0.134 A 
ATOM     76  F   UNL A   1      39.974  30.310  32.767  1.00  0.00    -0.206 F 
ATOM     77  C   UNL A   1      37.761  29.777  32.329  1.00  0.00     0.040 A 
ATOM     78  C   UNL A   1      36.716  30.365  30.294  1.00  0.00     0.040 A 
ATOM     79  F   UNL A   1      37.852  31.257  28.560  1.00  0.00    -0.206 F 
ATOM     80  C   UNL A   1      36.621  29.799  31.544  1.00  0.00     0.006 A 
ENDBRANCH  59  73
BRANCH  60  81
ATOM     81  C   UNL A   1      48.531  33.006  32.786  1.00  0.00     0.057 A 
ATOM     82  C   UNL A   1      49.362  32.540  31.745  1.00  0.00     0.134 A 
ATOM     83  C   UNL A   1      49.223  33.406  33.939  1.00  0.00     0.134 A 
ATOM     84  F   UNL A   1      48.814  32.032  30.628  1.00  0.00    -0.206 F 
ATOM     85  C   UNL A   1      50.768  32.727  31.745  1.00  0.00     0.040 A 
ATOM     86  C   UNL A   1      50.627  33.603  33.953  1.00  0.00     0.040 A 
ATOM     87  F   UNL A   1      48.543  33.760  35.040  1.00  0.00    -0.206 F 
ATOM     88  C   UNL A   1      51.394  33.338  32.824  1.00  0.00     0.006 A 
ENDBRANCH  60  81
BRANCH  72  89
ATOM     89  C   UNL A   1      43.440  36.217  28.834  1.00  0.00     0.057 A 
ATOM     90  C   UNL A   1      43.037  35.988  27.510  1.00  0.00     0.134 A 
ATOM     91  C   UNL A   1      43.284  37.525  29.318  1.00  0.00     0.134 A 
ATOM     92  F   UNL A   1      43.036  34.758  26.975  1.00  0.00    -0.206 F 
ATOM     93  C   UNL A   1      42.568  37.016  26.697  1.00  0.00     0.040 A 
ATOM     94  C   UNL A   1      42.766  38.546  28.533  1.00  0.00     0.040 A 
ATOM     95  F   UNL A   1      43.595  37.863  30.577  1.00  0.00    -0.206 F 
ATOM     96  C   UNL A   1      42.419  38.297  27.214  1.00  0.00     0.006 A 
ENDBRANCH  72  89
ENDBRANCH  46  47
ENDBRANCH  39  41
ENDBRANCH  38  39
ENDBRANCH  37  38
ENDBRANCH  36  37
ENDBRANCH  35  36
ENDBRANCH  34  35
ENDBRANCH   1  34
TORSDOF 21
ENDMDL
