MODEL 1
REMARK VINA RESULT:     -10.3      0.000      0.000
REMARK SMILES C[C@](Nc1ncc([N+](=O)[O-])cc1Br)(C(=O)OCCOCCOCCOC(=O)c1ccc(-c2c3nc(c(-c4c(F)cccc4F)c4ccc([nH]4)c(-c4c(F)cccc4F)c4nc(c(-c5c(F)cccc5F)c5ccc2[nH]5)C=C4)C=C3)cc1)C1CC1
REMARK SMILES IDX 20 1 19 2 18 3 17 4 16 5 14 6 15 7 2 8 1 9 82 10 83 11 84 12
REMARK SMILES IDX 3 13 4 15 5 16 12 17 6 18 11 19 13 20 7 21 8 22 9 23 10 24
REMARK SMILES IDX 21 25 22 26 23 27 24 28 25 29 26 30 27 31 28 32 29 33 81 34
REMARK SMILES IDX 30 35 80 36 31 37 32 38 33 39 74 40 34 41 79 42 73 43 75 44
REMARK SMILES IDX 35 45 78 46 72 47 71 48 36 50 62 51 45 52 61 53 46 54 49 55
REMARK SMILES IDX 60 56 76 57 47 58 48 59 59 61 77 62 50 63 37 64 38 65 43 66
REMARK SMILES IDX 39 67 40 68 42 69 44 70 41 71 63 72 64 73 69 74 65 75 66 76
REMARK SMILES IDX 68 77 70 78 67 79 51 80 52 81 57 82 53 83 54 84 56 85 58 86
REMARK SMILES IDX 55 87
REMARK H PARENT 3 14 75 49 49 60
REMARK Flexibility Score: inf
ROOT
ATOM      1  C   UNL A   1      37.834  21.909  25.356  1.00  0.00     0.188 C 
ENDROOT
BRANCH   1   2
ATOM      2  O   UNL A   1      36.859  21.423  24.446  1.00  0.00    -0.376 OA
BRANCH   2   3
ATOM      3  C   UNL A   1      35.623  22.120  24.428  1.00  0.00     0.202 C 
BRANCH   3   4
ATOM      4  C   UNL A   1      35.733  23.618  24.109  1.00  0.00     0.261 C 
BRANCH   4   5
ATOM      5  O   UNL A   1      34.498  24.251  23.703  1.00  0.00    -0.461 OA
BRANCH   5   6
ATOM      6  C   UNL A   1      33.888  25.044  24.631  1.00  0.00     0.331 C 
ATOM      7  O   UNL A   1      34.507  25.569  25.553  1.00  0.00    -0.249 OA
BRANCH   6   8
ATOM      8  C   UNL A   1      32.330  25.091  24.455  1.00  0.00     0.137 C 
ATOM      9  C   UNL A   1      32.161  24.798  22.952  1.00  0.00     0.047 C 
BRANCH   8  10
ATOM     10  C   UNL A   1      31.580  24.040  25.292  1.00  0.00     0.026 C 
ATOM     11  C   UNL A   1      32.171  22.795  25.906  1.00  0.00     0.007 C 
ATOM     12  C   UNL A   1      31.748  23.936  26.793  1.00  0.00     0.007 C 
ENDBRANCH   8  10
BRANCH   8  13
ATOM     13  N   UNL A   1      31.760  26.441  24.797  1.00  0.00    -0.354 N 
ATOM     14  H   UNL A   1      31.993  26.888  25.643  1.00  0.00     0.163 HD
BRANCH  13  15
ATOM     15  C   UNL A   1      30.894  27.042  23.882  1.00  0.00     0.141 A 
ATOM     16  N   UNL A   1      29.590  26.698  23.944  1.00  0.00    -0.231 NA
ATOM     17  C   UNL A   1      31.305  28.096  23.052  1.00  0.00     0.067 A 
ATOM     18  C   UNL A   1      28.673  27.505  23.357  1.00  0.00     0.199 A 
ATOM     19  C   UNL A   1      30.358  28.971  22.521  1.00  0.00     0.106 A 
ATOM     20  Br  UNL A   1      33.098  28.399  22.588  1.00  0.00    -0.047 Br
ATOM     21  C   UNL A   1      29.016  28.678  22.718  1.00  0.00     0.288 A 
BRANCH  21  22
ATOM     22  N   UNL A   1      27.982  29.600  22.300  1.00  0.00     0.064 N 
ATOM     23  O   UNL A   1      27.035  29.784  23.075  1.00  0.00    -0.258 OA
ATOM     24  O   UNL A   1      28.131  30.158  21.205  1.00  0.00    -0.258 OA
ENDBRANCH  21  22
ENDBRANCH  13  15
ENDBRANCH   8  13
ENDBRANCH   6   8
ENDBRANCH   5   6
ENDBRANCH   4   5
ENDBRANCH   3   4
ENDBRANCH   2   3
ENDBRANCH   1   2
BRANCH   1  25
ATOM     25  C   UNL A   1      38.940  20.882  25.671  1.00  0.00     0.188 C 
BRANCH  25  26
ATOM     26  O   UNL A   1      39.889  21.221  26.675  1.00  0.00    -0.376 OA
BRANCH  26  27
ATOM     27  C   UNL A   1      40.993  20.331  26.839  1.00  0.00     0.202 C 
BRANCH  27  28
ATOM     28  C   UNL A   1      42.277  20.713  26.093  1.00  0.00     0.261 C 
BRANCH  28  29
ATOM     29  O   UNL A   1      42.861  21.920  26.626  1.00  0.00    -0.460 OA
BRANCH  29  30
ATOM     30  C   UNL A   1      42.791  23.001  25.823  1.00  0.00     0.338 C 
ATOM     31  O   UNL A   1      43.014  23.037  24.616  1.00  0.00    -0.246 OA
BRANCH  30  32
ATOM     32  C   UNL A   1      42.356  24.187  26.585  1.00  0.00     0.060 A 
ATOM     33  C   UNL A   1      43.046  25.395  26.454  1.00  0.00     0.016 A 
ATOM     34  C   UNL A   1      41.357  24.073  27.547  1.00  0.00     0.016 A 
ATOM     35  C   UNL A   1      42.792  26.471  27.303  1.00  0.00     0.010 A 
ATOM     36  C   UNL A   1      41.065  25.166  28.373  1.00  0.00     0.010 A 
ATOM     37  C   UNL A   1      41.800  26.363  28.278  1.00  0.00    -0.014 A 
BRANCH  37  38
ATOM     38  C   UNL A   1      41.574  27.457  29.256  1.00  0.00     0.031 A 
ATOM     39  C   UNL A   1      42.410  27.510  30.502  1.00  0.00     0.074 A 
ATOM     40  C   UNL A   1      40.628  28.391  29.046  1.00  0.00     0.049 A 
ATOM     41  N   UNL A   1      42.213  28.187  31.604  1.00  0.00    -0.248 NA
ATOM     42  C   UNL A   1      43.634  26.694  30.504  1.00  0.00     0.031 C 
ATOM     43  C   UNL A   1      39.821  28.527  27.833  1.00  0.00     0.029 A 
ATOM     44  N   UNL A   1      40.165  29.389  29.869  1.00  0.00    -0.354 N 
ATOM     45  C   UNL A   1      43.257  27.836  32.451  1.00  0.00     0.074 A 
ATOM     46  C   UNL A   1      44.098  26.906  31.728  1.00  0.00     0.031 C 
ATOM     47  C   UNL A   1      38.942  29.529  28.003  1.00  0.00     0.029 A 
ATOM     48  C   UNL A   1      39.070  30.047  29.362  1.00  0.00     0.049 A 
ATOM     49  H   UNL A   1      40.577  29.610  30.735  1.00  0.00     0.167 HD
ATOM     50  C   UNL A   1      43.476  28.243  33.723  1.00  0.00     0.037 A 
ATOM     51  C   UNL A   1      38.218  30.907  29.953  1.00  0.00     0.037 A 
ATOM     52  C   UNL A   1      42.654  29.197  34.418  1.00  0.00     0.049 A 
ATOM     53  C   UNL A   1      38.419  31.264  31.402  1.00  0.00     0.074 A 
ATOM     54  C   UNL A   1      42.805  29.691  35.702  1.00  0.00     0.029 A 
ATOM     55  N   UNL A   1      41.528  29.800  33.885  1.00  0.00    -0.354 N 
ATOM     56  N   UNL A   1      39.373  30.894  32.221  1.00  0.00    -0.248 NA
ATOM     57  C   UNL A   1      37.405  32.134  32.018  1.00  0.00     0.031 C 
ATOM     58  C   UNL A   1      41.742  30.561  35.961  1.00  0.00     0.029 A 
ATOM     59  C   UNL A   1      40.951  30.637  34.826  1.00  0.00     0.049 A 
ATOM     60  H   UNL A   1      41.187  29.656  32.973  1.00  0.00     0.167 HD
ATOM     61  C   UNL A   1      39.080  31.489  33.442  1.00  0.00     0.074 A 
ATOM     62  C   UNL A   1      37.871  32.262  33.253  1.00  0.00     0.031 C 
ATOM     63  C   UNL A   1      39.749  31.399  34.617  1.00  0.00     0.037 A 
BRANCH  50  64
ATOM     64  C   UNL A   1      44.613  27.618  34.469  1.00  0.00     0.057 A 
ATOM     65  C   UNL A   1      44.461  26.446  35.218  1.00  0.00     0.134 A 
ATOM     66  C   UNL A   1      45.896  28.174  34.385  1.00  0.00     0.134 A 
ATOM     67  F   UNL A   1      43.255  25.874  35.348  1.00  0.00    -0.206 F 
ATOM     68  C   UNL A   1      45.547  25.852  35.865  1.00  0.00     0.040 A 
ATOM     69  C   UNL A   1      46.992  27.580  35.012  1.00  0.00     0.040 A 
ATOM     70  F   UNL A   1      46.106  29.297  33.681  1.00  0.00    -0.206 F 
ATOM     71  C   UNL A   1      46.818  26.415  35.755  1.00  0.00     0.006 A 
ENDBRANCH  50  64
BRANCH  51  72
ATOM     72  C   UNL A   1      37.032  31.412  29.213  1.00  0.00     0.057 A 
ATOM     73  C   UNL A   1      35.921  30.597  28.976  1.00  0.00     0.134 A 
ATOM     74  C   UNL A   1      37.004  32.710  28.689  1.00  0.00     0.134 A 
ATOM     75  F   UNL A   1      35.903  29.333  29.426  1.00  0.00    -0.206 F 
ATOM     76  C   UNL A   1      34.830  31.049  28.231  1.00  0.00     0.040 A 
ATOM     77  C   UNL A   1      35.908  33.185  27.967  1.00  0.00     0.040 A 
ATOM     78  F   UNL A   1      38.041  33.540  28.875  1.00  0.00    -0.206 F 
ATOM     79  C   UNL A   1      34.820  32.349  27.729  1.00  0.00     0.006 A 
ENDBRANCH  51  72
BRANCH  63  80
ATOM     80  C   UNL A   1      39.197  32.162  35.782  1.00  0.00     0.057 A 
ATOM     81  C   UNL A   1      38.315  31.571  36.694  1.00  0.00     0.134 A 
ATOM     82  C   UNL A   1      39.595  33.483  36.026  1.00  0.00     0.134 A 
ATOM     83  F   UNL A   1      37.885  30.315  36.506  1.00  0.00    -0.206 F 
ATOM     84  C   UNL A   1      37.837  32.272  37.802  1.00  0.00     0.040 A 
ATOM     85  C   UNL A   1      39.143  34.185  37.142  1.00  0.00     0.040 A 
ATOM     86  F   UNL A   1      40.446  34.102  35.193  1.00  0.00    -0.206 F 
ATOM     87  C   UNL A   1      38.259  33.580  38.033  1.00  0.00     0.006 A 
ENDBRANCH  63  80
ENDBRANCH  37  38
ENDBRANCH  30  32
ENDBRANCH  29  30
ENDBRANCH  28  29
ENDBRANCH  27  28
ENDBRANCH  26  27
ENDBRANCH  25  26
ENDBRANCH   1  25
TORSDOF 21
ENDMDL
MODEL 2
REMARK VINA RESULT:     -10.2      2.156      3.628
REMARK SMILES C[C@](Nc1ncc([N+](=O)[O-])cc1Br)(C(=O)OCCOCCOCCOC(=O)c1ccc(-c2c3nc(c(-c4c(F)cccc4F)c4ccc([nH]4)c(-c4c(F)cccc4F)c4nc(c(-c5c(F)cccc5F)c5ccc2[nH]5)C=C4)C=C3)cc1)C1CC1
REMARK SMILES IDX 20 1 19 2 18 3 17 4 16 5 14 6 15 7 2 8 1 9 82 10 83 11 84 12
REMARK SMILES IDX 3 13 4 15 5 16 12 17 6 18 11 19 13 20 7 21 8 22 9 23 10 24
REMARK SMILES IDX 21 25 22 26 23 27 24 28 25 29 26 30 27 31 28 32 29 33 81 34
REMARK SMILES IDX 30 35 80 36 31 37 32 38 33 39 74 40 34 41 79 42 73 43 75 44
REMARK SMILES IDX 35 45 78 46 72 47 71 48 36 50 62 51 45 52 61 53 46 54 49 55
REMARK SMILES IDX 60 56 76 57 47 58 48 59 59 61 77 62 50 63 37 64 38 65 43 66
REMARK SMILES IDX 39 67 40 68 42 69 44 70 41 71 63 72 64 73 69 74 65 75 66 76
REMARK SMILES IDX 68 77 70 78 67 79 51 80 52 81 57 82 53 83 54 84 56 85 58 86
REMARK SMILES IDX 55 87
REMARK H PARENT 3 14 75 49 49 60
REMARK Flexibility Score: inf
ROOT
ATOM      1  C   UNL A   1      38.684  21.052  25.443  1.00  0.00     0.188 C 
ENDROOT
BRANCH   1   2
ATOM      2  O   UNL A   1      37.293  21.249  25.242  1.00  0.00    -0.376 OA
BRANCH   2   3
ATOM      3  C   UNL A   1      36.934  22.056  24.130  1.00  0.00     0.202 C 
BRANCH   3   4
ATOM      4  C   UNL A   1      36.345  23.426  24.493  1.00  0.00     0.261 C 
BRANCH   4   5
ATOM      5  O   UNL A   1      34.982  23.642  24.061  1.00  0.00    -0.461 OA
BRANCH   5   6
ATOM      6  C   UNL A   1      34.184  24.359  24.905  1.00  0.00     0.331 C 
ATOM      7  O   UNL A   1      34.196  24.189  26.120  1.00  0.00    -0.249 OA
BRANCH   6   8
ATOM      8  C   UNL A   1      33.189  25.301  24.140  1.00  0.00     0.137 C 
ATOM      9  C   UNL A   1      33.092  26.514  25.086  1.00  0.00     0.047 C 
BRANCH   8  10
ATOM     10  C   UNL A   1      33.694  25.742  22.755  1.00  0.00     0.026 C 
ATOM     11  C   UNL A   1      32.900  25.749  21.472  1.00  0.00     0.007 C 
ATOM     12  C   UNL A   1      33.276  27.052  22.125  1.00  0.00     0.007 C 
ENDBRANCH   8  10
BRANCH   8  13
ATOM     13  N   UNL A   1      31.837  24.667  23.954  1.00  0.00    -0.354 N 
ATOM     14  H   UNL A   1      31.040  25.218  23.782  1.00  0.00     0.163 HD
BRANCH  13  15
ATOM     15  C   UNL A   1      31.745  23.276  24.031  1.00  0.00     0.141 A 
ATOM     16  N   UNL A   1      32.118  22.568  22.944  1.00  0.00    -0.231 NA
ATOM     17  C   UNL A   1      31.458  22.616  25.236  1.00  0.00     0.067 A 
ATOM     18  C   UNL A   1      32.404  21.251  23.088  1.00  0.00     0.199 A 
ATOM     19  C   UNL A   1      31.833  21.283  25.404  1.00  0.00     0.106 A 
ATOM     20  Br  UNL A   1      30.564  23.435  26.668  1.00  0.00    -0.047 Br
ATOM     21  C   UNL A   1      32.352  20.608  24.308  1.00  0.00     0.288 A 
BRANCH  21  22
ATOM     22  N   UNL A   1      32.871  19.264  24.437  1.00  0.00     0.064 N 
ATOM     23  O   UNL A   1      34.100  19.129  24.466  1.00  0.00    -0.258 OA
ATOM     24  O   UNL A   1      32.046  18.346  24.533  1.00  0.00    -0.258 OA
ENDBRANCH  21  22
ENDBRANCH  13  15
ENDBRANCH   8  13
ENDBRANCH   6   8
ENDBRANCH   5   6
ENDBRANCH   4   5
ENDBRANCH   3   4
ENDBRANCH   2   3
ENDBRANCH   1   2
BRANCH   1  25
ATOM     25  C   UNL A   1      39.070  19.572  25.628  1.00  0.00     0.188 C 
BRANCH  25  26
ATOM     26  O   UNL A   1      40.450  19.233  25.548  1.00  0.00    -0.376 OA
BRANCH  26  27
ATOM     27  C   UNL A   1      41.299  19.759  26.568  1.00  0.00     0.202 C 
BRANCH  27  28
ATOM     28  C   UNL A   1      42.363  20.759  26.102  1.00  0.00     0.261 C 
BRANCH  28  29
ATOM     29  O   UNL A   1      41.774  22.010  25.692  1.00  0.00    -0.460 OA
BRANCH  29  30
ATOM     30  C   UNL A   1      42.638  23.032  25.527  1.00  0.00     0.338 C 
ATOM     31  O   UNL A   1      43.633  23.044  24.807  1.00  0.00    -0.246 OA
BRANCH  30  32
ATOM     32  C   UNL A   1      42.215  24.204  26.316  1.00  0.00     0.060 A 
ATOM     33  C   UNL A   1      42.843  25.437  26.129  1.00  0.00     0.016 A 
ATOM     34  C   UNL A   1      41.297  24.055  27.352  1.00  0.00     0.016 A 
ATOM     35  C   UNL A   1      42.610  26.508  26.992  1.00  0.00     0.010 A 
ATOM     36  C   UNL A   1      41.024  25.141  28.194  1.00  0.00     0.010 A 
ATOM     37  C   UNL A   1      41.700  26.366  28.039  1.00  0.00    -0.014 A 
BRANCH  37  38
ATOM     38  C   UNL A   1      41.504  27.456  29.028  1.00  0.00     0.031 A 
ATOM     39  C   UNL A   1      42.358  27.487  30.263  1.00  0.00     0.074 A 
ATOM     40  C   UNL A   1      40.570  28.406  28.838  1.00  0.00     0.049 A 
ATOM     41  N   UNL A   1      42.186  28.158  31.372  1.00  0.00    -0.248 NA
ATOM     42  C   UNL A   1      43.570  26.652  30.243  1.00  0.00     0.031 C 
ATOM     43  C   UNL A   1      39.749  28.564  27.637  1.00  0.00     0.029 A 
ATOM     44  N   UNL A   1      40.134  29.405  29.675  1.00  0.00    -0.354 N 
ATOM     45  C   UNL A   1      43.236  27.785  32.203  1.00  0.00     0.074 A 
ATOM     46  C   UNL A   1      44.053  26.848  31.462  1.00  0.00     0.031 C 
ATOM     47  C   UNL A   1      38.888  29.578  27.827  1.00  0.00     0.029 A 
ATOM     48  C   UNL A   1      39.042  30.084  29.187  1.00  0.00     0.049 A 
ATOM     49  H   UNL A   1      40.561  29.614  30.537  1.00  0.00     0.167 HD
ATOM     50  C   UNL A   1      43.479  28.180  33.474  1.00  0.00     0.037 A 
ATOM     51  C   UNL A   1      38.213  30.953  29.797  1.00  0.00     0.037 A 
ATOM     52  C   UNL A   1      42.681  29.141  34.188  1.00  0.00     0.049 A 
ATOM     53  C   UNL A   1      38.438  31.296  31.245  1.00  0.00     0.074 A 
ATOM     54  C   UNL A   1      42.858  29.623  35.473  1.00  0.00     0.029 A 
ATOM     55  N   UNL A   1      41.558  29.766  33.674  1.00  0.00    -0.354 N 
ATOM     56  N   UNL A   1      39.398  30.904  32.048  1.00  0.00    -0.248 NA
ATOM     57  C   UNL A   1      37.446  32.176  31.881  1.00  0.00     0.031 C 
ATOM     58  C   UNL A   1      41.812  30.507  35.753  1.00  0.00     0.029 A 
ATOM     59  C   UNL A   1      41.007  30.604  34.629  1.00  0.00     0.049 A 
ATOM     60  H   UNL A   1      41.203  29.634  32.766  1.00  0.00     0.167 HD
ATOM     61  C   UNL A   1      39.131  31.495  33.277  1.00  0.00     0.074 A 
ATOM     62  C   UNL A   1      37.932  32.288  33.110  1.00  0.00     0.031 C 
ATOM     63  C   UNL A   1      39.814  31.386  34.442  1.00  0.00     0.037 A 
BRANCH  50  64
ATOM     64  C   UNL A   1      44.616  27.531  34.200  1.00  0.00     0.057 A 
ATOM     65  C   UNL A   1      45.864  28.150  34.341  1.00  0.00     0.134 A 
ATOM     66  C   UNL A   1      44.434  26.288  34.818  1.00  0.00     0.134 A 
ATOM     67  F   UNL A   1      46.104  29.335  33.760  1.00  0.00    -0.206 F 
ATOM     68  C   UNL A   1      46.895  27.548  35.066  1.00  0.00     0.040 A 
ATOM     69  C   UNL A   1      45.450  25.685  35.560  1.00  0.00     0.040 A 
ATOM     70  F   UNL A   1      43.260  25.645  34.720  1.00  0.00    -0.206 F 
ATOM     71  C   UNL A   1      46.686  26.316  35.686  1.00  0.00     0.006 A 
ENDBRANCH  50  64
BRANCH  51  72
ATOM     72  C   UNL A   1      37.025  31.481  29.077  1.00  0.00     0.057 A 
ATOM     73  C   UNL A   1      36.994  32.790  28.584  1.00  0.00     0.134 A 
ATOM     74  C   UNL A   1      35.875  30.700  28.904  1.00  0.00     0.134 A 
ATOM     75  F   UNL A   1      38.053  33.597  28.747  1.00  0.00    -0.206 F 
ATOM     76  C   UNL A   1      35.859  33.307  27.959  1.00  0.00     0.040 A 
ATOM     77  C   UNL A   1      34.743  31.195  28.256  1.00  0.00     0.040 A 
ATOM     78  F   UNL A   1      35.837  29.439  29.360  1.00  0.00    -0.206 F 
ATOM     79  C   UNL A   1      34.730  32.507  27.789  1.00  0.00     0.006 A 
ENDBRANCH  51  72
BRANCH  63  80
ATOM     80  C   UNL A   1      39.290  32.149  35.620  1.00  0.00     0.057 A 
ATOM     81  C   UNL A   1      39.647  33.484  35.845  1.00  0.00     0.134 A 
ATOM     82  C   UNL A   1      38.377  31.563  36.505  1.00  0.00     0.134 A 
ATOM     83  F   UNL A   1      40.529  34.096  35.041  1.00  0.00    -0.206 F 
ATOM     84  C   UNL A   1      39.123  34.206  36.918  1.00  0.00     0.040 A 
ATOM     85  C   UNL A   1      37.829  32.281  37.567  1.00  0.00     0.040 A 
ATOM     86  F   UNL A   1      37.989  30.289  36.338  1.00  0.00    -0.206 F 
ATOM     87  C   UNL A   1      38.204  33.607  37.777  1.00  0.00     0.006 A 
ENDBRANCH  63  80
ENDBRANCH  37  38
ENDBRANCH  30  32
ENDBRANCH  29  30
ENDBRANCH  28  29
ENDBRANCH  27  28
ENDBRANCH  26  27
ENDBRANCH  25  26
ENDBRANCH   1  25
TORSDOF 21
ENDMDL
MODEL 3
REMARK VINA RESULT:     -10.1      2.953      8.034
REMARK SMILES C[C@](Nc1ncc([N+](=O)[O-])cc1Br)(C(=O)OCCOCCOCCOC(=O)c1ccc(-c2c3nc(c(-c4c(F)cccc4F)c4ccc([nH]4)c(-c4c(F)cccc4F)c4nc(c(-c5c(F)cccc5F)c5ccc2[nH]5)C=C4)C=C3)cc1)C1CC1
REMARK SMILES IDX 20 1 19 2 18 3 17 4 16 5 14 6 15 7 2 8 1 9 82 10 83 11 84 12
REMARK SMILES IDX 3 13 4 15 5 16 12 17 6 18 11 19 13 20 7 21 8 22 9 23 10 24
REMARK SMILES IDX 21 25 22 26 23 27 24 28 25 29 26 30 27 31 28 32 29 33 81 34
REMARK SMILES IDX 30 35 80 36 31 37 32 38 33 39 74 40 34 41 79 42 73 43 75 44
REMARK SMILES IDX 35 45 78 46 72 47 71 48 36 50 62 51 45 52 61 53 46 54 49 55
REMARK SMILES IDX 60 56 76 57 47 58 48 59 59 61 77 62 50 63 37 64 38 65 43 66
REMARK SMILES IDX 39 67 40 68 42 69 44 70 41 71 63 72 64 73 69 74 65 75 66 76
REMARK SMILES IDX 68 77 70 78 67 79 51 80 52 81 57 82 53 83 54 84 56 85 58 86
REMARK SMILES IDX 55 87
REMARK H PARENT 3 14 75 49 49 60
REMARK Flexibility Score: inf
ROOT
ATOM      1  C   UNL A   1      33.882  29.516  26.854  1.00  0.00     0.188 C 
ENDROOT
BRANCH   1   2
ATOM      2  O   UNL A   1      34.199  28.141  26.697  1.00  0.00    -0.376 OA
BRANCH   2   3
ATOM      3  C   UNL A   1      33.680  27.513  25.534  1.00  0.00     0.202 C 
BRANCH   3   4
ATOM      4  C   UNL A   1      33.423  26.007  25.677  1.00  0.00     0.261 C 
BRANCH   4   5
ATOM      5  O   UNL A   1      34.596  25.170  25.560  1.00  0.00    -0.461 OA
BRANCH   5   6
ATOM      6  C   UNL A   1      34.747  24.495  24.383  1.00  0.00     0.331 C 
ATOM      7  O   UNL A   1      34.180  24.844  23.352  1.00  0.00    -0.249 OA
BRANCH   6   8
ATOM      8  C   UNL A   1      35.601  23.189  24.541  1.00  0.00     0.137 C 
ATOM      9  C   UNL A   1      36.453  23.196  23.257  1.00  0.00     0.047 C 
BRANCH   8  10
ATOM     10  C   UNL A   1      36.507  23.187  25.784  1.00  0.00     0.026 C 
ATOM     11  C   UNL A   1      37.844  22.499  25.918  1.00  0.00     0.007 C 
ATOM     12  C   UNL A   1      37.781  24.002  25.854  1.00  0.00     0.007 C 
ENDBRANCH   8  10
BRANCH   8  13
ATOM     13  N   UNL A   1      34.743  21.954  24.599  1.00  0.00    -0.354 N 
ATOM     14  H   UNL A   1      35.067  21.096  24.240  1.00  0.00     0.163 HD
BRANCH  13  15
ATOM     15  C   UNL A   1      33.476  22.058  25.176  1.00  0.00     0.141 A 
ATOM     16  N   UNL A   1      33.415  22.213  26.516  1.00  0.00    -0.231 NA
ATOM     17  C   UNL A   1      32.314  22.185  24.401  1.00  0.00     0.067 A 
ATOM     18  C   UNL A   1      32.272  22.687  27.068  1.00  0.00     0.199 A 
ATOM     19  C   UNL A   1      31.167  22.753  24.956  1.00  0.00     0.106 A 
ATOM     20  Br  UNL A   1      32.200  21.610  22.618  1.00  0.00    -0.047 Br
ATOM     21  C   UNL A   1      31.173  23.040  26.313  1.00  0.00     0.288 A 
BRANCH  21  22
ATOM     22  N   UNL A   1      30.066  23.737  26.933  1.00  0.00     0.064 N 
ATOM     23  O   UNL A   1      29.883  24.916  26.609  1.00  0.00    -0.258 OA
ATOM     24  O   UNL A   1      29.368  23.095  27.727  1.00  0.00    -0.258 OA
ENDBRANCH  21  22
ENDBRANCH  13  15
ENDBRANCH   8  13
ENDBRANCH   6   8
ENDBRANCH   5   6
ENDBRANCH   4   5
ENDBRANCH   3   4
ENDBRANCH   2   3
ENDBRANCH   1   2
BRANCH   1  25
ATOM     25  C   UNL A   1      32.366  29.790  26.908  1.00  0.00     0.188 C 
BRANCH  25  26
ATOM     26  O   UNL A   1      31.861  30.863  26.123  1.00  0.00    -0.376 OA
BRANCH  26  27
ATOM     27  C   UNL A   1      31.422  32.023  26.830  1.00  0.00     0.202 C 
BRANCH  27  28
ATOM     28  C   UNL A   1      32.395  33.208  26.839  1.00  0.00     0.261 C 
BRANCH  28  29
ATOM     29  O   UNL A   1      32.240  34.013  28.026  1.00  0.00    -0.460 OA
BRANCH  29  30
ATOM     30  C   UNL A   1      33.347  34.668  28.431  1.00  0.00     0.338 C 
ATOM     31  O   UNL A   1      33.488  35.885  28.526  1.00  0.00    -0.246 OA
BRANCH  30  32
ATOM     32  C   UNL A   1      34.409  33.715  28.802  1.00  0.00     0.060 A 
ATOM     33  C   UNL A   1      34.075  32.454  29.301  1.00  0.00     0.016 A 
ATOM     34  C   UNL A   1      35.742  34.117  28.801  1.00  0.00     0.016 A 
ATOM     35  C   UNL A   1      35.042  31.611  29.848  1.00  0.00     0.010 A 
ATOM     36  C   UNL A   1      36.724  33.256  29.306  1.00  0.00     0.010 A 
ATOM     37  C   UNL A   1      36.378  32.008  29.861  1.00  0.00    -0.014 A 
BRANCH  37  38
ATOM     38  C   UNL A   1      37.413  31.174  30.521  1.00  0.00     0.031 A 
ATOM     39  C   UNL A   1      37.747  31.425  31.964  1.00  0.00     0.074 A 
ATOM     40  C   UNL A   1      38.060  30.206  29.845  1.00  0.00     0.049 A 
ATOM     41  N   UNL A   1      38.781  31.025  32.657  1.00  0.00    -0.248 NA
ATOM     42  C   UNL A   1      36.782  32.233  32.728  1.00  0.00     0.031 C 
ATOM     43  C   UNL A   1      37.761  29.779  28.478  1.00  0.00     0.029 A 
ATOM     44  N   UNL A   1      39.128  29.425  30.215  1.00  0.00    -0.354 N 
ATOM     45  C   UNL A   1      38.621  31.578  33.922  1.00  0.00     0.074 A 
ATOM     46  C   UNL A   1      37.379  32.320  33.909  1.00  0.00     0.031 C 
ATOM     47  C   UNL A   1      38.646  28.835  28.113  1.00  0.00     0.029 A 
ATOM     48  C   UNL A   1      39.618  28.654  29.187  1.00  0.00     0.049 A 
ATOM     49  H   UNL A   1      39.505  29.419  31.124  1.00  0.00     0.167 HD
ATOM     50  C   UNL A   1      39.450  31.484  34.987  1.00  0.00     0.037 A 
ATOM     51  C   UNL A   1      40.761  27.948  29.095  1.00  0.00     0.037 A 
ATOM     52  C   UNL A   1      40.664  30.712  35.001  1.00  0.00     0.049 A 
ATOM     53  C   UNL A   1      41.721  27.944  30.255  1.00  0.00     0.074 A 
ATOM     54  C   UNL A   1      41.562  30.536  36.039  1.00  0.00     0.029 A 
ATOM     55  N   UNL A   1      41.146  29.987  33.924  1.00  0.00    -0.354 N 
ATOM     56  N   UNL A   1      41.599  28.509  31.431  1.00  0.00    -0.248 NA
ATOM     57  C   UNL A   1      42.994  27.233  30.061  1.00  0.00     0.031 C 
ATOM     58  C   UNL A   1      42.613  29.740  35.575  1.00  0.00     0.029 A 
ATOM     59  C   UNL A   1      42.350  29.390  34.260  1.00  0.00     0.049 A 
ATOM     60  H   UNL A   1      40.700  29.908  33.051  1.00  0.00     0.167 HD
ATOM     61  C   UNL A   1      42.769  28.215  32.119  1.00  0.00     0.074 A 
ATOM     62  C   UNL A   1      43.582  27.406  31.237  1.00  0.00     0.031 C 
ATOM     63  C   UNL A   1      43.142  28.587  33.368  1.00  0.00     0.037 A 
BRANCH  50  64
ATOM     64  C   UNL A   1      39.109  32.281  36.208  1.00  0.00     0.057 A 
ATOM     65  C   UNL A   1      38.239  31.802  37.195  1.00  0.00     0.134 A 
ATOM     66  C   UNL A   1      39.712  33.527  36.422  1.00  0.00     0.134 A 
ATOM     67  F   UNL A   1      37.621  30.622  37.041  1.00  0.00    -0.206 F 
ATOM     68  C   UNL A   1      37.976  32.541  38.350  1.00  0.00     0.040 A 
ATOM     69  C   UNL A   1      39.470  34.266  37.580  1.00  0.00     0.040 A 
ATOM     70  F   UNL A   1      40.556  34.039  35.513  1.00  0.00    -0.206 F 
ATOM     71  C   UNL A   1      38.598  33.773  38.549  1.00  0.00     0.006 A 
ENDBRANCH  50  64
BRANCH  51  72
ATOM     72  C   UNL A   1      41.120  27.269  27.822  1.00  0.00     0.057 A 
ATOM     73  C   UNL A   1      40.836  25.916  27.612  1.00  0.00     0.134 A 
ATOM     74  C   UNL A   1      41.795  27.952  26.802  1.00  0.00     0.134 A 
ATOM     75  F   UNL A   1      40.218  25.201  28.565  1.00  0.00    -0.206 F 
ATOM     76  C   UNL A   1      41.223  25.262  26.442  1.00  0.00     0.040 A 
ATOM     77  C   UNL A   1      42.163  27.318  25.615  1.00  0.00     0.040 A 
ATOM     78  F   UNL A   1      42.105  29.249  26.944  1.00  0.00    -0.206 F 
ATOM     79  C   UNL A   1      41.885  25.965  25.437  1.00  0.00     0.006 A 
ENDBRANCH  51  72
BRANCH  63  80
ATOM     80  C   UNL A   1      44.476  28.113  33.857  1.00  0.00     0.057 A 
ATOM     81  C   UNL A   1      45.627  28.900  33.724  1.00  0.00     0.134 A 
ATOM     82  C   UNL A   1      44.603  26.884  34.515  1.00  0.00     0.134 A 
ATOM     83  F   UNL A   1      45.573  30.081  33.090  1.00  0.00    -0.206 F 
ATOM     84  C   UNL A   1      46.859  28.475  34.220  1.00  0.00     0.040 A 
ATOM     85  C   UNL A   1      45.825  26.459  35.035  1.00  0.00     0.040 A 
ATOM     86  F   UNL A   1      43.535  26.088  34.681  1.00  0.00    -0.206 F 
ATOM     87  C   UNL A   1      46.959  27.255  34.886  1.00  0.00     0.006 A 
ENDBRANCH  63  80
ENDBRANCH  37  38
ENDBRANCH  30  32
ENDBRANCH  29  30
ENDBRANCH  28  29
ENDBRANCH  27  28
ENDBRANCH  26  27
ENDBRANCH  25  26
ENDBRANCH   1  25
TORSDOF 21
ENDMDL
