MODEL 1
REMARK VINA RESULT:     -11.7      0.000      0.000
REMARK SMILES CC(=O)Nc1cccc(-c2cc(F)ccc2C(=O)OCCOCCOCCOC(=O)c2ccc(-c3c4nc(c(-c5c(F)cccc5F)c5ccc([nH]5)c(-c5c(F)cccc5F)c5nc(c(-c6c(F)cccc6F)c6ccc3[nH]6)C=C5)C=C4)cc2)c1
REMARK SMILES IDX 23 1 22 2 21 3 20 4 19 5 17 6 18 7 16 8 10 9 11 10 12 11
REMARK SMILES IDX 15 12 13 13 14 14 9 15 5 16 6 17 85 18 7 19 8 20 4 21 1 22
REMARK SMILES IDX 2 23 3 24 24 26 25 27 26 28 27 29 28 30 29 31 30 32 31 33
REMARK SMILES IDX 32 34 84 35 33 36 83 37 34 38 35 39 36 40 77 41 37 42 82 43
REMARK SMILES IDX 76 44 78 45 38 46 81 47 75 48 74 49 39 51 65 52 48 53 64 54
REMARK SMILES IDX 49 55 52 56 63 57 79 58 50 59 51 60 62 62 80 63 53 64 40 65
REMARK SMILES IDX 41 66 46 67 42 68 43 69 45 70 47 71 44 72 66 73 67 74 72 75
REMARK SMILES IDX 68 76 69 77 71 78 73 79 70 80 54 81 55 82 60 83 56 84 57 85
REMARK SMILES IDX 59 86 61 87 58 88
REMARK H PARENT 4 25 78 50 52 61
REMARK Flexibility Score: inf
ROOT
ATOM      1  C   UNL A   1      40.440  21.201  26.739  1.00  0.00     0.188 C 
ENDROOT
BRANCH   1   2
ATOM      2  O   UNL A   1      39.683  22.019  25.866  1.00  0.00    -0.376 OA
BRANCH   2   3
ATOM      3  C   UNL A   1      38.266  21.898  25.840  1.00  0.00     0.202 C 
BRANCH   3   4
ATOM      4  C   UNL A   1      37.502  21.783  24.515  1.00  0.00     0.261 C 
BRANCH   4   5
ATOM      5  O   UNL A   1      36.133  22.202  24.604  1.00  0.00    -0.460 OA
BRANCH   5   6
ATOM      6  C   UNL A   1      35.233  21.259  24.966  1.00  0.00     0.338 C 
ATOM      7  O   UNL A   1      35.440  20.060  25.051  1.00  0.00    -0.246 OA
BRANCH   6   8
ATOM      8  C   UNL A   1      33.948  21.870  25.415  1.00  0.00     0.068 A 
ATOM      9  C   UNL A   1      32.657  21.300  25.239  1.00  0.00    -0.001 A 
ATOM     10  C   UNL A   1      31.564  22.005  25.785  1.00  0.00     0.048 A 
ATOM     11  C   UNL A   1      31.737  23.235  26.415  1.00  0.00     0.123 A 
ATOM     12  C   UNL A   1      34.097  23.124  26.044  1.00  0.00     0.019 A 
ATOM     13  F   UNL A   1      30.670  23.878  26.907  1.00  0.00    -0.207 F 
ATOM     14  C   UNL A   1      32.991  23.811  26.530  1.00  0.00     0.040 A 
BRANCH   9  15
ATOM     15  C   UNL A   1      32.402  20.064  24.462  1.00  0.00    -0.015 A 
ATOM     16  C   UNL A   1      32.361  17.622  24.379  1.00  0.00     0.041 A 
ATOM     17  C   UNL A   1      32.369  17.677  22.982  1.00  0.00     0.026 A 
ATOM     18  C   UNL A   1      32.307  18.815  25.097  1.00  0.00     0.034 A 
ATOM     19  C   UNL A   1      32.340  18.905  22.321  1.00  0.00     0.003 A 
ATOM     20  C   UNL A   1      32.375  20.088  23.056  1.00  0.00     0.009 A 
BRANCH  16  21
ATOM     21  N   UNL A   1      32.557  16.361  24.970  1.00  0.00    -0.326 N 
ATOM     22  C   UNL A   1      35.047  16.189  25.121  1.00  0.00     0.114 C 
ATOM     23  C   UNL A   1      33.668  15.594  25.169  1.00  0.00     0.221 C 
ATOM     24  O   UNL A   1      33.515  14.398  25.430  1.00  0.00    -0.275 OA
ATOM     25  H   UNL A   1      31.729  15.950  25.308  1.00  0.00     0.169 HD
ENDBRANCH  16  21
ENDBRANCH   9  15
ENDBRANCH   6   8
ENDBRANCH   5   6
ENDBRANCH   4   5
ENDBRANCH   3   4
ENDBRANCH   2   3
ENDBRANCH   1   2
BRANCH   1  26
ATOM     26  C   UNL A   1      40.865  19.784  26.298  1.00  0.00     0.188 C 
BRANCH  26  27
ATOM     27  O   UNL A   1      41.955  19.629  25.423  1.00  0.00    -0.376 OA
BRANCH  27  28
ATOM     28  C   UNL A   1      43.261  20.012  25.814  1.00  0.00     0.202 C 
BRANCH  28  29
ATOM     29  C   UNL A   1      43.981  21.308  25.393  1.00  0.00     0.261 C 
BRANCH  29  30
ATOM     30  O   UNL A   1      43.883  22.443  26.255  1.00  0.00    -0.460 OA
BRANCH  30  31
ATOM     31  C   UNL A   1      43.949  23.650  25.637  1.00  0.00     0.338 C 
ATOM     32  O   UNL A   1      44.322  23.883  24.504  1.00  0.00    -0.246 OA
BRANCH  31  33
ATOM     33  C   UNL A   1      43.295  24.656  26.497  1.00  0.00     0.060 A 
ATOM     34  C   UNL A   1      43.802  25.963  26.509  1.00  0.00     0.016 A 
ATOM     35  C   UNL A   1      42.209  24.307  27.298  1.00  0.00     0.016 A 
ATOM     36  C   UNL A   1      43.230  26.926  27.338  1.00  0.00     0.010 A 
ATOM     37  C   UNL A   1      41.654  25.266  28.149  1.00  0.00     0.010 A 
ATOM     38  C   UNL A   1      42.178  26.573  28.192  1.00  0.00    -0.014 A 
BRANCH  38  39
ATOM     39  C   UNL A   1      41.745  27.507  29.257  1.00  0.00     0.031 A 
ATOM     40  C   UNL A   1      42.476  27.484  30.571  1.00  0.00     0.074 A 
ATOM     41  C   UNL A   1      40.728  28.365  29.066  1.00  0.00     0.049 A 
ATOM     42  N   UNL A   1      42.232  28.149  31.670  1.00  0.00    -0.248 NA
ATOM     43  C   UNL A   1      43.637  26.583  30.654  1.00  0.00     0.031 C 
ATOM     44  C   UNL A   1      39.969  28.517  27.826  1.00  0.00     0.029 A 
ATOM     45  N   UNL A   1      40.150  29.263  29.928  1.00  0.00    -0.354 N 
ATOM     46  C   UNL A   1      43.201  27.739  32.579  1.00  0.00     0.074 A 
ATOM     47  C   UNL A   1      44.018  26.749  31.911  1.00  0.00     0.031 C 
ATOM     48  C   UNL A   1      39.011  29.441  28.015  1.00  0.00     0.029 A 
ATOM     49  C   UNL A   1      39.067  29.919  29.396  1.00  0.00     0.049 A 
ATOM     50  H   UNL A   1      40.481  29.423  30.842  1.00  0.00     0.167 HD
ATOM     51  C   UNL A   1      43.397  28.156  33.851  1.00  0.00     0.037 A 
ATOM     52  C   UNL A   1      38.205  30.781  29.969  1.00  0.00     0.037 A 
ATOM     53  C   UNL A   1      42.579  29.136  34.516  1.00  0.00     0.049 A 
ATOM     54  C   UNL A   1      38.391  31.166  31.415  1.00  0.00     0.074 A 
ATOM     55  C   UNL A   1      42.706  29.636  35.801  1.00  0.00     0.029 A 
ATOM     56  N   UNL A   1      41.473  29.755  33.953  1.00  0.00    -0.354 N 
ATOM     57  N   UNL A   1      39.325  30.796  32.259  1.00  0.00    -0.248 NA
ATOM     58  C   UNL A   1      37.402  32.091  31.989  1.00  0.00     0.031 C 
ATOM     59  C   UNL A   1      41.643  30.515  36.035  1.00  0.00     0.029 A 
ATOM     60  C   UNL A   1      40.892  30.611  34.875  1.00  0.00     0.049 A 
ATOM     61  H   UNL A   1      41.150  29.609  33.035  1.00  0.00     0.167 HD
ATOM     62  C   UNL A   1      39.056  31.467  33.447  1.00  0.00     0.074 A 
ATOM     63  C   UNL A   1      37.878  32.276  33.211  1.00  0.00     0.031 C 
ATOM     64  C   UNL A   1      39.725  31.420  34.625  1.00  0.00     0.037 A 
BRANCH  51  65
ATOM     65  C   UNL A   1      44.523  27.527  34.619  1.00  0.00     0.057 A 
ATOM     66  C   UNL A   1      44.349  26.351  35.360  1.00  0.00     0.134 A 
ATOM     67  C   UNL A   1      45.804  28.092  34.596  1.00  0.00     0.134 A 
ATOM     68  F   UNL A   1      43.144  25.767  35.439  1.00  0.00    -0.206 F 
ATOM     69  C   UNL A   1      45.404  25.774  36.070  1.00  0.00     0.040 A 
ATOM     70  C   UNL A   1      46.873  27.507  35.277  1.00  0.00     0.040 A 
ATOM     71  F   UNL A   1      46.041  29.217  33.903  1.00  0.00    -0.206 F 
ATOM     72  C   UNL A   1      46.673  26.348  36.022  1.00  0.00     0.006 A 
ENDBRANCH  51  65
BRANCH  52  73
ATOM     73  C   UNL A   1      37.068  31.331  29.187  1.00  0.00     0.057 A 
ATOM     74  C   UNL A   1      37.088  32.643  28.700  1.00  0.00     0.134 A 
ATOM     75  C   UNL A   1      35.919  30.570  28.936  1.00  0.00     0.134 A 
ATOM     76  F   UNL A   1      38.149  33.432  28.931  1.00  0.00    -0.206 F 
ATOM     77  C   UNL A   1      36.001  33.186  28.012  1.00  0.00     0.040 A 
ATOM     78  C   UNL A   1      34.837  31.090  28.224  1.00  0.00     0.040 A 
ATOM     79  F   UNL A   1      35.833  29.306  29.376  1.00  0.00    -0.206 F 
ATOM     80  C   UNL A   1      34.874  32.406  27.767  1.00  0.00     0.006 A 
ENDBRANCH  52  73
BRANCH  64  81
ATOM     81  C   UNL A   1      39.234  32.301  35.739  1.00  0.00     0.057 A 
ATOM     82  C   UNL A   1      38.353  31.837  36.723  1.00  0.00     0.134 A 
ATOM     83  C   UNL A   1      39.688  33.623  35.852  1.00  0.00     0.134 A 
ATOM     84  F   UNL A   1      37.870  30.586  36.670  1.00  0.00    -0.206 F 
ATOM     85  C   UNL A   1      37.921  32.661  37.766  1.00  0.00     0.040 A 
ATOM     86  C   UNL A   1      39.289  34.446  36.906  1.00  0.00     0.040 A 
ATOM     87  F   UNL A   1      40.543  34.129  34.951  1.00  0.00    -0.206 F 
ATOM     88  C   UNL A   1      38.397  33.968  37.863  1.00  0.00     0.006 A 
ENDBRANCH  64  81
ENDBRANCH  38  39
ENDBRANCH  31  33
ENDBRANCH  30  31
ENDBRANCH  29  30
ENDBRANCH  28  29
ENDBRANCH  27  28
ENDBRANCH  26  27
ENDBRANCH   1  26
TORSDOF 19
ENDMDL
MODEL 2
REMARK VINA RESULT:     -11.3      5.022      9.985
REMARK SMILES CC(=O)Nc1cccc(-c2cc(F)ccc2C(=O)OCCOCCOCCOC(=O)c2ccc(-c3c4nc(c(-c5c(F)cccc5F)c5ccc([nH]5)c(-c5c(F)cccc5F)c5nc(c(-c6c(F)cccc6F)c6ccc3[nH]6)C=C5)C=C4)cc2)c1
REMARK SMILES IDX 23 1 22 2 21 3 20 4 19 5 17 6 18 7 16 8 10 9 11 10 12 11
REMARK SMILES IDX 15 12 13 13 14 14 9 15 5 16 6 17 85 18 7 19 8 20 4 21 1 22
REMARK SMILES IDX 2 23 3 24 24 26 25 27 26 28 27 29 28 30 29 31 30 32 31 33
REMARK SMILES IDX 32 34 84 35 33 36 83 37 34 38 35 39 36 40 77 41 37 42 82 43
REMARK SMILES IDX 76 44 78 45 38 46 81 47 75 48 74 49 39 51 65 52 48 53 64 54
REMARK SMILES IDX 49 55 52 56 63 57 79 58 50 59 51 60 62 62 80 63 53 64 40 65
REMARK SMILES IDX 41 66 46 67 42 68 43 69 45 70 47 71 44 72 66 73 67 74 72 75
REMARK SMILES IDX 68 76 69 77 71 78 73 79 70 80 54 81 55 82 60 83 56 84 57 85
REMARK SMILES IDX 59 86 61 87 58 88
REMARK H PARENT 4 25 78 50 52 61
REMARK Flexibility Score: inf
ROOT
ATOM      1  C   UNL A   1      33.646  33.131  27.705  1.00  0.00     0.188 C 
ENDROOT
BRANCH   1   2
ATOM      2  O   UNL A   1      34.035  31.884  28.250  1.00  0.00    -0.376 OA
BRANCH   2   3
ATOM      3  C   UNL A   1      34.545  30.870  27.393  1.00  0.00     0.202 C 
BRANCH   3   4
ATOM      4  C   UNL A   1      35.136  29.573  27.960  1.00  0.00     0.261 C 
BRANCH   4   5
ATOM      5  O   UNL A   1      35.019  28.453  27.071  1.00  0.00    -0.460 OA
BRANCH   5   6
ATOM      6  C   UNL A   1      33.764  28.065  26.748  1.00  0.00     0.338 C 
ATOM      7  O   UNL A   1      32.779  28.143  27.463  1.00  0.00    -0.246 OA
BRANCH   6   8
ATOM      8  C   UNL A   1      33.668  27.650  25.318  1.00  0.00     0.068 A 
ATOM      9  C   UNL A   1      33.505  26.316  24.854  1.00  0.00    -0.001 A 
ATOM     10  C   UNL A   1      33.377  26.131  23.461  1.00  0.00     0.048 A 
ATOM     11  C   UNL A   1      33.469  27.204  22.577  1.00  0.00     0.123 A 
ATOM     12  C   UNL A   1      33.774  28.719  24.403  1.00  0.00     0.019 A 
ATOM     13  F   UNL A   1      33.357  26.983  21.261  1.00  0.00    -0.207 F 
ATOM     14  C   UNL A   1      33.689  28.493  23.034  1.00  0.00     0.040 A 
BRANCH   9  15
ATOM     15  C   UNL A   1      33.534  25.128  25.739  1.00  0.00    -0.015 A 
ATOM     16  C   UNL A   1      34.630  23.046  26.403  1.00  0.00     0.041 A 
ATOM     17  C   UNL A   1      33.457  22.644  27.049  1.00  0.00     0.026 A 
ATOM     18  C   UNL A   1      34.674  24.311  25.818  1.00  0.00     0.034 A 
ATOM     19  C   UNL A   1      32.347  23.488  27.092  1.00  0.00     0.003 A 
ATOM     20  C   UNL A   1      32.380  24.711  26.426  1.00  0.00     0.009 A 
BRANCH  16  21
ATOM     21  N   UNL A   1      35.644  22.082  26.260  1.00  0.00    -0.326 N 
ATOM     22  C   UNL A   1      36.652  22.649  24.044  1.00  0.00     0.114 C 
ATOM     23  C   UNL A   1      36.444  21.729  25.214  1.00  0.00     0.221 C 
ATOM     24  O   UNL A   1      37.031  20.644  25.265  1.00  0.00    -0.275 OA
ATOM     25  H   UNL A   1      35.809  21.559  27.077  1.00  0.00     0.169 HD
ENDBRANCH  16  21
ENDBRANCH   9  15
ENDBRANCH   6   8
ENDBRANCH   5   6
ENDBRANCH   4   5
ENDBRANCH   3   4
ENDBRANCH   2   3
ENDBRANCH   1   2
BRANCH   1  26
ATOM     26  C   UNL A   1      33.745  34.414  28.559  1.00  0.00     0.188 C 
BRANCH  26  27
ATOM     27  O   UNL A   1      33.152  34.445  29.833  1.00  0.00    -0.376 OA
BRANCH  27  28
ATOM     28  C   UNL A   1      33.793  35.093  30.917  1.00  0.00     0.202 C 
BRANCH  28  29
ATOM     29  C   UNL A   1      34.807  34.443  31.879  1.00  0.00     0.261 C 
BRANCH  29  30
ATOM     30  O   UNL A   1      35.064  33.044  31.743  1.00  0.00    -0.460 OA
BRANCH  30  31
ATOM     31  C   UNL A   1      35.920  32.518  32.657  1.00  0.00     0.338 C 
ATOM     32  O   UNL A   1      35.800  32.512  33.866  1.00  0.00    -0.246 OA
BRANCH  31  33
ATOM     33  C   UNL A   1      36.959  31.752  31.941  1.00  0.00     0.060 A 
ATOM     34  C   UNL A   1      37.867  30.988  32.689  1.00  0.00     0.016 A 
ATOM     35  C   UNL A   1      37.049  31.804  30.551  1.00  0.00     0.016 A 
ATOM     36  C   UNL A   1      38.881  30.283  32.045  1.00  0.00     0.010 A 
ATOM     37  C   UNL A   1      38.084  31.119  29.909  1.00  0.00     0.010 A 
ATOM     38  C   UNL A   1      39.020  30.376  30.655  1.00  0.00    -0.014 A 
BRANCH  38  39
ATOM     39  C   UNL A   1      40.240  29.854  29.997  1.00  0.00     0.031 A 
ATOM     40  C   UNL A   1      41.401  30.789  29.795  1.00  0.00     0.074 A 
ATOM     41  C   UNL A   1      40.325  28.575  29.591  1.00  0.00     0.049 A 
ATOM     42  N   UNL A   1      42.537  30.584  29.180  1.00  0.00    -0.248 NA
ATOM     43  C   UNL A   1      41.255  32.141  30.360  1.00  0.00     0.031 C 
ATOM     44  C   UNL A   1      39.290  27.560  29.768  1.00  0.00     0.029 A 
ATOM     45  N   UNL A   1      41.333  27.920  28.928  1.00  0.00    -0.354 N 
ATOM     46  C   UNL A   1      43.236  31.782  29.275  1.00  0.00     0.074 A 
ATOM     47  C   UNL A   1      42.385  32.715  29.981  1.00  0.00     0.031 C 
ATOM     48  C   UNL A   1      39.709  26.411  29.209  1.00  0.00     0.029 A 
ATOM     49  C   UNL A   1      41.025  26.621  28.605  1.00  0.00     0.049 A 
ATOM     50  H   UNL A   1      42.195  28.340  28.705  1.00  0.00     0.167 HD
ATOM     51  C   UNL A   1      44.477  32.075  28.822  1.00  0.00     0.037 A 
ATOM     52  C   UNL A   1      41.714  25.718  27.881  1.00  0.00     0.037 A 
ATOM     53  C   UNL A   1      45.319  31.147  28.113  1.00  0.00     0.049 A 
ATOM     54  C   UNL A   1      43.059  26.094  27.311  1.00  0.00     0.074 A 
ATOM     55  C   UNL A   1      46.599  31.344  27.626  1.00  0.00     0.029 A 
ATOM     56  N   UNL A   1      44.959  29.850  27.780  1.00  0.00    -0.354 N 
ATOM     57  N   UNL A   1      43.724  27.219  27.427  1.00  0.00    -0.248 NA
ATOM     58  C   UNL A   1      43.749  25.074  26.508  1.00  0.00     0.031 C 
ATOM     59  C   UNL A   1      46.992  30.186  26.947  1.00  0.00     0.029 A 
ATOM     60  C   UNL A   1      45.982  29.245  27.067  1.00  0.00     0.049 A 
ATOM     61  H   UNL A   1      44.105  29.422  28.015  1.00  0.00     0.167 HD
ATOM     62  C   UNL A   1      44.921  27.029  26.744  1.00  0.00     0.074 A 
ATOM     63  C   UNL A   1      44.895  25.677  26.227  1.00  0.00     0.031 C 
ATOM     64  C   UNL A   1      45.949  27.894  26.565  1.00  0.00     0.037 A 
BRANCH  51  65
ATOM     65  C   UNL A   1      44.985  33.468  29.050  1.00  0.00     0.057 A 
ATOM     66  C   UNL A   1      44.730  34.508  28.147  1.00  0.00     0.134 A 
ATOM     67  C   UNL A   1      45.718  33.779  30.202  1.00  0.00     0.134 A 
ATOM     68  F   UNL A   1      44.048  34.276  27.014  1.00  0.00    -0.206 F 
ATOM     69  C   UNL A   1      45.207  35.802  28.369  1.00  0.00     0.040 A 
ATOM     70  C   UNL A   1      46.174  35.075  30.451  1.00  0.00     0.040 A 
ATOM     71  F   UNL A   1      45.996  32.831  31.110  1.00  0.00    -0.206 F 
ATOM     72  C   UNL A   1      45.924  36.089  29.529  1.00  0.00     0.006 A 
ENDBRANCH  51  65
BRANCH  52  73
ATOM     73  C   UNL A   1      41.143  24.370  27.628  1.00  0.00     0.057 A 
ATOM     74  C   UNL A   1      41.607  23.244  28.317  1.00  0.00     0.134 A 
ATOM     75  C   UNL A   1      40.144  24.169  26.668  1.00  0.00     0.134 A 
ATOM     76  F   UNL A   1      42.583  23.366  29.230  1.00  0.00    -0.206 F 
ATOM     77  C   UNL A   1      41.116  21.965  28.047  1.00  0.00     0.040 A 
ATOM     78  C   UNL A   1      39.622  22.901  26.408  1.00  0.00     0.040 A 
ATOM     79  F   UNL A   1      39.656  25.206  25.970  1.00  0.00    -0.206 F 
ATOM     80  C   UNL A   1      40.115  21.793  27.093  1.00  0.00     0.006 A 
ENDBRANCH  52  73
BRANCH  64  81
ATOM     81  C   UNL A   1      47.155  27.396  25.819  1.00  0.00     0.057 A 
ATOM     82  C   UNL A   1      48.212  26.742  26.463  1.00  0.00     0.134 A 
ATOM     83  C   UNL A   1      47.234  27.532  24.426  1.00  0.00     0.134 A 
ATOM     84  F   UNL A   1      48.206  26.586  27.796  1.00  0.00    -0.206 F 
ATOM     85  C   UNL A   1      49.317  26.265  25.753  1.00  0.00     0.040 A 
ATOM     86  C   UNL A   1      48.317  27.032  23.702  1.00  0.00     0.040 A 
ATOM     87  F   UNL A   1      46.251  28.138  23.743  1.00  0.00    -0.206 F 
ATOM     88  C   UNL A   1      49.367  26.402  24.367  1.00  0.00     0.006 A 
ENDBRANCH  64  81
ENDBRANCH  38  39
ENDBRANCH  31  33
ENDBRANCH  30  31
ENDBRANCH  29  30
ENDBRANCH  28  29
ENDBRANCH  27  28
ENDBRANCH  26  27
ENDBRANCH   1  26
TORSDOF 19
ENDMDL
MODEL 3
REMARK VINA RESULT:     -11.3      0.710      6.126
REMARK SMILES CC(=O)Nc1cccc(-c2cc(F)ccc2C(=O)OCCOCCOCCOC(=O)c2ccc(-c3c4nc(c(-c5c(F)cccc5F)c5ccc([nH]5)c(-c5c(F)cccc5F)c5nc(c(-c6c(F)cccc6F)c6ccc3[nH]6)C=C5)C=C4)cc2)c1
REMARK SMILES IDX 23 1 22 2 21 3 20 4 19 5 17 6 18 7 16 8 10 9 11 10 12 11
REMARK SMILES IDX 15 12 13 13 14 14 9 15 5 16 6 17 85 18 7 19 8 20 4 21 1 22
REMARK SMILES IDX 2 23 3 24 24 26 25 27 26 28 27 29 28 30 29 31 30 32 31 33
REMARK SMILES IDX 32 34 84 35 33 36 83 37 34 38 35 39 36 40 77 41 37 42 82 43
REMARK SMILES IDX 76 44 78 45 38 46 81 47 75 48 74 49 39 51 65 52 48 53 64 54
REMARK SMILES IDX 49 55 52 56 63 57 79 58 50 59 51 60 62 62 80 63 53 64 40 65
REMARK SMILES IDX 41 66 46 67 42 68 43 69 45 70 47 71 44 72 66 73 67 74 72 75
REMARK SMILES IDX 68 76 69 77 71 78 73 79 70 80 54 81 55 82 60 83 56 84 57 85
REMARK SMILES IDX 59 86 61 87 58 88
REMARK H PARENT 4 25 78 50 52 61
REMARK Flexibility Score: inf
ROOT
ATOM      1  C   UNL A   1      40.169  21.766  26.791  1.00  0.00     0.188 C 
ENDROOT
BRANCH   1   2
ATOM      2  O   UNL A   1      39.399  22.929  26.551  1.00  0.00    -0.376 OA
BRANCH   2   3
ATOM      3  C   UNL A   1      38.071  22.804  26.057  1.00  0.00     0.202 C 
BRANCH   3   4
ATOM      4  C   UNL A   1      37.733  21.824  24.927  1.00  0.00     0.261 C 
BRANCH   4   5
ATOM      5  O   UNL A   1      36.393  21.958  24.432  1.00  0.00    -0.460 OA
BRANCH   5   6
ATOM      6  C   UNL A   1      35.478  21.089  24.920  1.00  0.00     0.338 C 
ATOM      7  O   UNL A   1      35.638  19.891  25.085  1.00  0.00    -0.246 OA
BRANCH   6   8
ATOM      8  C   UNL A   1      34.251  21.792  25.396  1.00  0.00     0.068 A 
ATOM      9  C   UNL A   1      32.920  21.312  25.263  1.00  0.00    -0.001 A 
ATOM     10  C   UNL A   1      31.894  22.097  25.830  1.00  0.00     0.048 A 
ATOM     11  C   UNL A   1      32.169  23.320  26.438  1.00  0.00     0.123 A 
ATOM     12  C   UNL A   1      34.505  23.041  26.003  1.00  0.00     0.019 A 
ATOM     13  F   UNL A   1      31.165  24.041  26.951  1.00  0.00    -0.207 F 
ATOM     14  C   UNL A   1      33.463  23.809  26.510  1.00  0.00     0.040 A 
BRANCH   9  15
ATOM     15  C   UNL A   1      32.558  20.087  24.511  1.00  0.00    -0.015 A 
ATOM     16  C   UNL A   1      32.374  17.651  24.453  1.00  0.00     0.041 A 
ATOM     17  C   UNL A   1      32.318  17.696  23.057  1.00  0.00     0.026 A 
ATOM     18  C   UNL A   1      32.423  18.850  25.162  1.00  0.00     0.034 A 
ATOM     19  C   UNL A   1      32.327  18.919  22.387  1.00  0.00     0.003 A 
ATOM     20  C   UNL A   1      32.465  20.104  23.109  1.00  0.00     0.009 A 
BRANCH  16  21
ATOM     21  N   UNL A   1      32.527  16.384  25.047  1.00  0.00    -0.326 N 
ATOM     22  C   UNL A   1      35.008  16.086  25.110  1.00  0.00     0.114 C 
ATOM     23  C   UNL A   1      33.604  15.563  25.211  1.00  0.00     0.221 C 
ATOM     24  O   UNL A   1      33.399  14.378  25.486  1.00  0.00    -0.275 OA
ATOM     25  H   UNL A   1      31.691  16.018  25.416  1.00  0.00     0.169 HD
ENDBRANCH  16  21
ENDBRANCH   9  15
ENDBRANCH   6   8
ENDBRANCH   5   6
ENDBRANCH   4   5
ENDBRANCH   3   4
ENDBRANCH   2   3
ENDBRANCH   1   2
BRANCH   1  26
ATOM     26  C   UNL A   1      41.426  21.479  25.942  1.00  0.00     0.188 C 
BRANCH  26  27
ATOM     27  O   UNL A   1      42.696  21.546  26.540  1.00  0.00    -0.376 OA
BRANCH  27  28
ATOM     28  C   UNL A   1      43.819  22.011  25.813  1.00  0.00     0.202 C 
BRANCH  28  29
ATOM     29  C   UNL A   1      43.767  22.865  24.531  1.00  0.00     0.261 C 
BRANCH  29  30
ATOM     30  O   UNL A   1      43.332  24.221  24.641  1.00  0.00    -0.460 OA
BRANCH  30  31
ATOM     31  C   UNL A   1      44.208  25.065  25.245  1.00  0.00     0.338 C 
ATOM     32  O   UNL A   1      45.347  25.320  24.905  1.00  0.00    -0.246 OA
BRANCH  31  33
ATOM     33  C   UNL A   1      43.493  25.810  26.300  1.00  0.00     0.060 A 
ATOM     34  C   UNL A   1      43.722  27.188  26.425  1.00  0.00     0.016 A 
ATOM     35  C   UNL A   1      42.623  25.152  27.169  1.00  0.00     0.016 A 
ATOM     36  C   UNL A   1      43.089  27.912  27.433  1.00  0.00     0.010 A 
ATOM     37  C   UNL A   1      42.012  25.874  28.197  1.00  0.00     0.010 A 
ATOM     38  C   UNL A   1      42.261  27.251  28.350  1.00  0.00    -0.014 A 
BRANCH  38  39
ATOM     39  C   UNL A   1      41.803  27.953  29.572  1.00  0.00     0.031 A 
ATOM     40  C   UNL A   1      40.574  28.815  29.484  1.00  0.00     0.074 A 
ATOM     41  C   UNL A   1      42.457  27.826  30.740  1.00  0.00     0.049 A 
ATOM     42  N   UNL A   1      40.029  29.581  30.393  1.00  0.00    -0.248 NA
ATOM     43  C   UNL A   1      39.869  28.814  28.192  1.00  0.00     0.031 C 
ATOM     44  C   UNL A   1      43.632  26.988  30.966  1.00  0.00     0.029 A 
ATOM     45  N   UNL A   1      42.226  28.422  31.955  1.00  0.00    -0.354 N 
ATOM     46  C   UNL A   1      38.924  30.162  29.781  1.00  0.00     0.074 A 
ATOM     47  C   UNL A   1      38.894  29.681  28.416  1.00  0.00     0.031 C 
ATOM     48  C   UNL A   1      44.032  27.137  32.241  1.00  0.00     0.029 A 
ATOM     49  C   UNL A   1      43.164  28.107  32.908  1.00  0.00     0.049 A 
ATOM     50  H   UNL A   1      41.461  29.018  32.127  1.00  0.00     0.167 HD
ATOM     51  C   UNL A   1      38.014  31.012  30.310  1.00  0.00     0.037 A 
ATOM     52  C   UNL A   1      43.317  28.573  34.163  1.00  0.00     0.037 A 
ATOM     53  C   UNL A   1      38.051  31.495  31.665  1.00  0.00     0.049 A 
ATOM     54  C   UNL A   1      42.340  29.587  34.704  1.00  0.00     0.074 A 
ATOM     55  C   UNL A   1      37.165  32.348  32.300  1.00  0.00     0.029 A 
ATOM     56  N   UNL A   1      39.032  31.177  32.591  1.00  0.00    -0.354 N 
ATOM     57  N   UNL A   1      41.284  30.110  34.128  1.00  0.00    -0.248 NA
ATOM     58  C   UNL A   1      42.578  30.074  36.070  1.00  0.00     0.031 C 
ATOM     59  C   UNL A   1      37.642  32.592  33.591  1.00  0.00     0.029 A 
ATOM     60  C   UNL A   1      38.790  31.840  33.783  1.00  0.00     0.049 A 
ATOM     61  H   UNL A   1      39.789  30.569  32.426  1.00  0.00     0.167 HD
ATOM     62  C   UNL A   1      40.715  30.958  35.072  1.00  0.00     0.074 A 
ATOM     63  C   UNL A   1      41.536  30.871  36.261  1.00  0.00     0.031 C 
ATOM     64  C   UNL A   1      39.610  31.737  34.964  1.00  0.00     0.037 A 
BRANCH  51  65
ATOM     65  C   UNL A   1      36.919  31.502  29.407  1.00  0.00     0.057 A 
ATOM     66  C   UNL A   1      36.953  32.774  28.822  1.00  0.00     0.134 A 
ATOM     67  C   UNL A   1      35.829  30.678  29.099  1.00  0.00     0.134 A 
ATOM     68  F   UNL A   1      37.960  33.619  29.087  1.00  0.00    -0.206 F 
ATOM     69  C   UNL A   1      35.929  33.218  27.982  1.00  0.00     0.040 A 
ATOM     70  C   UNL A   1      34.815  31.100  28.238  1.00  0.00     0.040 A 
ATOM     71  F   UNL A   1      35.735  29.446  29.623  1.00  0.00    -0.206 F 
ATOM     72  C   UNL A   1      34.861  32.376  27.682  1.00  0.00     0.006 A 
ENDBRANCH  51  65
BRANCH  52  73
ATOM     73  C   UNL A   1      44.453  28.107  34.999  1.00  0.00     0.057 A 
ATOM     74  C   UNL A   1      44.322  27.007  35.855  1.00  0.00     0.134 A 
ATOM     75  C   UNL A   1      45.688  28.768  34.988  1.00  0.00     0.134 A 
ATOM     76  F   UNL A   1      43.156  26.347  35.932  1.00  0.00    -0.206 F 
ATOM     77  C   UNL A   1      45.366  26.595  36.685  1.00  0.00     0.040 A 
ATOM     78  C   UNL A   1      46.750  28.350  35.790  1.00  0.00     0.040 A 
ATOM     79  F   UNL A   1      45.880  29.831  34.192  1.00  0.00    -0.206 F 
ATOM     80  C   UNL A   1      46.587  27.265  36.649  1.00  0.00     0.006 A 
ENDBRANCH  52  73
BRANCH  64  81
ATOM     81  C   UNL A   1      39.192  32.521  36.176  1.00  0.00     0.057 A 
ATOM     82  C   UNL A   1      38.305  32.005  37.129  1.00  0.00     0.134 A 
ATOM     83  C   UNL A   1      39.724  33.797  36.414  1.00  0.00     0.134 A 
ATOM     84  F   UNL A   1      37.750  30.796  36.958  1.00  0.00    -0.206 F 
ATOM     85  C   UNL A   1      37.942  32.738  38.262  1.00  0.00     0.040 A 
ATOM     86  C   UNL A   1      39.394  34.525  37.558  1.00  0.00     0.040 A 
ATOM     87  F   UNL A   1      40.589  34.348  35.549  1.00  0.00    -0.206 F 
ATOM     88  C   UNL A   1      38.495  33.999  38.483  1.00  0.00     0.006 A 
ENDBRANCH  64  81
ENDBRANCH  38  39
ENDBRANCH  31  33
ENDBRANCH  30  31
ENDBRANCH  29  30
ENDBRANCH  28  29
ENDBRANCH  27  28
ENDBRANCH  26  27
ENDBRANCH   1  26
TORSDOF 19
ENDMDL
