MODEL 1
REMARK VINA RESULT:     -10.7      0.000      0.000
REMARK SMILES CCc1ccc(-c2nc(-c3cccc(C(=O)OCCOCCOCCOC(=O)c4ccc(-c5c6nc(c(-c7c(F)cccc7F)c7ccc([nH]7)c(-c7c(F)cccc7F)c7nc(c(-c8c(F)cccc8F)c8ccc5[nH]8)C=C7)C=C6)cc4)c3)no2)o1
REMARK SMILES IDX 21 1 20 2 19 3 18 4 17 5 15 6 16 7 14 8 10 9 11 10 83 11
REMARK SMILES IDX 12 12 13 13 9 14 7 15 8 16 85 17 84 18 6 19 3 20 4 21 86 22
REMARK SMILES IDX 5 23 2 24 1 25 22 26 23 27 24 28 25 29 26 30 27 31 28 32
REMARK SMILES IDX 29 33 30 34 82 35 31 36 81 37 32 38 33 39 34 40 75 41 35 42
REMARK SMILES IDX 80 43 74 44 76 45 36 46 79 47 73 48 72 49 37 51 63 52 46 53
REMARK SMILES IDX 62 54 47 55 50 56 61 57 77 58 48 59 49 60 60 62 78 63 51 64
REMARK SMILES IDX 38 65 39 66 44 67 40 68 41 69 43 70 45 71 42 72 64 73 65 74
REMARK SMILES IDX 70 75 66 76 67 77 69 78 71 79 68 80 52 81 53 82 58 83 54 84
REMARK SMILES IDX 55 85 57 86 59 87 56 88
REMARK H PARENT 76 50 50 61
REMARK Flexibility Score: inf
ROOT
ATOM      1  C   UNL A   1      39.694  22.161  25.975  1.00  0.00     0.188 C 
ENDROOT
BRANCH   1   2
ATOM      2  O   UNL A   1      38.773  22.907  26.747  1.00  0.00    -0.376 OA
BRANCH   2   3
ATOM      3  C   UNL A   1      38.046  23.968  26.146  1.00  0.00     0.202 C 
BRANCH   3   4
ATOM      4  C   UNL A   1      36.836  23.683  25.250  1.00  0.00     0.261 C 
BRANCH   4   5
ATOM      5  O   UNL A   1      35.578  23.756  25.937  1.00  0.00    -0.460 OA
BRANCH   5   6
ATOM      6  C   UNL A   1      34.717  22.736  25.685  1.00  0.00     0.338 C 
ATOM      7  O   UNL A   1      34.717  21.629  26.193  1.00  0.00    -0.246 OA
BRANCH   6   8
ATOM      8  C   UNL A   1      33.609  23.236  24.844  1.00  0.00     0.060 A 
ATOM      9  C   UNL A   1      32.059  24.964  24.157  1.00  0.00     0.024 A 
ATOM     10  C   UNL A   1      31.406  24.038  23.330  1.00  0.00     0.012 A 
ATOM     11  C   UNL A   1      33.160  24.555  24.926  1.00  0.00     0.027 A 
ATOM     12  C   UNL A   1      31.867  22.723  23.242  1.00  0.00     0.002 A 
ATOM     13  C   UNL A   1      32.975  22.325  23.989  1.00  0.00     0.016 A 
BRANCH   9  14
ATOM     14  C   UNL A   1      31.637  26.351  24.197  1.00  0.00     0.202 A 
ATOM     15  C   UNL A   1      30.462  28.049  23.797  1.00  0.00     0.293 A 
ATOM     16  N   UNL A   1      30.486  26.753  23.569  1.00  0.00    -0.184 NA
ATOM     17  O   UNL A   1      31.535  28.471  24.536  1.00  0.00    -0.330 OA
ATOM     18  N   UNL A   1      32.294  27.331  24.833  1.00  0.00    -0.057 NA
BRANCH  15  19
ATOM     19  C   UNL A   1      29.415  28.904  23.332  1.00  0.00     0.192 A 
ATOM     20  C   UNL A   1      28.409  30.717  22.571  1.00  0.00     0.104 A 
ATOM     21  C   UNL A   1      27.467  29.712  22.540  1.00  0.00     0.046 A 
ATOM     22  O   UNL A   1      29.578  30.243  23.087  1.00  0.00    -0.456 OA
ATOM     23  C   UNL A   1      28.116  28.548  23.012  1.00  0.00     0.056 A 
BRANCH  20  24
ATOM     24  C   UNL A   1      28.361  32.136  22.122  1.00  0.00     0.072 C 
ATOM     25  C   UNL A   1      29.021  33.117  23.075  1.00  0.00     0.012 C 
ENDBRANCH  20  24
ENDBRANCH  15  19
ENDBRANCH   9  14
ENDBRANCH   6   8
ENDBRANCH   5   6
ENDBRANCH   4   5
ENDBRANCH   3   4
ENDBRANCH   2   3
ENDBRANCH   1   2
BRANCH   1  26
ATOM     26  C   UNL A   1      39.822  20.633  26.147  1.00  0.00     0.188 C 
BRANCH  26  27
ATOM     27  O   UNL A   1      41.076  19.998  26.037  1.00  0.00    -0.376 OA
BRANCH  27  28
ATOM     28  C   UNL A   1      42.222  20.510  26.693  1.00  0.00     0.202 C 
BRANCH  28  29
ATOM     29  C   UNL A   1      43.397  21.197  25.985  1.00  0.00     0.261 C 
BRANCH  29  30
ATOM     30  O   UNL A   1      43.801  22.466  26.500  1.00  0.00    -0.460 OA
BRANCH  30  31
ATOM     31  C   UNL A   1      43.536  23.518  25.685  1.00  0.00     0.338 C 
ATOM     32  O   UNL A   1      43.653  23.575  24.475  1.00  0.00    -0.246 OA
BRANCH  31  33
ATOM     33  C   UNL A   1      42.926  24.592  26.481  1.00  0.00     0.060 A 
ATOM     34  C   UNL A   1      43.401  25.902  26.326  1.00  0.00     0.016 A 
ATOM     35  C   UNL A   1      41.939  24.291  27.418  1.00  0.00     0.016 A 
ATOM     36  C   UNL A   1      42.898  26.922  27.132  1.00  0.00     0.010 A 
ATOM     37  C   UNL A   1      41.454  25.307  28.239  1.00  0.00     0.010 A 
ATOM     38  C   UNL A   1      41.951  26.619  28.119  1.00  0.00    -0.014 A 
BRANCH  38  39
ATOM     39  C   UNL A   1      41.607  27.607  29.163  1.00  0.00     0.031 A 
ATOM     40  C   UNL A   1      42.360  27.558  30.462  1.00  0.00     0.074 A 
ATOM     41  C   UNL A   1      40.612  28.493  28.985  1.00  0.00     0.049 A 
ATOM     42  N   UNL A   1      42.125  28.184  31.585  1.00  0.00    -0.248 NA
ATOM     43  C   UNL A   1      43.536  26.672  30.497  1.00  0.00     0.031 C 
ATOM     44  C   UNL A   1      39.847  28.672  27.754  1.00  0.00     0.029 A 
ATOM     45  N   UNL A   1      40.059  29.391  29.864  1.00  0.00    -0.354 N 
ATOM     46  C   UNL A   1      43.106  27.751  32.466  1.00  0.00     0.074 A 
ATOM     47  C   UNL A   1      43.933  26.802  31.754  1.00  0.00     0.031 C 
ATOM     48  C   UNL A   1      38.898  29.600  27.965  1.00  0.00     0.029 A 
ATOM     49  C   UNL A   1      38.963  30.044  29.358  1.00  0.00     0.049 A 
ATOM     50  H   UNL A   1      40.413  29.550  30.769  1.00  0.00     0.167 HD
ATOM     51  C   UNL A   1      43.296  28.111  33.757  1.00  0.00     0.037 A 
ATOM     52  C   UNL A   1      38.089  30.870  29.966  1.00  0.00     0.037 A 
ATOM     53  C   UNL A   1      42.465  29.050  34.459  1.00  0.00     0.049 A 
ATOM     54  C   UNL A   1      38.271  31.195  31.427  1.00  0.00     0.074 A 
ATOM     55  C   UNL A   1      42.577  29.488  35.768  1.00  0.00     0.029 A 
ATOM     56  N   UNL A   1      41.363  29.690  33.914  1.00  0.00    -0.354 N 
ATOM     57  N   UNL A   1      39.203  30.790  32.255  1.00  0.00    -0.248 NA
ATOM     58  C   UNL A   1      37.274  32.087  32.040  1.00  0.00     0.031 C 
ATOM     59  C   UNL A   1      41.513  30.357  36.026  1.00  0.00     0.029 A 
ATOM     60  C   UNL A   1      40.774  30.504  34.863  1.00  0.00     0.049 A 
ATOM     61  H   UNL A   1      41.048  29.580  32.987  1.00  0.00     0.167 HD
ATOM     62  C   UNL A   1      38.932  31.409  33.469  1.00  0.00     0.074 A 
ATOM     63  C   UNL A   1      37.744  32.212  33.274  1.00  0.00     0.031 C 
ATOM     64  C   UNL A   1      39.610  31.324  34.640  1.00  0.00     0.037 A 
BRANCH  51  65
ATOM     65  C   UNL A   1      44.423  27.457  34.498  1.00  0.00     0.057 A 
ATOM     66  C   UNL A   1      45.693  28.041  34.582  1.00  0.00     0.134 A 
ATOM     67  C   UNL A   1      44.226  26.239  35.159  1.00  0.00     0.134 A 
ATOM     68  F   UNL A   1      45.952  29.199  33.956  1.00  0.00    -0.206 F 
ATOM     69  C   UNL A   1      46.733  27.424  35.279  1.00  0.00     0.040 A 
ATOM     70  C   UNL A   1      45.249  25.626  35.882  1.00  0.00     0.040 A 
ATOM     71  F   UNL A   1      43.032  25.628  35.120  1.00  0.00    -0.206 F 
ATOM     72  C   UNL A   1      46.510  26.217  35.939  1.00  0.00     0.006 A 
ENDBRANCH  51  65
BRANCH  52  73
ATOM     73  C   UNL A   1      36.942  31.431  29.206  1.00  0.00     0.057 A 
ATOM     74  C   UNL A   1      35.813  30.654  28.921  1.00  0.00     0.134 A 
ATOM     75  C   UNL A   1      36.956  32.747  28.729  1.00  0.00     0.134 A 
ATOM     76  F   UNL A   1      35.752  29.379  29.330  1.00  0.00    -0.206 F 
ATOM     77  C   UNL A   1      34.747  31.159  28.175  1.00  0.00     0.040 A 
ATOM     78  C   UNL A   1      35.886  33.274  28.003  1.00  0.00     0.040 A 
ATOM     79  F   UNL A   1      38.008  33.544  28.967  1.00  0.00    -0.206 F 
ATOM     80  C   UNL A   1      34.780  32.476  27.718  1.00  0.00     0.006 A 
ENDBRANCH  52  73
BRANCH  64  81
ATOM     81  C   UNL A   1      39.141  32.171  35.785  1.00  0.00     0.057 A 
ATOM     82  C   UNL A   1      38.293  31.674  36.781  1.00  0.00     0.134 A 
ATOM     83  C   UNL A   1      39.623  33.478  35.938  1.00  0.00     0.134 A 
ATOM     84  F   UNL A   1      37.789  30.433  36.689  1.00  0.00    -0.206 F 
ATOM     85  C   UNL A   1      37.935  32.449  37.885  1.00  0.00     0.040 A 
ATOM     86  C   UNL A   1      39.292  34.254  37.049  1.00  0.00     0.040 A 
ATOM     87  F   UNL A   1      40.448  34.010  35.023  1.00  0.00    -0.206 F 
ATOM     88  C   UNL A   1      38.445  33.739  38.028  1.00  0.00     0.006 A 
ENDBRANCH  64  81
ENDBRANCH  38  39
ENDBRANCH  31  33
ENDBRANCH  30  31
ENDBRANCH  29  30
ENDBRANCH  28  29
ENDBRANCH  27  28
ENDBRANCH  26  27
ENDBRANCH   1  26
TORSDOF 20
ENDMDL
MODEL 2
REMARK VINA RESULT:     -10.5      4.932     10.696
REMARK SMILES CCc1ccc(-c2nc(-c3cccc(C(=O)OCCOCCOCCOC(=O)c4ccc(-c5c6nc(c(-c7c(F)cccc7F)c7ccc([nH]7)c(-c7c(F)cccc7F)c7nc(c(-c8c(F)cccc8F)c8ccc5[nH]8)C=C7)C=C6)cc4)c3)no2)o1
REMARK SMILES IDX 21 1 20 2 19 3 18 4 17 5 15 6 16 7 14 8 10 9 11 10 83 11
REMARK SMILES IDX 12 12 13 13 9 14 7 15 8 16 85 17 84 18 6 19 3 20 4 21 86 22
REMARK SMILES IDX 5 23 2 24 1 25 22 26 23 27 24 28 25 29 26 30 27 31 28 32
REMARK SMILES IDX 29 33 30 34 82 35 31 36 81 37 32 38 33 39 34 40 75 41 35 42
REMARK SMILES IDX 80 43 74 44 76 45 36 46 79 47 73 48 72 49 37 51 63 52 46 53
REMARK SMILES IDX 62 54 47 55 50 56 61 57 77 58 48 59 49 60 60 62 78 63 51 64
REMARK SMILES IDX 38 65 39 66 44 67 40 68 41 69 43 70 45 71 42 72 64 73 65 74
REMARK SMILES IDX 70 75 66 76 67 77 69 78 71 79 68 80 52 81 53 82 58 83 54 84
REMARK SMILES IDX 55 85 57 86 59 87 56 88
REMARK H PARENT 76 50 50 61
REMARK Flexibility Score: inf
ROOT
ATOM      1  C   UNL A   1      32.877  36.218  31.400  1.00  0.00     0.188 C 
ENDROOT
BRANCH   1   2
ATOM      2  O   UNL A   1      32.815  36.404  29.999  1.00  0.00    -0.376 OA
BRANCH   2   3
ATOM      3  C   UNL A   1      33.277  35.380  29.131  1.00  0.00     0.202 C 
BRANCH   3   4
ATOM      4  C   UNL A   1      34.440  34.470  29.540  1.00  0.00     0.261 C 
BRANCH   4   5
ATOM      5  O   UNL A   1      34.147  33.070  29.429  1.00  0.00    -0.460 OA
BRANCH   5   6
ATOM      6  C   UNL A   1      34.742  32.431  28.388  1.00  0.00     0.338 C 
ATOM      7  O   UNL A   1      35.936  32.298  28.190  1.00  0.00    -0.246 OA
BRANCH   6   8
ATOM      8  C   UNL A   1      33.712  31.706  27.614  1.00  0.00     0.060 A 
ATOM      9  C   UNL A   1      32.971  29.831  26.274  1.00  0.00     0.024 A 
ATOM     10  C   UNL A   1      31.757  30.493  26.035  1.00  0.00     0.012 A 
ATOM     11  C   UNL A   1      33.956  30.449  27.059  1.00  0.00     0.027 A 
ATOM     12  C   UNL A   1      31.511  31.745  26.604  1.00  0.00     0.002 A 
ATOM     13  C   UNL A   1      32.483  32.346  27.402  1.00  0.00     0.016 A 
BRANCH   9  14
ATOM     14  C   UNL A   1      33.205  28.498  25.753  1.00  0.00     0.202 A 
ATOM     15  C   UNL A   1      33.314  26.398  25.734  1.00  0.00     0.293 A 
ATOM     16  N   UNL A   1      32.958  27.390  26.522  1.00  0.00    -0.184 NA
ATOM     17  O   UNL A   1      33.765  26.833  24.516  1.00  0.00    -0.330 OA
ATOM     18  N   UNL A   1      33.653  28.229  24.519  1.00  0.00    -0.057 NA
BRANCH  15  19
ATOM     19  C   UNL A   1      33.218  25.024  26.117  1.00  0.00     0.192 A 
ATOM     20  C   UNL A   1      33.809  22.920  26.439  1.00  0.00     0.104 A 
ATOM     21  C   UNL A   1      32.570  23.067  27.024  1.00  0.00     0.046 A 
ATOM     22  O   UNL A   1      34.189  24.092  25.854  1.00  0.00    -0.456 OA
ATOM     23  C   UNL A   1      32.199  24.418  26.831  1.00  0.00     0.056 A 
BRANCH  20  24
ATOM     24  C   UNL A   1      34.751  21.769  26.386  1.00  0.00     0.072 C 
ATOM     25  C   UNL A   1      35.063  21.279  24.983  1.00  0.00     0.012 C 
ENDBRANCH  20  24
ENDBRANCH  15  19
ENDBRANCH   9  14
ENDBRANCH   6   8
ENDBRANCH   5   6
ENDBRANCH   4   5
ENDBRANCH   3   4
ENDBRANCH   2   3
ENDBRANCH   1   2
BRANCH   1  26
ATOM     26  C   UNL A   1      33.844  37.048  32.271  1.00  0.00     0.188 C 
BRANCH  26  27
ATOM     27  O   UNL A   1      34.595  36.439  33.296  1.00  0.00    -0.376 OA
BRANCH  27  28
ATOM     28  C   UNL A   1      34.862  35.048  33.287  1.00  0.00     0.202 C 
BRANCH  28  29
ATOM     29  C   UNL A   1      36.186  34.418  32.836  1.00  0.00     0.261 C 
BRANCH  29  30
ATOM     30  O   UNL A   1      36.148  33.036  32.478  1.00  0.00    -0.460 OA
BRANCH  30  31
ATOM     31  C   UNL A   1      36.965  32.239  33.211  1.00  0.00     0.338 C 
ATOM     32  O   UNL A   1      36.903  31.997  34.402  1.00  0.00    -0.246 OA
BRANCH  31  33
ATOM     33  C   UNL A   1      37.904  31.561  32.305  1.00  0.00     0.060 A 
ATOM     34  C   UNL A   1      39.009  30.895  32.852  1.00  0.00     0.016 A 
ATOM     35  C   UNL A   1      37.723  31.642  30.926  1.00  0.00     0.016 A 
ATOM     36  C   UNL A   1      39.959  30.319  32.009  1.00  0.00     0.010 A 
ATOM     37  C   UNL A   1      38.685  31.087  30.084  1.00  0.00     0.010 A 
ATOM     38  C   UNL A   1      39.819  30.449  30.621  1.00  0.00    -0.014 A 
BRANCH  38  39
ATOM     39  C   UNL A   1      40.934  30.101  29.715  1.00  0.00     0.031 A 
ATOM     40  C   UNL A   1      40.976  28.712  29.144  1.00  0.00     0.074 A 
ATOM     41  C   UNL A   1      41.916  30.978  29.447  1.00  0.00     0.049 A 
ATOM     42  N   UNL A   1      41.932  28.112  28.485  1.00  0.00    -0.248 NA
ATOM     43  C   UNL A   1      39.776  27.886  29.357  1.00  0.00     0.031 C 
ATOM     44  C   UNL A   1      41.957  32.367  29.898  1.00  0.00     0.029 A 
ATOM     45  N   UNL A   1      43.086  30.811  28.750  1.00  0.00    -0.354 N 
ATOM     46  C   UNL A   1      41.460  26.833  28.225  1.00  0.00     0.074 A 
ATOM     47  C   UNL A   1      40.139  26.737  28.806  1.00  0.00     0.031 C 
ATOM     48  C   UNL A   1      43.114  32.919  29.494  1.00  0.00     0.029 A 
ATOM     49  C   UNL A   1      43.910  31.908  28.797  1.00  0.00     0.049 A 
ATOM     50  H   UNL A   1      43.313  29.985  28.265  1.00  0.00     0.167 HD
ATOM     51  C   UNL A   1      42.078  25.826  27.563  1.00  0.00     0.037 A 
ATOM     52  C   UNL A   1      45.178  32.059  28.365  1.00  0.00     0.037 A 
ATOM     53  C   UNL A   1      43.394  25.927  26.995  1.00  0.00     0.049 A 
ATOM     54  C   UNL A   1      45.878  30.899  27.704  1.00  0.00     0.074 A 
ATOM     55  C   UNL A   1      44.108  24.967  26.299  1.00  0.00     0.029 A 
ATOM     56  N   UNL A   1      44.198  27.054  27.064  1.00  0.00    -0.354 N 
ATOM     57  N   UNL A   1      45.426  29.694  27.453  1.00  0.00    -0.248 NA
ATOM     58  C   UNL A   1      47.266  31.119  27.271  1.00  0.00     0.031 C 
ATOM     59  C   UNL A   1      45.363  25.499  25.989  1.00  0.00     0.029 A 
ATOM     60  C   UNL A   1      45.407  26.809  26.441  1.00  0.00     0.049 A 
ATOM     61  H   UNL A   1      43.944  27.904  27.494  1.00  0.00     0.167 HD
ATOM     62  C   UNL A   1      46.455  29.029  26.797  1.00  0.00     0.074 A 
ATOM     63  C   UNL A   1      47.558  29.960  26.694  1.00  0.00     0.031 C 
ATOM     64  C   UNL A   1      46.482  27.761  26.318  1.00  0.00     0.037 A 
BRANCH  51  65
ATOM     65  C   UNL A   1      41.349  24.521  27.455  1.00  0.00     0.057 A 
ATOM     66  C   UNL A   1      40.300  24.330  26.547  1.00  0.00     0.134 A 
ATOM     67  C   UNL A   1      41.721  23.432  28.253  1.00  0.00     0.134 A 
ATOM     68  F   UNL A   1      39.884  25.339  25.767  1.00  0.00    -0.206 F 
ATOM     69  C   UNL A   1      39.632  23.109  26.452  1.00  0.00     0.040 A 
ATOM     70  C   UNL A   1      41.080  22.198  28.148  1.00  0.00     0.040 A 
ATOM     71  F   UNL A   1      42.719  23.547  29.141  1.00  0.00    -0.206 F 
ATOM     72  C   UNL A   1      40.027  22.035  27.249  1.00  0.00     0.006 A 
ENDBRANCH  51  65
BRANCH  52  73
ATOM     73  C   UNL A   1      45.884  33.350  28.566  1.00  0.00     0.057 A 
ATOM     74  C   UNL A   1      46.693  33.565  29.689  1.00  0.00     0.134 A 
ATOM     75  C   UNL A   1      45.751  34.405  27.656  1.00  0.00     0.134 A 
ATOM     76  F   UNL A   1      46.839  32.601  30.609  1.00  0.00    -0.206 F 
ATOM     77  C   UNL A   1      47.330  34.788  29.907  1.00  0.00     0.040 A 
ATOM     78  C   UNL A   1      46.403  35.625  27.849  1.00  0.00     0.040 A 
ATOM     79  F   UNL A   1      44.990  34.264  26.561  1.00  0.00    -0.206 F 
ATOM     80  C   UNL A   1      47.189  35.821  28.982  1.00  0.00     0.006 A 
ENDBRANCH  52  73
BRANCH  64  81
ATOM     81  C   UNL A   1      47.705  27.319  25.572  1.00  0.00     0.057 A 
ATOM     82  C   UNL A   1      47.821  27.455  24.183  1.00  0.00     0.134 A 
ATOM     83  C   UNL A   1      48.820  26.835  26.270  1.00  0.00     0.134 A 
ATOM     84  F   UNL A   1      46.786  27.903  23.455  1.00  0.00    -0.206 F 
ATOM     85  C   UNL A   1      48.999  27.118  23.516  1.00  0.00     0.040 A 
ATOM     86  C   UNL A   1      50.011  26.518  25.618  1.00  0.00     0.040 A 
ATOM     87  F   UNL A   1      48.778  26.693  27.604  1.00  0.00    -0.206 F 
ATOM     88  C   UNL A   1      50.103  26.659  24.234  1.00  0.00     0.006 A 
ENDBRANCH  64  81
ENDBRANCH  38  39
ENDBRANCH  31  33
ENDBRANCH  30  31
ENDBRANCH  29  30
ENDBRANCH  28  29
ENDBRANCH  27  28
ENDBRANCH  26  27
ENDBRANCH   1  26
TORSDOF 20
ENDMDL
MODEL 3
REMARK VINA RESULT:     -10.5      2.908      9.272
REMARK SMILES CCc1ccc(-c2nc(-c3cccc(C(=O)OCCOCCOCCOC(=O)c4ccc(-c5c6nc(c(-c7c(F)cccc7F)c7ccc([nH]7)c(-c7c(F)cccc7F)c7nc(c(-c8c(F)cccc8F)c8ccc5[nH]8)C=C7)C=C6)cc4)c3)no2)o1
REMARK SMILES IDX 21 1 20 2 19 3 18 4 17 5 15 6 16 7 14 8 10 9 11 10 83 11
REMARK SMILES IDX 12 12 13 13 9 14 7 15 8 16 85 17 84 18 6 19 3 20 4 21 86 22
REMARK SMILES IDX 5 23 2 24 1 25 22 26 23 27 24 28 25 29 26 30 27 31 28 32
REMARK SMILES IDX 29 33 30 34 82 35 31 36 81 37 32 38 33 39 34 40 75 41 35 42
REMARK SMILES IDX 80 43 74 44 76 45 36 46 79 47 73 48 72 49 37 51 63 52 46 53
REMARK SMILES IDX 62 54 47 55 50 56 61 57 77 58 48 59 49 60 60 62 78 63 51 64
REMARK SMILES IDX 38 65 39 66 44 67 40 68 41 69 43 70 45 71 42 72 64 73 65 74
REMARK SMILES IDX 70 75 66 76 67 77 69 78 71 79 68 80 52 81 53 82 58 83 54 84
REMARK SMILES IDX 55 85 57 86 59 87 56 88
REMARK H PARENT 76 50 50 61
REMARK Flexibility Score: inf
ROOT
ATOM      1  C   UNL A   1      33.618  28.869  26.740  1.00  0.00     0.188 C 
ENDROOT
BRANCH   1   2
ATOM      2  O   UNL A   1      34.205  27.884  25.911  1.00  0.00    -0.376 OA
BRANCH   2   3
ATOM      3  C   UNL A   1      33.462  26.726  25.560  1.00  0.00     0.202 C 
BRANCH   3   4
ATOM      4  C   UNL A   1      33.780  25.948  24.279  1.00  0.00     0.261 C 
BRANCH   4   5
ATOM      5  O   UNL A   1      33.439  24.556  24.348  1.00  0.00    -0.460 OA
BRANCH   5   6
ATOM      6  C   UNL A   1      34.016  23.767  23.404  1.00  0.00     0.338 C 
ATOM      7  O   UNL A   1      34.318  24.081  22.267  1.00  0.00    -0.246 OA
BRANCH   6   8
ATOM      8  C   UNL A   1      34.441  22.498  24.030  1.00  0.00     0.060 A 
ATOM      9  C   UNL A   1      36.144  20.971  24.823  1.00  0.00     0.024 A 
ATOM     10  C   UNL A   1      35.155  20.006  25.065  1.00  0.00     0.012 A 
ATOM     11  C   UNL A   1      35.783  22.219  24.292  1.00  0.00     0.027 A 
ATOM     12  C   UNL A   1      33.811  20.295  24.814  1.00  0.00     0.002 A 
ATOM     13  C   UNL A   1      33.453  21.543  24.307  1.00  0.00     0.016 A 
BRANCH   9  14
ATOM     14  C   UNL A   1      37.532  20.710  25.154  1.00  0.00     0.202 A 
ATOM     15  C   UNL A   1      39.493  21.100  25.805  1.00  0.00     0.293 A 
ATOM     16  N   UNL A   1      38.328  21.698  25.673  1.00  0.00    -0.184 NA
ATOM     17  O   UNL A   1      39.460  19.793  25.397  1.00  0.00    -0.330 OA
ATOM     18  N   UNL A   1      38.142  19.526  25.002  1.00  0.00    -0.057 NA
BRANCH  15  19
ATOM     19  C   UNL A   1      40.650  21.753  26.332  1.00  0.00     0.192 A 
ATOM     20  C   UNL A   1      41.947  22.833  27.757  1.00  0.00     0.104 A 
ATOM     21  C   UNL A   1      42.746  22.498  26.686  1.00  0.00     0.046 A 
ATOM     22  O   UNL A   1      40.667  22.419  27.530  1.00  0.00    -0.456 OA
ATOM     23  C   UNL A   1      41.920  21.792  25.782  1.00  0.00     0.056 A 
BRANCH  20  24
ATOM     24  C   UNL A   1      42.252  23.498  29.054  1.00  0.00     0.072 C 
ATOM     25  C   UNL A   1      43.106  24.747  28.932  1.00  0.00     0.012 C 
ENDBRANCH  20  24
ENDBRANCH  15  19
ENDBRANCH   9  14
ENDBRANCH   6   8
ENDBRANCH   5   6
ENDBRANCH   4   5
ENDBRANCH   3   4
ENDBRANCH   2   3
ENDBRANCH   1   2
BRANCH   1  26
ATOM     26  C   UNL A   1      34.489  29.783  27.629  1.00  0.00     0.188 C 
BRANCH  26  27
ATOM     27  O   UNL A   1      34.017  31.043  28.048  1.00  0.00    -0.376 OA
BRANCH  27  28
ATOM     28  C   UNL A   1      33.186  31.832  27.216  1.00  0.00     0.202 C 
BRANCH  28  29
ATOM     29  C   UNL A   1      32.418  33.077  27.682  1.00  0.00     0.261 C 
BRANCH  29  30
ATOM     30  O   UNL A   1      33.090  34.330  27.548  1.00  0.00    -0.460 OA
BRANCH  30  31
ATOM     31  C   UNL A   1      33.211  35.032  28.703  1.00  0.00     0.338 C 
ATOM     32  O   UNL A   1      32.481  35.909  29.126  1.00  0.00    -0.246 OA
BRANCH  31  33
ATOM     33  C   UNL A   1      34.323  34.471  29.484  1.00  0.00     0.060 A 
ATOM     34  C   UNL A   1      35.613  34.495  28.938  1.00  0.00     0.016 A 
ATOM     35  C   UNL A   1      34.074  33.869  30.717  1.00  0.00     0.016 A 
ATOM     36  C   UNL A   1      36.667  33.891  29.622  1.00  0.00     0.010 A 
ATOM     37  C   UNL A   1      35.124  33.245  31.388  1.00  0.00     0.010 A 
ATOM     38  C   UNL A   1      36.417  33.230  30.831  1.00  0.00    -0.014 A 
BRANCH  38  39
ATOM     39  C   UNL A   1      37.441  32.351  31.436  1.00  0.00     0.031 A 
ATOM     40  C   UNL A   1      37.969  32.709  32.796  1.00  0.00     0.074 A 
ATOM     41  C   UNL A   1      37.931  31.290  30.771  1.00  0.00     0.049 A 
ATOM     42  N   UNL A   1      38.985  32.213  33.450  1.00  0.00    -0.248 NA
ATOM     43  C   UNL A   1      37.253  33.780  33.508  1.00  0.00     0.031 C 
ATOM     44  C   UNL A   1      37.462  30.814  29.473  1.00  0.00     0.029 A 
ATOM     45  N   UNL A   1      38.959  30.441  31.095  1.00  0.00    -0.354 N 
ATOM     46  C   UNL A   1      39.047  32.926  34.639  1.00  0.00     0.074 A 
ATOM     47  C   UNL A   1      37.974  33.897  34.613  1.00  0.00     0.031 C 
ATOM     48  C   UNL A   1      38.225  29.774  29.092  1.00  0.00     0.029 A 
ATOM     49  C   UNL A   1      39.260  29.545  30.100  1.00  0.00     0.049 A 
ATOM     50  H   UNL A   1      39.435  30.472  31.957  1.00  0.00     0.167 HD
ATOM     51  C   UNL A   1      39.925  32.787  35.660  1.00  0.00     0.037 A 
ATOM     52  C   UNL A   1      40.282  28.673  29.999  1.00  0.00     0.037 A 
ATOM     53  C   UNL A   1      40.992  31.824  35.676  1.00  0.00     0.049 A 
ATOM     54  C   UNL A   1      41.297  28.589  31.111  1.00  0.00     0.074 A 
ATOM     55  C   UNL A   1      41.933  31.598  36.665  1.00  0.00     0.029 A 
ATOM     56  N   UNL A   1      41.266  30.935  34.648  1.00  0.00    -0.354 N 
ATOM     57  N   UNL A   1      41.348  29.260  32.237  1.00  0.00    -0.248 NA
ATOM     58  C   UNL A   1      42.400  27.632  30.936  1.00  0.00     0.031 C 
ATOM     59  C   UNL A   1      42.805  30.602  36.214  1.00  0.00     0.029 A 
ATOM     60  C   UNL A   1      42.372  30.170  34.970  1.00  0.00     0.049 A 
ATOM     61  H   UNL A   1      40.749  30.859  33.813  1.00  0.00     0.167 HD
ATOM     62  C   UNL A   1      42.458  28.777  32.919  1.00  0.00     0.074 A 
ATOM     63  C   UNL A   1      43.057  27.762  32.080  1.00  0.00     0.031 C 
ATOM     64  C   UNL A   1      42.935  29.139  34.136  1.00  0.00     0.037 A 
BRANCH  51  65
ATOM     65  C   UNL A   1      39.787  33.721  36.824  1.00  0.00     0.057 A 
ATOM     66  C   UNL A   1      40.439  34.960  36.862  1.00  0.00     0.134 A 
ATOM     67  C   UNL A   1      38.969  33.387  37.910  1.00  0.00     0.134 A 
ATOM     68  F   UNL A   1      41.250  35.332  35.861  1.00  0.00    -0.206 F 
ATOM     69  C   UNL A   1      40.299  35.824  37.949  1.00  0.00     0.040 A 
ATOM     70  C   UNL A   1      38.798  34.253  38.990  1.00  0.00     0.040 A 
ATOM     71  F   UNL A   1      38.314  32.216  37.935  1.00  0.00    -0.206 F 
ATOM     72  C   UNL A   1      39.469  35.474  39.014  1.00  0.00     0.006 A 
ENDBRANCH  51  65
BRANCH  52  73
ATOM     73  C   UNL A   1      40.419  27.822  28.789  1.00  0.00     0.057 A 
ATOM     74  C   UNL A   1      41.232  28.213  27.719  1.00  0.00     0.134 A 
ATOM     75  C   UNL A   1      39.726  26.612  28.664  1.00  0.00     0.134 A 
ATOM     76  F   UNL A   1      41.902  29.373  27.769  1.00  0.00    -0.206 F 
ATOM     77  C   UNL A   1      41.337  27.440  26.561  1.00  0.00     0.040 A 
ATOM     78  C   UNL A   1      39.842  25.817  27.522  1.00  0.00     0.040 A 
ATOM     79  F   UNL A   1      38.929  26.182  29.653  1.00  0.00    -0.206 F 
ATOM     80  C   UNL A   1      40.644  26.235  26.463  1.00  0.00     0.006 A 
ENDBRANCH  52  73
BRANCH  64  81
ATOM     81  C   UNL A   1      44.116  28.390  34.677  1.00  0.00     0.057 A 
ATOM     82  C   UNL A   1      45.433  28.801  34.436  1.00  0.00     0.134 A 
ATOM     83  C   UNL A   1      43.925  27.294  35.529  1.00  0.00     0.134 A 
ATOM     84  F   UNL A   1      45.684  29.837  33.621  1.00  0.00    -0.206 F 
ATOM     85  C   UNL A   1      46.517  28.143  35.018  1.00  0.00     0.040 A 
ATOM     86  C   UNL A   1      44.999  26.644  36.136  1.00  0.00     0.040 A 
ATOM     87  F   UNL A   1      42.688  26.858  35.810  1.00  0.00    -0.206 F 
ATOM     88  C   UNL A   1      46.302  27.068  35.881  1.00  0.00     0.006 A 
ENDBRANCH  64  81
ENDBRANCH  38  39
ENDBRANCH  31  33
ENDBRANCH  30  31
ENDBRANCH  29  30
ENDBRANCH  28  29
ENDBRANCH  27  28
ENDBRANCH  26  27
ENDBRANCH   1  26
TORSDOF 20
ENDMDL
