MODEL 1
REMARK VINA RESULT:     -11.3      0.000      0.000
REMARK SMILES O=C(CCC(=O)N1Cc2[nH]cnc2C[C@H]1C(=O)NCc1ccccc1)OCCOCCOCCOC(=O)c1ccc(-c2c3nc(c(-c4c(F)cccc4F)c4ccc([nH]4)c(-c4c(F)cccc4F)c4nc(c(-c5c(F)cccc5F)c5ccc2[nH]5)C=C4)C=C3)cc1
REMARK SMILES IDX 28 1 27 2 26 3 2 4 1 5 3 6 4 7 5 8 6 9 7 10 8 11 15 12 9 13
REMARK SMILES IDX 14 14 10 15 13 16 11 17 12 19 16 20 17 21 18 22 19 24 20 25
REMARK SMILES IDX 21 26 25 27 22 28 24 29 23 30 29 31 30 32 31 33 32 34 33 35
REMARK SMILES IDX 34 36 35 37 36 38 37 39 38 40 39 41 91 42 40 43 90 44 41 45
REMARK SMILES IDX 42 46 43 47 84 48 44 49 89 50 83 51 85 52 45 53 88 54 82 55
REMARK SMILES IDX 81 56 46 58 72 59 55 60 71 61 56 62 59 63 70 64 86 65 57 66
REMARK SMILES IDX 58 67 69 69 87 70 60 71 47 72 48 73 53 74 49 75 50 76 52 77
REMARK SMILES IDX 54 78 51 79 73 80 74 81 79 82 75 83 76 84 78 85 80 86 77 87
REMARK SMILES IDX 61 88 62 89 67 90 63 91 64 92 66 93 68 94 65 95
REMARK H PARENT 10 18 18 23 85 57 59 68
REMARK Flexibility Score: inf
ROOT
ATOM      1  C   UNL A   1      40.383  20.397  26.553  1.00  0.00     0.202 C 
ENDROOT
BRANCH   1   2
ATOM      2  C   UNL A   1      39.724  21.780  26.491  1.00  0.00     0.261 C 
BRANCH   2   3
ATOM      3  O   UNL A   1      38.825  21.904  25.381  1.00  0.00    -0.463 OA
BRANCH   3   4
ATOM      4  C   UNL A   1      37.690  21.212  25.200  1.00  0.00     0.306 C 
ATOM      5  O   UNL A   1      37.706  20.076  24.733  1.00  0.00    -0.252 OA
BRANCH   4   6
ATOM      6  C   UNL A   1      36.449  21.783  25.791  1.00  0.00     0.132 C 
BRANCH   6   7
ATOM      7  C   UNL A   1      36.336  23.213  25.296  1.00  0.00     0.112 C 
BRANCH   7   8
ATOM      8  C   UNL A   1      35.280  23.375  24.225  1.00  0.00     0.224 C 
ATOM      9  O   UNL A   1      35.561  23.031  23.071  1.00  0.00    -0.275 OA
BRANCH   8  10
ATOM     10  N   UNL A   1      34.006  23.835  24.557  1.00  0.00    -0.324 N 
ATOM     11  C   UNL A   1      33.398  24.642  23.488  1.00  0.00     0.176 C 
ATOM     12  C   UNL A   1      33.478  23.893  25.977  1.00  0.00     0.180 C 
ATOM     13  C   UNL A   1      32.063  25.097  23.871  1.00  0.00     0.058 A 
ATOM     14  C   UNL A   1      32.468  25.027  26.313  1.00  0.00     0.093 C 
ATOM     15  N   UNL A   1      31.010  25.403  23.060  1.00  0.00    -0.347 N 
ATOM     16  C   UNL A   1      31.615  25.298  25.146  1.00  0.00     0.066 A 
ATOM     17  C   UNL A   1      29.976  25.767  23.883  1.00  0.00     0.197 A 
ATOM     18  H   UNL A   1      30.997  25.370  22.076  1.00  0.00     0.167 HD
ATOM     19  N   UNL A   1      30.313  25.704  25.155  1.00  0.00    -0.242 NA
BRANCH  12  20
ATOM     20  C   UNL A   1      33.014  22.593  26.671  1.00  0.00     0.243 C 
ATOM     21  O   UNL A   1      32.888  22.575  27.902  1.00  0.00    -0.273 OA
ATOM     22  N   UNL A   1      32.627  21.467  26.030  1.00  0.00    -0.350 N 
ATOM     23  H   UNL A   1      32.506  20.687  26.618  1.00  0.00     0.163 HD
BRANCH  22  24
ATOM     24  C   UNL A   1      32.359  21.208  24.638  1.00  0.00     0.151 C 
BRANCH  24  25
ATOM     25  C   UNL A   1      32.820  19.868  24.130  1.00  0.00    -0.029 A 
ATOM     26  C   UNL A   1      33.986  19.314  24.676  1.00  0.00     0.005 A 
ATOM     27  C   UNL A   1      32.153  19.157  23.125  1.00  0.00     0.005 A 
ATOM     28  C   UNL A   1      34.445  18.062  24.262  1.00  0.00     0.000 A 
ATOM     29  C   UNL A   1      32.589  17.891  22.734  1.00  0.00     0.000 A 
ATOM     30  C   UNL A   1      33.734  17.343  23.305  1.00  0.00     0.000 A 
ENDBRANCH  24  25
ENDBRANCH  22  24
ENDBRANCH  12  20
ENDBRANCH   8  10
ENDBRANCH   7   8
ENDBRANCH   6   7
ENDBRANCH   4   6
ENDBRANCH   3   4
ENDBRANCH   2   3
ENDBRANCH   1   2
BRANCH   1  31
ATOM     31  O   UNL A   1      41.794  20.275  26.647  1.00  0.00    -0.376 OA
BRANCH  31  32
ATOM     32  C   UNL A   1      42.543  19.521  25.697  1.00  0.00     0.188 C 
BRANCH  32  33
ATOM     33  C   UNL A   1      43.569  18.444  26.133  1.00  0.00     0.188 C 
BRANCH  33  34
ATOM     34  O   UNL A   1      44.650  18.240  25.237  1.00  0.00    -0.376 OA
BRANCH  34  35
ATOM     35  C   UNL A   1      45.883  18.930  25.425  1.00  0.00     0.202 C 
BRANCH  35  36
ATOM     36  C   UNL A   1      46.427  19.883  24.362  1.00  0.00     0.261 C 
BRANCH  36  37
ATOM     37  O   UNL A   1      46.195  21.244  24.725  1.00  0.00    -0.460 OA
BRANCH  37  38
ATOM     38  C   UNL A   1      45.022  21.754  24.277  1.00  0.00     0.338 C 
ATOM     39  O   UNL A   1      44.525  21.578  23.178  1.00  0.00    -0.246 OA
BRANCH  38  40
ATOM     40  C   UNL A   1      44.359  22.540  25.332  1.00  0.00     0.060 A 
ATOM     41  C   UNL A   1      43.138  23.137  25.001  1.00  0.00     0.016 A 
ATOM     42  C   UNL A   1      44.950  22.752  26.586  1.00  0.00     0.016 A 
ATOM     43  C   UNL A   1      42.617  24.103  25.835  1.00  0.00     0.010 A 
ATOM     44  C   UNL A   1      44.412  23.698  27.440  1.00  0.00     0.010 A 
ATOM     45  C   UNL A   1      43.329  24.453  26.988  1.00  0.00    -0.014 A 
BRANCH  45  46
ATOM     46  C   UNL A   1      43.146  25.825  27.438  1.00  0.00     0.031 A 
ATOM     47  C   UNL A   1      44.223  26.812  27.230  1.00  0.00     0.074 A 
ATOM     48  C   UNL A   1      42.025  26.139  28.120  1.00  0.00     0.049 A 
ATOM     49  N   UNL A   1      44.900  27.449  28.131  1.00  0.00    -0.248 NA
ATOM     50  C   UNL A   1      44.594  27.132  25.847  1.00  0.00     0.031 C 
ATOM     51  C   UNL A   1      40.779  25.367  28.217  1.00  0.00     0.029 A 
ATOM     52  N   UNL A   1      41.746  27.272  28.822  1.00  0.00    -0.354 N 
ATOM     53  C   UNL A   1      45.683  28.366  27.441  1.00  0.00     0.074 A 
ATOM     54  C   UNL A   1      45.508  28.086  26.036  1.00  0.00     0.031 C 
ATOM     55  C   UNL A   1      39.817  26.141  28.760  1.00  0.00     0.029 A 
ATOM     56  C   UNL A   1      40.414  27.398  29.170  1.00  0.00     0.049 A 
ATOM     57  H   UNL A   1      42.430  27.939  29.059  1.00  0.00     0.167 HD
ATOM     58  C   UNL A   1      46.314  29.403  28.055  1.00  0.00     0.037 A 
ATOM     59  C   UNL A   1      39.816  28.485  29.701  1.00  0.00     0.037 A 
ATOM     60  C   UNL A   1      46.444  29.222  29.472  1.00  0.00     0.049 A 
ATOM     61  C   UNL A   1      40.858  29.325  30.331  1.00  0.00     0.074 A 
ATOM     62  C   UNL A   1      47.104  28.319  30.279  1.00  0.00     0.029 A 
ATOM     63  N   UNL A   1      45.594  29.910  30.299  1.00  0.00    -0.354 N 
ATOM     64  N   UNL A   1      41.504  29.012  31.419  1.00  0.00    -0.248 NA
ATOM     65  C   UNL A   1      41.458  30.386  29.536  1.00  0.00     0.031 C 
ATOM     66  C   UNL A   1      46.312  28.210  31.458  1.00  0.00     0.029 A 
ATOM     67  C   UNL A   1      45.207  29.046  31.293  1.00  0.00     0.049 A 
ATOM     68  H   UNL A   1      45.314  30.848  30.199  1.00  0.00     0.167 HD
ATOM     69  C   UNL A   1      42.773  29.545  31.247  1.00  0.00     0.074 A 
ATOM     70  C   UNL A   1      42.643  30.483  30.141  1.00  0.00     0.031 C 
ATOM     71  C   UNL A   1      43.868  28.977  31.833  1.00  0.00     0.037 A 
BRANCH  58  72
ATOM     72  C   UNL A   1      46.606  30.706  27.376  1.00  0.00     0.057 A 
ATOM     73  C   UNL A   1      47.919  31.198  27.302  1.00  0.00     0.134 A 
ATOM     74  C   UNL A   1      45.593  31.607  26.999  1.00  0.00     0.134 A 
ATOM     75  F   UNL A   1      48.958  30.445  27.690  1.00  0.00    -0.206 F 
ATOM     76  C   UNL A   1      48.201  32.501  26.877  1.00  0.00     0.040 A 
ATOM     77  C   UNL A   1      45.865  32.895  26.531  1.00  0.00     0.040 A 
ATOM     78  F   UNL A   1      44.295  31.305  27.147  1.00  0.00    -0.206 F 
ATOM     79  C   UNL A   1      47.173  33.352  26.482  1.00  0.00     0.006 A 
ENDBRANCH  58  72
BRANCH  59  80
ATOM     80  C   UNL A   1      38.438  28.943  29.442  1.00  0.00     0.057 A 
ATOM     81  C   UNL A   1      37.507  29.080  30.477  1.00  0.00     0.134 A 
ATOM     82  C   UNL A   1      38.066  29.481  28.195  1.00  0.00     0.134 A 
ATOM     83  F   UNL A   1      37.794  28.644  31.711  1.00  0.00    -0.206 F 
ATOM     84  C   UNL A   1      36.277  29.720  30.283  1.00  0.00     0.040 A 
ATOM     85  C   UNL A   1      36.836  30.108  27.985  1.00  0.00     0.040 A 
ATOM     86  F   UNL A   1      38.917  29.487  27.158  1.00  0.00    -0.206 F 
ATOM     87  C   UNL A   1      35.940  30.239  29.035  1.00  0.00     0.006 A 
ENDBRANCH  59  80
BRANCH  71  88
ATOM     88  C   UNL A   1      43.629  27.962  32.914  1.00  0.00     0.057 A 
ATOM     89  C   UNL A   1      43.625  26.580  32.681  1.00  0.00     0.134 A 
ATOM     90  C   UNL A   1      43.555  28.384  34.247  1.00  0.00     0.134 A 
ATOM     91  F   UNL A   1      43.792  26.088  31.445  1.00  0.00    -0.206 F 
ATOM     92  C   UNL A   1      43.512  25.659  33.726  1.00  0.00     0.040 A 
ATOM     93  C   UNL A   1      43.468  27.473  35.302  1.00  0.00     0.040 A 
ATOM     94  F   UNL A   1      43.616  29.691  34.548  1.00  0.00    -0.206 F 
ATOM     95  C   UNL A   1      43.437  26.105  35.043  1.00  0.00     0.006 A 
ENDBRANCH  71  88
ENDBRANCH  45  46
ENDBRANCH  38  40
ENDBRANCH  37  38
ENDBRANCH  36  37
ENDBRANCH  35  36
ENDBRANCH  34  35
ENDBRANCH  33  34
ENDBRANCH  32  33
ENDBRANCH  31  32
ENDBRANCH   1  31
TORSDOF 23
ENDMDL
MODEL 2
REMARK VINA RESULT:     -11.3      1.499      3.152
REMARK SMILES O=C(CCC(=O)N1Cc2[nH]cnc2C[C@H]1C(=O)NCc1ccccc1)OCCOCCOCCOC(=O)c1ccc(-c2c3nc(c(-c4c(F)cccc4F)c4ccc([nH]4)c(-c4c(F)cccc4F)c4nc(c(-c5c(F)cccc5F)c5ccc2[nH]5)C=C4)C=C3)cc1
REMARK SMILES IDX 28 1 27 2 26 3 2 4 1 5 3 6 4 7 5 8 6 9 7 10 8 11 15 12 9 13
REMARK SMILES IDX 14 14 10 15 13 16 11 17 12 19 16 20 17 21 18 22 19 24 20 25
REMARK SMILES IDX 21 26 25 27 22 28 24 29 23 30 29 31 30 32 31 33 32 34 33 35
REMARK SMILES IDX 34 36 35 37 36 38 37 39 38 40 39 41 91 42 40 43 90 44 41 45
REMARK SMILES IDX 42 46 43 47 84 48 44 49 89 50 83 51 85 52 45 53 88 54 82 55
REMARK SMILES IDX 81 56 46 58 72 59 55 60 71 61 56 62 59 63 70 64 86 65 57 66
REMARK SMILES IDX 58 67 69 69 87 70 60 71 47 72 48 73 53 74 49 75 50 76 52 77
REMARK SMILES IDX 54 78 51 79 73 80 74 81 79 82 75 83 76 84 78 85 80 86 77 87
REMARK SMILES IDX 61 88 62 89 67 90 63 91 64 92 66 93 68 94 65 95
REMARK H PARENT 10 18 18 23 85 57 59 68
REMARK Flexibility Score: inf
ROOT
ATOM      1  C   UNL A   1      41.053  20.738  27.391  1.00  0.00     0.202 C 
ENDROOT
BRANCH   1   2
ATOM      2  C   UNL A   1      40.507  21.460  26.154  1.00  0.00     0.261 C 
BRANCH   2   3
ATOM      3  O   UNL A   1      39.087  21.309  26.018  1.00  0.00    -0.463 OA
BRANCH   3   4
ATOM      4  C   UNL A   1      38.457  20.386  25.275  1.00  0.00     0.306 C 
ATOM      5  O   UNL A   1      38.917  19.255  25.142  1.00  0.00    -0.252 OA
BRANCH   4   6
ATOM      6  C   UNL A   1      37.082  20.718  24.812  1.00  0.00     0.132 C 
BRANCH   6   7
ATOM      7  C   UNL A   1      36.924  22.223  24.920  1.00  0.00     0.112 C 
BRANCH   7   8
ATOM      8  C   UNL A   1      36.040  22.794  23.834  1.00  0.00     0.224 C 
ATOM      9  O   UNL A   1      36.534  22.986  22.717  1.00  0.00    -0.275 OA
BRANCH   8  10
ATOM     10  N   UNL A   1      34.686  23.026  24.079  1.00  0.00    -0.324 N 
ATOM     11  C   UNL A   1      34.170  22.233  25.205  1.00  0.00     0.176 C 
ATOM     12  C   UNL A   1      33.746  23.657  23.071  1.00  0.00     0.180 C 
ATOM     13  C   UNL A   1      32.753  22.510  25.435  1.00  0.00     0.058 A 
ATOM     14  C   UNL A   1      32.258  23.207  23.111  1.00  0.00     0.093 C 
ATOM     15  N   UNL A   1      32.051  22.409  26.600  1.00  0.00    -0.347 N 
ATOM     16  C   UNL A   1      31.854  22.939  24.499  1.00  0.00     0.066 A 
ATOM     17  C   UNL A   1      30.765  22.788  26.314  1.00  0.00     0.197 A 
ATOM     18  H   UNL A   1      32.400  22.120  27.474  1.00  0.00     0.167 HD
ATOM     19  N   UNL A   1      30.619  23.122  25.048  1.00  0.00    -0.242 NA
BRANCH  12  20
ATOM     20  C   UNL A   1      33.798  25.182  22.829  1.00  0.00     0.243 C 
ATOM     21  O   UNL A   1      33.714  25.615  21.674  1.00  0.00    -0.273 OA
ATOM     22  N   UNL A   1      33.831  26.120  23.802  1.00  0.00    -0.350 N 
ATOM     23  H   UNL A   1      34.013  27.032  23.479  1.00  0.00     0.163 HD
BRANCH  22  24
ATOM     24  C   UNL A   1      33.645  26.021  25.228  1.00  0.00     0.151 C 
BRANCH  24  25
ATOM     25  C   UNL A   1      33.212  27.290  25.913  1.00  0.00    -0.029 A 
ATOM     26  C   UNL A   1      32.065  27.254  26.718  1.00  0.00     0.005 A 
ATOM     27  C   UNL A   1      33.885  28.508  25.768  1.00  0.00     0.005 A 
ATOM     28  C   UNL A   1      31.632  28.394  27.397  1.00  0.00     0.000 A 
ATOM     29  C   UNL A   1      33.476  29.640  26.473  1.00  0.00     0.000 A 
ATOM     30  C   UNL A   1      32.351  29.582  27.290  1.00  0.00     0.000 A 
ENDBRANCH  24  25
ENDBRANCH  22  24
ENDBRANCH  12  20
ENDBRANCH   8  10
ENDBRANCH   7   8
ENDBRANCH   6   7
ENDBRANCH   4   6
ENDBRANCH   3   4
ENDBRANCH   2   3
ENDBRANCH   1   2
BRANCH   1  31
ATOM     31  O   UNL A   1      41.863  19.582  27.252  1.00  0.00    -0.376 OA
BRANCH  31  32
ATOM     32  C   UNL A   1      42.723  19.404  26.129  1.00  0.00     0.188 C 
BRANCH  32  33
ATOM     33  C   UNL A   1      43.696  18.202  26.025  1.00  0.00     0.188 C 
BRANCH  33  34
ATOM     34  O   UNL A   1      44.718  18.332  25.050  1.00  0.00    -0.376 OA
BRANCH  34  35
ATOM     35  C   UNL A   1      45.983  18.888  25.401  1.00  0.00     0.202 C 
BRANCH  35  36
ATOM     36  C   UNL A   1      46.658  19.938  24.521  1.00  0.00     0.261 C 
BRANCH  36  37
ATOM     37  O   UNL A   1      46.355  21.258  24.972  1.00  0.00    -0.460 OA
BRANCH  37  38
ATOM     38  C   UNL A   1      45.238  21.797  24.427  1.00  0.00     0.338 C 
ATOM     39  O   UNL A   1      44.835  21.636  23.287  1.00  0.00    -0.246 OA
BRANCH  38  40
ATOM     40  C   UNL A   1      44.504  22.594  25.425  1.00  0.00     0.060 A 
ATOM     41  C   UNL A   1      43.331  23.220  24.992  1.00  0.00     0.016 A 
ATOM     42  C   UNL A   1      44.989  22.787  26.727  1.00  0.00     0.016 A 
ATOM     43  C   UNL A   1      42.761  24.195  25.784  1.00  0.00     0.010 A 
ATOM     44  C   UNL A   1      44.399  23.742  27.537  1.00  0.00     0.010 A 
ATOM     45  C   UNL A   1      43.378  24.523  26.996  1.00  0.00    -0.014 A 
BRANCH  45  46
ATOM     46  C   UNL A   1      43.187  25.898  27.437  1.00  0.00     0.031 A 
ATOM     47  C   UNL A   1      44.256  26.892  27.211  1.00  0.00     0.074 A 
ATOM     48  C   UNL A   1      42.070  26.208  28.125  1.00  0.00     0.049 A 
ATOM     49  N   UNL A   1      44.935  27.541  28.101  1.00  0.00    -0.248 NA
ATOM     50  C   UNL A   1      44.612  27.204  25.823  1.00  0.00     0.031 C 
ATOM     51  C   UNL A   1      40.831  25.428  28.240  1.00  0.00     0.029 A 
ATOM     52  N   UNL A   1      41.789  27.345  28.821  1.00  0.00    -0.354 N 
ATOM     53  C   UNL A   1      45.705  28.459  27.397  1.00  0.00     0.074 A 
ATOM     54  C   UNL A   1      45.519  28.166  25.996  1.00  0.00     0.031 C 
ATOM     55  C   UNL A   1      39.868  26.198  28.785  1.00  0.00     0.029 A 
ATOM     56  C   UNL A   1      40.459  27.463  29.180  1.00  0.00     0.049 A 
ATOM     57  H   UNL A   1      42.469  28.019  29.047  1.00  0.00     0.167 HD
ATOM     58  C   UNL A   1      46.332  29.506  27.996  1.00  0.00     0.037 A 
ATOM     59  C   UNL A   1      39.857  28.550  29.707  1.00  0.00     0.037 A 
ATOM     60  C   UNL A   1      46.476  29.337  29.413  1.00  0.00     0.049 A 
ATOM     61  C   UNL A   1      40.898  29.403  30.321  1.00  0.00     0.074 A 
ATOM     62  C   UNL A   1      47.151  28.446  30.223  1.00  0.00     0.029 A 
ATOM     63  N   UNL A   1      45.627  30.026  30.243  1.00  0.00    -0.354 N 
ATOM     64  N   UNL A   1      41.555  29.104  31.405  1.00  0.00    -0.248 NA
ATOM     65  C   UNL A   1      41.482  30.462  29.512  1.00  0.00     0.031 C 
ATOM     66  C   UNL A   1      46.369  28.341  31.409  1.00  0.00     0.029 A 
ATOM     67  C   UNL A   1      45.256  29.167  31.247  1.00  0.00     0.049 A 
ATOM     68  H   UNL A   1      45.340  30.961  30.138  1.00  0.00     0.167 HD
ATOM     69  C   UNL A   1      42.819  29.646  31.218  1.00  0.00     0.074 A 
ATOM     70  C   UNL A   1      42.672  30.574  30.105  1.00  0.00     0.031 C 
ATOM     71  C   UNL A   1      43.923  29.092  31.800  1.00  0.00     0.037 A 
BRANCH  58  72
ATOM     72  C   UNL A   1      46.609  30.805  27.305  1.00  0.00     0.057 A 
ATOM     73  C   UNL A   1      47.919  31.299  27.201  1.00  0.00     0.134 A 
ATOM     74  C   UNL A   1      45.586  31.703  26.944  1.00  0.00     0.134 A 
ATOM     75  F   UNL A   1      48.967  30.550  27.571  1.00  0.00    -0.206 F 
ATOM     76  C   UNL A   1      48.190  32.600  26.762  1.00  0.00     0.040 A 
ATOM     77  C   UNL A   1      45.846  32.989  26.463  1.00  0.00     0.040 A 
ATOM     78  F   UNL A   1      44.292  31.399  27.121  1.00  0.00    -0.206 F 
ATOM     79  C   UNL A   1      47.153  33.448  26.384  1.00  0.00     0.006 A 
ENDBRANCH  58  72
BRANCH  59  80
ATOM     80  C   UNL A   1      38.473  28.995  29.457  1.00  0.00     0.057 A 
ATOM     81  C   UNL A   1      37.540  29.101  30.493  1.00  0.00     0.134 A 
ATOM     82  C   UNL A   1      38.094  29.552  28.219  1.00  0.00     0.134 A 
ATOM     83  F   UNL A   1      37.832  28.645  31.719  1.00  0.00    -0.206 F 
ATOM     84  C   UNL A   1      36.302  29.728  30.311  1.00  0.00     0.040 A 
ATOM     85  C   UNL A   1      36.856  30.166  28.020  1.00  0.00     0.040 A 
ATOM     86  F   UNL A   1      38.944  29.588  27.183  1.00  0.00    -0.206 F 
ATOM     87  C   UNL A   1      35.959  30.266  29.073  1.00  0.00     0.006 A 
ENDBRANCH  59  80
BRANCH  71  88
ATOM     88  C   UNL A   1      43.701  28.084  32.891  1.00  0.00     0.057 A 
ATOM     89  C   UNL A   1      43.690  26.700  32.666  1.00  0.00     0.134 A 
ATOM     90  C   UNL A   1      43.653  28.514  34.222  1.00  0.00     0.134 A 
ATOM     91  F   UNL A   1      43.833  26.201  31.430  1.00  0.00    -0.206 F 
ATOM     92  C   UNL A   1      43.594  25.785  33.719  1.00  0.00     0.040 A 
ATOM     93  C   UNL A   1      43.583  27.609  35.284  1.00  0.00     0.040 A 
ATOM     94  F   UNL A   1      43.723  29.822  34.514  1.00  0.00    -0.206 F 
ATOM     95  C   UNL A   1      43.544  26.239  35.034  1.00  0.00     0.006 A 
ENDBRANCH  71  88
ENDBRANCH  45  46
ENDBRANCH  38  40
ENDBRANCH  37  38
ENDBRANCH  36  37
ENDBRANCH  35  36
ENDBRANCH  34  35
ENDBRANCH  33  34
ENDBRANCH  32  33
ENDBRANCH  31  32
ENDBRANCH   1  31
TORSDOF 23
ENDMDL
MODEL 3
REMARK VINA RESULT:     -11.2      2.123      4.326
REMARK SMILES O=C(CCC(=O)N1Cc2[nH]cnc2C[C@H]1C(=O)NCc1ccccc1)OCCOCCOCCOC(=O)c1ccc(-c2c3nc(c(-c4c(F)cccc4F)c4ccc([nH]4)c(-c4c(F)cccc4F)c4nc(c(-c5c(F)cccc5F)c5ccc2[nH]5)C=C4)C=C3)cc1
REMARK SMILES IDX 28 1 27 2 26 3 2 4 1 5 3 6 4 7 5 8 6 9 7 10 8 11 15 12 9 13
REMARK SMILES IDX 14 14 10 15 13 16 11 17 12 19 16 20 17 21 18 22 19 24 20 25
REMARK SMILES IDX 21 26 25 27 22 28 24 29 23 30 29 31 30 32 31 33 32 34 33 35
REMARK SMILES IDX 34 36 35 37 36 38 37 39 38 40 39 41 91 42 40 43 90 44 41 45
REMARK SMILES IDX 42 46 43 47 84 48 44 49 89 50 83 51 85 52 45 53 88 54 82 55
REMARK SMILES IDX 81 56 46 58 72 59 55 60 71 61 56 62 59 63 70 64 86 65 57 66
REMARK SMILES IDX 58 67 69 69 87 70 60 71 47 72 48 73 53 74 49 75 50 76 52 77
REMARK SMILES IDX 54 78 51 79 73 80 74 81 79 82 75 83 76 84 78 85 80 86 77 87
REMARK SMILES IDX 61 88 62 89 67 90 63 91 64 92 66 93 68 94 65 95
REMARK H PARENT 10 18 18 23 85 57 59 68
REMARK Flexibility Score: inf
ROOT
ATOM      1  C   UNL A   1      37.786  22.937  25.710  1.00  0.00     0.202 C 
ENDROOT
BRANCH   1   2
ATOM      2  C   UNL A   1      37.299  21.637  25.061  1.00  0.00     0.261 C 
BRANCH   2   3
ATOM      3  O   UNL A   1      36.082  21.819  24.326  1.00  0.00    -0.463 OA
BRANCH   3   4
ATOM      4  C   UNL A   1      35.841  22.778  23.418  1.00  0.00     0.306 C 
ATOM      5  O   UNL A   1      36.588  22.945  22.458  1.00  0.00    -0.252 OA
BRANCH   4   6
ATOM      6  C   UNL A   1      34.527  23.470  23.501  1.00  0.00     0.132 C 
BRANCH   6   7
ATOM      7  C   UNL A   1      34.693  24.633  24.462  1.00  0.00     0.112 C 
BRANCH   7   8
ATOM      8  C   UNL A   1      33.560  24.728  25.460  1.00  0.00     0.224 C 
ATOM      9  O   UNL A   1      33.229  23.704  26.069  1.00  0.00    -0.275 OA
BRANCH   8  10
ATOM     10  N   UNL A   1      32.960  25.959  25.727  1.00  0.00    -0.324 N 
ATOM     11  C   UNL A   1      33.876  27.092  25.523  1.00  0.00     0.176 C 
ATOM     12  C   UNL A   1      31.691  26.115  26.542  1.00  0.00     0.180 C 
ATOM     13  C   UNL A   1      33.208  28.361  25.805  1.00  0.00     0.058 A 
ATOM     14  C   UNL A   1      31.539  27.420  27.373  1.00  0.00     0.093 C 
ATOM     15  N   UNL A   1      33.484  29.593  25.290  1.00  0.00    -0.347 N 
ATOM     16  C   UNL A   1      32.153  28.546  26.654  1.00  0.00     0.066 A 
ATOM     17  C   UNL A   1      32.580  30.461  25.847  1.00  0.00     0.197 A 
ATOM     18  H   UNL A   1      34.195  29.815  24.645  1.00  0.00     0.167 HD
ATOM     19  N   UNL A   1      31.755  29.850  26.673  1.00  0.00    -0.242 NA
BRANCH  12  20
ATOM     20  C   UNL A   1      30.327  25.771  25.903  1.00  0.00     0.243 C 
ATOM     21  O   UNL A   1      29.514  25.091  26.541  1.00  0.00    -0.273 OA
ATOM     22  N   UNL A   1      29.887  26.240  24.713  1.00  0.00    -0.350 N 
ATOM     23  H   UNL A   1      29.067  25.807  24.385  1.00  0.00     0.163 HD
BRANCH  22  24
ATOM     24  C   UNL A   1      30.409  27.262  23.841  1.00  0.00     0.151 C 
BRANCH  24  25
ATOM     25  C   UNL A   1      29.452  28.375  23.507  1.00  0.00    -0.029 A 
ATOM     26  C   UNL A   1      29.930  29.694  23.530  1.00  0.00     0.005 A 
ATOM     27  C   UNL A   1      28.105  28.162  23.196  1.00  0.00     0.005 A 
ATOM     28  C   UNL A   1      29.094  30.762  23.204  1.00  0.00     0.000 A 
ATOM     29  C   UNL A   1      27.276  29.224  22.835  1.00  0.00     0.000 A 
ATOM     30  C   UNL A   1      27.772  30.524  22.836  1.00  0.00     0.000 A 
ENDBRANCH  24  25
ENDBRANCH  22  24
ENDBRANCH  12  20
ENDBRANCH   8  10
ENDBRANCH   7   8
ENDBRANCH   6   7
ENDBRANCH   4   6
ENDBRANCH   3   4
ENDBRANCH   2   3
ENDBRANCH   1   2
BRANCH   1  31
ATOM     31  O   UNL A   1      38.956  22.948  26.514  1.00  0.00    -0.376 OA
BRANCH  31  32
ATOM     32  C   UNL A   1      39.899  21.879  26.472  1.00  0.00     0.188 C 
BRANCH  32  33
ATOM     33  C   UNL A   1      40.958  21.679  27.586  1.00  0.00     0.188 C 
BRANCH  33  34
ATOM     34  O   UNL A   1      41.571  20.400  27.617  1.00  0.00    -0.376 OA
BRANCH  34  35
ATOM     35  C   UNL A   1      41.392  19.488  26.537  1.00  0.00     0.202 C 
BRANCH  35  36
ATOM     36  C   UNL A   1      42.589  18.889  25.800  1.00  0.00     0.261 C 
BRANCH  36  37
ATOM     37  O   UNL A   1      43.132  19.818  24.861  1.00  0.00    -0.460 OA
BRANCH  37  38
ATOM     38  C   UNL A   1      44.425  20.155  25.086  1.00  0.00     0.338 C 
ATOM     39  O   UNL A   1      45.355  19.387  25.268  1.00  0.00    -0.246 OA
BRANCH  38  40
ATOM     40  C   UNL A   1      44.600  21.616  25.034  1.00  0.00     0.060 A 
ATOM     41  C   UNL A   1      45.756  22.134  25.626  1.00  0.00     0.016 A 
ATOM     42  C   UNL A   1      43.625  22.464  24.490  1.00  0.00     0.016 A 
ATOM     43  C   UNL A   1      45.839  23.491  25.860  1.00  0.00     0.010 A 
ATOM     44  C   UNL A   1      43.720  23.829  24.694  1.00  0.00     0.010 A 
ATOM     45  C   UNL A   1      44.760  24.303  25.494  1.00  0.00    -0.014 A 
BRANCH  45  46
ATOM     46  C   UNL A   1      44.581  25.499  26.305  1.00  0.00     0.031 A 
ATOM     47  C   UNL A   1      45.683  26.476  26.416  1.00  0.00     0.074 A 
ATOM     48  C   UNL A   1      43.440  25.641  27.009  1.00  0.00     0.049 A 
ATOM     49  N   UNL A   1      46.334  26.818  27.482  1.00  0.00    -0.248 NA
ATOM     50  C   UNL A   1      46.113  27.159  25.192  1.00  0.00     0.031 C 
ATOM     51  C   UNL A   1      42.178  24.907  26.846  1.00  0.00     0.029 A 
ATOM     52  N   UNL A   1      43.153  26.541  27.990  1.00  0.00    -0.354 N 
ATOM     53  C   UNL A   1      47.159  27.870  27.102  1.00  0.00     0.074 A 
ATOM     54  C   UNL A   1      47.034  27.997  25.670  1.00  0.00     0.031 C 
ATOM     55  C   UNL A   1      41.209  25.524  27.551  1.00  0.00     0.029 A 
ATOM     56  C   UNL A   1      41.811  26.600  28.316  1.00  0.00     0.049 A 
ATOM     57  H   UNL A   1      43.838  27.096  28.428  1.00  0.00     0.167 HD
ATOM     58  C   UNL A   1      47.782  28.677  28.002  1.00  0.00     0.037 A 
ATOM     59  C   UNL A   1      41.210  27.511  29.110  1.00  0.00     0.037 A 
ATOM     60  C   UNL A   1      47.853  28.104  29.315  1.00  0.00     0.049 A 
ATOM     61  C   UNL A   1      42.241  28.114  29.983  1.00  0.00     0.074 A 
ATOM     62  C   UNL A   1      48.466  26.994  29.859  1.00  0.00     0.029 A 
ATOM     63  N   UNL A   1      46.983  28.557  30.274  1.00  0.00    -0.354 N 
ATOM     64  N   UNL A   1      42.838  27.493  30.961  1.00  0.00    -0.248 NA
ATOM     65  C   UNL A   1      42.888  29.338  29.537  1.00  0.00     0.031 C 
ATOM     66  C   UNL A   1      47.626  26.583  30.934  1.00  0.00     0.029 A 
ATOM     67  C   UNL A   1      46.543  27.461  30.972  1.00  0.00     0.049 A 
ATOM     68  H   UNL A   1      46.723  29.493  30.431  1.00  0.00     0.167 HD
ATOM     69  C   UNL A   1      44.122  28.018  30.987  1.00  0.00     0.074 A 
ATOM     70  C   UNL A   1      44.051  29.231  30.184  1.00  0.00     0.031 C 
ATOM     71  C   UNL A   1      45.183  27.280  31.428  1.00  0.00     0.037 A 
BRANCH  58  72
ATOM     72  C   UNL A   1      48.123  30.109  27.725  1.00  0.00     0.057 A 
ATOM     73  C   UNL A   1      47.115  31.048  27.458  1.00  0.00     0.134 A 
ATOM     74  C   UNL A   1      49.441  30.539  27.482  1.00  0.00     0.134 A 
ATOM     75  F   UNL A   1      45.821  30.728  27.601  1.00  0.00    -0.206 F 
ATOM     76  C   UNL A   1      47.403  32.333  26.982  1.00  0.00     0.040 A 
ATOM     77  C   UNL A   1      49.744  31.833  27.049  1.00  0.00     0.040 A 
ATOM     78  F   UNL A   1      50.482  29.699  27.574  1.00  0.00    -0.206 F 
ATOM     79  C   UNL A   1      48.721  32.732  26.783  1.00  0.00     0.006 A 
ENDBRANCH  58  72
BRANCH  59  80
ATOM     80  C   UNL A   1      39.851  28.061  28.944  1.00  0.00     0.057 A 
ATOM     81  C   UNL A   1      38.918  28.027  29.984  1.00  0.00     0.134 A 
ATOM     82  C   UNL A   1      39.509  28.845  27.825  1.00  0.00     0.134 A 
ATOM     83  F   UNL A   1      39.179  27.348  31.110  1.00  0.00    -0.206 F 
ATOM     84  C   UNL A   1      37.712  28.736  29.918  1.00  0.00     0.040 A 
ATOM     85  C   UNL A   1      38.303  29.544  27.740  1.00  0.00     0.040 A 
ATOM     86  F   UNL A   1      40.367  29.022  26.810  1.00  0.00    -0.206 F 
ATOM     87  C   UNL A   1      37.404  29.501  28.795  1.00  0.00     0.006 A 
ENDBRANCH  59  80
BRANCH  71  88
ATOM     88  C   UNL A   1      44.884  26.011  32.173  1.00  0.00     0.057 A 
ATOM     89  C   UNL A   1      44.648  25.970  33.554  1.00  0.00     0.134 A 
ATOM     90  C   UNL A   1      44.676  24.827  31.455  1.00  0.00     0.134 A 
ATOM     91  F   UNL A   1      44.726  27.080  34.301  1.00  0.00    -0.206 F 
ATOM     92  C   UNL A   1      44.263  24.791  34.199  1.00  0.00     0.040 A 
ATOM     93  C   UNL A   1      44.266  23.650  32.083  1.00  0.00     0.040 A 
ATOM     94  F   UNL A   1      44.823  24.810  30.120  1.00  0.00    -0.206 F 
ATOM     95  C   UNL A   1      44.066  23.626  33.462  1.00  0.00     0.006 A 
ENDBRANCH  71  88
ENDBRANCH  45  46
ENDBRANCH  38  40
ENDBRANCH  37  38
ENDBRANCH  36  37
ENDBRANCH  35  36
ENDBRANCH  34  35
ENDBRANCH  33  34
ENDBRANCH  32  33
ENDBRANCH  31  32
ENDBRANCH   1  31
TORSDOF 23
ENDMDL
