MODEL 1
REMARK VINA RESULT:     -11.4      0.000      0.000
REMARK SMILES C[C@H]1[C@@H](C(=O)OCCOCCOCCOC(=O)c2ccc(-c3c4nc(c(-c5c(F)cccc5F)c5ccc([nH]5)c(-c5c(F)cccc5F)c5nc(c(-c6c(F)cccc6F)c6ccc3[nH]6)C=C5)C=C4)cc2)CCN1C(=O)c1cc2cc(F)ccc2s1
REMARK SMILES IDX 10 1 9 2 8 3 7 4 6 5 4 6 5 7 3 8 1 9 2 10 74 11 72 12 73 13
REMARK SMILES IDX 75 14 76 15 77 16 78 17 86 18 79 19 85 20 80 21 84 22 81 23
REMARK SMILES IDX 83 24 82 25 11 26 12 27 13 28 14 29 15 30 16 31 17 32 18 33
REMARK SMILES IDX 19 34 71 35 20 36 70 37 21 38 22 39 23 40 64 41 24 42 69 43
REMARK SMILES IDX 63 44 65 45 25 46 68 47 62 48 61 49 26 51 52 52 35 53 51 54
REMARK SMILES IDX 36 55 39 56 50 57 66 58 37 59 38 60 49 62 67 63 40 64 27 65
REMARK SMILES IDX 28 66 33 67 29 68 30 69 32 70 34 71 31 72 53 73 54 74 59 75
REMARK SMILES IDX 55 76 56 77 58 78 60 79 57 80 41 81 42 82 47 83 43 84 44 85
REMARK SMILES IDX 46 86 48 87 45 88
REMARK H PARENT 65 50 39 61
REMARK Flexibility Score: inf
ROOT
ATOM      1  C   UNL A   1      39.492  21.182  26.271  1.00  0.00     0.188 C 
ENDROOT
BRANCH   1   2
ATOM      2  O   UNL A   1      38.694  21.958  25.397  1.00  0.00    -0.376 OA
BRANCH   2   3
ATOM      3  C   UNL A   1      37.338  22.208  25.741  1.00  0.00     0.202 C 
BRANCH   3   4
ATOM      4  C   UNL A   1      36.298  21.139  25.409  1.00  0.00     0.261 C 
BRANCH   4   5
ATOM      5  O   UNL A   1      35.211  21.652  24.611  1.00  0.00    -0.463 OA
BRANCH   5   6
ATOM      6  C   UNL A   1      34.044  21.843  25.263  1.00  0.00     0.311 C 
ATOM      7  O   UNL A   1      33.602  21.071  26.111  1.00  0.00    -0.252 OA
BRANCH   6   8
ATOM      8  C   UNL A   1      33.327  23.151  24.973  1.00  0.00     0.123 C 
ATOM      9  C   UNL A   1      32.794  22.578  22.461  1.00  0.00     0.032 C 
ATOM     10  C   UNL A   1      32.768  23.587  23.599  1.00  0.00     0.096 C 
ATOM     11  N   UNL A   1      33.386  24.891  23.323  1.00  0.00    -0.334 N 
ATOM     12  C   UNL A   1      34.202  24.305  25.480  1.00  0.00     0.039 C 
ATOM     13  C   UNL A   1      34.289  25.313  24.366  1.00  0.00     0.121 C 
BRANCH  11  14
ATOM     14  C   UNL A   1      32.959  25.885  22.453  1.00  0.00     0.264 C 
ATOM     15  O   UNL A   1      33.525  26.032  21.367  1.00  0.00    -0.268 OA
BRANCH  14  16
ATOM     16  C   UNL A   1      31.785  26.681  22.752  1.00  0.00     0.093 A 
ATOM     17  C   UNL A   1      30.881  26.432  23.775  1.00  0.00     0.034 A 
ATOM     18  S   UNL A   1      31.996  28.396  22.661  1.00  0.00    -0.130 S 
ATOM     19  C   UNL A   1      31.203  27.338  24.860  1.00  0.00    -0.004 A 
ATOM     20  C   UNL A   1      31.922  28.448  24.392  1.00  0.00     0.035 A 
ATOM     21  C   UNL A   1      31.023  27.199  26.255  1.00  0.00     0.048 A 
ATOM     22  C   UNL A   1      32.497  29.392  25.261  1.00  0.00     0.022 A 
ATOM     23  C   UNL A   1      31.654  28.096  27.115  1.00  0.00     0.123 A 
ATOM     24  C   UNL A   1      32.391  29.169  26.636  1.00  0.00     0.041 A 
ATOM     25  F   UNL A   1      31.582  27.890  28.437  1.00  0.00    -0.207 F 
ENDBRANCH  14  16
ENDBRANCH  11  14
ENDBRANCH   6   8
ENDBRANCH   5   6
ENDBRANCH   4   5
ENDBRANCH   3   4
ENDBRANCH   2   3
ENDBRANCH   1   2
BRANCH   1  26
ATOM     26  C   UNL A   1      39.927  19.762  25.865  1.00  0.00     0.188 C 
BRANCH  26  27
ATOM     27  O   UNL A   1      41.287  19.394  25.771  1.00  0.00    -0.376 OA
BRANCH  27  28
ATOM     28  C   UNL A   1      42.267  20.100  26.511  1.00  0.00     0.202 C 
BRANCH  28  29
ATOM     29  C   UNL A   1      43.111  21.187  25.840  1.00  0.00     0.261 C 
BRANCH  29  30
ATOM     30  O   UNL A   1      42.386  22.370  25.482  1.00  0.00    -0.460 OA
BRANCH  30  31
ATOM     31  C   UNL A   1      43.147  23.474  25.286  1.00  0.00     0.338 C 
ATOM     32  O   UNL A   1      44.042  23.634  24.470  1.00  0.00    -0.246 OA
BRANCH  31  33
ATOM     33  C   UNL A   1      42.624  24.560  26.126  1.00  0.00     0.060 A 
ATOM     34  C   UNL A   1      43.071  25.871  25.907  1.00  0.00     0.016 A 
ATOM     35  C   UNL A   1      41.730  24.273  27.156  1.00  0.00     0.016 A 
ATOM     36  C   UNL A   1      42.625  26.907  26.725  1.00  0.00     0.010 A 
ATOM     37  C   UNL A   1      41.309  25.304  27.993  1.00  0.00     0.010 A 
ATOM     38  C   UNL A   1      41.770  26.619  27.794  1.00  0.00    -0.014 A 
BRANCH  38  39
ATOM     39  C   UNL A   1      41.490  27.627  28.839  1.00  0.00     0.031 A 
ATOM     40  C   UNL A   1      42.280  27.559  30.113  1.00  0.00     0.074 A 
ATOM     41  C   UNL A   1      40.512  28.536  28.687  1.00  0.00     0.049 A 
ATOM     42  N   UNL A   1      42.064  28.153  31.257  1.00  0.00    -0.248 NA
ATOM     43  C   UNL A   1      43.468  26.690  30.093  1.00  0.00     0.031 C 
ATOM     44  C   UNL A   1      39.729  28.744  27.473  1.00  0.00     0.029 A 
ATOM     45  N   UNL A   1      39.991  29.432  29.587  1.00  0.00    -0.354 N 
ATOM     46  C   UNL A   1      43.071  27.705  32.102  1.00  0.00     0.074 A 
ATOM     47  C   UNL A   1      43.891  26.787  31.344  1.00  0.00     0.031 C 
ATOM     48  C   UNL A   1      38.799  29.685  27.712  1.00  0.00     0.029 A 
ATOM     49  C   UNL A   1      38.888  30.100  29.112  1.00  0.00     0.049 A 
ATOM     50  H   UNL A   1      40.370  29.581  30.483  1.00  0.00     0.167 HD
ATOM     51  C   UNL A   1      43.283  28.028  33.400  1.00  0.00     0.037 A 
ATOM     52  C   UNL A   1      38.023  30.908  29.755  1.00  0.00     0.037 A 
ATOM     53  C   UNL A   1      42.456  28.941  34.142  1.00  0.00     0.049 A 
ATOM     54  C   UNL A   1      38.221  31.183  31.224  1.00  0.00     0.074 A 
ATOM     55  C   UNL A   1      42.583  29.339  35.460  1.00  0.00     0.029 A 
ATOM     56  N   UNL A   1      41.346  29.592  33.628  1.00  0.00    -0.354 N 
ATOM     57  N   UNL A   1      39.164  30.750  32.027  1.00  0.00    -0.248 NA
ATOM     58  C   UNL A   1      37.230  32.048  31.881  1.00  0.00     0.031 C 
ATOM     59  C   UNL A   1      41.516  30.192  35.759  1.00  0.00     0.029 A 
ATOM     60  C   UNL A   1      40.764  30.374  34.610  1.00  0.00     0.049 A 
ATOM     61  H   UNL A   1      41.021  29.510  32.702  1.00  0.00     0.167 HD
ATOM     62  C   UNL A   1      38.905  31.323  33.267  1.00  0.00     0.074 A 
ATOM     63  C   UNL A   1      37.712  32.129  33.113  1.00  0.00     0.031 C 
ATOM     64  C   UNL A   1      39.594  31.196  34.427  1.00  0.00     0.037 A 
BRANCH  51  65
ATOM     65  C   UNL A   1      44.421  27.353  34.104  1.00  0.00     0.057 A 
ATOM     66  C   UNL A   1      44.278  26.104  34.721  1.00  0.00     0.134 A 
ATOM     67  C   UNL A   1      45.686  27.952  34.142  1.00  0.00     0.134 A 
ATOM     68  F   UNL A   1      43.090  25.483  34.735  1.00  0.00    -0.206 F 
ATOM     69  C   UNL A   1      45.348  25.487  35.374  1.00  0.00     0.040 A 
ATOM     70  C   UNL A   1      46.769  27.333  34.768  1.00  0.00     0.040 A 
ATOM     71  F   UNL A   1      45.892  29.148  33.569  1.00  0.00    -0.206 F 
ATOM     72  C   UNL A   1      46.599  26.100  35.392  1.00  0.00     0.006 A 
ENDBRANCH  51  65
BRANCH  52  73
ATOM     73  C   UNL A   1      36.864  31.488  29.028  1.00  0.00     0.057 A 
ATOM     74  C   UNL A   1      36.865  32.827  28.616  1.00  0.00     0.134 A 
ATOM     75  C   UNL A   1      35.719  30.730  28.748  1.00  0.00     0.134 A 
ATOM     76  F   UNL A   1      37.920  33.611  28.878  1.00  0.00    -0.206 F 
ATOM     77  C   UNL A   1      35.766  33.394  27.970  1.00  0.00     0.040 A 
ATOM     78  C   UNL A   1      34.624  31.277  28.078  1.00  0.00     0.040 A 
ATOM     79  F   UNL A   1      35.653  29.442  29.117  1.00  0.00    -0.206 F 
ATOM     80  C   UNL A   1      34.643  32.616  27.693  1.00  0.00     0.006 A 
ENDBRANCH  52  73
BRANCH  64  81
ATOM     81  C   UNL A   1      39.134  31.998  35.609  1.00  0.00     0.057 A 
ATOM     82  C   UNL A   1      38.349  31.443  36.625  1.00  0.00     0.134 A 
ATOM     83  C   UNL A   1      39.569  33.321  35.773  1.00  0.00     0.134 A 
ATOM     84  F   UNL A   1      37.891  30.187  36.523  1.00  0.00    -0.206 F 
ATOM     85  C   UNL A   1      38.009  32.178  37.763  1.00  0.00     0.040 A 
ATOM     86  C   UNL A   1      39.258  34.055  36.918  1.00  0.00     0.040 A 
ATOM     87  F   UNL A   1      40.334  33.907  34.840  1.00  0.00    -0.206 F 
ATOM     88  C   UNL A   1      38.476  33.484  37.917  1.00  0.00     0.006 A 
ENDBRANCH  64  81
ENDBRANCH  38  39
ENDBRANCH  31  33
ENDBRANCH  30  31
ENDBRANCH  29  30
ENDBRANCH  28  29
ENDBRANCH  27  28
ENDBRANCH  26  27
ENDBRANCH   1  26
TORSDOF 19
ENDMDL
MODEL 2
REMARK VINA RESULT:     -11.3      1.175      2.238
REMARK SMILES C[C@H]1[C@@H](C(=O)OCCOCCOCCOC(=O)c2ccc(-c3c4nc(c(-c5c(F)cccc5F)c5ccc([nH]5)c(-c5c(F)cccc5F)c5nc(c(-c6c(F)cccc6F)c6ccc3[nH]6)C=C5)C=C4)cc2)CCN1C(=O)c1cc2cc(F)ccc2s1
REMARK SMILES IDX 10 1 9 2 8 3 7 4 6 5 4 6 5 7 3 8 1 9 2 10 74 11 72 12 73 13
REMARK SMILES IDX 75 14 76 15 77 16 78 17 86 18 79 19 85 20 80 21 84 22 81 23
REMARK SMILES IDX 83 24 82 25 11 26 12 27 13 28 14 29 15 30 16 31 17 32 18 33
REMARK SMILES IDX 19 34 71 35 20 36 70 37 21 38 22 39 23 40 64 41 24 42 69 43
REMARK SMILES IDX 63 44 65 45 25 46 68 47 62 48 61 49 26 51 52 52 35 53 51 54
REMARK SMILES IDX 36 55 39 56 50 57 66 58 37 59 38 60 49 62 67 63 40 64 27 65
REMARK SMILES IDX 28 66 33 67 29 68 30 69 32 70 34 71 31 72 53 73 54 74 59 75
REMARK SMILES IDX 55 76 56 77 58 78 60 79 57 80 41 81 42 82 47 83 43 84 44 85
REMARK SMILES IDX 46 86 48 87 45 88
REMARK H PARENT 65 50 39 61
REMARK Flexibility Score: inf
ROOT
ATOM      1  C   UNL A   1      39.365  21.075  26.157  1.00  0.00     0.188 C 
ENDROOT
BRANCH   1   2
ATOM      2  O   UNL A   1      38.534  21.810  25.279  1.00  0.00    -0.376 OA
BRANCH   2   3
ATOM      3  C   UNL A   1      37.316  22.351  25.771  1.00  0.00     0.202 C 
BRANCH   3   4
ATOM      4  C   UNL A   1      36.044  21.517  25.629  1.00  0.00     0.261 C 
BRANCH   4   5
ATOM      5  O   UNL A   1      35.613  21.393  24.257  1.00  0.00    -0.463 OA
BRANCH   5   6
ATOM      6  C   UNL A   1      35.476  22.552  23.578  1.00  0.00     0.311 C 
ATOM      7  O   UNL A   1      36.343  23.018  22.842  1.00  0.00    -0.252 OA
BRANCH   6   8
ATOM      8  C   UNL A   1      34.117  23.224  23.679  1.00  0.00     0.123 C 
ATOM      9  C   UNL A   1      34.782  24.804  25.676  1.00  0.00     0.032 C 
ATOM     10  C   UNL A   1      33.708  24.274  24.738  1.00  0.00     0.096 C 
ATOM     11  N   UNL A   1      32.499  23.733  25.376  1.00  0.00    -0.334 N 
ATOM     12  C   UNL A   1      33.038  22.134  23.699  1.00  0.00     0.039 C 
ATOM     13  C   UNL A   1      32.117  22.448  24.846  1.00  0.00     0.121 C 
BRANCH  11  14
ATOM     14  C   UNL A   1      31.520  24.411  26.089  1.00  0.00     0.264 C 
ATOM     15  O   UNL A   1      31.264  24.073  27.248  1.00  0.00    -0.268 OA
BRANCH  14  16
ATOM     16  C   UNL A   1      30.871  25.581  25.534  1.00  0.00     0.093 A 
ATOM     17  C   UNL A   1      31.302  26.891  25.685  1.00  0.00     0.034 A 
ATOM     18  S   UNL A   1      30.285  25.419  23.913  1.00  0.00    -0.130 S 
ATOM     19  C   UNL A   1      31.986  27.260  24.461  1.00  0.00    -0.004 A 
ATOM     20  C   UNL A   1      31.583  26.445  23.394  1.00  0.00     0.035 A 
ATOM     21  C   UNL A   1      33.036  28.180  24.238  1.00  0.00     0.048 A 
ATOM     22  C   UNL A   1      32.211  26.485  22.137  1.00  0.00     0.022 A 
ATOM     23  C   UNL A   1      33.704  28.166  23.015  1.00  0.00     0.123 A 
ATOM     24  C   UNL A   1      33.313  27.328  21.981  1.00  0.00     0.041 A 
ATOM     25  F   UNL A   1      34.776  28.953  22.850  1.00  0.00    -0.207 F 
ENDBRANCH  14  16
ENDBRANCH  11  14
ENDBRANCH   6   8
ENDBRANCH   5   6
ENDBRANCH   4   5
ENDBRANCH   3   4
ENDBRANCH   2   3
ENDBRANCH   1   2
BRANCH   1  26
ATOM     26  C   UNL A   1      39.874  19.680  25.754  1.00  0.00     0.188 C 
BRANCH  26  27
ATOM     27  O   UNL A   1      41.252  19.387  25.650  1.00  0.00    -0.376 OA
BRANCH  27  28
ATOM     28  C   UNL A   1      42.193  20.111  26.424  1.00  0.00     0.202 C 
BRANCH  28  29
ATOM     29  C   UNL A   1      43.029  21.224  25.787  1.00  0.00     0.261 C 
BRANCH  29  30
ATOM     30  O   UNL A   1      42.307  22.430  25.512  1.00  0.00    -0.460 OA
BRANCH  30  31
ATOM     31  C   UNL A   1      43.075  23.532  25.334  1.00  0.00     0.338 C 
ATOM     32  O   UNL A   1      43.985  23.692  24.535  1.00  0.00    -0.246 OA
BRANCH  31  33
ATOM     33  C   UNL A   1      42.539  24.617  26.168  1.00  0.00     0.060 A 
ATOM     34  C   UNL A   1      43.031  25.919  25.996  1.00  0.00     0.016 A 
ATOM     35  C   UNL A   1      41.588  24.336  27.148  1.00  0.00     0.016 A 
ATOM     36  C   UNL A   1      42.573  26.953  26.810  1.00  0.00     0.010 A 
ATOM     37  C   UNL A   1      41.154  25.364  27.982  1.00  0.00     0.010 A 
ATOM     38  C   UNL A   1      41.659  26.669  27.831  1.00  0.00    -0.014 A 
BRANCH  38  39
ATOM     39  C   UNL A   1      41.354  27.667  28.880  1.00  0.00     0.031 A 
ATOM     40  C   UNL A   1      42.138  27.607  30.157  1.00  0.00     0.074 A 
ATOM     41  C   UNL A   1      40.360  28.558  28.727  1.00  0.00     0.049 A 
ATOM     42  N   UNL A   1      41.906  28.190  31.303  1.00  0.00    -0.248 NA
ATOM     43  C   UNL A   1      43.342  26.760  30.139  1.00  0.00     0.031 C 
ATOM     44  C   UNL A   1      39.579  28.757  27.510  1.00  0.00     0.029 A 
ATOM     45  N   UNL A   1      39.817  29.438  29.629  1.00  0.00    -0.354 N 
ATOM     46  C   UNL A   1      42.916  27.756  32.151  1.00  0.00     0.074 A 
ATOM     47  C   UNL A   1      43.757  26.858  31.393  1.00  0.00     0.031 C 
ATOM     48  C   UNL A   1      38.631  29.679  27.749  1.00  0.00     0.029 A 
ATOM     49  C   UNL A   1      38.704  30.087  29.152  1.00  0.00     0.049 A 
ATOM     50  H   UNL A   1      40.188  29.590  30.528  1.00  0.00     0.167 HD
ATOM     51  C   UNL A   1      43.115  28.076  33.452  1.00  0.00     0.037 A 
ATOM     52  C   UNL A   1      37.820  30.876  29.794  1.00  0.00     0.037 A 
ATOM     53  C   UNL A   1      42.267  28.969  34.194  1.00  0.00     0.049 A 
ATOM     54  C   UNL A   1      38.005  31.146  31.266  1.00  0.00     0.074 A 
ATOM     55  C   UNL A   1      42.379  29.363  35.515  1.00  0.00     0.029 A 
ATOM     56  N   UNL A   1      41.147  29.602  33.678  1.00  0.00    -0.354 N 
ATOM     57  N   UNL A   1      38.952  30.727  32.072  1.00  0.00    -0.248 NA
ATOM     58  C   UNL A   1      36.995  31.989  31.922  1.00  0.00     0.031 C 
ATOM     59  C   UNL A   1      41.295  30.194  35.813  1.00  0.00     0.029 A 
ATOM     60  C   UNL A   1      40.545  30.368  34.661  1.00  0.00     0.049 A 
ATOM     61  H   UNL A   1      40.828  29.519  32.750  1.00  0.00     0.167 HD
ATOM     62  C   UNL A   1      38.676  31.288  33.314  1.00  0.00     0.074 A 
ATOM     63  C   UNL A   1      37.469  32.072  33.157  1.00  0.00     0.031 C 
ATOM     64  C   UNL A   1      39.361  31.169  34.476  1.00  0.00     0.037 A 
BRANCH  51  65
ATOM     65  C   UNL A   1      44.262  27.419  34.158  1.00  0.00     0.057 A 
ATOM     66  C   UNL A   1      45.563  27.935  34.103  1.00  0.00     0.134 A 
ATOM     67  C   UNL A   1      44.055  26.266  34.926  1.00  0.00     0.134 A 
ATOM     68  F   UNL A   1      45.833  29.026  33.372  1.00  0.00    -0.206 F 
ATOM     69  C   UNL A   1      46.623  27.311  34.766  1.00  0.00     0.040 A 
ATOM     70  C   UNL A   1      45.101  25.651  35.616  1.00  0.00     0.040 A 
ATOM     71  F   UNL A   1      42.833  25.722  35.023  1.00  0.00    -0.206 F 
ATOM     72  C   UNL A   1      46.390  26.170  35.530  1.00  0.00     0.006 A 
ENDBRANCH  51  65
BRANCH  52  73
ATOM     73  C   UNL A   1      36.654  31.438  29.064  1.00  0.00     0.057 A 
ATOM     74  C   UNL A   1      35.560  30.634  28.722  1.00  0.00     0.134 A 
ATOM     75  C   UNL A   1      36.613  32.781  28.671  1.00  0.00     0.134 A 
ATOM     76  F   UNL A   1      35.551  29.334  29.047  1.00  0.00    -0.206 F 
ATOM     77  C   UNL A   1      34.478  31.141  28.000  1.00  0.00     0.040 A 
ATOM     78  C   UNL A   1      35.525  33.308  27.974  1.00  0.00     0.040 A 
ATOM     79  F   UNL A   1      37.630  33.605  28.967  1.00  0.00    -0.206 F 
ATOM     80  C   UNL A   1      34.456  32.484  27.629  1.00  0.00     0.006 A 
ENDBRANCH  52  73
BRANCH  64  81
ATOM     81  C   UNL A   1      38.880  31.955  35.660  1.00  0.00     0.057 A 
ATOM     82  C   UNL A   1      38.154  31.366  36.701  1.00  0.00     0.134 A 
ATOM     83  C   UNL A   1      39.236  33.304  35.799  1.00  0.00     0.134 A 
ATOM     84  F   UNL A   1      37.773  30.082  36.623  1.00  0.00    -0.206 F 
ATOM     85  C   UNL A   1      37.796  32.092  37.838  1.00  0.00     0.040 A 
ATOM     86  C   UNL A   1      38.907  34.032  36.943  1.00  0.00     0.040 A 
ATOM     87  F   UNL A   1      39.941  33.924  34.841  1.00  0.00    -0.206 F 
ATOM     88  C   UNL A   1      38.184  33.426  37.967  1.00  0.00     0.006 A 
ENDBRANCH  64  81
ENDBRANCH  38  39
ENDBRANCH  31  33
ENDBRANCH  30  31
ENDBRANCH  29  30
ENDBRANCH  28  29
ENDBRANCH  27  28
ENDBRANCH  26  27
ENDBRANCH   1  26
TORSDOF 19
ENDMDL
MODEL 3
REMARK VINA RESULT:     -11.3      4.658      9.725
REMARK SMILES C[C@H]1[C@@H](C(=O)OCCOCCOCCOC(=O)c2ccc(-c3c4nc(c(-c5c(F)cccc5F)c5ccc([nH]5)c(-c5c(F)cccc5F)c5nc(c(-c6c(F)cccc6F)c6ccc3[nH]6)C=C5)C=C4)cc2)CCN1C(=O)c1cc2cc(F)ccc2s1
REMARK SMILES IDX 10 1 9 2 8 3 7 4 6 5 4 6 5 7 3 8 1 9 2 10 74 11 72 12 73 13
REMARK SMILES IDX 75 14 76 15 77 16 78 17 86 18 79 19 85 20 80 21 84 22 81 23
REMARK SMILES IDX 83 24 82 25 11 26 12 27 13 28 14 29 15 30 16 31 17 32 18 33
REMARK SMILES IDX 19 34 71 35 20 36 70 37 21 38 22 39 23 40 64 41 24 42 69 43
REMARK SMILES IDX 63 44 65 45 25 46 68 47 62 48 61 49 26 51 52 52 35 53 51 54
REMARK SMILES IDX 36 55 39 56 50 57 66 58 37 59 38 60 49 62 67 63 40 64 27 65
REMARK SMILES IDX 28 66 33 67 29 68 30 69 32 70 34 71 31 72 53 73 54 74 59 75
REMARK SMILES IDX 55 76 56 77 58 78 60 79 57 80 41 81 42 82 47 83 43 84 44 85
REMARK SMILES IDX 46 86 48 87 45 88
REMARK H PARENT 65 50 39 61
REMARK Flexibility Score: inf
ROOT
ATOM      1  C   UNL A   1      33.795  32.507  27.915  1.00  0.00     0.188 C 
ENDROOT
BRANCH   1   2
ATOM      2  O   UNL A   1      33.331  31.265  27.419  1.00  0.00    -0.376 OA
BRANCH   2   3
ATOM      3  C   UNL A   1      32.042  31.197  26.826  1.00  0.00     0.202 C 
BRANCH   3   4
ATOM      4  C   UNL A   1      31.791  30.128  25.764  1.00  0.00     0.261 C 
BRANCH   4   5
ATOM      5  O   UNL A   1      33.005  29.691  25.119  1.00  0.00    -0.463 OA
BRANCH   5   6
ATOM      6  C   UNL A   1      33.336  28.395  25.307  1.00  0.00     0.311 C 
ATOM      7  O   UNL A   1      34.090  28.006  26.197  1.00  0.00    -0.252 OA
BRANCH   6   8
ATOM      8  C   UNL A   1      32.632  27.393  24.409  1.00  0.00     0.123 C 
ATOM      9  C   UNL A   1      30.895  26.622  26.230  1.00  0.00     0.032 C 
ATOM     10  C   UNL A   1      31.485  26.448  24.839  1.00  0.00     0.096 C 
ATOM     11  N   UNL A   1      31.944  25.096  24.494  1.00  0.00    -0.334 N 
ATOM     12  C   UNL A   1      33.695  26.517  23.734  1.00  0.00     0.039 C 
ATOM     13  C   UNL A   1      33.264  25.086  23.912  1.00  0.00     0.121 C 
BRANCH  11  14
ATOM     14  C   UNL A   1      31.188  23.948  24.300  1.00  0.00     0.264 C 
ATOM     15  O   UNL A   1      30.441  23.866  23.322  1.00  0.00    -0.268 OA
BRANCH  14  16
ATOM     16  C   UNL A   1      31.346  22.798  25.168  1.00  0.00     0.093 A 
ATOM     17  C   UNL A   1      31.876  21.571  24.794  1.00  0.00     0.034 A 
ATOM     18  S   UNL A   1      31.914  23.135  26.768  1.00  0.00    -0.130 S 
ATOM     19  C   UNL A   1      33.246  21.536  25.267  1.00  0.00    -0.004 A 
ATOM     20  C   UNL A   1      33.439  22.443  26.318  1.00  0.00     0.035 A 
ATOM     21  C   UNL A   1      34.374  20.854  24.756  1.00  0.00     0.048 A 
ATOM     22  C   UNL A   1      34.712  22.723  26.846  1.00  0.00     0.022 A 
ATOM     23  C   UNL A   1      35.642  21.187  25.231  1.00  0.00     0.123 A 
ATOM     24  C   UNL A   1      35.818  22.113  26.249  1.00  0.00     0.041 A 
ATOM     25  F   UNL A   1      36.718  20.630  24.661  1.00  0.00    -0.207 F 
ENDBRANCH  14  16
ENDBRANCH  11  14
ENDBRANCH   6   8
ENDBRANCH   5   6
ENDBRANCH   4   5
ENDBRANCH   3   4
ENDBRANCH   2   3
ENDBRANCH   1   2
BRANCH   1  26
ATOM     26  C   UNL A   1      32.881  33.745  27.875  1.00  0.00     0.188 C 
BRANCH  26  27
ATOM     27  O   UNL A   1      32.649  34.542  29.017  1.00  0.00    -0.376 OA
BRANCH  27  28
ATOM     28  C   UNL A   1      33.726  35.214  29.646  1.00  0.00     0.202 C 
BRANCH  28  29
ATOM     29  C   UNL A   1      34.299  34.694  30.967  1.00  0.00     0.261 C 
BRANCH  29  30
ATOM     30  O   UNL A   1      35.433  33.830  30.828  1.00  0.00    -0.460 OA
BRANCH  30  31
ATOM     31  C   UNL A   1      35.298  32.607  31.395  1.00  0.00     0.338 C 
ATOM     32  O   UNL A   1      34.354  32.180  32.042  1.00  0.00    -0.246 OA
BRANCH  31  33
ATOM     33  C   UNL A   1      36.430  31.768  30.977  1.00  0.00     0.060 A 
ATOM     34  C   UNL A   1      37.171  31.086  31.952  1.00  0.00     0.016 A 
ATOM     35  C   UNL A   1      36.782  31.695  29.631  1.00  0.00     0.016 A 
ATOM     36  C   UNL A   1      38.279  30.325  31.583  1.00  0.00     0.010 A 
ATOM     37  C   UNL A   1      37.907  30.961  29.266  1.00  0.00     0.010 A 
ATOM     38  C   UNL A   1      38.671  30.291  30.240  1.00  0.00    -0.014 A 
BRANCH  38  39
ATOM     39  C   UNL A   1      39.980  29.727  29.842  1.00  0.00     0.031 A 
ATOM     40  C   UNL A   1      41.149  30.662  29.747  1.00  0.00     0.074 A 
ATOM     41  C   UNL A   1      40.109  28.432  29.509  1.00  0.00     0.049 A 
ATOM     42  N   UNL A   1      42.318  30.476  29.194  1.00  0.00    -0.248 NA
ATOM     43  C   UNL A   1      40.965  31.994  30.347  1.00  0.00     0.031 C 
ATOM     44  C   UNL A   1      39.066  27.417  29.630  1.00  0.00     0.029 A 
ATOM     45  N   UNL A   1      41.175  27.762  28.963  1.00  0.00    -0.354 N 
ATOM     46  C   UNL A   1      42.998  31.677  29.352  1.00  0.00     0.074 A 
ATOM     47  C   UNL A   1      42.110  32.584  30.043  1.00  0.00     0.031 C 
ATOM     48  C   UNL A   1      39.532  26.256  29.138  1.00  0.00     0.029 A 
ATOM     49  C   UNL A   1      40.882  26.466  28.616  1.00  0.00     0.049 A 
ATOM     50  H   UNL A   1      42.061  28.171  28.832  1.00  0.00     0.167 HD
ATOM     51  C   UNL A   1      44.250  31.992  28.945  1.00  0.00     0.037 A 
ATOM     52  C   UNL A   1      41.606  25.574  27.910  1.00  0.00     0.037 A 
ATOM     53  C   UNL A   1      45.121  31.079  28.255  1.00  0.00     0.049 A 
ATOM     54  C   UNL A   1      42.961  25.974  27.384  1.00  0.00     0.074 A 
ATOM     55  C   UNL A   1      46.408  31.295  27.799  1.00  0.00     0.029 A 
ATOM     56  N   UNL A   1      44.786  29.777  27.917  1.00  0.00    -0.354 N 
ATOM     57  N   UNL A   1      43.599  27.112  27.521  1.00  0.00    -0.248 NA
ATOM     58  C   UNL A   1      43.694  24.972  26.597  1.00  0.00     0.031 C 
ATOM     59  C   UNL A   1      46.834  30.139  27.139  1.00  0.00     0.029 A 
ATOM     60  C   UNL A   1      45.836  29.183  27.239  1.00  0.00     0.049 A 
ATOM     61  H   UNL A   1      43.929  29.340  28.129  1.00  0.00     0.167 HD
ATOM     62  C   UNL A   1      44.820  26.948  26.877  1.00  0.00     0.074 A 
ATOM     63  C   UNL A   1      44.831  25.602  26.343  1.00  0.00     0.031 C 
ATOM     64  C   UNL A   1      45.841  27.829  26.743  1.00  0.00     0.037 A 
BRANCH  51  65
ATOM     65  C   UNL A   1      44.727  33.391  29.195  1.00  0.00     0.057 A 
ATOM     66  C   UNL A   1      45.443  33.738  30.348  1.00  0.00     0.134 A 
ATOM     67  C   UNL A   1      44.487  34.400  28.254  1.00  0.00     0.134 A 
ATOM     68  F   UNL A   1      45.692  32.823  31.295  1.00  0.00    -0.206 F 
ATOM     69  C   UNL A   1      45.881  35.046  30.567  1.00  0.00     0.040 A 
ATOM     70  C   UNL A   1      44.944  35.704  28.449  1.00  0.00     0.040 A 
ATOM     71  F   UNL A   1      43.809  34.134  27.127  1.00  0.00    -0.206 F 
ATOM     72  C   UNL A   1      45.637  36.031  29.612  1.00  0.00     0.006 A 
ENDBRANCH  51  65
BRANCH  52  73
ATOM     73  C   UNL A   1      41.052  24.226  27.622  1.00  0.00     0.057 A 
ATOM     74  C   UNL A   1      41.533  23.090  28.285  1.00  0.00     0.134 A 
ATOM     75  C   UNL A   1      40.048  24.035  26.664  1.00  0.00     0.134 A 
ATOM     76  F   UNL A   1      42.512  23.204  29.194  1.00  0.00    -0.206 F 
ATOM     77  C   UNL A   1      41.050  21.813  27.993  1.00  0.00     0.040 A 
ATOM     78  C   UNL A   1      39.536  22.767  26.383  1.00  0.00     0.040 A 
ATOM     79  F   UNL A   1      39.544  25.081  25.993  1.00  0.00    -0.206 F 
ATOM     80  C   UNL A   1      40.043  21.650  27.042  1.00  0.00     0.006 A 
ENDBRANCH  52  73
BRANCH  64  81
ATOM     81  C   UNL A   1      47.091  27.358  26.060  1.00  0.00     0.057 A 
ATOM     82  C   UNL A   1      48.118  26.707  26.751  1.00  0.00     0.134 A 
ATOM     83  C   UNL A   1      47.217  27.476  24.668  1.00  0.00     0.134 A 
ATOM     84  F   UNL A   1      48.062  26.572  28.084  1.00  0.00    -0.206 F 
ATOM     85  C   UNL A   1      49.230  26.192  26.083  1.00  0.00     0.040 A 
ATOM     86  C   UNL A   1      48.311  26.943  23.987  1.00  0.00     0.040 A 
ATOM     87  F   UNL A   1      46.262  28.081  23.947  1.00  0.00    -0.206 F 
ATOM     88  C   UNL A   1      49.322  26.298  24.694  1.00  0.00     0.006 A 
ENDBRANCH  64  81
ENDBRANCH  38  39
ENDBRANCH  31  33
ENDBRANCH  30  31
ENDBRANCH  29  30
ENDBRANCH  28  29
ENDBRANCH  27  28
ENDBRANCH  26  27
ENDBRANCH   1  26
TORSDOF 19
ENDMDL
