MODEL 1
REMARK VINA RESULT:     -11.3      0.000      0.000
REMARK SMILES COc1ccccc1[C@@H]1C[N@@H+](Cc2cn3cc(C)ccc3n2)C[C@H]1C(=O)OCCOCCOCCOC(=O)c1ccc(-c2c3nc(c(-c4c(F)cccc4F)c4ccc([nH]4)c(-c4c(F)cccc4F)c4nc(c(-c5c(F)cccc5F)c5ccc2[nH]5)C=C4)C=C3)cc1
REMARK SMILES IDX 31 1 30 2 29 3 28 4 27 5 25 6 26 7 24 8 9 9 10 10 11 11
REMARK SMILES IDX 23 12 8 14 3 15 4 16 5 17 7 18 6 19 2 20 1 21 12 22 13 23
REMARK SMILES IDX 14 24 22 25 15 26 21 27 16 28 20 29 17 30 19 31 18 32 32 33
REMARK SMILES IDX 33 34 34 35 35 36 36 37 37 38 38 39 39 40 40 41 92 42 41 43
REMARK SMILES IDX 91 44 42 45 43 46 44 47 85 48 45 49 90 50 84 51 86 52 46 53
REMARK SMILES IDX 89 54 83 55 82 56 47 58 73 59 56 60 72 61 57 62 60 63 71 64
REMARK SMILES IDX 87 65 58 66 59 67 70 69 88 70 61 71 48 72 49 73 54 74 50 75
REMARK SMILES IDX 51 76 53 77 55 78 52 79 74 80 75 81 80 82 76 83 77 84 79 85
REMARK SMILES IDX 81 86 78 87 62 88 63 89 68 90 64 91 65 92 67 93 69 94 66 95
REMARK H PARENT 11 13 86 57 60 68
REMARK Flexibility Score: inf
ROOT
ATOM      1  C   UNL A   1      39.297  22.570  26.522  1.00  0.00     0.188 C 
ENDROOT
BRANCH   1   2
ATOM      2  O   UNL A   1      38.065  22.551  25.810  1.00  0.00    -0.376 OA
BRANCH   2   3
ATOM      3  C   UNL A   1      37.234  23.710  25.870  1.00  0.00     0.202 C 
BRANCH   3   4
ATOM      4  C   UNL A   1      35.716  23.498  25.794  1.00  0.00     0.261 C 
BRANCH   4   5
ATOM      5  O   UNL A   1      35.054  24.161  24.688  1.00  0.00    -0.463 OA
BRANCH   5   6
ATOM      6  C   UNL A   1      35.179  23.547  23.490  1.00  0.00     0.315 C 
ATOM      7  O   UNL A   1      36.172  23.663  22.770  1.00  0.00    -0.252 OA
BRANCH   6   8
ATOM      8  C   UNL A   1      33.984  22.760  22.984  1.00  0.00     0.167 C 
ATOM      9  C   UNL A   1      33.121  21.786  23.788  1.00  0.00     0.098 C 
ATOM     10  C   UNL A   1      31.741  21.903  23.115  1.00  0.00     0.272 C 
ATOM     11  N   UNL A   1      31.630  23.276  22.634  1.00  0.00    -0.329 N 
ATOM     12  C   UNL A   1      32.990  23.781  22.418  1.00  0.00     0.278 C 
ATOM     13  H   UNL A   1      31.117  23.272  21.753  1.00  0.00     0.348 HD
BRANCH   9  14
ATOM     14  C   UNL A   1      33.395  20.292  24.020  1.00  0.00     0.004 A 
ATOM     15  C   UNL A   1      34.496  19.605  24.566  1.00  0.00     0.122 A 
ATOM     16  C   UNL A   1      34.495  18.183  24.552  1.00  0.00     0.047 A 
ATOM     17  C   UNL A   1      33.479  17.422  23.989  1.00  0.00     0.004 A 
ATOM     18  C   UNL A   1      32.378  19.469  23.432  1.00  0.00     0.008 A 
ATOM     19  C   UNL A   1      32.411  18.073  23.415  1.00  0.00     0.001 A 
BRANCH  15  20
ATOM     20  O   UNL A   1      35.679  19.977  25.119  1.00  0.00    -0.496 OA
ATOM     21  C   UNL A   1      36.949  19.460  24.832  1.00  0.00     0.278 C 
ENDBRANCH  15  20
ENDBRANCH   9  14
BRANCH  11  22
ATOM     22  C   UNL A   1      30.788  24.159  23.456  1.00  0.00     0.321 C 
BRANCH  22  23
ATOM     23  C   UNL A   1      31.489  25.345  24.052  1.00  0.00     0.114 A 
ATOM     24  C   UNL A   1      32.107  25.442  25.285  1.00  0.00     0.122 A 
ATOM     25  N   UNL A   1      31.548  26.558  23.394  1.00  0.00    -0.228 NA
ATOM     26  N   UNL A   1      32.542  26.737  25.390  1.00  0.00    -0.306 N 
ATOM     27  C   UNL A   1      32.165  27.381  24.219  1.00  0.00     0.137 A 
ATOM     28  C   UNL A   1      33.237  27.351  26.429  1.00  0.00     0.096 A 
ATOM     29  C   UNL A   1      32.482  28.765  24.120  1.00  0.00     0.048 A 
ATOM     30  C   UNL A   1      33.542  28.661  26.342  1.00  0.00    -0.034 A 
ATOM     31  C   UNL A   1      33.107  29.386  25.141  1.00  0.00     0.009 A 
ATOM     32  C   UNL A   1      34.413  29.375  27.330  1.00  0.00     0.046 C 
ENDBRANCH  22  23
ENDBRANCH  11  22
ENDBRANCH   6   8
ENDBRANCH   5   6
ENDBRANCH   4   5
ENDBRANCH   3   4
ENDBRANCH   2   3
ENDBRANCH   1   2
BRANCH   1  33
ATOM     33  C   UNL A   1      40.333  21.483  26.213  1.00  0.00     0.188 C 
BRANCH  33  34
ATOM     34  O   UNL A   1      41.642  21.796  26.647  1.00  0.00    -0.376 OA
BRANCH  34  35
ATOM     35  C   UNL A   1      42.459  22.528  25.760  1.00  0.00     0.202 C 
BRANCH  35  36
ATOM     36  C   UNL A   1      43.003  23.789  26.404  1.00  0.00     0.261 C 
BRANCH  36  37
ATOM     37  O   UNL A   1      41.961  24.700  26.694  1.00  0.00    -0.460 OA
BRANCH  37  38
ATOM     38  C   UNL A   1      41.857  25.726  25.829  1.00  0.00     0.338 C 
ATOM     39  O   UNL A   1      42.491  25.913  24.807  1.00  0.00    -0.246 OA
BRANCH  38  40
ATOM     40  C   UNL A   1      40.839  26.632  26.350  1.00  0.00     0.060 A 
ATOM     41  C   UNL A   1      40.991  27.977  26.010  1.00  0.00     0.016 A 
ATOM     42  C   UNL A   1      40.041  26.198  27.417  1.00  0.00     0.016 A 
ATOM     43  C   UNL A   1      40.615  28.908  26.939  1.00  0.00     0.010 A 
ATOM     44  C   UNL A   1      39.704  27.122  28.362  1.00  0.00     0.010 A 
ATOM     45  C   UNL A   1      40.113  28.437  28.151  1.00  0.00    -0.014 A 
BRANCH  45  46
ATOM     46  C   UNL A   1      40.184  29.330  29.279  1.00  0.00     0.031 A 
ATOM     47  C   UNL A   1      39.030  30.222  29.446  1.00  0.00     0.074 A 
ATOM     48  C   UNL A   1      41.189  29.207  30.166  1.00  0.00     0.049 A 
ATOM     49  N   UNL A   1      39.028  31.508  29.543  1.00  0.00    -0.248 NA
ATOM     50  C   UNL A   1      37.695  29.603  29.422  1.00  0.00     0.031 C 
ATOM     51  C   UNL A   1      42.188  28.135  30.256  1.00  0.00     0.029 A 
ATOM     52  N   UNL A   1      41.426  29.945  31.278  1.00  0.00    -0.354 N 
ATOM     53  C   UNL A   1      37.704  31.851  29.769  1.00  0.00     0.074 A 
ATOM     54  C   UNL A   1      36.912  30.669  29.553  1.00  0.00     0.031 C 
ATOM     55  C   UNL A   1      42.749  28.165  31.485  1.00  0.00     0.029 A 
ATOM     56  C   UNL A   1      42.217  29.304  32.215  1.00  0.00     0.049 A 
ATOM     57  H   UNL A   1      41.069  30.854  31.407  1.00  0.00     0.167 HD
ATOM     58  C   UNL A   1      37.358  33.029  30.345  1.00  0.00     0.037 A 
ATOM     59  C   UNL A   1      42.311  29.626  33.528  1.00  0.00     0.037 A 
ATOM     60  C   UNL A   1      38.395  34.017  30.255  1.00  0.00     0.049 A 
ATOM     61  C   UNL A   1      41.774  31.004  33.695  1.00  0.00     0.074 A 
ATOM     62  C   UNL A   1      39.096  34.575  29.201  1.00  0.00     0.029 A 
ATOM     63  N   UNL A   1      39.114  34.328  31.382  1.00  0.00    -0.354 N 
ATOM     64  N   UNL A   1      42.362  32.088  33.269  1.00  0.00    -0.248 NA
ATOM     65  C   UNL A   1      40.350  31.141  33.974  1.00  0.00     0.031 C 
ATOM     66  C   UNL A   1      40.421  34.761  29.690  1.00  0.00     0.029 A 
ATOM     67  C   UNL A   1      40.436  34.323  31.014  1.00  0.00     0.049 A 
ATOM     68  H   UNL A   1      38.753  34.517  32.278  1.00  0.00     0.167 HD
ATOM     69  C   UNL A   1      41.328  32.912  32.843  1.00  0.00     0.074 A 
ATOM     70  C   UNL A   1      40.114  32.320  33.395  1.00  0.00     0.031 C 
ATOM     71  C   UNL A   1      41.507  33.833  31.850  1.00  0.00     0.037 A 
BRANCH  58  72
ATOM     72  C   UNL A   1      36.178  33.138  31.255  1.00  0.00     0.057 A 
ATOM     73  C   UNL A   1      35.125  34.005  30.944  1.00  0.00     0.134 A 
ATOM     74  C   UNL A   1      36.157  32.583  32.553  1.00  0.00     0.134 A 
ATOM     75  F   UNL A   1      35.081  34.631  29.759  1.00  0.00    -0.206 F 
ATOM     76  C   UNL A   1      34.117  34.302  31.866  1.00  0.00     0.040 A 
ATOM     77  C   UNL A   1      35.127  32.827  33.459  1.00  0.00     0.040 A 
ATOM     78  F   UNL A   1      37.176  31.851  33.027  1.00  0.00    -0.206 F 
ATOM     79  C   UNL A   1      34.111  33.706  33.123  1.00  0.00     0.006 A 
ENDBRANCH  58  72
BRANCH  59  80
ATOM     80  C   UNL A   1      42.564  28.718  34.669  1.00  0.00     0.057 A 
ATOM     81  C   UNL A   1      41.810  27.551  34.841  1.00  0.00     0.134 A 
ATOM     82  C   UNL A   1      43.691  28.849  35.503  1.00  0.00     0.134 A 
ATOM     83  F   UNL A   1      40.752  27.302  34.058  1.00  0.00    -0.206 F 
ATOM     84  C   UNL A   1      42.152  26.575  35.788  1.00  0.00     0.040 A 
ATOM     85  C   UNL A   1      44.031  27.894  36.466  1.00  0.00     0.040 A 
ATOM     86  F   UNL A   1      44.553  29.865  35.361  1.00  0.00    -0.206 F 
ATOM     87  C   UNL A   1      43.265  26.746  36.605  1.00  0.00     0.006 A 
ENDBRANCH  59  80
BRANCH  71  88
ATOM     88  C   UNL A   1      42.909  34.125  31.394  1.00  0.00     0.057 A 
ATOM     89  C   UNL A   1      43.576  33.380  30.410  1.00  0.00     0.134 A 
ATOM     90  C   UNL A   1      43.541  35.292  31.840  1.00  0.00     0.134 A 
ATOM     91  F   UNL A   1      43.000  32.315  29.838  1.00  0.00    -0.206 F 
ATOM     92  C   UNL A   1      44.837  33.748  29.934  1.00  0.00     0.040 A 
ATOM     93  C   UNL A   1      44.786  35.690  31.346  1.00  0.00     0.040 A 
ATOM     94  F   UNL A   1      42.934  36.094  32.729  1.00  0.00    -0.206 F 
ATOM     95  C   UNL A   1      45.445  34.910  30.399  1.00  0.00     0.006 A 
ENDBRANCH  71  88
ENDBRANCH  45  46
ENDBRANCH  38  40
ENDBRANCH  37  38
ENDBRANCH  36  37
ENDBRANCH  35  36
ENDBRANCH  34  35
ENDBRANCH  33  34
ENDBRANCH   1  33
TORSDOF 21
ENDMDL
MODEL 2
REMARK VINA RESULT:     -10.5      4.933     10.371
REMARK SMILES COc1ccccc1[C@@H]1C[N@@H+](Cc2cn3cc(C)ccc3n2)C[C@H]1C(=O)OCCOCCOCCOC(=O)c1ccc(-c2c3nc(c(-c4c(F)cccc4F)c4ccc([nH]4)c(-c4c(F)cccc4F)c4nc(c(-c5c(F)cccc5F)c5ccc2[nH]5)C=C4)C=C3)cc1
REMARK SMILES IDX 31 1 30 2 29 3 28 4 27 5 25 6 26 7 24 8 9 9 10 10 11 11
REMARK SMILES IDX 23 12 8 14 3 15 4 16 5 17 7 18 6 19 2 20 1 21 12 22 13 23
REMARK SMILES IDX 14 24 22 25 15 26 21 27 16 28 20 29 17 30 19 31 18 32 32 33
REMARK SMILES IDX 33 34 34 35 35 36 36 37 37 38 38 39 39 40 40 41 92 42 41 43
REMARK SMILES IDX 91 44 42 45 43 46 44 47 85 48 45 49 90 50 84 51 86 52 46 53
REMARK SMILES IDX 89 54 83 55 82 56 47 58 73 59 56 60 72 61 57 62 60 63 71 64
REMARK SMILES IDX 87 65 58 66 59 67 70 69 88 70 61 71 48 72 49 73 54 74 50 75
REMARK SMILES IDX 51 76 53 77 55 78 52 79 74 80 75 81 80 82 76 83 77 84 79 85
REMARK SMILES IDX 81 86 78 87 62 88 63 89 68 90 64 91 65 92 67 93 69 94 66 95
REMARK H PARENT 11 13 86 57 60 68
REMARK Flexibility Score: inf
ROOT
ATOM      1  C   UNL A   1      38.064  34.388  33.596  1.00  0.00     0.188 C 
ENDROOT
BRANCH   1   2
ATOM      2  O   UNL A   1      36.677  34.700  33.619  1.00  0.00    -0.376 OA
BRANCH   2   3
ATOM      3  C   UNL A   1      35.755  33.704  33.179  1.00  0.00     0.202 C 
BRANCH   3   4
ATOM      4  C   UNL A   1      35.226  33.812  31.742  1.00  0.00     0.261 C 
BRANCH   4   5
ATOM      5  O   UNL A   1      35.269  32.584  30.974  1.00  0.00    -0.463 OA
BRANCH   5   6
ATOM      6  C   UNL A   1      34.745  32.662  29.730  1.00  0.00     0.315 C 
ATOM      7  O   UNL A   1      33.772  33.365  29.448  1.00  0.00    -0.252 OA
BRANCH   6   8
ATOM      8  C   UNL A   1      35.339  31.757  28.666  1.00  0.00     0.167 C 
ATOM      9  C   UNL A   1      35.984  30.387  28.886  1.00  0.00     0.098 C 
ATOM     10  C   UNL A   1      35.691  29.648  27.567  1.00  0.00     0.272 C 
ATOM     11  N   UNL A   1      34.413  30.156  27.081  1.00  0.00    -0.329 N 
ATOM     12  C   UNL A   1      34.234  31.504  27.634  1.00  0.00     0.278 C 
ATOM     13  H   UNL A   1      34.445  30.201  26.063  1.00  0.00     0.348 HD
BRANCH   9  14
ATOM     14  C   UNL A   1      37.450  30.111  29.253  1.00  0.00     0.004 A 
ATOM     15  C   UNL A   1      38.206  30.390  30.407  1.00  0.00     0.122 A 
ATOM     16  C   UNL A   1      39.596  30.095  30.407  1.00  0.00     0.047 A 
ATOM     17  C   UNL A   1      40.271  29.579  29.308  1.00  0.00     0.004 A 
ATOM     18  C   UNL A   1      38.189  29.597  28.136  1.00  0.00     0.008 A 
ATOM     19  C   UNL A   1      39.560  29.333  28.156  1.00  0.00     0.001 A 
BRANCH  15  20
ATOM     20  O   UNL A   1      37.938  30.949  31.615  1.00  0.00    -0.496 OA
ATOM     21  C   UNL A   1      37.408  30.314  32.746  1.00  0.00     0.278 C 
ENDBRANCH  15  20
ENDBRANCH   9  14
BRANCH  11  22
ATOM     22  C   UNL A   1      33.263  29.265  27.297  1.00  0.00     0.321 C 
BRANCH  22  23
ATOM     23  C   UNL A   1      32.298  29.170  26.151  1.00  0.00     0.114 A 
ATOM     24  C   UNL A   1      31.600  30.193  25.535  1.00  0.00     0.122 A 
ATOM     25  N   UNL A   1      31.955  27.955  25.590  1.00  0.00    -0.228 NA
ATOM     26  N   UNL A   1      30.809  29.595  24.590  1.00  0.00    -0.306 N 
ATOM     27  C   UNL A   1      31.050  28.230  24.673  1.00  0.00     0.137 A 
ATOM     28  C   UNL A   1      29.923  30.178  23.687  1.00  0.00     0.096 A 
ATOM     29  C   UNL A   1      30.300  27.394  23.799  1.00  0.00     0.048 A 
ATOM     30  C   UNL A   1      29.210  29.392  22.855  1.00  0.00    -0.034 A 
ATOM     31  C   UNL A   1      29.398  27.939  22.956  1.00  0.00     0.009 A 
ATOM     32  C   UNL A   1      28.348  29.925  21.751  1.00  0.00     0.046 C 
ENDBRANCH  22  23
ENDBRANCH  11  22
ENDBRANCH   6   8
ENDBRANCH   5   6
ENDBRANCH   4   5
ENDBRANCH   3   4
ENDBRANCH   2   3
ENDBRANCH   1   2
BRANCH   1  33
ATOM     33  C   UNL A   1      38.775  34.133  34.930  1.00  0.00     0.188 C 
BRANCH  33  34
ATOM     34  O   UNL A   1      39.796  33.156  34.860  1.00  0.00    -0.376 OA
BRANCH  34  35
ATOM     35  C   UNL A   1      41.081  33.532  35.302  1.00  0.00     0.202 C 
BRANCH  35  36
ATOM     36  C   UNL A   1      41.901  34.154  34.187  1.00  0.00     0.261 C 
BRANCH  36  37
ATOM     37  O   UNL A   1      42.320  33.174  33.259  1.00  0.00    -0.460 OA
BRANCH  37  38
ATOM     38  C   UNL A   1      41.992  33.437  31.980  1.00  0.00     0.338 C 
ATOM     39  O   UNL A   1      41.011  34.024  31.562  1.00  0.00    -0.246 OA
BRANCH  38  40
ATOM     40  C   UNL A   1      43.032  32.855  31.136  1.00  0.00     0.060 A 
ATOM     41  C   UNL A   1      42.662  32.580  29.820  1.00  0.00     0.016 A 
ATOM     42  C   UNL A   1      44.149  32.278  31.755  1.00  0.00     0.016 A 
ATOM     43  C   UNL A   1      43.211  31.474  29.229  1.00  0.00     0.010 A 
ATOM     44  C   UNL A   1      44.666  31.152  31.185  1.00  0.00     0.010 A 
ATOM     45  C   UNL A   1      44.093  30.712  29.993  1.00  0.00    -0.014 A 
BRANCH  45  46
ATOM     46  C   UNL A   1      44.281  29.340  29.599  1.00  0.00     0.031 A 
ATOM     47  C   UNL A   1      45.050  29.141  28.364  1.00  0.00     0.074 A 
ATOM     48  C   UNL A   1      43.888  28.350  30.422  1.00  0.00     0.049 A 
ATOM     49  N   UNL A   1      44.704  28.480  27.312  1.00  0.00    -0.248 NA
ATOM     50  C   UNL A   1      46.341  29.840  28.257  1.00  0.00     0.031 C 
ATOM     51  C   UNL A   1      43.422  28.460  31.810  1.00  0.00     0.029 A 
ATOM     52  N   UNL A   1      43.976  27.010  30.230  1.00  0.00    -0.354 N 
ATOM     53  C   UNL A   1      45.808  28.530  26.475  1.00  0.00     0.074 A 
ATOM     54  C   UNL A   1      46.730  29.482  27.038  1.00  0.00     0.031 C 
ATOM     55  C   UNL A   1      43.511  27.245  32.396  1.00  0.00     0.029 A 
ATOM     56  C   UNL A   1      43.943  26.276  31.403  1.00  0.00     0.049 A 
ATOM     57  H   UNL A   1      44.057  26.598  29.339  1.00  0.00     0.167 HD
ATOM     58  C   UNL A   1      46.003  27.618  25.491  1.00  0.00     0.037 A 
ATOM     59  C   UNL A   1      44.370  24.999  31.551  1.00  0.00     0.037 A 
ATOM     60  C   UNL A   1      44.796  26.938  25.117  1.00  0.00     0.049 A 
ATOM     61  C   UNL A   1      44.475  24.396  30.193  1.00  0.00     0.074 A 
ATOM     62  C   UNL A   1      43.557  27.363  24.673  1.00  0.00     0.029 A 
ATOM     63  N   UNL A   1      44.620  25.635  25.512  1.00  0.00    -0.354 N 
ATOM     64  N   UNL A   1      43.459  24.089  29.435  1.00  0.00    -0.248 NA
ATOM     65  C   UNL A   1      45.750  24.525  29.499  1.00  0.00     0.031 C 
ATOM     66  C   UNL A   1      42.619  26.472  25.271  1.00  0.00     0.029 A 
ATOM     67  C   UNL A   1      43.348  25.551  26.024  1.00  0.00     0.049 A 
ATOM     68  H   UNL A   1      45.275  24.904  25.443  1.00  0.00     0.167 HD
ATOM     69  C   UNL A   1      43.875  24.384  28.144  1.00  0.00     0.074 A 
ATOM     70  C   UNL A   1      45.322  24.550  28.235  1.00  0.00     0.031 C 
ATOM     71  C   UNL A   1      42.988  24.750  27.170  1.00  0.00     0.037 A 
BRANCH  58  72
ATOM     72  C   UNL A   1      47.373  27.155  25.113  1.00  0.00     0.057 A 
ATOM     73  C   UNL A   1      48.226  26.615  26.081  1.00  0.00     0.134 A 
ATOM     74  C   UNL A   1      47.961  27.443  23.862  1.00  0.00     0.134 A 
ATOM     75  F   UNL A   1      47.782  26.359  27.320  1.00  0.00    -0.206 F 
ATOM     76  C   UNL A   1      49.580  26.377  25.821  1.00  0.00     0.040 A 
ATOM     77  C   UNL A   1      49.294  27.157  23.574  1.00  0.00     0.040 A 
ATOM     78  F   UNL A   1      47.293  28.090  22.897  1.00  0.00    -0.206 F 
ATOM     79  C   UNL A   1      50.114  26.640  24.563  1.00  0.00     0.006 A 
ENDBRANCH  58  72
BRANCH  59  80
ATOM     80  C   UNL A   1      44.960  24.373  32.756  1.00  0.00     0.057 A 
ATOM     81  C   UNL A   1      46.077  24.936  33.385  1.00  0.00     0.134 A 
ATOM     82  C   UNL A   1      44.322  23.331  33.456  1.00  0.00     0.134 A 
ATOM     83  F   UNL A   1      46.720  25.973  32.831  1.00  0.00    -0.206 F 
ATOM     84  C   UNL A   1      46.535  24.488  34.632  1.00  0.00     0.040 A 
ATOM     85  C   UNL A   1      44.781  22.860  34.689  1.00  0.00     0.040 A 
ATOM     86  F   UNL A   1      43.181  22.785  33.011  1.00  0.00    -0.206 F 
ATOM     87  C   UNL A   1      45.887  23.445  35.287  1.00  0.00     0.006 A 
ENDBRANCH  59  80
BRANCH  71  88
ATOM     88  C   UNL A   1      41.521  24.583  27.444  1.00  0.00     0.057 A 
ATOM     89  C   UNL A   1      40.765  25.489  28.204  1.00  0.00     0.134 A 
ATOM     90  C   UNL A   1      40.815  23.569  26.784  1.00  0.00     0.134 A 
ATOM     91  F   UNL A   1      41.335  26.558  28.775  1.00  0.00    -0.206 F 
ATOM     92  C   UNL A   1      39.381  25.359  28.346  1.00  0.00     0.040 A 
ATOM     93  C   UNL A   1      39.427  23.449  26.890  1.00  0.00     0.040 A 
ATOM     94  F   UNL A   1      41.460  22.706  25.983  1.00  0.00    -0.206 F 
ATOM     95  C   UNL A   1      38.706  24.339  27.683  1.00  0.00     0.006 A 
ENDBRANCH  71  88
ENDBRANCH  45  46
ENDBRANCH  38  40
ENDBRANCH  37  38
ENDBRANCH  36  37
ENDBRANCH  35  36
ENDBRANCH  34  35
ENDBRANCH  33  34
ENDBRANCH   1  33
TORSDOF 21
ENDMDL
MODEL 3
REMARK VINA RESULT:     -10.0      3.052      7.630
REMARK SMILES COc1ccccc1[C@@H]1C[N@@H+](Cc2cn3cc(C)ccc3n2)C[C@H]1C(=O)OCCOCCOCCOC(=O)c1ccc(-c2c3nc(c(-c4c(F)cccc4F)c4ccc([nH]4)c(-c4c(F)cccc4F)c4nc(c(-c5c(F)cccc5F)c5ccc2[nH]5)C=C4)C=C3)cc1
REMARK SMILES IDX 31 1 30 2 29 3 28 4 27 5 25 6 26 7 24 8 9 9 10 10 11 11
REMARK SMILES IDX 23 12 8 14 3 15 4 16 5 17 7 18 6 19 2 20 1 21 12 22 13 23
REMARK SMILES IDX 14 24 22 25 15 26 21 27 16 28 20 29 17 30 19 31 18 32 32 33
REMARK SMILES IDX 33 34 34 35 35 36 36 37 37 38 38 39 39 40 40 41 92 42 41 43
REMARK SMILES IDX 91 44 42 45 43 46 44 47 85 48 45 49 90 50 84 51 86 52 46 53
REMARK SMILES IDX 89 54 83 55 82 56 47 58 73 59 56 60 72 61 57 62 60 63 71 64
REMARK SMILES IDX 87 65 58 66 59 67 70 69 88 70 61 71 48 72 49 73 54 74 50 75
REMARK SMILES IDX 51 76 53 77 55 78 52 79 74 80 75 81 80 82 76 83 77 84 79 85
REMARK SMILES IDX 81 86 78 87 62 88 63 89 68 90 64 91 65 92 67 93 69 94 66 95
REMARK H PARENT 11 13 86 57 60 68
REMARK Flexibility Score: inf
ROOT
ATOM      1  C   UNL A   1      45.590  25.468  26.038  1.00  0.00     0.188 C 
ENDROOT
BRANCH   1   2
ATOM      2  O   UNL A   1      45.071  25.041  24.784  1.00  0.00    -0.376 OA
BRANCH   2   3
ATOM      3  C   UNL A   1      43.854  24.296  24.777  1.00  0.00     0.202 C 
BRANCH   3   4
ATOM      4  C   UNL A   1      43.956  22.769  24.889  1.00  0.00     0.261 C 
BRANCH   4   5
ATOM      5  O   UNL A   1      43.583  22.217  26.176  1.00  0.00    -0.463 OA
BRANCH   5   6
ATOM      6  C   UNL A   1      42.457  21.469  26.179  1.00  0.00     0.315 C 
ATOM      7  O   UNL A   1      42.354  20.398  25.578  1.00  0.00    -0.252 OA
BRANCH   6   8
ATOM      8  C   UNL A   1      41.242  22.045  26.882  1.00  0.00     0.167 C 
ATOM      9  C   UNL A   1      40.685  23.462  26.736  1.00  0.00     0.098 C 
ATOM     10  C   UNL A   1      39.177  23.273  26.984  1.00  0.00     0.272 C 
ATOM     11  N   UNL A   1      38.840  21.941  26.493  1.00  0.00    -0.329 N 
ATOM     12  C   UNL A   1      40.060  21.127  26.546  1.00  0.00     0.278 C 
ATOM     13  H   UNL A   1      38.129  21.539  27.103  1.00  0.00     0.348 HD
BRANCH   9  14
ATOM     14  C   UNL A   1      41.127  24.709  27.519  1.00  0.00     0.004 A 
ATOM     15  C   UNL A   1      42.281  24.992  28.274  1.00  0.00     0.122 A 
ATOM     16  C   UNL A   1      42.356  26.225  28.978  1.00  0.00     0.047 A 
ATOM     17  C   UNL A   1      41.330  27.160  29.000  1.00  0.00     0.004 A 
ATOM     18  C   UNL A   1      40.085  25.692  27.584  1.00  0.00     0.008 A 
ATOM     19  C   UNL A   1      40.177  26.887  28.300  1.00  0.00     0.001 A 
BRANCH  15  20
ATOM     20  O   UNL A   1      43.427  24.322  28.560  1.00  0.00    -0.496 OA
ATOM     21  C   UNL A   1      43.679  23.507  29.671  1.00  0.00     0.278 C 
ENDBRANCH  15  20
ENDBRANCH   9  14
BRANCH  11  22
ATOM     22  C   UNL A   1      38.157  21.910  25.190  1.00  0.00     0.321 C 
BRANCH  22  23
ATOM     23  C   UNL A   1      36.658  21.868  25.250  1.00  0.00     0.114 A 
ATOM     24  C   UNL A   1      35.801  22.779  25.841  1.00  0.00     0.122 A 
ATOM     25  N   UNL A   1      35.940  20.813  24.722  1.00  0.00    -0.228 NA
ATOM     26  N   UNL A   1      34.540  22.269  25.682  1.00  0.00    -0.306 N 
ATOM     27  C   UNL A   1      34.678  21.063  25.008  1.00  0.00     0.137 A 
ATOM     28  C   UNL A   1      33.317  22.802  26.083  1.00  0.00     0.096 A 
ATOM     29  C   UNL A   1      33.485  20.327  24.762  1.00  0.00     0.048 A 
ATOM     30  C   UNL A   1      32.183  22.111  25.852  1.00  0.00    -0.034 A 
ATOM     31  C   UNL A   1      32.299  20.805  25.192  1.00  0.00     0.009 A 
ATOM     32  C   UNL A   1      30.813  22.662  26.106  1.00  0.00     0.046 C 
ENDBRANCH  22  23
ENDBRANCH  11  22
ENDBRANCH   6   8
ENDBRANCH   5   6
ENDBRANCH   4   5
ENDBRANCH   3   4
ENDBRANCH   2   3
ENDBRANCH   1   2
BRANCH   1  33
ATOM     33  C   UNL A   1      47.040  25.962  26.095  1.00  0.00     0.188 C 
BRANCH  33  34
ATOM     34  O   UNL A   1      47.790  25.420  27.165  1.00  0.00    -0.376 OA
BRANCH  34  35
ATOM     35  C   UNL A   1      47.080  25.026  28.318  1.00  0.00     0.202 C 
BRANCH  35  36
ATOM     36  C   UNL A   1      47.556  25.766  29.554  1.00  0.00     0.261 C 
BRANCH  36  37
ATOM     37  O   UNL A   1      46.599  26.718  29.974  1.00  0.00    -0.460 OA
BRANCH  37  38
ATOM     38  C   UNL A   1      47.077  27.665  30.802  1.00  0.00     0.338 C 
ATOM     39  O   UNL A   1      48.182  28.177  30.799  1.00  0.00    -0.246 OA
BRANCH  38  40
ATOM     40  C   UNL A   1      46.024  27.973  31.765  1.00  0.00     0.060 A 
ATOM     41  C   UNL A   1      44.781  27.393  31.511  1.00  0.00     0.016 A 
ATOM     42  C   UNL A   1      46.196  29.074  32.614  1.00  0.00     0.016 A 
ATOM     43  C   UNL A   1      43.668  28.119  31.839  1.00  0.00     0.010 A 
ATOM     44  C   UNL A   1      45.090  29.819  32.904  1.00  0.00     0.010 A 
ATOM     45  C   UNL A   1      43.868  29.379  32.398  1.00  0.00    -0.014 A 
BRANCH  45  46
ATOM     46  C   UNL A   1      42.785  30.323  32.288  1.00  0.00     0.031 A 
ATOM     47  C   UNL A   1      41.975  30.491  33.501  1.00  0.00     0.074 A 
ATOM     48  C   UNL A   1      42.666  31.075  31.179  1.00  0.00     0.049 A 
ATOM     49  N   UNL A   1      40.697  30.372  33.625  1.00  0.00    -0.248 NA
ATOM     50  C   UNL A   1      42.695  30.750  34.758  1.00  0.00     0.031 C 
ATOM     51  C   UNL A   1      43.619  31.208  30.070  1.00  0.00     0.029 A 
ATOM     52  N   UNL A   1      41.723  32.006  30.890  1.00  0.00    -0.354 N 
ATOM     53  C   UNL A   1      40.428  30.712  34.941  1.00  0.00     0.074 A 
ATOM     54  C   UNL A   1      41.690  30.805  35.627  1.00  0.00     0.031 C 
ATOM     55  C   UNL A   1      43.324  32.329  29.375  1.00  0.00     0.029 A 
ATOM     56  C   UNL A   1      42.120  32.923  29.932  1.00  0.00     0.049 A 
ATOM     57  H   UNL A   1      40.838  32.028  31.321  1.00  0.00     0.167 HD
ATOM     58  C   UNL A   1      39.198  31.124  35.337  1.00  0.00     0.037 A 
ATOM     59  C   UNL A   1      41.562  34.139  29.718  1.00  0.00     0.037 A 
ATOM     60  C   UNL A   1      38.161  30.733  34.427  1.00  0.00     0.049 A 
ATOM     61  C   UNL A   1      40.224  34.144  30.372  1.00  0.00     0.074 A 
ATOM     62  C   UNL A   1      37.745  29.516  33.916  1.00  0.00     0.029 A 
ATOM     63  N   UNL A   1      37.596  31.686  33.616  1.00  0.00    -0.354 N 
ATOM     64  N   UNL A   1      39.190  33.468  29.954  1.00  0.00    -0.248 NA
ATOM     65  C   UNL A   1      40.157  34.585  31.760  1.00  0.00     0.031 C 
ATOM     66  C   UNL A   1      37.368  29.785  32.569  1.00  0.00     0.029 A 
ATOM     67  C   UNL A   1      37.558  31.150  32.352  1.00  0.00     0.049 A 
ATOM     68  H   UNL A   1      37.280  32.578  33.886  1.00  0.00     0.167 HD
ATOM     69  C   UNL A   1      38.543  33.053  31.110  1.00  0.00     0.074 A 
ATOM     70  C   UNL A   1      39.123  33.853  32.183  1.00  0.00     0.031 C 
ATOM     71  C   UNL A   1      37.802  31.905  31.145  1.00  0.00     0.037 A 
BRANCH  58  72
ATOM     72  C   UNL A   1      39.025  32.154  36.407  1.00  0.00     0.057 A 
ATOM     73  C   UNL A   1      38.118  31.939  37.451  1.00  0.00     0.134 A 
ATOM     74  C   UNL A   1      39.559  33.457  36.311  1.00  0.00     0.134 A 
ATOM     75  F   UNL A   1      37.509  30.753  37.597  1.00  0.00    -0.206 F 
ATOM     76  C   UNL A   1      37.764  32.958  38.341  1.00  0.00     0.040 A 
ATOM     77  C   UNL A   1      39.257  34.463  37.226  1.00  0.00     0.040 A 
ATOM     78  F   UNL A   1      40.326  33.834  35.278  1.00  0.00    -0.206 F 
ATOM     79  C   UNL A   1      38.340  34.221  38.235  1.00  0.00     0.006 A 
ENDBRANCH  58  72
BRANCH  59  80
ATOM     80  C   UNL A   1      42.227  35.372  29.240  1.00  0.00     0.057 A 
ATOM     81  C   UNL A   1      41.748  36.059  28.118  1.00  0.00     0.134 A 
ATOM     82  C   UNL A   1      43.217  36.035  29.990  1.00  0.00     0.134 A 
ATOM     83  F   UNL A   1      40.764  35.541  27.371  1.00  0.00    -0.206 F 
ATOM     84  C   UNL A   1      42.227  37.327  27.760  1.00  0.00     0.040 A 
ATOM     85  C   UNL A   1      43.719  37.290  29.631  1.00  0.00     0.040 A 
ATOM     86  F   UNL A   1      43.677  35.531  31.143  1.00  0.00    -0.206 F 
ATOM     87  C   UNL A   1      43.217  37.946  28.517  1.00  0.00     0.006 A 
ENDBRANCH  59  80
BRANCH  71  88
ATOM     88  C   UNL A   1      37.483  31.223  29.845  1.00  0.00     0.057 A 
ATOM     89  C   UNL A   1      36.349  31.513  29.073  1.00  0.00     0.134 A 
ATOM     90  C   UNL A   1      38.434  30.367  29.274  1.00  0.00     0.134 A 
ATOM     91  F   UNL A   1      35.442  32.410  29.484  1.00  0.00    -0.206 F 
ATOM     92  C   UNL A   1      36.143  30.937  27.817  1.00  0.00     0.040 A 
ATOM     93  C   UNL A   1      38.257  29.813  28.004  1.00  0.00     0.040 A 
ATOM     94  F   UNL A   1      39.578  30.097  29.922  1.00  0.00    -0.206 F 
ATOM     95  C   UNL A   1      37.102  30.087  27.276  1.00  0.00     0.006 A 
ENDBRANCH  71  88
ENDBRANCH  45  46
ENDBRANCH  38  40
ENDBRANCH  37  38
ENDBRANCH  36  37
ENDBRANCH  35  36
ENDBRANCH  34  35
ENDBRANCH  33  34
ENDBRANCH   1  33
TORSDOF 21
ENDMDL
