MODEL 1
REMARK VINA RESULT:     -10.8      0.000      0.000
REMARK SMILES CC(=O)Nc1cccc(-c2ccc(F)c(C(=O)OCCOCCOCCOC(=O)c3ccc(-c4c5nc(c(-c6c(F)cccc6F)c6ccc([nH]6)c(-c6c(F)cccc6F)c6nc(c(-c7c(F)cccc7F)c7ccc4[nH]7)C=C6)C=C5)cc3)c2)c1
REMARK SMILES IDX 22 1 21 2 20 3 19 4 18 5 16 6 17 7 15 8 10 9 11 10 84 11
REMARK SMILES IDX 12 12 13 13 14 14 9 15 5 16 6 17 85 18 7 19 8 20 4 21 1 22
REMARK SMILES IDX 2 23 3 24 23 26 24 27 25 28 26 29 27 30 28 31 29 32 30 33
REMARK SMILES IDX 31 34 83 35 32 36 82 37 33 38 34 39 35 40 76 41 36 42 81 43
REMARK SMILES IDX 75 44 77 45 37 46 80 47 74 48 73 49 38 51 64 52 47 53 63 54
REMARK SMILES IDX 48 55 51 56 62 57 78 58 49 59 50 60 61 62 79 63 52 64 39 65
REMARK SMILES IDX 40 66 45 67 41 68 42 69 44 70 46 71 43 72 65 73 66 74 71 75
REMARK SMILES IDX 67 76 68 77 70 78 72 79 69 80 53 81 54 82 59 83 55 84 56 85
REMARK SMILES IDX 58 86 60 87 57 88
REMARK H PARENT 4 25 77 50 51 61
REMARK Flexibility Score: inf
ROOT
ATOM      1  C   UNL A   1      34.943  32.015  28.005  1.00  0.00     0.188 C 
ENDROOT
BRANCH   1   2
ATOM      2  O   UNL A   1      35.810  30.970  27.598  1.00  0.00    -0.376 OA
BRANCH   2   3
ATOM      3  C   UNL A   1      35.410  29.620  27.796  1.00  0.00     0.202 C 
BRANCH   3   4
ATOM      4  C   UNL A   1      34.039  29.182  27.279  1.00  0.00     0.261 C 
BRANCH   4   5
ATOM      5  O   UNL A   1      34.155  28.069  26.380  1.00  0.00    -0.460 OA
BRANCH   5   6
ATOM      6  C   UNL A   1      32.986  27.550  25.932  1.00  0.00     0.341 C 
ATOM      7  O   UNL A   1      31.861  27.866  26.277  1.00  0.00    -0.246 OA
BRANCH   6   8
ATOM      8  C   UNL A   1      33.283  26.600  24.848  1.00  0.00     0.096 A 
ATOM      9  C   UNL A   1      34.239  24.496  24.059  1.00  0.00    -0.017 A 
ATOM     10  C   UNL A   1      33.843  24.841  22.755  1.00  0.00     0.012 A 
ATOM     11  C   UNL A   1      33.969  25.408  25.099  1.00  0.00     0.027 A 
ATOM     12  C   UNL A   1      33.179  26.045  22.501  1.00  0.00     0.041 A 
ATOM     13  C   UNL A   1      32.894  26.914  23.550  1.00  0.00     0.137 A 
ATOM     14  F   UNL A   1      32.286  28.076  23.272  1.00  0.00    -0.206 F 
BRANCH   9  15
ATOM     15  C   UNL A   1      34.851  23.188  24.356  1.00  0.00    -0.016 A 
ATOM     16  C   UNL A   1      34.558  20.892  25.166  1.00  0.00     0.041 A 
ATOM     17  C   UNL A   1      35.926  20.668  25.006  1.00  0.00     0.026 A 
ATOM     18  C   UNL A   1      34.045  22.153  24.866  1.00  0.00     0.034 A 
ATOM     19  C   UNL A   1      36.745  21.671  24.479  1.00  0.00     0.003 A 
ATOM     20  C   UNL A   1      36.209  22.919  24.150  1.00  0.00     0.009 A 
BRANCH  16  21
ATOM     21  N   UNL A   1      33.769  19.855  25.685  1.00  0.00    -0.326 N 
ATOM     22  C   UNL A   1      33.030  18.751  23.573  1.00  0.00     0.114 C 
ATOM     23  C   UNL A   1      32.936  18.968  25.062  1.00  0.00     0.221 C 
ATOM     24  O   UNL A   1      32.155  18.299  25.743  1.00  0.00    -0.275 OA
ATOM     25  H   UNL A   1      33.824  19.748  26.663  1.00  0.00     0.169 HD
ENDBRANCH  16  21
ENDBRANCH   9  15
ENDBRANCH   6   8
ENDBRANCH   5   6
ENDBRANCH   4   5
ENDBRANCH   3   4
ENDBRANCH   2   3
ENDBRANCH   1   2
BRANCH   1  26
ATOM     26  C   UNL A   1      35.497  33.429  28.279  1.00  0.00     0.188 C 
BRANCH  26  27
ATOM     27  O   UNL A   1      35.303  34.086  29.513  1.00  0.00    -0.376 OA
BRANCH  27  28
ATOM     28  C   UNL A   1      34.403  33.585  30.484  1.00  0.00     0.202 C 
BRANCH  28  29
ATOM     29  C   UNL A   1      34.829  33.282  31.925  1.00  0.00     0.261 C 
BRANCH  29  30
ATOM     30  O   UNL A   1      35.305  31.955  32.162  1.00  0.00    -0.460 OA
BRANCH  30  31
ATOM     31  C   UNL A   1      36.472  31.885  32.847  1.00  0.00     0.338 C 
ATOM     32  O   UNL A   1      36.672  32.182  34.013  1.00  0.00    -0.246 OA
BRANCH  31  33
ATOM     33  C   UNL A   1      37.485  31.226  32.007  1.00  0.00     0.060 A 
ATOM     34  C   UNL A   1      38.523  30.533  32.643  1.00  0.00     0.016 A 
ATOM     35  C   UNL A   1      37.443  31.338  30.617  1.00  0.00     0.016 A 
ATOM     36  C   UNL A   1      39.548  29.972  31.884  1.00  0.00     0.010 A 
ATOM     37  C   UNL A   1      38.481  30.792  29.859  1.00  0.00     0.010 A 
ATOM     38  C   UNL A   1      39.552  30.136  30.493  1.00  0.00    -0.014 A 
BRANCH  38  39
ATOM     39  C   UNL A   1      40.760  29.775  29.716  1.00  0.00     0.031 A 
ATOM     40  C   UNL A   1      40.864  28.385  29.156  1.00  0.00     0.074 A 
ATOM     41  C   UNL A   1      41.741  30.667  29.505  1.00  0.00     0.049 A 
ATOM     42  N   UNL A   1      41.842  27.830  28.487  1.00  0.00    -0.248 NA
ATOM     43  C   UNL A   1      39.709  27.500  29.383  1.00  0.00     0.031 C 
ATOM     44  C   UNL A   1      41.739  32.055  29.964  1.00  0.00     0.029 A 
ATOM     45  N   UNL A   1      42.940  30.527  28.852  1.00  0.00    -0.354 N 
ATOM     46  C   UNL A   1      41.423  26.535  28.214  1.00  0.00     0.074 A 
ATOM     47  C   UNL A   1      40.114  26.376  28.811  1.00  0.00     0.031 C 
ATOM     48  C   UNL A   1      42.894  32.635  29.595  1.00  0.00     0.029 A 
ATOM     49  C   UNL A   1      43.723  31.653  28.897  1.00  0.00     0.049 A 
ATOM     50  H   UNL A   1      43.213  29.698  28.397  1.00  0.00     0.167 HD
ATOM     51  C   UNL A   1      42.066  25.566  27.522  1.00  0.00     0.037 A 
ATOM     52  C   UNL A   1      44.977  31.856  28.445  1.00  0.00     0.037 A 
ATOM     53  C   UNL A   1      43.372  25.719  26.937  1.00  0.00     0.049 A 
ATOM     54  C   UNL A   1      45.704  30.737  27.747  1.00  0.00     0.074 A 
ATOM     55  C   UNL A   1      44.102  24.799  26.206  1.00  0.00     0.029 A 
ATOM     56  N   UNL A   1      44.145  26.865  27.028  1.00  0.00    -0.354 N 
ATOM     57  N   UNL A   1      45.288  29.526  27.466  1.00  0.00    -0.248 NA
ATOM     58  C   UNL A   1      47.077  31.017  27.301  1.00  0.00     0.031 C 
ATOM     59  C   UNL A   1      45.336  25.375  25.889  1.00  0.00     0.029 A 
ATOM     60  C   UNL A   1      45.356  26.669  26.386  1.00  0.00     0.049 A 
ATOM     61  H   UNL A   1      43.874  27.696  27.481  1.00  0.00     0.167 HD
ATOM     62  C   UNL A   1      46.334  28.910  26.788  1.00  0.00     0.074 A 
ATOM     63  C   UNL A   1      47.401  29.884  26.693  1.00  0.00     0.031 C 
ATOM     64  C   UNL A   1      46.404  27.652  26.289  1.00  0.00     0.037 A 
BRANCH  51  65
ATOM     65  C   UNL A   1      41.372  24.246  27.383  1.00  0.00     0.057 A 
ATOM     66  C   UNL A   1      41.758  23.128  28.135  1.00  0.00     0.134 A 
ATOM     67  C   UNL A   1      40.295  24.095  26.502  1.00  0.00     0.134 A 
ATOM     68  F   UNL A   1      42.794  23.204  28.983  1.00  0.00    -0.206 F 
ATOM     69  C   UNL A   1      41.106  21.901  28.001  1.00  0.00     0.040 A 
ATOM     70  C   UNL A   1      39.621  22.880  26.376  1.00  0.00     0.040 A 
ATOM     71  F   UNL A   1      39.878  25.128  25.754  1.00  0.00    -0.206 F 
ATOM     72  C   UNL A   1      40.029  21.777  27.124  1.00  0.00     0.006 A 
ENDBRANCH  51  65
BRANCH  52  73
ATOM     73  C   UNL A   1      45.638  33.167  28.651  1.00  0.00     0.057 A 
ATOM     74  C   UNL A   1      45.475  34.213  27.735  1.00  0.00     0.134 A 
ATOM     75  C   UNL A   1      46.474  33.396  29.750  1.00  0.00     0.134 A 
ATOM     76  F   UNL A   1      44.707  34.044  26.649  1.00  0.00    -0.206 F 
ATOM     77  C   UNL A   1      46.133  35.433  27.895  1.00  0.00     0.040 A 
ATOM     78  C   UNL A   1      47.121  34.618  29.935  1.00  0.00     0.040 A 
ATOM     79  F   UNL A   1      46.674  32.432  30.660  1.00  0.00    -0.206 F 
ATOM     80  C   UNL A   1      46.956  35.639  29.000  1.00  0.00     0.006 A 
ENDBRANCH  52  73
BRANCH  64  81
ATOM     81  C   UNL A   1      47.659  27.267  25.562  1.00  0.00     0.057 A 
ATOM     82  C   UNL A   1      48.740  26.669  26.220  1.00  0.00     0.134 A 
ATOM     83  C   UNL A   1      47.764  27.453  24.178  1.00  0.00     0.134 A 
ATOM     84  F   UNL A   1      48.705  26.474  27.548  1.00  0.00    -0.206 F 
ATOM     85  C   UNL A   1      49.891  26.287  25.529  1.00  0.00     0.040 A 
ATOM     86  C   UNL A   1      48.900  27.054  23.473  1.00  0.00     0.040 A 
ATOM     87  F   UNL A   1      46.759  28.012  23.488  1.00  0.00    -0.206 F 
ATOM     88  C   UNL A   1      49.970  26.473  24.151  1.00  0.00     0.006 A 
ENDBRANCH  64  81
ENDBRANCH  38  39
ENDBRANCH  31  33
ENDBRANCH  30  31
ENDBRANCH  29  30
ENDBRANCH  28  29
ENDBRANCH  27  28
ENDBRANCH  26  27
ENDBRANCH   1  26
TORSDOF 19
ENDMDL
MODEL 2
REMARK VINA RESULT:     -10.4      3.397      7.740
REMARK SMILES CC(=O)Nc1cccc(-c2ccc(F)c(C(=O)OCCOCCOCCOC(=O)c3ccc(-c4c5nc(c(-c6c(F)cccc6F)c6ccc([nH]6)c(-c6c(F)cccc6F)c6nc(c(-c7c(F)cccc7F)c7ccc4[nH]7)C=C6)C=C5)cc3)c2)c1
REMARK SMILES IDX 22 1 21 2 20 3 19 4 18 5 16 6 17 7 15 8 10 9 11 10 84 11
REMARK SMILES IDX 12 12 13 13 14 14 9 15 5 16 6 17 85 18 7 19 8 20 4 21 1 22
REMARK SMILES IDX 2 23 3 24 23 26 24 27 25 28 26 29 27 30 28 31 29 32 30 33
REMARK SMILES IDX 31 34 83 35 32 36 82 37 33 38 34 39 35 40 76 41 36 42 81 43
REMARK SMILES IDX 75 44 77 45 37 46 80 47 74 48 73 49 38 51 64 52 47 53 63 54
REMARK SMILES IDX 48 55 51 56 62 57 78 58 49 59 50 60 61 62 79 63 52 64 39 65
REMARK SMILES IDX 40 66 45 67 41 68 42 69 44 70 46 71 43 72 65 73 66 74 71 75
REMARK SMILES IDX 67 76 68 77 70 78 72 79 69 80 53 81 54 82 59 83 55 84 56 85
REMARK SMILES IDX 58 86 60 87 57 88
REMARK H PARENT 4 25 77 50 51 61
REMARK Flexibility Score: inf
ROOT
ATOM      1  C   UNL A   1      35.362  24.023  23.816  1.00  0.00     0.188 C 
ENDROOT
BRANCH   1   2
ATOM      2  O   UNL A   1      34.408  24.463  22.863  1.00  0.00    -0.376 OA
BRANCH   2   3
ATOM      3  C   UNL A   1      33.627  25.616  23.146  1.00  0.00     0.202 C 
BRANCH   3   4
ATOM      4  C   UNL A   1      32.228  25.719  22.536  1.00  0.00     0.261 C 
BRANCH   4   5
ATOM      5  O   UNL A   1      31.357  24.708  23.063  1.00  0.00    -0.460 OA
BRANCH   5   6
ATOM      6  C   UNL A   1      31.165  24.738  24.405  1.00  0.00     0.341 C 
ATOM      7  O   UNL A   1      30.496  25.539  25.034  1.00  0.00    -0.246 OA
BRANCH   6   8
ATOM      8  C   UNL A   1      31.808  23.554  24.994  1.00  0.00     0.096 A 
ATOM      9  C   UNL A   1      32.376  21.179  24.926  1.00  0.00    -0.017 A 
ATOM     10  C   UNL A   1      33.026  21.331  26.163  1.00  0.00     0.012 A 
ATOM     11  C   UNL A   1      31.746  22.307  24.363  1.00  0.00     0.027 A 
ATOM     12  C   UNL A   1      33.066  22.572  26.805  1.00  0.00     0.041 A 
ATOM     13  C   UNL A   1      32.466  23.679  26.213  1.00  0.00     0.137 A 
ATOM     14  F   UNL A   1      32.491  24.848  26.868  1.00  0.00    -0.206 F 
BRANCH   9  15
ATOM     15  C   UNL A   1      32.410  19.902  24.191  1.00  0.00    -0.016 A 
ATOM     16  C   UNL A   1      32.482  17.452  24.282  1.00  0.00     0.041 A 
ATOM     17  C   UNL A   1      32.531  17.409  22.888  1.00  0.00     0.026 A 
ATOM     18  C   UNL A   1      32.450  18.695  24.914  1.00  0.00     0.034 A 
ATOM     19  C   UNL A   1      32.469  18.591  22.145  1.00  0.00     0.003 A 
ATOM     20  C   UNL A   1      32.402  19.828  22.793  1.00  0.00     0.009 A 
BRANCH  16  21
ATOM     21  N   UNL A   1      32.533  16.242  24.989  1.00  0.00    -0.326 N 
ATOM     22  C   UNL A   1      35.002  15.911  25.137  1.00  0.00     0.114 C 
ATOM     23  C   UNL A   1      33.585  15.414  25.269  1.00  0.00     0.221 C 
ATOM     24  O   UNL A   1      33.357  14.279  25.696  1.00  0.00    -0.275 OA
ATOM     25  H   UNL A   1      31.666  15.937  25.343  1.00  0.00     0.169 HD
ENDBRANCH  16  21
ENDBRANCH   9  15
ENDBRANCH   6   8
ENDBRANCH   5   6
ENDBRANCH   4   5
ENDBRANCH   3   4
ENDBRANCH   2   3
ENDBRANCH   1   2
BRANCH   1  26
ATOM     26  C   UNL A   1      35.700  22.523  23.950  1.00  0.00     0.188 C 
BRANCH  26  27
ATOM     27  O   UNL A   1      36.417  22.009  25.051  1.00  0.00    -0.376 OA
BRANCH  27  28
ATOM     28  C   UNL A   1      37.520  21.140  24.874  1.00  0.00     0.202 C 
BRANCH  28  29
ATOM     29  C   UNL A   1      38.854  21.339  25.603  1.00  0.00     0.261 C 
BRANCH  29  30
ATOM     30  O   UNL A   1      39.340  20.203  26.322  1.00  0.00    -0.460 OA
BRANCH  30  31
ATOM     31  C   UNL A   1      40.668  19.972  26.185  1.00  0.00     0.338 C 
ATOM     32  O   UNL A   1      41.209  19.033  25.627  1.00  0.00    -0.246 OA
BRANCH  31  33
ATOM     33  C   UNL A   1      41.414  21.136  26.689  1.00  0.00     0.060 A 
ATOM     34  C   UNL A   1      41.304  21.455  28.049  1.00  0.00     0.016 A 
ATOM     35  C   UNL A   1      42.165  21.934  25.824  1.00  0.00     0.016 A 
ATOM     36  C   UNL A   1      41.924  22.600  28.544  1.00  0.00     0.010 A 
ATOM     37  C   UNL A   1      42.769  23.091  26.319  1.00  0.00     0.010 A 
ATOM     38  C   UNL A   1      42.623  23.444  27.673  1.00  0.00    -0.014 A 
BRANCH  38  39
ATOM     39  C   UNL A   1      43.055  24.782  28.137  1.00  0.00     0.031 A 
ATOM     40  C   UNL A   1      42.008  25.833  28.374  1.00  0.00     0.074 A 
ATOM     41  C   UNL A   1      44.352  25.056  28.352  1.00  0.00     0.049 A 
ATOM     42  N   UNL A   1      42.151  27.082  28.734  1.00  0.00    -0.248 NA
ATOM     43  C   UNL A   1      40.609  25.418  28.175  1.00  0.00     0.031 C 
ATOM     44  C   UNL A   1      45.456  24.112  28.194  1.00  0.00     0.029 A 
ATOM     45  N   UNL A   1      44.957  26.224  28.743  1.00  0.00    -0.354 N 
ATOM     46  C   UNL A   1      40.866  27.602  28.804  1.00  0.00     0.074 A 
ATOM     47  C   UNL A   1      39.955  26.543  28.425  1.00  0.00     0.031 C 
ATOM     48  C   UNL A   1      46.610  24.745  28.467  1.00  0.00     0.029 A 
ATOM     49  C   UNL A   1      46.327  26.142  28.794  1.00  0.00     0.049 A 
ATOM     50  H   UNL A   1      44.458  27.043  28.964  1.00  0.00     0.167 HD
ATOM     51  C   UNL A   1      40.476  28.849  29.160  1.00  0.00     0.037 A 
ATOM     52  C   UNL A   1      47.243  27.095  29.052  1.00  0.00     0.037 A 
ATOM     53  C   UNL A   1      41.380  29.906  29.527  1.00  0.00     0.049 A 
ATOM     54  C   UNL A   1      46.789  28.496  29.369  1.00  0.00     0.074 A 
ATOM     55  C   UNL A   1      41.080  31.200  29.916  1.00  0.00     0.029 A 
ATOM     56  N   UNL A   1      42.760  29.792  29.539  1.00  0.00    -0.354 N 
ATOM     57  N   UNL A   1      45.571  28.970  29.463  1.00  0.00    -0.248 NA
ATOM     58  C   UNL A   1      47.841  29.493  29.616  1.00  0.00     0.031 C 
ATOM     59  C   UNL A   1      42.284  31.882  30.123  1.00  0.00     0.029 A 
ATOM     60  C   UNL A   1      43.330  31.000  29.906  1.00  0.00     0.049 A 
ATOM     61  H   UNL A   1      43.263  28.974  29.320  1.00  0.00     0.167 HD
ATOM     62  C   UNL A   1      45.708  30.310  29.807  1.00  0.00     0.074 A 
ATOM     63  C   UNL A   1      47.128  30.571  29.912  1.00  0.00     0.031 C 
ATOM     64  C   UNL A   1      44.745  31.240  30.018  1.00  0.00     0.037 A 
BRANCH  51  65
ATOM     65  C   UNL A   1      39.007  29.139  29.144  1.00  0.00     0.057 A 
ATOM     66  C   UNL A   1      38.344  29.522  27.971  1.00  0.00     0.134 A 
ATOM     67  C   UNL A   1      38.243  29.016  30.311  1.00  0.00     0.134 A 
ATOM     68  F   UNL A   1      39.023  29.675  26.825  1.00  0.00    -0.206 F 
ATOM     69  C   UNL A   1      36.974  29.790  27.963  1.00  0.00     0.040 A 
ATOM     70  C   UNL A   1      36.869  29.259  30.311  1.00  0.00     0.040 A 
ATOM     71  F   UNL A   1      38.819  28.653  31.467  1.00  0.00    -0.206 F 
ATOM     72  C   UNL A   1      36.231  29.652  29.135  1.00  0.00     0.006 A 
ENDBRANCH  51  65
BRANCH  52  73
ATOM     73  C   UNL A   1      48.689  26.768  29.007  1.00  0.00     0.057 A 
ATOM     74  C   UNL A   1      49.390  26.420  30.168  1.00  0.00     0.134 A 
ATOM     75  C   UNL A   1      49.411  26.826  27.809  1.00  0.00     0.134 A 
ATOM     76  F   UNL A   1      48.757  26.374  31.349  1.00  0.00    -0.206 F 
ATOM     77  C   UNL A   1      50.760  26.159  30.142  1.00  0.00     0.040 A 
ATOM     78  C   UNL A   1      50.778  26.545  27.765  1.00  0.00     0.040 A 
ATOM     79  F   UNL A   1      48.798  27.157  26.664  1.00  0.00    -0.206 F 
ATOM     80  C   UNL A   1      51.458  26.218  28.937  1.00  0.00     0.006 A 
ENDBRANCH  52  73
BRANCH  64  81
ATOM     81  C   UNL A   1      45.190  32.616  30.420  1.00  0.00     0.057 A 
ATOM     82  C   UNL A   1      45.408  33.628  29.478  1.00  0.00     0.134 A 
ATOM     83  C   UNL A   1      45.356  32.942  31.772  1.00  0.00     0.134 A 
ATOM     84  F   UNL A   1      45.278  33.374  28.166  1.00  0.00    -0.206 F 
ATOM     85  C   UNL A   1      45.793  34.912  29.865  1.00  0.00     0.040 A 
ATOM     86  C   UNL A   1      45.717  34.230  32.173  1.00  0.00     0.040 A 
ATOM     87  F   UNL A   1      45.153  32.021  32.725  1.00  0.00    -0.206 F 
ATOM     88  C   UNL A   1      45.942  35.218  31.216  1.00  0.00     0.006 A 
ENDBRANCH  64  81
ENDBRANCH  38  39
ENDBRANCH  31  33
ENDBRANCH  30  31
ENDBRANCH  29  30
ENDBRANCH  28  29
ENDBRANCH  27  28
ENDBRANCH  26  27
ENDBRANCH   1  26
TORSDOF 19
ENDMDL
MODEL 3
REMARK VINA RESULT:     -10.3      5.033     10.325
REMARK SMILES CC(=O)Nc1cccc(-c2ccc(F)c(C(=O)OCCOCCOCCOC(=O)c3ccc(-c4c5nc(c(-c6c(F)cccc6F)c6ccc([nH]6)c(-c6c(F)cccc6F)c6nc(c(-c7c(F)cccc7F)c7ccc4[nH]7)C=C6)C=C5)cc3)c2)c1
REMARK SMILES IDX 22 1 21 2 20 3 19 4 18 5 16 6 17 7 15 8 10 9 11 10 84 11
REMARK SMILES IDX 12 12 13 13 14 14 9 15 5 16 6 17 85 18 7 19 8 20 4 21 1 22
REMARK SMILES IDX 2 23 3 24 23 26 24 27 25 28 26 29 27 30 28 31 29 32 30 33
REMARK SMILES IDX 31 34 83 35 32 36 82 37 33 38 34 39 35 40 76 41 36 42 81 43
REMARK SMILES IDX 75 44 77 45 37 46 80 47 74 48 73 49 38 51 64 52 47 53 63 54
REMARK SMILES IDX 48 55 51 56 62 57 78 58 49 59 50 60 61 62 79 63 52 64 39 65
REMARK SMILES IDX 40 66 45 67 41 68 42 69 44 70 46 71 43 72 65 73 66 74 71 75
REMARK SMILES IDX 67 76 68 77 70 78 72 79 69 80 53 81 54 82 59 83 55 84 56 85
REMARK SMILES IDX 58 86 60 87 57 88
REMARK H PARENT 4 25 77 50 51 61
REMARK Flexibility Score: inf
ROOT
ATOM      1  C   UNL A   1      39.814  21.303  26.513  1.00  0.00     0.188 C 
ENDROOT
BRANCH   1   2
ATOM      2  O   UNL A   1      39.562  22.571  27.094  1.00  0.00    -0.376 OA
BRANCH   2   3
ATOM      3  C   UNL A   1      38.765  23.512  26.386  1.00  0.00     0.202 C 
BRANCH   3   4
ATOM      4  C   UNL A   1      37.582  22.996  25.566  1.00  0.00     0.261 C 
BRANCH   4   5
ATOM      5  O   UNL A   1      36.376  23.700  25.898  1.00  0.00    -0.460 OA
BRANCH   5   6
ATOM      6  C   UNL A   1      35.450  23.779  24.911  1.00  0.00     0.341 C 
ATOM      7  O   UNL A   1      35.584  23.441  23.749  1.00  0.00    -0.246 OA
BRANCH   6   8
ATOM      8  C   UNL A   1      34.182  24.239  25.498  1.00  0.00     0.096 A 
ATOM      9  C   UNL A   1      32.619  26.030  26.061  1.00  0.00    -0.017 A 
ATOM     10  C   UNL A   1      31.775  25.067  26.643  1.00  0.00     0.012 A 
ATOM     11  C   UNL A   1      33.841  25.596  25.509  1.00  0.00     0.027 A 
ATOM     12  C   UNL A   1      32.129  23.715  26.653  1.00  0.00     0.041 A 
ATOM     13  C   UNL A   1      33.325  23.306  26.073  1.00  0.00     0.137 A 
ATOM     14  F   UNL A   1      33.654  22.008  26.127  1.00  0.00    -0.206 F 
BRANCH   9  15
ATOM     15  C   UNL A   1      32.214  27.443  25.955  1.00  0.00    -0.016 A 
ATOM     16  C   UNL A   1      31.394  29.271  24.541  1.00  0.00     0.041 A 
ATOM     17  C   UNL A   1      31.470  30.139  25.630  1.00  0.00     0.026 A 
ATOM     18  C   UNL A   1      31.792  27.945  24.710  1.00  0.00     0.034 A 
ATOM     19  C   UNL A   1      31.864  29.662  26.883  1.00  0.00     0.003 A 
ATOM     20  C   UNL A   1      32.226  28.321  27.045  1.00  0.00     0.009 A 
BRANCH  16  21
ATOM     21  N   UNL A   1      30.982  29.787  23.304  1.00  0.00    -0.326 N 
ATOM     22  C   UNL A   1      28.764  28.669  23.066  1.00  0.00     0.114 C 
ATOM     23  C   UNL A   1      29.920  29.459  22.507  1.00  0.00     0.221 C 
ATOM     24  O   UNL A   1      29.890  29.876  21.347  1.00  0.00    -0.275 OA
ATOM     25  H   UNL A   1      31.553  30.507  22.949  1.00  0.00     0.169 HD
ENDBRANCH  16  21
ENDBRANCH   9  15
ENDBRANCH   6   8
ENDBRANCH   5   6
ENDBRANCH   4   5
ENDBRANCH   3   4
ENDBRANCH   2   3
ENDBRANCH   1   2
BRANCH   1  26
ATOM     26  C   UNL A   1      41.260  20.853  26.214  1.00  0.00     0.188 C 
BRANCH  26  27
ATOM     27  O   UNL A   1      42.382  21.604  26.624  1.00  0.00    -0.376 OA
BRANCH  27  28
ATOM     28  C   UNL A   1      43.096  22.421  25.715  1.00  0.00     0.202 C 
BRANCH  28  29
ATOM     29  C   UNL A   1      43.222  23.938  25.893  1.00  0.00     0.261 C 
BRANCH  29  30
ATOM     30  O   UNL A   1      41.989  24.653  25.998  1.00  0.00    -0.460 OA
BRANCH  30  31
ATOM     31  C   UNL A   1      42.093  25.993  25.823  1.00  0.00     0.338 C 
ATOM     32  O   UNL A   1      42.097  26.610  24.771  1.00  0.00    -0.246 OA
BRANCH  31  33
ATOM     33  C   UNL A   1      42.043  26.655  27.136  1.00  0.00     0.060 A 
ATOM     34  C   UNL A   1      41.107  26.197  28.073  1.00  0.00     0.016 A 
ATOM     35  C   UNL A   1      42.866  27.746  27.418  1.00  0.00     0.016 A 
ATOM     36  C   UNL A   1      40.970  26.857  29.292  1.00  0.00     0.010 A 
ATOM     37  C   UNL A   1      42.713  28.417  28.633  1.00  0.00     0.010 A 
ATOM     38  C   UNL A   1      41.743  27.993  29.560  1.00  0.00    -0.014 A 
BRANCH  38  39
ATOM     39  C   UNL A   1      41.419  28.843  30.728  1.00  0.00     0.031 A 
ATOM     40  C   UNL A   1      40.273  29.808  30.619  1.00  0.00     0.074 A 
ATOM     41  C   UNL A   1      42.124  28.752  31.868  1.00  0.00     0.049 A 
ATOM     42  N   UNL A   1      39.837  30.681  31.490  1.00  0.00    -0.248 NA
ATOM     43  C   UNL A   1      39.519  29.787  29.355  1.00  0.00     0.031 C 
ATOM     44  C   UNL A   1      43.232  27.830  32.109  1.00  0.00     0.029 A 
ATOM     45  N   UNL A   1      42.012  29.461  33.037  1.00  0.00    -0.354 N 
ATOM     46  C   UNL A   1      38.760  31.312  30.882  1.00  0.00     0.074 A 
ATOM     47  C   UNL A   1      38.624  30.743  29.559  1.00  0.00     0.031 C 
ATOM     48  C   UNL A   1      43.712  28.044  33.346  1.00  0.00     0.029 A 
ATOM     49  C   UNL A   1      42.962  29.132  33.972  1.00  0.00     0.049 A 
ATOM     50  H   UNL A   1      41.318  30.142  33.191  1.00  0.00     0.167 HD
ATOM     51  C   UNL A   1      37.952  32.276  31.382  1.00  0.00     0.037 A 
ATOM     52  C   UNL A   1      43.210  29.669  35.183  1.00  0.00     0.037 A 
ATOM     53  C   UNL A   1      38.092  32.851  32.693  1.00  0.00     0.049 A 
ATOM     54  C   UNL A   1      42.345  30.794  35.687  1.00  0.00     0.074 A 
ATOM     55  C   UNL A   1      37.314  33.824  33.296  1.00  0.00     0.029 A 
ATOM     56  N   UNL A   1      39.084  32.511  33.599  1.00  0.00    -0.354 N 
ATOM     57  N   UNL A   1      41.311  31.363  35.117  1.00  0.00    -0.248 NA
ATOM     58  C   UNL A   1      42.684  31.350  37.005  1.00  0.00     0.031 C 
ATOM     59  C   UNL A   1      37.862  34.103  34.552  1.00  0.00     0.029 A 
ATOM     60  C   UNL A   1      38.953  33.272  34.749  1.00  0.00     0.049 A 
ATOM     61  H   UNL A   1      39.779  31.830  33.449  1.00  0.00     0.167 HD
ATOM     62  C   UNL A   1      40.859  32.322  36.017  1.00  0.00     0.074 A 
ATOM     63  C   UNL A   1      41.727  32.253  37.173  1.00  0.00     0.031 C 
ATOM     64  C   UNL A   1      39.819  33.183  35.896  1.00  0.00     0.037 A 
BRANCH  51  65
ATOM     65  C   UNL A   1      36.858  32.784  30.494  1.00  0.00     0.057 A 
ATOM     66  C   UNL A   1      35.545  32.305  30.595  1.00  0.00     0.134 A 
ATOM     67  C   UNL A   1      37.116  33.774  29.539  1.00  0.00     0.134 A 
ATOM     68  F   UNL A   1      35.238  31.343  31.478  1.00  0.00    -0.206 F 
ATOM     69  C   UNL A   1      34.530  32.784  29.765  1.00  0.00     0.040 A 
ATOM     70  C   UNL A   1      36.105  34.277  28.719  1.00  0.00     0.040 A 
ATOM     71  F   UNL A   1      38.353  34.273  29.392  1.00  0.00    -0.206 F 
ATOM     72  C   UNL A   1      34.808  33.778  28.828  1.00  0.00     0.006 A 
ENDBRANCH  51  65
BRANCH  52  73
ATOM     73  C   UNL A   1      44.336  29.162  36.004  1.00  0.00     0.057 A 
ATOM     74  C   UNL A   1      45.612  29.731  35.913  1.00  0.00     0.134 A 
ATOM     75  C   UNL A   1      44.172  28.078  36.873  1.00  0.00     0.134 A 
ATOM     76  F   UNL A   1      45.836  30.755  35.077  1.00  0.00    -0.206 F 
ATOM     77  C   UNL A   1      46.688  29.229  36.646  1.00  0.00     0.040 A 
ATOM     78  C   UNL A   1      45.234  27.579  37.629  1.00  0.00     0.040 A 
ATOM     79  F   UNL A   1      42.975  27.488  37.001  1.00  0.00    -0.206 F 
ATOM     80  C   UNL A   1      46.500  28.152  37.509  1.00  0.00     0.006 A 
ENDBRANCH  52  73
BRANCH  64  81
ATOM     81  C   UNL A   1      39.537  34.092  37.056  1.00  0.00     0.057 A 
ATOM     82  C   UNL A   1      38.825  33.657  38.180  1.00  0.00     0.134 A 
ATOM     83  C   UNL A   1      40.027  35.404  37.067  1.00  0.00     0.134 A 
ATOM     84  F   UNL A   1      38.318  32.415  38.225  1.00  0.00    -0.206 F 
ATOM     85  C   UNL A   1      38.593  34.502  39.267  1.00  0.00     0.040 A 
ATOM     86  C   UNL A   1      39.823  36.250  38.158  1.00  0.00     0.040 A 
ATOM     87  F   UNL A   1      40.726  35.878  36.025  1.00  0.00    -0.206 F 
ATOM     88  C   UNL A   1      39.099  35.800  39.261  1.00  0.00     0.006 A 
ENDBRANCH  64  81
ENDBRANCH  38  39
ENDBRANCH  31  33
ENDBRANCH  30  31
ENDBRANCH  29  30
ENDBRANCH  28  29
ENDBRANCH  27  28
ENDBRANCH  26  27
ENDBRANCH   1  26
TORSDOF 19
ENDMDL
