MODEL 1
REMARK VINA RESULT:      -9.0      0.000      0.000
REMARK SMILES CN1C(=O)C(=Cc2ccc(OCc3cccc(C(=O)OCCOCCOCCOC(=O)c4ccc(-c5c6nc(c(-c7c(F)cccc7F)c7ccc([nH]7)c(-c7c(F)cccc7F)c7nc(c(-c8c(F)cccc8F)c8ccc5[nH]8)C=C7)C=C6)cc4)c3)c(Cl)c2)C(=O)N(C)C1=S
REMARK SMILES IDX 24 1 23 2 22 3 21 4 20 5 18 6 19 7 17 8 13 9 14 10 86 11
REMARK SMILES IDX 15 12 16 13 12 14 11 15 10 16 7 17 8 18 89 19 9 20 87 21
REMARK SMILES IDX 88 22 6 23 1 24 2 25 3 26 94 27 4 28 5 29 92 30 95 31 90 32
REMARK SMILES IDX 93 33 91 34 25 35 26 36 27 37 28 38 29 39 30 40 31 41 32 42
REMARK SMILES IDX 33 43 85 44 34 45 84 46 35 47 36 48 37 49 78 50 38 51 83 52
REMARK SMILES IDX 77 53 79 54 39 55 82 56 76 57 75 58 40 60 66 61 49 62 65 63
REMARK SMILES IDX 50 64 53 65 64 66 80 67 51 68 52 69 63 71 81 72 54 73 41 74
REMARK SMILES IDX 42 75 47 76 43 77 44 78 46 79 48 80 45 81 67 82 68 83 73 84
REMARK SMILES IDX 69 85 70 86 72 87 74 88 71 89 55 90 56 91 61 92 57 93 58 94
REMARK SMILES IDX 60 95 62 96 59 97
REMARK H PARENT 79 59 53 70
REMARK Flexibility Score: inf
ROOT
ATOM      1  C   UNL A   1      42.191  19.584  27.330  1.00  0.00     0.188 C 
ENDROOT
BRANCH   1   2
ATOM      2  O   UNL A   1      41.685  20.889  27.562  1.00  0.00    -0.376 OA
BRANCH   2   3
ATOM      3  C   UNL A   1      41.484  21.699  26.412  1.00  0.00     0.202 C 
BRANCH   3   4
ATOM      4  C   UNL A   1      41.387  23.235  26.540  1.00  0.00     0.261 C 
BRANCH   4   5
ATOM      5  O   UNL A   1      40.538  23.759  27.573  1.00  0.00    -0.460 OA
BRANCH   5   6
ATOM      6  C   UNL A   1      39.648  24.717  27.234  1.00  0.00     0.338 C 
ATOM      7  O   UNL A   1      38.522  24.539  26.801  1.00  0.00    -0.246 OA
BRANCH   6   8
ATOM      8  C   UNL A   1      40.166  26.033  27.698  1.00  0.00     0.060 A 
ATOM      9  C   UNL A   1      40.434  27.791  29.378  1.00  0.00    -0.010 A 
ATOM     10  C   UNL A   1      41.095  28.557  28.405  1.00  0.00     0.007 A 
ATOM     11  C   UNL A   1      39.951  26.522  29.001  1.00  0.00     0.023 A 
ATOM     12  C   UNL A   1      41.277  28.091  27.102  1.00  0.00     0.001 A 
ATOM     13  C   UNL A   1      40.827  26.825  26.752  1.00  0.00     0.016 A 
BRANCH   9  14
ATOM     14  C   UNL A   1      40.332  28.273  30.819  1.00  0.00     0.265 C 
BRANCH  14  15
ATOM     15  O   UNL A   1      40.850  29.572  31.125  1.00  0.00    -0.487 OA
BRANCH  15  16
ATOM     16  C   UNL A   1      40.051  30.541  31.661  1.00  0.00     0.138 A 
ATOM     17  C   UNL A   1      38.112  32.176  32.879  1.00  0.00    -0.023 A 
ATOM     18  C   UNL A   1      38.347  30.888  33.366  1.00  0.00     0.012 A 
ATOM     19  C   UNL A   1      38.911  32.675  31.852  1.00  0.00     0.032 A 
ATOM     20  C   UNL A   1      39.304  30.079  32.753  1.00  0.00     0.048 A 
ATOM     21  C   UNL A   1      39.923  31.885  31.290  1.00  0.00     0.083 A 
ATOM     22  Cl  UNL A   1      41.017  32.711  30.236  1.00  0.00    -0.080 Cl
BRANCH  17  23
ATOM     23  C   UNL A   1      37.080  33.020  33.480  1.00  0.00     0.027 C 
ATOM     24  C   UNL A   1      34.738  33.267  29.408  1.00  0.00     0.156 C 
ATOM     25  N   UNL A   1      34.735  33.628  30.830  1.00  0.00    -0.288 N 
ATOM     26  C   UNL A   1      35.477  32.756  31.618  1.00  0.00     0.265 C 
ATOM     27  C   UNL A   1      34.078  34.784  31.305  1.00  0.00     0.185 C 
ATOM     28  O   UNL A   1      35.777  31.612  31.284  1.00  0.00    -0.268 OA
ATOM     29  C   UNL A   1      35.897  33.311  32.908  1.00  0.00     0.106 C 
ATOM     30  N   UNL A   1      34.342  35.125  32.650  1.00  0.00    -0.288 N 
ATOM     31  S   UNL A   1      33.030  35.692  30.329  1.00  0.00    -0.040 S 
ATOM     32  C   UNL A   1      35.097  34.362  33.539  1.00  0.00     0.265 C 
ATOM     33  C   UNL A   1      33.878  36.378  33.252  1.00  0.00     0.156 C 
ATOM     34  O   UNL A   1      35.159  34.575  34.749  1.00  0.00    -0.268 OA
ENDBRANCH  17  23
ENDBRANCH  15  16
ENDBRANCH  14  15
ENDBRANCH   9  14
ENDBRANCH   6   8
ENDBRANCH   5   6
ENDBRANCH   4   5
ENDBRANCH   3   4
ENDBRANCH   2   3
ENDBRANCH   1   2
BRANCH   1  35
ATOM     35  C   UNL A   1      42.450  19.341  25.834  1.00  0.00     0.188 C 
BRANCH  35  36
ATOM     36  O   UNL A   1      43.797  19.168  25.441  1.00  0.00    -0.376 OA
BRANCH  36  37
ATOM     37  C   UNL A   1      44.513  20.249  24.864  1.00  0.00     0.202 C 
BRANCH  37  38
ATOM     38  C   UNL A   1      45.914  20.756  25.294  1.00  0.00     0.261 C 
BRANCH  38  39
ATOM     39  O   UNL A   1      46.044  22.041  25.910  1.00  0.00    -0.460 OA
BRANCH  39  40
ATOM     40  C   UNL A   1      46.034  23.118  25.094  1.00  0.00     0.338 C 
ATOM     41  O   UNL A   1      46.070  23.126  23.871  1.00  0.00    -0.246 OA
BRANCH  40  42
ATOM     42  C   UNL A   1      45.793  24.317  25.922  1.00  0.00     0.060 A 
ATOM     43  C   UNL A   1      46.723  24.664  26.914  1.00  0.00     0.016 A 
ATOM     44  C   UNL A   1      44.648  25.091  25.728  1.00  0.00     0.016 A 
ATOM     45  C   UNL A   1      46.499  25.775  27.727  1.00  0.00     0.010 A 
ATOM     46  C   UNL A   1      44.415  26.192  26.560  1.00  0.00     0.010 A 
ATOM     47  C   UNL A   1      45.324  26.524  27.582  1.00  0.00    -0.014 A 
BRANCH  47  48
ATOM     48  C   UNL A   1      44.961  27.544  28.598  1.00  0.00     0.031 A 
ATOM     49  C   UNL A   1      45.137  28.998  28.256  1.00  0.00     0.074 A 
ATOM     50  C   UNL A   1      44.475  27.193  29.802  1.00  0.00     0.049 A 
ATOM     51  N   UNL A   1      44.947  30.058  28.999  1.00  0.00    -0.248 NA
ATOM     52  C   UNL A   1      45.595  29.295  26.890  1.00  0.00     0.031 C 
ATOM     53  C   UNL A   1      44.220  25.824  30.247  1.00  0.00     0.029 A 
ATOM     54  N   UNL A   1      44.122  27.969  30.879  1.00  0.00    -0.354 N 
ATOM     55  C   UNL A   1      45.270  31.144  28.196  1.00  0.00     0.074 A 
ATOM     56  C   UNL A   1      45.699  30.615  26.920  1.00  0.00     0.031 C 
ATOM     57  C   UNL A   1      43.764  25.856  31.511  1.00  0.00     0.029 A 
ATOM     58  C   UNL A   1      43.730  27.242  31.977  1.00  0.00     0.049 A 
ATOM     59  H   UNL A   1      44.148  28.954  30.865  1.00  0.00     0.167 HD
ATOM     60  C   UNL A   1      45.206  32.465  28.490  1.00  0.00     0.037 A 
ATOM     61  C   UNL A   1      43.405  27.650  33.220  1.00  0.00     0.037 A 
ATOM     62  C   UNL A   1      44.786  32.993  29.762  1.00  0.00     0.049 A 
ATOM     63  C   UNL A   1      43.423  29.121  33.551  1.00  0.00     0.074 A 
ATOM     64  C   UNL A   1      44.669  34.318  30.149  1.00  0.00     0.029 A 
ATOM     65  N   UNL A   1      44.427  32.223  30.859  1.00  0.00    -0.354 N 
ATOM     66  N   UNL A   1      43.697  30.142  32.775  1.00  0.00    -0.248 NA
ATOM     67  C   UNL A   1      43.083  29.495  34.932  1.00  0.00     0.031 C 
ATOM     68  C   UNL A   1      44.299  34.348  31.497  1.00  0.00     0.029 A 
ATOM     69  C   UNL A   1      44.119  33.045  31.931  1.00  0.00     0.049 A 
ATOM     70  H   UNL A   1      44.394  31.240  30.872  1.00  0.00     0.167 HD
ATOM     71  C   UNL A   1      43.532  31.276  33.563  1.00  0.00     0.074 A 
ATOM     72  C   UNL A   1      43.120  30.819  34.873  1.00  0.00     0.031 C 
ATOM     73  C   UNL A   1      43.703  32.581  33.231  1.00  0.00     0.037 A 
BRANCH  60  74
ATOM     74  C   UNL A   1      45.634  33.433  27.424  1.00  0.00     0.057 A 
ATOM     75  C   UNL A   1      46.980  33.755  27.209  1.00  0.00     0.134 A 
ATOM     76  C   UNL A   1      44.686  34.028  26.582  1.00  0.00     0.134 A 
ATOM     77  F   UNL A   1      47.938  33.233  27.990  1.00  0.00    -0.206 F 
ATOM     78  C   UNL A   1      47.365  34.654  26.213  1.00  0.00     0.040 A 
ATOM     79  C   UNL A   1      45.061  34.905  25.563  1.00  0.00     0.040 A 
ATOM     80  F   UNL A   1      43.379  33.759  26.728  1.00  0.00    -0.206 F 
ATOM     81  C   UNL A   1      46.404  35.225  25.381  1.00  0.00     0.006 A 
ENDBRANCH  60  74
BRANCH  61  82
ATOM     82  C   UNL A   1      43.050  26.651  34.263  1.00  0.00     0.057 A 
ATOM     83  C   UNL A   1      44.035  25.889  34.904  1.00  0.00     0.134 A 
ATOM     84  C   UNL A   1      41.717  26.408  34.618  1.00  0.00     0.134 A 
ATOM     85  F   UNL A   1      45.327  26.054  34.588  1.00  0.00    -0.206 F 
ATOM     86  C   UNL A   1      43.706  24.911  35.845  1.00  0.00     0.040 A 
ATOM     87  C   UNL A   1      41.376  25.454  35.576  1.00  0.00     0.040 A 
ATOM     88  F   UNL A   1      40.726  27.101  34.038  1.00  0.00    -0.206 F 
ATOM     89  C   UNL A   1      42.373  24.695  36.187  1.00  0.00     0.006 A 
ENDBRANCH  61  82
BRANCH  73  90
ATOM     90  C   UNL A   1      43.405  33.612  34.284  1.00  0.00     0.057 A 
ATOM     91  C   UNL A   1      42.102  34.057  34.543  1.00  0.00     0.134 A 
ATOM     92  C   UNL A   1      44.434  34.132  35.081  1.00  0.00     0.134 A 
ATOM     93  F   UNL A   1      41.071  33.608  33.812  1.00  0.00    -0.206 F 
ATOM     94  C   UNL A   1      41.838  35.002  35.538  1.00  0.00     0.040 A 
ATOM     95  C   UNL A   1      44.177  35.053  36.099  1.00  0.00     0.040 A 
ATOM     96  F   UNL A   1      45.703  33.741  34.896  1.00  0.00    -0.206 F 
ATOM     97  C   UNL A   1      42.877  35.496  36.324  1.00  0.00     0.006 A 
ENDBRANCH  73  90
ENDBRANCH  47  48
ENDBRANCH  40  42
ENDBRANCH  39  40
ENDBRANCH  38  39
ENDBRANCH  37  38
ENDBRANCH  36  37
ENDBRANCH  35  36
ENDBRANCH   1  35
TORSDOF 21
ENDMDL
MODEL 2
REMARK VINA RESULT:      -8.4      5.006      9.674
REMARK SMILES CN1C(=O)C(=Cc2ccc(OCc3cccc(C(=O)OCCOCCOCCOC(=O)c4ccc(-c5c6nc(c(-c7c(F)cccc7F)c7ccc([nH]7)c(-c7c(F)cccc7F)c7nc(c(-c8c(F)cccc8F)c8ccc5[nH]8)C=C7)C=C6)cc4)c3)c(Cl)c2)C(=O)N(C)C1=S
REMARK SMILES IDX 24 1 23 2 22 3 21 4 20 5 18 6 19 7 17 8 13 9 14 10 86 11
REMARK SMILES IDX 15 12 16 13 12 14 11 15 10 16 7 17 8 18 89 19 9 20 87 21
REMARK SMILES IDX 88 22 6 23 1 24 2 25 3 26 94 27 4 28 5 29 92 30 95 31 90 32
REMARK SMILES IDX 93 33 91 34 25 35 26 36 27 37 28 38 29 39 30 40 31 41 32 42
REMARK SMILES IDX 33 43 85 44 34 45 84 46 35 47 36 48 37 49 78 50 38 51 83 52
REMARK SMILES IDX 77 53 79 54 39 55 82 56 76 57 75 58 40 60 66 61 49 62 65 63
REMARK SMILES IDX 50 64 53 65 64 66 80 67 51 68 52 69 63 71 81 72 54 73 41 74
REMARK SMILES IDX 42 75 47 76 43 77 44 78 46 79 48 80 45 81 67 82 68 83 73 84
REMARK SMILES IDX 69 85 70 86 72 87 74 88 71 89 55 90 56 91 61 92 57 93 58 94
REMARK SMILES IDX 60 95 62 96 59 97
REMARK H PARENT 79 59 53 70
REMARK Flexibility Score: inf
ROOT
ATOM      1  C   UNL A   1      38.623  28.061  31.849  1.00  0.00     0.188 C 
ENDROOT
BRANCH   1   2
ATOM      2  O   UNL A   1      37.490  28.580  32.526  1.00  0.00    -0.376 OA
BRANCH   2   3
ATOM      3  C   UNL A   1      37.062  29.877  32.137  1.00  0.00     0.202 C 
BRANCH   3   4
ATOM      4  C   UNL A   1      37.005  31.028  33.166  1.00  0.00     0.261 C 
BRANCH   4   5
ATOM      5  O   UNL A   1      36.701  32.341  32.671  1.00  0.00    -0.460 OA
BRANCH   5   6
ATOM      6  C   UNL A   1      35.478  32.850  32.939  1.00  0.00     0.338 C 
ATOM      7  O   UNL A   1      35.026  33.107  34.041  1.00  0.00    -0.246 OA
BRANCH   6   8
ATOM      8  C   UNL A   1      34.850  33.275  31.659  1.00  0.00     0.060 A 
ATOM      9  C   UNL A   1      34.397  33.012  29.269  1.00  0.00    -0.010 A 
ATOM     10  C   UNL A   1      33.716  34.239  29.310  1.00  0.00     0.007 A 
ATOM     11  C   UNL A   1      34.983  32.544  30.463  1.00  0.00     0.023 A 
ATOM     12  C   UNL A   1      33.614  34.984  30.485  1.00  0.00     0.001 A 
ATOM     13  C   UNL A   1      34.166  34.497  31.662  1.00  0.00     0.016 A 
BRANCH   9  14
ATOM     14  C   UNL A   1      34.413  32.165  28.003  1.00  0.00     0.265 C 
BRANCH  14  15
ATOM     15  O   UNL A   1      33.372  31.197  27.837  1.00  0.00    -0.487 OA
BRANCH  15  16
ATOM     16  C   UNL A   1      33.444  30.247  26.858  1.00  0.00     0.138 A 
ATOM     17  C   UNL A   1      33.114  28.341  24.814  1.00  0.00    -0.023 A 
ATOM     18  C   UNL A   1      32.277  29.457  24.870  1.00  0.00     0.012 A 
ATOM     19  C   UNL A   1      34.171  28.232  25.717  1.00  0.00     0.032 A 
ATOM     20  C   UNL A   1      32.440  30.396  25.890  1.00  0.00     0.048 A 
ATOM     21  C   UNL A   1      34.376  29.216  26.693  1.00  0.00     0.083 A 
ATOM     22  Cl  UNL A   1      35.872  29.112  27.555  1.00  0.00    -0.080 Cl
BRANCH  17  23
ATOM     23  C   UNL A   1      32.927  27.325  23.779  1.00  0.00     0.027 C 
ATOM     24  C   UNL A   1      31.815  24.079  26.997  1.00  0.00     0.156 C 
ATOM     25  N   UNL A   1      31.940  24.370  25.564  1.00  0.00    -0.288 N 
ATOM     26  C   UNL A   1      31.779  25.718  25.264  1.00  0.00     0.265 C 
ATOM     27  C   UNL A   1      32.248  23.365  24.622  1.00  0.00     0.185 C 
ATOM     28  O   UNL A   1      31.214  26.524  25.999  1.00  0.00    -0.268 OA
ATOM     29  C   UNL A   1      32.350  26.125  23.977  1.00  0.00     0.106 C 
ATOM     30  N   UNL A   1      32.554  23.823  23.321  1.00  0.00    -0.288 N 
ATOM     31  S   UNL A   1      32.236  21.717  25.024  1.00  0.00    -0.040 S 
ATOM     32  C   UNL A   1      32.470  25.146  22.894  1.00  0.00     0.265 C 
ATOM     33  C   UNL A   1      33.055  22.933  22.270  1.00  0.00     0.156 C 
ATOM     34  O   UNL A   1      32.556  25.499  21.719  1.00  0.00    -0.268 OA
ENDBRANCH  17  23
ENDBRANCH  15  16
ENDBRANCH  14  15
ENDBRANCH   9  14
ENDBRANCH   6   8
ENDBRANCH   5   6
ENDBRANCH   4   5
ENDBRANCH   3   4
ENDBRANCH   2   3
ENDBRANCH   1   2
BRANCH   1  35
ATOM     35  C   UNL A   1      38.788  28.704  30.461  1.00  0.00     0.188 C 
BRANCH  35  36
ATOM     36  O   UNL A   1      38.603  27.861  29.342  1.00  0.00    -0.376 OA
BRANCH  36  37
ATOM     37  C   UNL A   1      39.564  26.862  29.038  1.00  0.00     0.202 C 
BRANCH  37  38
ATOM     38  C   UNL A   1      39.353  25.634  28.114  1.00  0.00     0.261 C 
BRANCH  38  39
ATOM     39  O   UNL A   1      39.999  25.588  26.838  1.00  0.00    -0.460 OA
BRANCH  39  40
ATOM     40  C   UNL A   1      41.014  24.708  26.694  1.00  0.00     0.338 C 
ATOM     41  O   UNL A   1      40.932  23.501  26.515  1.00  0.00    -0.246 OA
BRANCH  40  42
ATOM     42  C   UNL A   1      42.274  25.473  26.608  1.00  0.00     0.060 A 
ATOM     43  C   UNL A   1      43.089  25.581  27.744  1.00  0.00     0.016 A 
ATOM     44  C   UNL A   1      42.647  26.090  25.412  1.00  0.00     0.016 A 
ATOM     45  C   UNL A   1      44.269  26.324  27.694  1.00  0.00     0.010 A 
ATOM     46  C   UNL A   1      43.819  26.853  25.370  1.00  0.00     0.010 A 
ATOM     47  C   UNL A   1      44.622  26.998  26.517  1.00  0.00    -0.014 A 
BRANCH  47  48
ATOM     48  C   UNL A   1      45.731  27.985  26.529  1.00  0.00     0.031 A 
ATOM     49  C   UNL A   1      45.397  29.444  26.673  1.00  0.00     0.074 A 
ATOM     50  C   UNL A   1      47.015  27.599  26.423  1.00  0.00     0.049 A 
ATOM     51  N   UNL A   1      46.188  30.487  26.648  1.00  0.00    -0.248 NA
ATOM     52  C   UNL A   1      43.976  29.771  26.866  1.00  0.00     0.031 C 
ATOM     53  C   UNL A   1      47.478  26.217  26.316  1.00  0.00     0.029 A 
ATOM     54  N   UNL A   1      48.167  28.346  26.374  1.00  0.00    -0.354 N 
ATOM     55  C   UNL A   1      45.361  31.591  26.813  1.00  0.00     0.074 A 
ATOM     56  C   UNL A   1      44.005  31.095  26.904  1.00  0.00     0.031 C 
ATOM     57  C   UNL A   1      48.818  26.215  26.200  1.00  0.00     0.029 A 
ATOM     58  C   UNL A   1      49.303  27.595  26.187  1.00  0.00     0.049 A 
ATOM     59  H   UNL A   1      48.178  29.326  26.464  1.00  0.00     0.167 HD
ATOM     60  C   UNL A   1      45.700  32.900  26.891  1.00  0.00     0.037 A 
ATOM     61  C   UNL A   1      50.581  27.981  26.003  1.00  0.00     0.037 A 
ATOM     62  C   UNL A   1      47.049  33.396  26.794  1.00  0.00     0.049 A 
ATOM     63  C   UNL A   1      50.924  29.449  26.009  1.00  0.00     0.074 A 
ATOM     64  C   UNL A   1      47.494  34.703  26.883  1.00  0.00     0.029 A 
ATOM     65  N   UNL A   1      48.168  32.606  26.574  1.00  0.00    -0.354 N 
ATOM     66  N   UNL A   1      50.141  30.484  26.199  1.00  0.00    -0.248 NA
ATOM     67  C   UNL A   1      52.333  29.803  25.777  1.00  0.00     0.031 C 
ATOM     68  C   UNL A   1      48.873  34.712  26.653  1.00  0.00     0.029 A 
ATOM     69  C   UNL A   1      49.298  33.403  26.490  1.00  0.00     0.049 A 
ATOM     70  H   UNL A   1      48.159  31.625  26.490  1.00  0.00     0.167 HD
ATOM     71  C   UNL A   1      50.964  31.603  26.141  1.00  0.00     0.074 A 
ATOM     72  C   UNL A   1      52.310  31.121  25.913  1.00  0.00     0.031 C 
ATOM     73  C   UNL A   1      50.636  32.914  26.269  1.00  0.00     0.037 A 
BRANCH  60  74
ATOM     74  C   UNL A   1      44.587  33.894  27.060  1.00  0.00     0.057 A 
ATOM     75  C   UNL A   1      43.933  34.471  25.963  1.00  0.00     0.134 A 
ATOM     76  C   UNL A   1      44.145  34.257  28.338  1.00  0.00     0.134 A 
ATOM     77  F   UNL A   1      44.318  34.180  24.711  1.00  0.00    -0.206 F 
ATOM     78  C   UNL A   1      42.898  35.392  26.132  1.00  0.00     0.040 A 
ATOM     79  C   UNL A   1      43.090  35.153  28.520  1.00  0.00     0.040 A 
ATOM     80  F   UNL A   1      44.722  33.738  29.433  1.00  0.00    -0.206 F 
ATOM     81  C   UNL A   1      42.468  35.729  27.414  1.00  0.00     0.006 A 
ENDBRANCH  60  74
BRANCH  61  82
ATOM     82  C   UNL A   1      51.641  26.964  25.776  1.00  0.00     0.057 A 
ATOM     83  C   UNL A   1      52.270  26.318  26.848  1.00  0.00     0.134 A 
ATOM     84  C   UNL A   1      52.078  26.639  24.485  1.00  0.00     0.134 A 
ATOM     85  F   UNL A   1      51.917  26.607  28.109  1.00  0.00    -0.206 F 
ATOM     86  C   UNL A   1      53.304  25.402  26.647  1.00  0.00     0.040 A 
ATOM     87  C   UNL A   1      53.090  25.705  24.268  1.00  0.00     0.040 A 
ATOM     88  F   UNL A   1      51.520  27.225  23.415  1.00  0.00    -0.206 F 
ATOM     89  C   UNL A   1      53.713  25.090  25.353  1.00  0.00     0.006 A 
ENDBRANCH  61  82
BRANCH  73  90
ATOM     90  C   UNL A   1      51.752  33.919  26.209  1.00  0.00     0.057 A 
ATOM     91  C   UNL A   1      52.177  34.490  25.002  1.00  0.00     0.134 A 
ATOM     92  C   UNL A   1      52.379  34.356  27.384  1.00  0.00     0.134 A 
ATOM     93  F   UNL A   1      51.626  34.111  23.840  1.00  0.00    -0.206 F 
ATOM     94  C   UNL A   1      53.204  35.437  24.964  1.00  0.00     0.040 A 
ATOM     95  C   UNL A   1      53.384  35.325  27.361  1.00  0.00     0.040 A 
ATOM     96  F   UNL A   1      52.015  33.861  28.576  1.00  0.00    -0.206 F 
ATOM     97  C   UNL A   1      53.804  35.863  26.147  1.00  0.00     0.006 A 
ENDBRANCH  73  90
ENDBRANCH  47  48
ENDBRANCH  40  42
ENDBRANCH  39  40
ENDBRANCH  38  39
ENDBRANCH  37  38
ENDBRANCH  36  37
ENDBRANCH  35  36
ENDBRANCH   1  35
TORSDOF 21
ENDMDL
MODEL 3
REMARK VINA RESULT:      -8.4      5.156      8.550
REMARK SMILES CN1C(=O)C(=Cc2ccc(OCc3cccc(C(=O)OCCOCCOCCOC(=O)c4ccc(-c5c6nc(c(-c7c(F)cccc7F)c7ccc([nH]7)c(-c7c(F)cccc7F)c7nc(c(-c8c(F)cccc8F)c8ccc5[nH]8)C=C7)C=C6)cc4)c3)c(Cl)c2)C(=O)N(C)C1=S
REMARK SMILES IDX 24 1 23 2 22 3 21 4 20 5 18 6 19 7 17 8 13 9 14 10 86 11
REMARK SMILES IDX 15 12 16 13 12 14 11 15 10 16 7 17 8 18 89 19 9 20 87 21
REMARK SMILES IDX 88 22 6 23 1 24 2 25 3 26 94 27 4 28 5 29 92 30 95 31 90 32
REMARK SMILES IDX 93 33 91 34 25 35 26 36 27 37 28 38 29 39 30 40 31 41 32 42
REMARK SMILES IDX 33 43 85 44 34 45 84 46 35 47 36 48 37 49 78 50 38 51 83 52
REMARK SMILES IDX 77 53 79 54 39 55 82 56 76 57 75 58 40 60 66 61 49 62 65 63
REMARK SMILES IDX 50 64 53 65 64 66 80 67 51 68 52 69 63 71 81 72 54 73 41 74
REMARK SMILES IDX 42 75 47 76 43 77 44 78 46 79 48 80 45 81 67 82 68 83 73 84
REMARK SMILES IDX 69 85 70 86 72 87 74 88 71 89 55 90 56 91 61 92 57 93 58 94
REMARK SMILES IDX 60 95 62 96 59 97
REMARK H PARENT 79 59 53 70
REMARK Flexibility Score: inf
ROOT
ATOM      1  C   UNL A   1      36.568  22.099  25.135  1.00  0.00     0.188 C 
ENDROOT
BRANCH   1   2
ATOM      2  O   UNL A   1      35.689  22.237  26.239  1.00  0.00    -0.376 OA
BRANCH   2   3
ATOM      3  C   UNL A   1      34.309  22.029  25.975  1.00  0.00     0.202 C 
BRANCH   3   4
ATOM      4  C   UNL A   1      33.472  23.114  25.263  1.00  0.00     0.261 C 
BRANCH   4   5
ATOM      5  O   UNL A   1      32.167  22.739  24.793  1.00  0.00    -0.460 OA
BRANCH   5   6
ATOM      6  C   UNL A   1      31.125  23.534  25.121  1.00  0.00     0.338 C 
ATOM      7  O   UNL A   1      30.428  23.442  26.116  1.00  0.00    -0.246 OA
BRANCH   6   8
ATOM      8  C   UNL A   1      31.107  24.698  24.193  1.00  0.00     0.060 A 
ATOM      9  C   UNL A   1      30.426  26.961  23.562  1.00  0.00    -0.010 A 
ATOM     10  C   UNL A   1      31.057  26.757  22.325  1.00  0.00     0.007 A 
ATOM     11  C   UNL A   1      30.442  25.903  24.492  1.00  0.00     0.023 A 
ATOM     12  C   UNL A   1      31.684  25.551  22.010  1.00  0.00     0.001 A 
ATOM     13  C   UNL A   1      31.723  24.527  22.948  1.00  0.00     0.016 A 
BRANCH   9  14
ATOM     14  C   UNL A   1      29.833  28.316  23.926  1.00  0.00     0.265 C 
BRANCH  14  15
ATOM     15  O   UNL A   1      30.739  29.406  24.129  1.00  0.00    -0.487 OA
BRANCH  15  16
ATOM     16  C   UNL A   1      31.883  29.245  24.859  1.00  0.00     0.138 A 
ATOM     17  C   UNL A   1      33.991  29.117  26.718  1.00  0.00    -0.023 A 
ATOM     18  C   UNL A   1      32.669  28.987  27.150  1.00  0.00     0.012 A 
ATOM     19  C   UNL A   1      34.259  29.212  25.353  1.00  0.00     0.032 A 
ATOM     20  C   UNL A   1      31.627  29.059  26.225  1.00  0.00     0.048 A 
ATOM     21  C   UNL A   1      33.212  29.207  24.422  1.00  0.00     0.083 A 
ATOM     22  Cl  UNL A   1      33.686  29.041  22.767  1.00  0.00    -0.080 Cl
BRANCH  17  23
ATOM     23  C   UNL A   1      35.092  29.091  27.680  1.00  0.00     0.027 C 
ATOM     24  C   UNL A   1      35.197  33.790  27.871  1.00  0.00     0.156 C 
ATOM     25  N   UNL A   1      35.751  32.544  28.413  1.00  0.00    -0.288 N 
ATOM     26  C   UNL A   1      34.874  31.469  28.317  1.00  0.00     0.265 C 
ATOM     27  C   UNL A   1      37.065  32.471  28.921  1.00  0.00     0.185 C 
ATOM     28  O   UNL A   1      33.659  31.582  28.178  1.00  0.00    -0.268 OA
ATOM     29  C   UNL A   1      35.518  30.154  28.388  1.00  0.00     0.106 C 
ATOM     30  N   UNL A   1      37.538  31.169  29.202  1.00  0.00    -0.288 N 
ATOM     31  S   UNL A   1      38.008  33.855  29.191  1.00  0.00    -0.040 S 
ATOM     32  C   UNL A   1      36.781  30.003  29.114  1.00  0.00     0.265 C 
ATOM     33  C   UNL A   1      38.929  30.899  29.575  1.00  0.00     0.156 C 
ATOM     34  O   UNL A   1      37.148  28.909  29.539  1.00  0.00    -0.268 OA
ENDBRANCH  17  23
ENDBRANCH  15  16
ENDBRANCH  14  15
ENDBRANCH   9  14
ENDBRANCH   6   8
ENDBRANCH   5   6
ENDBRANCH   4   5
ENDBRANCH   3   4
ENDBRANCH   2   3
ENDBRANCH   1   2
BRANCH   1  35
ATOM     35  C   UNL A   1      37.924  21.516  25.568  1.00  0.00     0.188 C 
BRANCH  35  36
ATOM     36  O   UNL A   1      39.003  22.423  25.674  1.00  0.00    -0.376 OA
BRANCH  36  37
ATOM     37  C   UNL A   1      38.952  23.481  26.619  1.00  0.00     0.202 C 
BRANCH  37  38
ATOM     38  C   UNL A   1      40.166  24.231  27.225  1.00  0.00     0.261 C 
BRANCH  38  39
ATOM     39  O   UNL A   1      41.359  23.507  27.543  1.00  0.00    -0.460 OA
BRANCH  39  40
ATOM     40  C   UNL A   1      42.287  23.392  26.567  1.00  0.00     0.338 C 
ATOM     41  O   UNL A   1      42.343  22.541  25.691  1.00  0.00    -0.246 OA
BRANCH  40  42
ATOM     42  C   UNL A   1      43.151  24.588  26.616  1.00  0.00     0.060 A 
ATOM     43  C   UNL A   1      43.474  25.249  25.421  1.00  0.00     0.016 A 
ATOM     44  C   UNL A   1      43.650  25.052  27.834  1.00  0.00     0.016 A 
ATOM     45  C   UNL A   1      44.313  26.364  25.441  1.00  0.00     0.010 A 
ATOM     46  C   UNL A   1      44.510  26.156  27.849  1.00  0.00     0.010 A 
ATOM     47  C   UNL A   1      44.869  26.801  26.651  1.00  0.00    -0.014 A 
BRANCH  47  48
ATOM     48  C   UNL A   1      45.950  27.818  26.648  1.00  0.00     0.031 A 
ATOM     49  C   UNL A   1      45.575  29.271  26.739  1.00  0.00     0.074 A 
ATOM     50  C   UNL A   1      47.246  27.464  26.577  1.00  0.00     0.049 A 
ATOM     51  N   UNL A   1      46.337  30.334  26.693  1.00  0.00    -0.248 NA
ATOM     52  C   UNL A   1      44.142  29.565  26.898  1.00  0.00     0.031 C 
ATOM     53  C   UNL A   1      47.748  26.092  26.523  1.00  0.00     0.029 A 
ATOM     54  N   UNL A   1      48.378  28.240  26.523  1.00  0.00    -0.354 N 
ATOM     55  C   UNL A   1      45.479  31.420  26.808  1.00  0.00     0.074 A 
ATOM     56  C   UNL A   1      44.135  30.890  26.892  1.00  0.00     0.031 C 
ATOM     57  C   UNL A   1      49.089  26.124  26.429  1.00  0.00     0.029 A 
ATOM     58  C   UNL A   1      49.537  27.515  26.379  1.00  0.00     0.049 A 
ATOM     59  H   UNL A   1      48.361  29.223  26.580  1.00  0.00     0.167 HD
ATOM     60  C   UNL A   1      45.781  32.739  26.848  1.00  0.00     0.037 A 
ATOM     61  C   UNL A   1      50.807  27.930  26.203  1.00  0.00     0.037 A 
ATOM     62  C   UNL A   1      47.117  33.268  26.757  1.00  0.00     0.049 A 
ATOM     63  C   UNL A   1      51.111  29.407  26.167  1.00  0.00     0.074 A 
ATOM     64  C   UNL A   1      47.526  34.590  26.810  1.00  0.00     0.029 A 
ATOM     65  N   UNL A   1      48.261  32.503  26.581  1.00  0.00    -0.354 N 
ATOM     66  N   UNL A   1      50.296  30.425  26.310  1.00  0.00    -0.248 NA
ATOM     67  C   UNL A   1      52.513  29.791  25.946  1.00  0.00     0.031 C 
ATOM     68  C   UNL A   1      48.908  34.629  26.603  1.00  0.00     0.029 A 
ATOM     69  C   UNL A   1      49.371  33.328  26.491  1.00  0.00     0.049 A 
ATOM     70  H   UNL A   1      48.280  31.521  26.530  1.00  0.00     0.167 HD
ATOM     71  C   UNL A   1      51.090  31.564  26.229  1.00  0.00     0.074 A 
ATOM     72  C   UNL A   1      52.452  31.112  26.039  1.00  0.00     0.031 C 
ATOM     73  C   UNL A   1      50.725  32.869  26.308  1.00  0.00     0.037 A 
BRANCH  60  74
ATOM     74  C   UNL A   1      44.639  33.708  26.965  1.00  0.00     0.057 A 
ATOM     75  C   UNL A   1      44.186  34.177  28.206  1.00  0.00     0.134 A 
ATOM     76  C   UNL A   1      44.003  34.199  25.818  1.00  0.00     0.134 A 
ATOM     77  F   UNL A   1      44.740  33.734  29.344  1.00  0.00    -0.206 F 
ATOM     78  C   UNL A   1      43.125  35.079  28.302  1.00  0.00     0.040 A 
ATOM     79  C   UNL A   1      42.961  35.125  25.900  1.00  0.00     0.040 A 
ATOM     80  F   UNL A   1      44.389  33.797  24.598  1.00  0.00    -0.206 F 
ATOM     81  C   UNL A   1      42.515  35.562  27.145  1.00  0.00     0.006 A 
ENDBRANCH  60  74
BRANCH  61  82
ATOM     82  C   UNL A   1      51.898  26.936  26.028  1.00  0.00     0.057 A 
ATOM     83  C   UNL A   1      52.666  26.499  27.116  1.00  0.00     0.134 A 
ATOM     84  C   UNL A   1      52.225  26.425  24.765  1.00  0.00     0.134 A 
ATOM     85  F   UNL A   1      52.421  26.973  28.346  1.00  0.00    -0.206 F 
ATOM     86  C   UNL A   1      53.727  25.608  26.952  1.00  0.00     0.040 A 
ATOM     87  C   UNL A   1      53.264  25.511  24.591  1.00  0.00     0.040 A 
ATOM     88  F   UNL A   1      51.532  26.805  23.682  1.00  0.00    -0.206 F 
ATOM     89  C   UNL A   1      54.026  25.107  25.687  1.00  0.00     0.006 A 
ENDBRANCH  61  82
BRANCH  73  90
ATOM     90  C   UNL A   1      51.814  33.902  26.233  1.00  0.00     0.057 A 
ATOM     91  C   UNL A   1      52.564  34.277  27.355  1.00  0.00     0.134 A 
ATOM     92  C   UNL A   1      52.146  34.497  25.008  1.00  0.00     0.134 A 
ATOM     93  F   UNL A   1      52.294  33.754  28.560  1.00  0.00    -0.206 F 
ATOM     94  C   UNL A   1      53.586  35.226  27.267  1.00  0.00     0.040 A 
ATOM     95  C   UNL A   1      53.186  35.423  24.902  1.00  0.00     0.040 A 
ATOM     96  F   UNL A   1      51.477  34.176  23.891  1.00  0.00    -0.206 F 
ATOM     97  C   UNL A   1      53.904  35.795  26.035  1.00  0.00     0.006 A 
ENDBRANCH  73  90
ENDBRANCH  47  48
ENDBRANCH  40  42
ENDBRANCH  39  40
ENDBRANCH  38  39
ENDBRANCH  37  38
ENDBRANCH  36  37
ENDBRANCH  35  36
ENDBRANCH   1  35
TORSDOF 21
ENDMDL
