MODEL 1
REMARK VINA RESULT:     -11.3      0.000      0.000
REMARK SMILES Cc1ccc(NC(=O)N[C@@H]2C=C[C@@H](C(=O)OCCOCCOCCOC(=O)c3ccc(-c4c5nc(c(-c6c(F)cccc6F)c6ccc([nH]6)c(-c6c(F)cccc6F)c6nc(c(-c7c(F)cccc7F)c7ccc4[nH]7)C=C6)C=C5)cc3)C2)c(F)c1
REMARK SMILES IDX 20 1 19 2 18 3 17 4 16 5 14 6 15 7 13 8 10 9 11 10 82 11
REMARK SMILES IDX 12 12 9 13 6 14 7 15 8 17 5 19 1 20 2 21 3 22 85 23 4 24
REMARK SMILES IDX 83 25 84 26 21 27 22 28 23 29 24 30 25 31 26 32 27 33 28 34
REMARK SMILES IDX 29 35 81 36 30 37 80 38 31 39 32 40 33 41 74 42 34 43 79 44
REMARK SMILES IDX 73 45 75 46 35 47 78 48 72 49 71 50 36 52 62 53 45 54 61 55
REMARK SMILES IDX 46 56 49 57 60 58 76 59 47 60 48 61 59 63 77 64 50 65 37 66
REMARK SMILES IDX 38 67 43 68 39 69 40 70 42 71 44 72 41 73 63 74 64 75 69 76
REMARK SMILES IDX 65 77 66 78 68 79 70 80 67 81 51 82 52 83 57 84 53 85 54 86
REMARK SMILES IDX 56 87 58 88 55 89
REMARK H PARENT 6 16 9 18 75 51 49 62
REMARK Flexibility Score: inf
ROOT
ATOM      1  C   UNL A   1      37.799  21.762  25.564  1.00  0.00     0.188 C 
ENDROOT
BRANCH   1   2
ATOM      2  O   UNL A   1      36.834  22.600  26.191  1.00  0.00    -0.376 OA
BRANCH   2   3
ATOM      3  C   UNL A   1      35.452  22.406  25.915  1.00  0.00     0.202 C 
BRANCH   3   4
ATOM      4  C   UNL A   1      34.418  22.991  26.894  1.00  0.00     0.261 C 
BRANCH   4   5
ATOM      5  O   UNL A   1      33.259  23.588  26.267  1.00  0.00    -0.463 OA
BRANCH   5   6
ATOM      6  C   UNL A   1      32.063  22.974  26.483  1.00  0.00     0.312 C 
ATOM      7  O   UNL A   1      31.570  22.845  27.600  1.00  0.00    -0.252 OA
BRANCH   6   8
ATOM      8  C   UNL A   1      31.291  22.646  25.177  1.00  0.00     0.124 C 
ATOM      9  C   UNL A   1      32.259  23.817  23.318  1.00  0.00     0.107 C 
ATOM     10  C   UNL A   1      32.713  22.398  23.335  1.00  0.00    -0.006 C 
ATOM     11  C   UNL A   1      30.982  23.755  24.142  1.00  0.00     0.048 C 
ATOM     12  C   UNL A   1      32.175  21.741  24.365  1.00  0.00    -0.014 C 
BRANCH   9  13
ATOM     13  N   UNL A   1      32.213  24.311  21.969  1.00  0.00    -0.332 N 
ATOM     14  N   UNL A   1      33.255  26.416  22.349  1.00  0.00    -0.305 N 
ATOM     15  C   UNL A   1      32.786  25.459  21.492  1.00  0.00     0.319 C 
ATOM     16  H   UNL A   1      34.008  26.958  22.015  1.00  0.00     0.171 HD
ATOM     17  O   UNL A   1      33.039  25.536  20.289  1.00  0.00    -0.248 OA
ATOM     18  H   UNL A   1      31.715  23.766  21.318  1.00  0.00     0.165 HD
BRANCH  14  19
ATOM     19  C   UNL A   1      32.805  26.727  23.645  1.00  0.00     0.078 A 
ATOM     20  C   UNL A   1      32.059  28.976  27.222  1.00  0.00     0.044 C 
ATOM     21  C   UNL A   1      32.242  28.067  26.043  1.00  0.00    -0.048 A 
ATOM     22  C   UNL A   1      31.360  28.148  24.953  1.00  0.00     0.006 A 
ATOM     23  C   UNL A   1      33.334  27.194  25.970  1.00  0.00     0.045 A 
ATOM     24  C   UNL A   1      31.618  27.453  23.766  1.00  0.00     0.029 A 
ATOM     25  C   UNL A   1      33.606  26.524  24.779  1.00  0.00     0.147 A 
ATOM     26  F   UNL A   1      34.739  25.811  24.689  1.00  0.00    -0.205 F 
ENDBRANCH  14  19
ENDBRANCH   9  13
ENDBRANCH   6   8
ENDBRANCH   5   6
ENDBRANCH   4   5
ENDBRANCH   3   4
ENDBRANCH   2   3
ENDBRANCH   1   2
BRANCH   1  27
ATOM     27  C   UNL A   1      39.276  21.849  25.997  1.00  0.00     0.188 C 
BRANCH  27  28
ATOM     28  O   UNL A   1      39.957  20.623  25.931  1.00  0.00    -0.376 OA
BRANCH  28  29
ATOM     29  C   UNL A   1      41.182  20.496  26.619  1.00  0.00     0.202 C 
BRANCH  29  30
ATOM     30  C   UNL A   1      42.500  20.946  25.960  1.00  0.00     0.261 C 
BRANCH  30  31
ATOM     31  O   UNL A   1      43.178  22.085  26.521  1.00  0.00    -0.460 OA
BRANCH  31  32
ATOM     32  C   UNL A   1      43.284  23.202  25.757  1.00  0.00     0.338 C 
ATOM     33  O   UNL A   1      43.559  23.252  24.577  1.00  0.00    -0.246 OA
BRANCH  32  34
ATOM     34  C   UNL A   1      42.746  24.340  26.552  1.00  0.00     0.060 A 
ATOM     35  C   UNL A   1      43.405  25.580  26.507  1.00  0.00     0.016 A 
ATOM     36  C   UNL A   1      41.587  24.195  27.316  1.00  0.00     0.016 A 
ATOM     37  C   UNL A   1      42.924  26.665  27.249  1.00  0.00     0.010 A 
ATOM     38  C   UNL A   1      41.124  25.273  28.079  1.00  0.00     0.010 A 
ATOM     39  C   UNL A   1      41.807  26.504  28.077  1.00  0.00    -0.014 A 
BRANCH  39  40
ATOM     40  C   UNL A   1      41.477  27.524  29.107  1.00  0.00     0.031 A 
ATOM     41  C   UNL A   1      42.279  27.524  30.382  1.00  0.00     0.074 A 
ATOM     42  C   UNL A   1      40.492  28.425  28.941  1.00  0.00     0.049 A 
ATOM     43  N   UNL A   1      42.115  28.229  31.473  1.00  0.00    -0.248 NA
ATOM     44  C   UNL A   1      43.417  26.591  30.434  1.00  0.00     0.031 C 
ATOM     45  C   UNL A   1      39.672  28.577  27.742  1.00  0.00     0.029 A 
ATOM     46  N   UNL A   1      40.004  29.376  29.806  1.00  0.00    -0.354 N 
ATOM     47  C   UNL A   1      43.116  27.812  32.343  1.00  0.00     0.074 A 
ATOM     48  C   UNL A   1      43.866  26.779  31.664  1.00  0.00     0.031 C 
ATOM     49  C   UNL A   1      38.768  29.551  27.953  1.00  0.00     0.029 A 
ATOM     50  C   UNL A   1      38.920  30.063  29.316  1.00  0.00     0.049 A 
ATOM     51  H   UNL A   1      40.394  29.549  30.693  1.00  0.00     0.167 HD
ATOM     52  C   UNL A   1      43.389  28.251  33.595  1.00  0.00     0.037 A 
ATOM     53  C   UNL A   1      38.125  30.977  29.910  1.00  0.00     0.037 A 
ATOM     54  C   UNL A   1      42.647  29.280  34.274  1.00  0.00     0.049 A 
ATOM     55  C   UNL A   1      38.395  31.389  31.336  1.00  0.00     0.074 A 
ATOM     56  C   UNL A   1      42.864  29.807  35.534  1.00  0.00     0.029 A 
ATOM     57  N   UNL A   1      41.538  29.929  33.753  1.00  0.00    -0.354 N 
ATOM     58  N   UNL A   1      39.356  31.006  32.144  1.00  0.00    -0.248 NA
ATOM     59  C   UNL A   1      37.467  32.363  31.935  1.00  0.00     0.031 C 
ATOM     60  C   UNL A   1      41.850  30.733  35.801  1.00  0.00     0.029 A 
ATOM     61  C   UNL A   1      41.041  30.830  34.681  1.00  0.00     0.049 A 
ATOM     62  H   UNL A   1      41.161  29.773  32.857  1.00  0.00     0.167 HD
ATOM     63  C   UNL A   1      39.169  31.717  33.326  1.00  0.00     0.074 A 
ATOM     64  C   UNL A   1      38.011  32.561  33.128  1.00  0.00     0.031 C 
ATOM     65  C   UNL A   1      39.895  31.677  34.470  1.00  0.00     0.037 A 
BRANCH  52  66
ATOM     66  C   UNL A   1      44.520  27.591  34.327  1.00  0.00     0.057 A 
ATOM     67  C   UNL A   1      45.825  28.100  34.296  1.00  0.00     0.134 A 
ATOM     68  C   UNL A   1      44.293  26.446  35.101  1.00  0.00     0.134 A 
ATOM     69  F   UNL A   1      46.115  29.185  33.560  1.00  0.00    -0.206 F 
ATOM     70  C   UNL A   1      46.867  27.480  34.987  1.00  0.00     0.040 A 
ATOM     71  C   UNL A   1      45.320  25.834  35.821  1.00  0.00     0.040 A 
ATOM     72  F   UNL A   1      43.066  25.908  35.178  1.00  0.00    -0.206 F 
ATOM     73  C   UNL A   1      46.614  26.348  35.760  1.00  0.00     0.006 A 
ENDBRANCH  52  66
BRANCH  53  74
ATOM     74  C   UNL A   1      36.972  31.562  29.174  1.00  0.00     0.057 A 
ATOM     75  C   UNL A   1      37.003  32.883  28.709  1.00  0.00     0.134 A 
ATOM     76  C   UNL A   1      35.795  30.834  28.960  1.00  0.00     0.134 A 
ATOM     77  F   UNL A   1      38.090  33.643  28.910  1.00  0.00    -0.206 F 
ATOM     78  C   UNL A   1      35.901  33.465  28.079  1.00  0.00     0.040 A 
ATOM     79  C   UNL A   1      34.696  31.394  28.305  1.00  0.00     0.040 A 
ATOM     80  F   UNL A   1      35.695  29.566  29.387  1.00  0.00    -0.206 F 
ATOM     81  C   UNL A   1      34.744  32.716  27.871  1.00  0.00     0.006 A 
ENDBRANCH  53  74
BRANCH  65  82
ATOM     82  C   UNL A   1      39.497  32.606  35.583  1.00  0.00     0.057 A 
ATOM     83  C   UNL A   1      40.009  33.906  35.690  1.00  0.00     0.134 A 
ATOM     84  C   UNL A   1      38.548  32.209  36.536  1.00  0.00     0.134 A 
ATOM     85  F   UNL A   1      40.928  34.349  34.818  1.00  0.00    -0.206 F 
ATOM     86  C   UNL A   1      39.611  34.766  36.717  1.00  0.00     0.040 A 
ATOM     87  C   UNL A   1      38.121  33.070  37.547  1.00  0.00     0.040 A 
ATOM     88  F   UNL A   1      38.006  30.982  36.486  1.00  0.00    -0.206 F 
ATOM     89  C   UNL A   1      38.658  34.350  37.644  1.00  0.00     0.006 A 
ENDBRANCH  65  82
ENDBRANCH  39  40
ENDBRANCH  32  34
ENDBRANCH  31  32
ENDBRANCH  30  31
ENDBRANCH  29  30
ENDBRANCH  28  29
ENDBRANCH  27  28
ENDBRANCH   1  27
TORSDOF 19
ENDMDL
MODEL 2
REMARK VINA RESULT:     -11.0      4.319      9.298
REMARK SMILES Cc1ccc(NC(=O)N[C@@H]2C=C[C@@H](C(=O)OCCOCCOCCOC(=O)c3ccc(-c4c5nc(c(-c6c(F)cccc6F)c6ccc([nH]6)c(-c6c(F)cccc6F)c6nc(c(-c7c(F)cccc7F)c7ccc4[nH]7)C=C6)C=C5)cc3)C2)c(F)c1
REMARK SMILES IDX 20 1 19 2 18 3 17 4 16 5 14 6 15 7 13 8 10 9 11 10 82 11
REMARK SMILES IDX 12 12 9 13 6 14 7 15 8 17 5 19 1 20 2 21 3 22 85 23 4 24
REMARK SMILES IDX 83 25 84 26 21 27 22 28 23 29 24 30 25 31 26 32 27 33 28 34
REMARK SMILES IDX 29 35 81 36 30 37 80 38 31 39 32 40 33 41 74 42 34 43 79 44
REMARK SMILES IDX 73 45 75 46 35 47 78 48 72 49 71 50 36 52 62 53 45 54 61 55
REMARK SMILES IDX 46 56 49 57 60 58 76 59 47 60 48 61 59 63 77 64 50 65 37 66
REMARK SMILES IDX 38 67 43 68 39 69 40 70 42 71 44 72 41 73 63 74 64 75 69 76
REMARK SMILES IDX 65 77 66 78 68 79 70 80 67 81 51 82 52 83 57 84 53 85 54 86
REMARK SMILES IDX 56 87 58 88 55 89
REMARK H PARENT 6 16 9 18 75 51 49 62
REMARK Flexibility Score: inf
ROOT
ATOM      1  C   UNL A   1      32.468  30.774  26.423  1.00  0.00     0.188 C 
ENDROOT
BRANCH   1   2
ATOM      2  O   UNL A   1      32.332  29.662  25.545  1.00  0.00    -0.376 OA
BRANCH   2   3
ATOM      3  C   UNL A   1      33.447  28.809  25.316  1.00  0.00     0.202 C 
BRANCH   3   4
ATOM      4  C   UNL A   1      33.706  28.307  23.883  1.00  0.00     0.261 C 
BRANCH   4   5
ATOM      5  O   UNL A   1      33.455  26.897  23.680  1.00  0.00    -0.463 OA
BRANCH   5   6
ATOM      6  C   UNL A   1      32.879  26.543  22.499  1.00  0.00     0.312 C 
ATOM      7  O   UNL A   1      33.515  26.415  21.457  1.00  0.00    -0.252 OA
BRANCH   6   8
ATOM      8  C   UNL A   1      31.393  26.115  22.639  1.00  0.00     0.124 C 
ATOM      9  C   UNL A   1      31.052  24.947  24.709  1.00  0.00     0.107 C 
ATOM     10  C   UNL A   1      30.593  26.361  24.825  1.00  0.00    -0.006 C 
ATOM     11  C   UNL A   1      31.022  24.723  23.205  1.00  0.00     0.048 C 
ATOM     12  C   UNL A   1      30.777  27.014  23.675  1.00  0.00    -0.014 C 
BRANCH   9  13
ATOM     13  N   UNL A   1      30.277  24.098  25.572  1.00  0.00    -0.332 N 
ATOM     14  N   UNL A   1      32.071  23.182  26.837  1.00  0.00    -0.305 N 
ATOM     15  C   UNL A   1      30.732  23.376  26.642  1.00  0.00     0.319 C 
ATOM     16  H   UNL A   1      32.356  23.070  27.774  1.00  0.00     0.171 HD
ATOM     17  O   UNL A   1      29.931  23.059  27.523  1.00  0.00    -0.248 OA
ATOM     18  H   UNL A   1      29.316  24.028  25.371  1.00  0.00     0.165 HD
BRANCH  14  19
ATOM     19  C   UNL A   1      33.097  23.124  25.876  1.00  0.00     0.078 A 
ATOM     20  C   UNL A   1      36.908  22.281  24.093  1.00  0.00     0.044 C 
ATOM     21  C   UNL A   1      35.532  22.639  24.573  1.00  0.00    -0.048 A 
ATOM     22  C   UNL A   1      34.519  21.666  24.582  1.00  0.00     0.006 A 
ATOM     23  C   UNL A   1      35.261  23.908  25.098  1.00  0.00     0.045 A 
ATOM     24  C   UNL A   1      33.289  21.916  25.200  1.00  0.00     0.029 A 
ATOM     25  C   UNL A   1      34.046  24.147  25.738  1.00  0.00     0.147 A 
ATOM     26  F   UNL A   1      33.871  25.322  26.361  1.00  0.00    -0.205 F 
ENDBRANCH  14  19
ENDBRANCH   9  13
ENDBRANCH   6   8
ENDBRANCH   5   6
ENDBRANCH   4   5
ENDBRANCH   3   4
ENDBRANCH   2   3
ENDBRANCH   1   2
BRANCH   1  27
ATOM     27  C   UNL A   1      33.709  30.876  27.334  1.00  0.00     0.188 C 
BRANCH  27  28
ATOM     28  O   UNL A   1      34.272  32.161  27.378  1.00  0.00    -0.376 OA
BRANCH  28  29
ATOM     29  C   UNL A   1      33.666  33.133  28.202  1.00  0.00     0.202 C 
BRANCH  29  30
ATOM     30  C   UNL A   1      34.230  33.432  29.604  1.00  0.00     0.261 C 
BRANCH  30  31
ATOM     31  O   UNL A   1      34.463  32.319  30.487  1.00  0.00    -0.460 OA
BRANCH  31  32
ATOM     32  C   UNL A   1      35.468  32.427  31.394  1.00  0.00     0.338 C 
ATOM     33  O   UNL A   1      35.407  32.941  32.489  1.00  0.00    -0.246 OA
BRANCH  32  34
ATOM     34  C   UNL A   1      36.590  31.570  30.920  1.00  0.00     0.060 A 
ATOM     35  C   UNL A   1      37.414  30.935  31.864  1.00  0.00     0.016 A 
ATOM     36  C   UNL A   1      36.814  31.373  29.557  1.00  0.00     0.016 A 
ATOM     37  C   UNL A   1      38.480  30.129  31.447  1.00  0.00     0.010 A 
ATOM     38  C   UNL A   1      37.897  30.590  29.140  1.00  0.00     0.010 A 
ATOM     39  C   UNL A   1      38.756  29.990  30.081  1.00  0.00    -0.014 A 
BRANCH  39  40
ATOM     40  C   UNL A   1      40.052  29.420  29.627  1.00  0.00     0.031 A 
ATOM     41  C   UNL A   1      41.243  30.340  29.561  1.00  0.00     0.074 A 
ATOM     42  C   UNL A   1      40.187  28.130  29.269  1.00  0.00     0.049 A 
ATOM     43  N   UNL A   1      42.445  30.118  29.094  1.00  0.00    -0.248 NA
ATOM     44  C   UNL A   1      41.043  31.700  30.087  1.00  0.00     0.031 C 
ATOM     45  C   UNL A   1      39.138  27.116  29.332  1.00  0.00     0.029 A 
ATOM     46  N   UNL A   1      41.274  27.460  28.758  1.00  0.00    -0.354 N 
ATOM     47  C   UNL A   1      43.136  31.314  29.254  1.00  0.00     0.074 A 
ATOM     48  C   UNL A   1      42.214  32.262  29.838  1.00  0.00     0.031 C 
ATOM     49  C   UNL A   1      39.627  25.955  28.860  1.00  0.00     0.029 A 
ATOM     50  C   UNL A   1      41.009  26.154  28.423  1.00  0.00     0.049 A 
ATOM     51  H   UNL A   1      42.158  27.877  28.642  1.00  0.00     0.167 HD
ATOM     52  C   UNL A   1      44.424  31.598  28.944  1.00  0.00     0.037 A 
ATOM     53  C   UNL A   1      41.784  25.237  27.807  1.00  0.00     0.037 A 
ATOM     54  C   UNL A   1      45.345  30.657  28.364  1.00  0.00     0.049 A 
ATOM     55  C   UNL A   1      43.189  25.602  27.393  1.00  0.00     0.074 A 
ATOM     56  C   UNL A   1      46.676  30.847  28.037  1.00  0.00     0.029 A 
ATOM     57  N   UNL A   1      45.029  29.355  28.013  1.00  0.00    -0.354 N 
ATOM     58  N   UNL A   1      43.841  26.727  27.568  1.00  0.00    -0.248 NA
ATOM     59  C   UNL A   1      43.966  24.566  26.694  1.00  0.00     0.031 C 
ATOM     60  C   UNL A   1      47.149  29.678  27.433  1.00  0.00     0.029 A 
ATOM     61  C   UNL A   1      46.131  28.738  27.444  1.00  0.00     0.049 A 
ATOM     62  H   UNL A   1      44.151  28.930  28.149  1.00  0.00     0.167 HD
ATOM     63  C   UNL A   1      45.110  26.520  27.036  1.00  0.00     0.074 A 
ATOM     64  C   UNL A   1      45.141  25.161  26.541  1.00  0.00     0.031 C 
ATOM     65  C   UNL A   1      46.157  27.379  26.967  1.00  0.00     0.037 A 
BRANCH  52  66
ATOM     66  C   UNL A   1      44.903  32.998  29.195  1.00  0.00     0.057 A 
ATOM     67  C   UNL A   1      45.524  33.369  30.395  1.00  0.00     0.134 A 
ATOM     68  C   UNL A   1      44.767  33.982  28.208  1.00  0.00     0.134 A 
ATOM     69  F   UNL A   1      45.670  32.479  31.389  1.00  0.00    -0.206 F 
ATOM     70  C   UNL A   1      45.970  34.674  30.613  1.00  0.00     0.040 A 
ATOM     71  C   UNL A   1      45.236  35.282  28.401  1.00  0.00     0.040 A 
ATOM     72  F   UNL A   1      44.185  33.694  27.034  1.00  0.00    -0.206 F 
ATOM     73  C   UNL A   1      45.835  35.633  29.610  1.00  0.00     0.006 A 
ENDBRANCH  52  66
BRANCH  53  74
ATOM     74  C   UNL A   1      41.253  23.878  27.516  1.00  0.00     0.057 A 
ATOM     75  C   UNL A   1      40.283  23.676  26.525  1.00  0.00     0.134 A 
ATOM     76  C   UNL A   1      41.662  22.759  28.251  1.00  0.00     0.134 A 
ATOM     77  F   UNL A   1      39.826  24.713  25.807  1.00  0.00    -0.206 F 
ATOM     78  C   UNL A   1      39.726  22.418  26.290  1.00  0.00     0.040 A 
ATOM     79  C   UNL A   1      41.135  21.490  28.006  1.00  0.00     0.040 A 
ATOM     80  F   UNL A   1      42.581  22.883  29.219  1.00  0.00    -0.206 F 
ATOM     81  C   UNL A   1      40.157  21.318  27.030  1.00  0.00     0.006 A 
ENDBRANCH  53  74
BRANCH  65  82
ATOM     82  C   UNL A   1      47.445  26.866  26.385  1.00  0.00     0.057 A 
ATOM     83  C   UNL A   1      47.763  27.015  25.029  1.00  0.00     0.134 A 
ATOM     84  C   UNL A   1      48.403  26.255  27.207  1.00  0.00     0.134 A 
ATOM     85  F   UNL A   1      46.889  27.583  24.184  1.00  0.00    -0.206 F 
ATOM     86  C   UNL A   1      48.975  26.555  24.508  1.00  0.00     0.040 A 
ATOM     87  C   UNL A   1      49.629  25.819  26.704  1.00  0.00     0.040 A 
ATOM     88  F   UNL A   1      48.170  26.091  28.519  1.00  0.00    -0.206 F 
ATOM     89  C   UNL A   1      49.915  25.961  25.348  1.00  0.00     0.006 A 
ENDBRANCH  65  82
ENDBRANCH  39  40
ENDBRANCH  32  34
ENDBRANCH  31  32
ENDBRANCH  30  31
ENDBRANCH  29  30
ENDBRANCH  28  29
ENDBRANCH  27  28
ENDBRANCH   1  27
TORSDOF 19
ENDMDL
MODEL 3
REMARK VINA RESULT:     -10.9      4.785      9.716
REMARK SMILES Cc1ccc(NC(=O)N[C@@H]2C=C[C@@H](C(=O)OCCOCCOCCOC(=O)c3ccc(-c4c5nc(c(-c6c(F)cccc6F)c6ccc([nH]6)c(-c6c(F)cccc6F)c6nc(c(-c7c(F)cccc7F)c7ccc4[nH]7)C=C6)C=C5)cc3)C2)c(F)c1
REMARK SMILES IDX 20 1 19 2 18 3 17 4 16 5 14 6 15 7 13 8 10 9 11 10 82 11
REMARK SMILES IDX 12 12 9 13 6 14 7 15 8 17 5 19 1 20 2 21 3 22 85 23 4 24
REMARK SMILES IDX 83 25 84 26 21 27 22 28 23 29 24 30 25 31 26 32 27 33 28 34
REMARK SMILES IDX 29 35 81 36 30 37 80 38 31 39 32 40 33 41 74 42 34 43 79 44
REMARK SMILES IDX 73 45 75 46 35 47 78 48 72 49 71 50 36 52 62 53 45 54 61 55
REMARK SMILES IDX 46 56 49 57 60 58 76 59 47 60 48 61 59 63 77 64 50 65 37 66
REMARK SMILES IDX 38 67 43 68 39 69 40 70 42 71 44 72 41 73 63 74 64 75 69 76
REMARK SMILES IDX 65 77 66 78 68 79 70 80 67 81 51 82 52 83 57 84 53 85 54 86
REMARK SMILES IDX 56 87 58 88 55 89
REMARK H PARENT 6 16 9 18 75 51 49 62
REMARK Flexibility Score: inf
ROOT
ATOM      1  C   UNL A   1      34.203  33.931  28.027  1.00  0.00     0.188 C 
ENDROOT
BRANCH   1   2
ATOM      2  O   UNL A   1      33.242  32.949  27.654  1.00  0.00    -0.376 OA
BRANCH   2   3
ATOM      3  C   UNL A   1      33.628  31.582  27.584  1.00  0.00     0.202 C 
BRANCH   3   4
ATOM      4  C   UNL A   1      32.608  30.556  27.057  1.00  0.00     0.261 C 
BRANCH   4   5
ATOM      5  O   UNL A   1      32.718  30.262  25.645  1.00  0.00    -0.463 OA
BRANCH   5   6
ATOM      6  C   UNL A   1      33.160  29.019  25.312  1.00  0.00     0.312 C 
ATOM      7  O   UNL A   1      33.635  28.750  24.213  1.00  0.00    -0.252 OA
BRANCH   6   8
ATOM      8  C   UNL A   1      33.200  28.035  26.512  1.00  0.00     0.124 C 
ATOM      9  C   UNL A   1      31.784  26.142  26.087  1.00  0.00     0.107 C 
ATOM     10  C   UNL A   1      33.211  25.794  25.833  1.00  0.00    -0.006 C 
ATOM     11  C   UNL A   1      31.908  27.344  27.011  1.00  0.00     0.048 C 
ATOM     12  C   UNL A   1      34.003  26.842  26.070  1.00  0.00    -0.014 C 
BRANCH   9  13
ATOM     13  N   UNL A   1      31.057  24.981  26.523  1.00  0.00    -0.332 N 
ATOM     14  N   UNL A   1      30.473  24.131  24.379  1.00  0.00    -0.305 N 
ATOM     15  C   UNL A   1      30.557  23.980  25.735  1.00  0.00     0.319 C 
ATOM     16  H   UNL A   1      30.540  23.302  23.850  1.00  0.00     0.171 HD
ATOM     17  O   UNL A   1      30.355  22.875  26.243  1.00  0.00    -0.248 OA
ATOM     18  H   UNL A   1      30.902  24.898  27.491  1.00  0.00     0.165 HD
BRANCH  14  19
ATOM     19  C   UNL A   1      30.303  25.316  23.639  1.00  0.00     0.078 A 
ATOM     20  C   UNL A   1      30.757  29.402  22.413  1.00  0.00     0.044 C 
ATOM     21  C   UNL A   1      30.497  27.956  22.715  1.00  0.00    -0.048 A 
ATOM     22  C   UNL A   1      31.403  26.977  22.278  1.00  0.00     0.006 A 
ATOM     23  C   UNL A   1      29.408  27.570  23.505  1.00  0.00     0.045 A 
ATOM     24  C   UNL A   1      31.290  25.650  22.708  1.00  0.00     0.029 A 
ATOM     25  C   UNL A   1      29.311  26.255  23.956  1.00  0.00     0.147 A 
ATOM     26  F   UNL A   1      28.342  25.947  24.831  1.00  0.00    -0.205 F 
ENDBRANCH  14  19
ENDBRANCH   9  13
ENDBRANCH   6   8
ENDBRANCH   5   6
ENDBRANCH   4   5
ENDBRANCH   3   4
ENDBRANCH   2   3
ENDBRANCH   1   2
BRANCH   1  27
ATOM     27  C   UNL A   1      33.839  34.982  29.095  1.00  0.00     0.188 C 
BRANCH  27  28
ATOM     28  O   UNL A   1      33.624  34.438  30.372  1.00  0.00    -0.376 OA
BRANCH  28  29
ATOM     29  C   UNL A   1      34.740  33.985  31.107  1.00  0.00     0.202 C 
BRANCH  29  30
ATOM     30  C   UNL A   1      34.551  33.069  32.331  1.00  0.00     0.261 C 
BRANCH  30  31
ATOM     31  O   UNL A   1      35.355  31.878  32.411  1.00  0.00    -0.460 OA
BRANCH  31  32
ATOM     32  C   UNL A   1      36.539  31.952  33.070  1.00  0.00     0.338 C 
ATOM     33  O   UNL A   1      36.708  32.269  34.228  1.00  0.00    -0.246 OA
BRANCH  32  34
ATOM     34  C   UNL A   1      37.574  31.324  32.204  1.00  0.00     0.060 A 
ATOM     35  C   UNL A   1      38.685  30.705  32.800  1.00  0.00     0.016 A 
ATOM     36  C   UNL A   1      37.439  31.321  30.815  1.00  0.00     0.016 A 
ATOM     37  C   UNL A   1      39.676  30.112  32.009  1.00  0.00     0.010 A 
ATOM     38  C   UNL A   1      38.444  30.752  30.024  1.00  0.00     0.010 A 
ATOM     39  C   UNL A   1      39.584  30.174  30.614  1.00  0.00    -0.014 A 
BRANCH  39  40
ATOM     40  C   UNL A   1      40.761  29.848  29.764  1.00  0.00     0.031 A 
ATOM     41  C   UNL A   1      40.848  28.462  29.182  1.00  0.00     0.074 A 
ATOM     42  C   UNL A   1      41.739  30.738  29.516  1.00  0.00     0.049 A 
ATOM     43  N   UNL A   1      41.819  27.898  28.509  1.00  0.00    -0.248 NA
ATOM     44  C   UNL A   1      39.680  27.593  29.397  1.00  0.00     0.031 C 
ATOM     45  C   UNL A   1      41.762  32.126  29.969  1.00  0.00     0.029 A 
ATOM     46  N   UNL A   1      42.921  30.588  28.829  1.00  0.00    -0.354 N 
ATOM     47  C   UNL A   1      41.386  26.606  28.238  1.00  0.00     0.074 A 
ATOM     48  C   UNL A   1      40.078  26.461  28.838  1.00  0.00     0.031 C 
ATOM     49  C   UNL A   1      42.910  32.698  29.563  1.00  0.00     0.029 A 
ATOM     50  C   UNL A   1      43.721  31.705  28.858  1.00  0.00     0.049 A 
ATOM     51  H   UNL A   1      43.170  29.759  28.360  1.00  0.00     0.167 HD
ATOM     52  C   UNL A   1      42.018  25.625  27.550  1.00  0.00     0.037 A 
ATOM     53  C   UNL A   1      44.975  31.891  28.395  1.00  0.00     0.037 A 
ATOM     54  C   UNL A   1      43.319  25.764  26.951  1.00  0.00     0.049 A 
ATOM     55  C   UNL A   1      45.695  30.758  27.707  1.00  0.00     0.074 A 
ATOM     56  C   UNL A   1      44.031  24.833  26.215  1.00  0.00     0.029 A 
ATOM     57  N   UNL A   1      44.108  26.901  27.029  1.00  0.00    -0.354 N 
ATOM     58  N   UNL A   1      45.270  29.546  27.436  1.00  0.00    -0.248 NA
ATOM     59  C   UNL A   1      47.073  31.019  27.260  1.00  0.00     0.031 C 
ATOM     60  C   UNL A   1      45.275  25.386  25.898  1.00  0.00     0.029 A 
ATOM     61  C   UNL A   1      45.313  26.684  26.381  1.00  0.00     0.049 A 
ATOM     62  H   UNL A   1      43.850  27.738  27.478  1.00  0.00     0.167 HD
ATOM     63  C   UNL A   1      46.311  28.918  26.757  1.00  0.00     0.074 A 
ATOM     64  C   UNL A   1      47.383  29.884  26.649  1.00  0.00     0.031 C 
ATOM     65  C   UNL A   1      46.370  27.657  26.265  1.00  0.00     0.037 A 
BRANCH  52  66
ATOM     66  C   UNL A   1      41.324  24.299  27.440  1.00  0.00     0.057 A 
ATOM     67  C   UNL A   1      40.261  24.087  26.552  1.00  0.00     0.134 A 
ATOM     68  C   UNL A   1      41.747  23.210  28.212  1.00  0.00     0.134 A 
ATOM     69  F   UNL A   1      39.795  25.093  25.795  1.00  0.00    -0.206 F 
ATOM     70  C   UNL A   1      39.628  22.847  26.456  1.00  0.00     0.040 A 
ATOM     71  C   UNL A   1      41.143  21.957  28.103  1.00  0.00     0.040 A 
ATOM     72  F   UNL A   1      42.762  23.343  29.080  1.00  0.00    -0.206 F 
ATOM     73  C   UNL A   1      40.075  21.774  27.226  1.00  0.00     0.006 A 
ENDBRANCH  52  66
BRANCH  53  74
ATOM     74  C   UNL A   1      45.657  33.201  28.581  1.00  0.00     0.057 A 
ATOM     75  C   UNL A   1      45.567  34.209  27.613  1.00  0.00     0.134 A 
ATOM     76  C   UNL A   1      46.453  33.459  29.704  1.00  0.00     0.134 A 
ATOM     77  F   UNL A   1      44.845  34.012  26.499  1.00  0.00    -0.206 F 
ATOM     78  C   UNL A   1      46.258  35.414  27.743  1.00  0.00     0.040 A 
ATOM     79  C   UNL A   1      47.126  34.671  29.861  1.00  0.00     0.040 A 
ATOM     80  F   UNL A   1      46.589  32.533  30.665  1.00  0.00    -0.206 F 
ATOM     81  C   UNL A   1      47.037  35.650  28.875  1.00  0.00     0.006 A 
ENDBRANCH  53  74
BRANCH  65  82
ATOM     82  C   UNL A   1      47.610  27.256  25.516  1.00  0.00     0.057 A 
ATOM     83  C   UNL A   1      47.747  27.457  24.137  1.00  0.00     0.134 A 
ATOM     84  C   UNL A   1      48.705  26.706  26.198  1.00  0.00     0.134 A 
ATOM     85  F   UNL A   1      46.736  27.971  23.420  1.00  0.00    -0.206 F 
ATOM     86  C   UNL A   1      48.916  27.101  23.459  1.00  0.00     0.040 A 
ATOM     87  C   UNL A   1      49.888  26.375  25.537  1.00  0.00     0.040 A 
ATOM     88  F   UNL A   1      48.648  26.498  27.522  1.00  0.00    -0.206 F 
ATOM     89  C   UNL A   1      49.994  26.566  24.161  1.00  0.00     0.006 A 
ENDBRANCH  65  82
ENDBRANCH  39  40
ENDBRANCH  32  34
ENDBRANCH  31  32
ENDBRANCH  30  31
ENDBRANCH  29  30
ENDBRANCH  28  29
ENDBRANCH  27  28
ENDBRANCH   1  27
TORSDOF 19
ENDMDL
