MODEL 1
REMARK VINA RESULT:     -10.9      0.000      0.000
REMARK SMILES O=C(Cc1cncnc1N1CCC2(CC1)OCCC[C@@H]2O)OCCOCCOCCOC(=O)c1ccc(-c2c3nc(c(-c4c(F)cccc4F)c4ccc([nH]4)c(-c4c(F)cccc4F)c4nc(c(-c5c(F)cccc5F)c5ccc2[nH]5)C=C4)C=C3)cc1
REMARK SMILES IDX 26 1 25 2 24 3 23 4 22 5 2 6 1 7 3 8 4 9 5 10 9 11 6 12 8 13
REMARK SMILES IDX 7 14 10 15 11 16 15 17 12 18 14 19 13 20 16 21 20 22 17 23
REMARK SMILES IDX 19 24 18 25 21 26 27 28 28 29 29 30 30 31 31 32 32 33 33 34
REMARK SMILES IDX 34 35 35 36 87 37 36 38 86 39 37 40 38 41 39 42 80 43 40 44
REMARK SMILES IDX 85 45 79 46 81 47 41 48 84 49 78 50 77 51 42 53 68 54 51 55
REMARK SMILES IDX 67 56 52 57 55 58 66 59 82 60 53 61 54 62 65 64 83 65 56 66
REMARK SMILES IDX 43 67 44 68 49 69 45 70 46 71 48 72 50 73 47 74 69 75 70 76
REMARK SMILES IDX 75 77 71 78 72 79 74 80 76 81 73 82 57 83 58 84 63 85 59 86
REMARK SMILES IDX 60 87 62 88 64 89 61 90
REMARK H PARENT 21 27 81 52 55 63
REMARK Flexibility Score: inf
ROOT
ATOM      1  C   UNL A   1      40.995  20.627  27.128  1.00  0.00     0.188 C 
ENDROOT
BRANCH   1   2
ATOM      2  O   UNL A   1      39.639  20.895  26.788  1.00  0.00    -0.376 OA
BRANCH   2   3
ATOM      3  C   UNL A   1      39.421  22.041  25.988  1.00  0.00     0.202 C 
BRANCH   3   4
ATOM      4  C   UNL A   1      38.131  22.019  25.184  1.00  0.00     0.261 C 
BRANCH   4   5
ATOM      5  O   UNL A   1      36.985  21.800  25.997  1.00  0.00    -0.463 OA
BRANCH   5   6
ATOM      6  C   UNL A   1      35.961  22.674  26.066  1.00  0.00     0.310 C 
ATOM      7  O   UNL A   1      36.224  23.875  25.957  1.00  0.00    -0.252 OA
BRANCH   6   8
ATOM      8  C   UNL A   1      34.524  22.232  26.301  1.00  0.00     0.163 C 
BRANCH   8   9
ATOM      9  C   UNL A   1      33.597  22.084  25.128  1.00  0.00     0.024 A 
ATOM     10  C   UNL A   1      33.347  20.775  24.724  1.00  0.00     0.121 A 
ATOM     11  C   UNL A   1      33.004  23.095  24.349  1.00  0.00     0.135 A 
ATOM     12  N   UNL A   1      32.632  20.436  23.645  1.00  0.00    -0.244 NA
ATOM     13  N   UNL A   1      32.288  22.766  23.255  1.00  0.00    -0.219 NA
ATOM     14  C   UNL A   1      32.150  21.466  22.951  1.00  0.00     0.224 A 
BRANCH  11  15
ATOM     15  N   UNL A   1      33.021  24.466  24.686  1.00  0.00    -0.356 N 
ATOM     16  C   UNL A   1      31.673  25.031  24.903  1.00  0.00     0.121 C 
ATOM     17  C   UNL A   1      33.730  25.330  23.738  1.00  0.00     0.121 C 
ATOM     18  C   UNL A   1      31.734  26.362  25.668  1.00  0.00     0.060 C 
ATOM     19  C   UNL A   1      33.946  26.702  24.393  1.00  0.00     0.060 C 
ATOM     20  C   UNL A   1      32.805  27.391  25.210  1.00  0.00     0.097 C 
ATOM     21  O   UNL A   1      32.205  28.392  24.343  1.00  0.00    -0.372 OA
ATOM     22  C   UNL A   1      33.419  28.171  26.454  1.00  0.00     0.146 C 
ATOM     23  C   UNL A   1      31.329  29.354  24.959  1.00  0.00     0.161 C 
ATOM     24  C   UNL A   1      32.382  28.998  27.194  1.00  0.00     0.037 C 
ATOM     25  C   UNL A   1      31.852  30.034  26.224  1.00  0.00     0.031 C 
BRANCH  22  26
ATOM     26  O   UNL A   1      34.451  29.092  26.074  1.00  0.00    -0.390 OA
ATOM     27  H   UNL A   1      34.458  29.842  26.691  1.00  0.00     0.211 HD
ENDBRANCH  22  26
ENDBRANCH  11  15
ENDBRANCH   8   9
ENDBRANCH   6   8
ENDBRANCH   5   6
ENDBRANCH   4   5
ENDBRANCH   3   4
ENDBRANCH   2   3
ENDBRANCH   1   2
BRANCH   1  28
ATOM     28  C   UNL A   1      41.668  19.633  26.172  1.00  0.00     0.188 C 
BRANCH  28  29
ATOM     29  O   UNL A   1      42.727  20.107  25.333  1.00  0.00    -0.376 OA
BRANCH  29  30
ATOM     30  C   UNL A   1      43.556  21.151  25.833  1.00  0.00     0.202 C 
BRANCH  30  31
ATOM     31  C   UNL A   1      43.604  22.402  24.960  1.00  0.00     0.261 C 
BRANCH  31  32
ATOM     32  O   UNL A   1      42.851  23.418  25.616  1.00  0.00    -0.460 OA
BRANCH  32  33
ATOM     33  C   UNL A   1      43.341  24.642  25.322  1.00  0.00     0.338 C 
ATOM     34  O   UNL A   1      44.247  24.905  24.560  1.00  0.00    -0.246 OA
BRANCH  33  35
ATOM     35  C   UNL A   1      42.417  25.647  25.872  1.00  0.00     0.060 A 
ATOM     36  C   UNL A   1      42.913  26.951  25.986  1.00  0.00     0.016 A 
ATOM     37  C   UNL A   1      41.134  25.312  26.319  1.00  0.00     0.016 A 
ATOM     38  C   UNL A   1      42.200  27.887  26.704  1.00  0.00     0.010 A 
ATOM     39  C   UNL A   1      40.425  26.244  27.063  1.00  0.00     0.010 A 
ATOM     40  C   UNL A   1      41.021  27.482  27.336  1.00  0.00    -0.014 A 
BRANCH  40  41
ATOM     41  C   UNL A   1      40.656  28.202  28.562  1.00  0.00     0.031 A 
ATOM     42  C   UNL A   1      41.517  27.974  29.774  1.00  0.00     0.074 A 
ATOM     43  C   UNL A   1      39.662  29.096  28.532  1.00  0.00     0.049 A 
ATOM     44  N   UNL A   1      41.428  28.495  30.967  1.00  0.00    -0.248 NA
ATOM     45  C   UNL A   1      42.640  27.027  29.622  1.00  0.00     0.031 C 
ATOM     46  C   UNL A   1      38.853  29.417  27.358  1.00  0.00     0.029 A 
ATOM     47  N   UNL A   1      39.180  29.905  29.517  1.00  0.00    -0.354 N 
ATOM     48  C   UNL A   1      42.463  27.928  31.703  1.00  0.00     0.074 A 
ATOM     49  C   UNL A   1      43.154  27.003  30.839  1.00  0.00     0.031 C 
ATOM     50  C   UNL A   1      37.961  30.362  27.696  1.00  0.00     0.029 A 
ATOM     51  C   UNL A   1      38.124  30.676  29.112  1.00  0.00     0.049 A 
ATOM     52  H   UNL A   1      39.554  29.932  30.428  1.00  0.00     0.167 HD
ATOM     53  C   UNL A   1      42.801  28.168  32.989  1.00  0.00     0.037 A 
ATOM     54  C   UNL A   1      37.372  31.525  29.832  1.00  0.00     0.037 A 
ATOM     55  C   UNL A   1      42.084  29.100  33.816  1.00  0.00     0.049 A 
ATOM     56  C   UNL A   1      37.726  31.723  31.280  1.00  0.00     0.074 A 
ATOM     57  C   UNL A   1      42.314  29.444  35.134  1.00  0.00     0.029 A 
ATOM     58  N   UNL A   1      40.984  29.834  33.390  1.00  0.00    -0.354 N 
ATOM     59  N   UNL A   1      38.702  31.187  31.976  1.00  0.00    -0.248 NA
ATOM     60  C   UNL A   1      36.883  32.652  32.039  1.00  0.00     0.031 C 
ATOM     61  C   UNL A   1      41.312  30.340  35.523  1.00  0.00     0.029 A 
ATOM     62  C   UNL A   1      40.503  30.610  34.428  1.00  0.00     0.049 A 
ATOM     63  H   UNL A   1      40.602  29.805  32.483  1.00  0.00     0.167 HD
ATOM     64  C   UNL A   1      38.615  31.739  33.247  1.00  0.00     0.074 A 
ATOM     65  C   UNL A   1      37.495  32.662  33.213  1.00  0.00     0.031 C 
ATOM     66  C   UNL A   1      39.384  31.516  34.343  1.00  0.00     0.037 A 
BRANCH  53  67
ATOM     67  C   UNL A   1      43.936  27.376  33.574  1.00  0.00     0.057 A 
ATOM     68  C   UNL A   1      43.738  26.175  34.270  1.00  0.00     0.134 A 
ATOM     69  C   UNL A   1      45.255  27.829  33.442  1.00  0.00     0.134 A 
ATOM     70  F   UNL A   1      42.499  25.694  34.459  1.00  0.00    -0.206 F 
ATOM     71  C   UNL A   1      44.804  25.470  34.833  1.00  0.00     0.040 A 
ATOM     72  C   UNL A   1      46.333  27.117  33.974  1.00  0.00     0.040 A 
ATOM     73  F   UNL A   1      45.520  28.974  32.796  1.00  0.00    -0.206 F 
ATOM     74  C   UNL A   1      46.108  25.938  34.680  1.00  0.00     0.006 A 
ENDBRANCH  53  67
BRANCH  54  75
ATOM     75  C   UNL A   1      36.237  32.233  29.192  1.00  0.00     0.057 A 
ATOM     76  C   UNL A   1      36.299  33.602  28.917  1.00  0.00     0.134 A 
ATOM     77  C   UNL A   1      35.068  31.553  28.825  1.00  0.00     0.134 A 
ATOM     78  F   UNL A   1      37.389  34.310  29.252  1.00  0.00    -0.206 F 
ATOM     79  C   UNL A   1      35.235  34.276  28.317  1.00  0.00     0.040 A 
ATOM     80  C   UNL A   1      34.007  32.207  28.199  1.00  0.00     0.040 A 
ATOM     81  F   UNL A   1      34.951  30.235  29.049  1.00  0.00    -0.206 F 
ATOM     82  C   UNL A   1      34.086  33.576  27.952  1.00  0.00     0.006 A 
ENDBRANCH  54  75
BRANCH  66  83
ATOM     83  C   UNL A   1      39.060  32.324  35.565  1.00  0.00     0.057 A 
ATOM     84  C   UNL A   1      38.288  31.810  36.613  1.00  0.00     0.134 A 
ATOM     85  C   UNL A   1      39.548  33.630  35.696  1.00  0.00     0.134 A 
ATOM     86  F   UNL A   1      37.783  30.568  36.543  1.00  0.00    -0.206 F 
ATOM     87  C   UNL A   1      37.976  32.583  37.731  1.00  0.00     0.040 A 
ATOM     88  C   UNL A   1      39.274  34.399  36.824  1.00  0.00     0.040 A 
ATOM     89  F   UNL A   1      40.308  34.175  34.733  1.00  0.00    -0.206 F 
ATOM     90  C   UNL A   1      38.475  33.880  37.840  1.00  0.00     0.006 A 
ENDBRANCH  66  83
ENDBRANCH  40  41
ENDBRANCH  33  35
ENDBRANCH  32  33
ENDBRANCH  31  32
ENDBRANCH  30  31
ENDBRANCH  29  30
ENDBRANCH  28  29
ENDBRANCH   1  28
TORSDOF 20
ENDMDL
MODEL 2
REMARK VINA RESULT:     -10.9      3.927      9.868
REMARK SMILES O=C(Cc1cncnc1N1CCC2(CC1)OCCC[C@@H]2O)OCCOCCOCCOC(=O)c1ccc(-c2c3nc(c(-c4c(F)cccc4F)c4ccc([nH]4)c(-c4c(F)cccc4F)c4nc(c(-c5c(F)cccc5F)c5ccc2[nH]5)C=C4)C=C3)cc1
REMARK SMILES IDX 26 1 25 2 24 3 23 4 22 5 2 6 1 7 3 8 4 9 5 10 9 11 6 12 8 13
REMARK SMILES IDX 7 14 10 15 11 16 15 17 12 18 14 19 13 20 16 21 20 22 17 23
REMARK SMILES IDX 19 24 18 25 21 26 27 28 28 29 29 30 30 31 31 32 32 33 33 34
REMARK SMILES IDX 34 35 35 36 87 37 36 38 86 39 37 40 38 41 39 42 80 43 40 44
REMARK SMILES IDX 85 45 79 46 81 47 41 48 84 49 78 50 77 51 42 53 68 54 51 55
REMARK SMILES IDX 67 56 52 57 55 58 66 59 82 60 53 61 54 62 65 64 83 65 56 66
REMARK SMILES IDX 43 67 44 68 49 69 45 70 46 71 48 72 50 73 47 74 69 75 70 76
REMARK SMILES IDX 75 77 71 78 72 79 74 80 76 81 73 82 57 83 58 84 63 85 59 86
REMARK SMILES IDX 60 87 62 88 64 89 61 90
REMARK H PARENT 21 27 81 52 55 63
REMARK Flexibility Score: inf
ROOT
ATOM      1  C   UNL A   1      33.646  34.026  28.666  1.00  0.00     0.188 C 
ENDROOT
BRANCH   1   2
ATOM      2  O   UNL A   1      33.716  32.826  27.904  1.00  0.00    -0.376 OA
BRANCH   2   3
ATOM      3  C   UNL A   1      34.904  32.073  28.053  1.00  0.00     0.202 C 
BRANCH   3   4
ATOM      4  C   UNL A   1      34.841  30.666  27.481  1.00  0.00     0.261 C 
BRANCH   4   5
ATOM      5  O   UNL A   1      33.507  30.194  27.340  1.00  0.00    -0.463 OA
BRANCH   5   6
ATOM      6  C   UNL A   1      33.208  29.009  26.769  1.00  0.00     0.310 C 
ATOM      7  O   UNL A   1      34.144  28.255  26.490  1.00  0.00    -0.252 OA
BRANCH   6   8
ATOM      8  C   UNL A   1      31.781  28.600  26.437  1.00  0.00     0.163 C 
BRANCH   8   9
ATOM      9  C   UNL A   1      31.406  28.329  25.007  1.00  0.00     0.024 A 
ATOM     10  C   UNL A   1      30.811  29.392  24.332  1.00  0.00     0.121 A 
ATOM     11  C   UNL A   1      31.517  27.125  24.287  1.00  0.00     0.135 A 
ATOM     12  N   UNL A   1      30.317  29.323  23.091  1.00  0.00    -0.244 NA
ATOM     13  N   UNL A   1      31.014  27.040  23.039  1.00  0.00    -0.219 NA
ATOM     14  C   UNL A   1      30.432  28.128  22.512  1.00  0.00     0.224 A 
BRANCH  11  15
ATOM     15  N   UNL A   1      32.217  25.989  24.748  1.00  0.00    -0.356 N 
ATOM     16  C   UNL A   1      32.846  25.209  23.661  1.00  0.00     0.121 C 
ATOM     17  C   UNL A   1      31.434  25.067  25.575  1.00  0.00     0.121 C 
ATOM     18  C   UNL A   1      33.929  24.261  24.198  1.00  0.00     0.060 C 
ATOM     19  C   UNL A   1      32.395  24.085  26.260  1.00  0.00     0.060 C 
ATOM     20  C   UNL A   1      33.580  23.439  25.471  1.00  0.00     0.097 C 
ATOM     21  O   UNL A   1      33.168  22.094  25.106  1.00  0.00    -0.372 OA
ATOM     22  C   UNL A   1      34.848  23.288  26.419  1.00  0.00     0.146 C 
ATOM     23  C   UNL A   1      34.190  21.201  24.628  1.00  0.00     0.161 C 
ATOM     24  C   UNL A   1      35.981  22.518  25.763  1.00  0.00     0.037 C 
ATOM     25  C   UNL A   1      35.468  21.125  25.463  1.00  0.00     0.031 C 
BRANCH  22  26
ATOM     26  O   UNL A   1      34.551  22.580  27.632  1.00  0.00    -0.390 OA
ATOM     27  H   UNL A   1      34.805  23.125  28.395  1.00  0.00     0.211 HD
ENDBRANCH  22  26
ENDBRANCH  11  15
ENDBRANCH   8   9
ENDBRANCH   6   8
ENDBRANCH   5   6
ENDBRANCH   4   5
ENDBRANCH   3   4
ENDBRANCH   2   3
ENDBRANCH   1   2
BRANCH   1  28
ATOM     28  C   UNL A   1      34.574  34.015  29.889  1.00  0.00     0.188 C 
BRANCH  28  29
ATOM     29  O   UNL A   1      34.024  33.638  31.156  1.00  0.00    -0.376 OA
BRANCH  29  30
ATOM     30  C   UNL A   1      34.312  34.464  32.279  1.00  0.00     0.202 C 
BRANCH  30  31
ATOM     31  C   UNL A   1      35.009  33.750  33.435  1.00  0.00     0.261 C 
BRANCH  31  32
ATOM     32  O   UNL A   1      35.358  32.442  32.990  1.00  0.00    -0.460 OA
BRANCH  32  33
ATOM     33  C   UNL A   1      36.611  32.123  33.380  1.00  0.00     0.338 C 
ATOM     34  O   UNL A   1      37.146  32.405  34.430  1.00  0.00    -0.246 OA
BRANCH  33  35
ATOM     35  C   UNL A   1      37.145  31.135  32.430  1.00  0.00     0.060 A 
ATOM     36  C   UNL A   1      37.927  30.108  32.974  1.00  0.00     0.016 A 
ATOM     37  C   UNL A   1      36.942  31.244  31.049  1.00  0.00     0.016 A 
ATOM     38  C   UNL A   1      38.650  29.289  32.133  1.00  0.00     0.010 A 
ATOM     39  C   UNL A   1      37.688  30.439  30.202  1.00  0.00     0.010 A 
ATOM     40  C   UNL A   1      38.614  29.548  30.761  1.00  0.00    -0.014 A 
BRANCH  40  41
ATOM     41  C   UNL A   1      39.808  29.176  29.993  1.00  0.00     0.031 A 
ATOM     42  C   UNL A   1      40.904  30.202  29.888  1.00  0.00     0.074 A 
ATOM     43  C   UNL A   1      39.928  27.932  29.517  1.00  0.00     0.049 A 
ATOM     44  N   UNL A   1      42.061  30.124  29.290  1.00  0.00    -0.248 NA
ATOM     45  C   UNL A   1      40.663  31.500  30.550  1.00  0.00     0.031 C 
ATOM     46  C   UNL A   1      38.931  26.873  29.668  1.00  0.00     0.029 A 
ATOM     47  N   UNL A   1      40.948  27.352  28.825  1.00  0.00    -0.354 N 
ATOM     48  C   UNL A   1      42.670  31.358  29.491  1.00  0.00     0.074 A 
ATOM     49  C   UNL A   1      41.752  32.181  30.238  1.00  0.00     0.031 C 
ATOM     50  C   UNL A   1      39.393  25.761  29.074  1.00  0.00     0.029 A 
ATOM     51  C   UNL A   1      40.694  26.051  28.480  1.00  0.00     0.049 A 
ATOM     52  H   UNL A   1      41.784  27.820  28.596  1.00  0.00     0.167 HD
ATOM     53  C   UNL A   1      43.895  31.759  29.083  1.00  0.00     0.037 A 
ATOM     54  C   UNL A   1      41.440  25.210  27.746  1.00  0.00     0.037 A 
ATOM     55  C   UNL A   1      44.780  30.906  28.339  1.00  0.00     0.049 A 
ATOM     56  C   UNL A   1      42.770  25.703  27.245  1.00  0.00     0.074 A 
ATOM     57  C   UNL A   1      46.047  31.178  27.861  1.00  0.00     0.029 A 
ATOM     58  N   UNL A   1      44.474  29.605  27.961  1.00  0.00    -0.354 N 
ATOM     59  N   UNL A   1      43.345  26.870  27.432  1.00  0.00    -0.248 NA
ATOM     60  C   UNL A   1      43.557  24.763  26.443  1.00  0.00     0.031 C 
ATOM     61  C   UNL A   1      46.482  30.061  27.140  1.00  0.00     0.029 A 
ATOM     62  C   UNL A   1      45.517  29.068  27.230  1.00  0.00     0.049 A 
ATOM     63  H   UNL A   1      43.638  29.134  28.181  1.00  0.00     0.167 HD
ATOM     64  C   UNL A   1      44.580  26.793  26.801  1.00  0.00     0.074 A 
ATOM     65  C   UNL A   1      44.667  25.457  26.240  1.00  0.00     0.031 C 
ATOM     66  C   UNL A   1      45.556  27.729  26.694  1.00  0.00     0.037 A 
BRANCH  53  67
ATOM     67  C   UNL A   1      44.302  33.176  29.378  1.00  0.00     0.057 A 
ATOM     68  C   UNL A   1      44.952  33.542  30.565  1.00  0.00     0.134 A 
ATOM     69  C   UNL A   1      44.030  34.195  28.456  1.00  0.00     0.134 A 
ATOM     70  F   UNL A   1      45.221  32.623  31.506  1.00  0.00    -0.206 F 
ATOM     71  C   UNL A   1      45.293  34.870  30.834  1.00  0.00     0.040 A 
ATOM     72  C   UNL A   1      44.393  35.522  28.700  1.00  0.00     0.040 A 
ATOM     73  F   UNL A   1      43.403  33.920  27.302  1.00  0.00    -0.206 F 
ATOM     74  C   UNL A   1      45.020  35.864  29.896  1.00  0.00     0.006 A 
ENDBRANCH  53  67
BRANCH  54  75
ATOM     75  C   UNL A   1      40.946  23.842  27.457  1.00  0.00     0.057 A 
ATOM     76  C   UNL A   1      39.940  23.620  26.512  1.00  0.00     0.134 A 
ATOM     77  C   UNL A   1      41.482  22.722  28.106  1.00  0.00     0.134 A 
ATOM     78  F   UNL A   1      39.382  24.652  25.863  1.00  0.00    -0.206 F 
ATOM     79  C   UNL A   1      39.468  22.336  26.237  1.00  0.00     0.040 A 
ATOM     80  C   UNL A   1      41.040  21.430  27.820  1.00  0.00     0.040 A 
ATOM     81  F   UNL A   1      42.460  22.867  29.014  1.00  0.00    -0.206 F 
ATOM     82  C   UNL A   1      40.023  21.236  26.888  1.00  0.00     0.006 A 
ENDBRANCH  54  75
BRANCH  66  83
ATOM     83  C   UNL A   1      46.812  27.309  25.986  1.00  0.00     0.057 A 
ATOM     84  C   UNL A   1      46.996  27.515  24.614  1.00  0.00     0.134 A 
ATOM     85  C   UNL A   1      47.856  26.709  26.701  1.00  0.00     0.134 A 
ATOM     86  F   UNL A   1      46.028  28.076  23.873  1.00  0.00    -0.206 F 
ATOM     87  C   UNL A   1      48.159  27.096  23.968  1.00  0.00     0.040 A 
ATOM     88  C   UNL A   1      49.038  26.321  26.073  1.00  0.00     0.040 A 
ATOM     89  F   UNL A   1      47.748  26.500  28.022  1.00  0.00    -0.206 F 
ATOM     90  C   UNL A   1      49.185  26.502  24.700  1.00  0.00     0.006 A 
ENDBRANCH  66  83
ENDBRANCH  40  41
ENDBRANCH  33  35
ENDBRANCH  32  33
ENDBRANCH  31  32
ENDBRANCH  30  31
ENDBRANCH  29  30
ENDBRANCH  28  29
ENDBRANCH   1  28
TORSDOF 20
ENDMDL
MODEL 3
REMARK VINA RESULT:     -10.6      4.121      9.957
REMARK SMILES O=C(Cc1cncnc1N1CCC2(CC1)OCCC[C@@H]2O)OCCOCCOCCOC(=O)c1ccc(-c2c3nc(c(-c4c(F)cccc4F)c4ccc([nH]4)c(-c4c(F)cccc4F)c4nc(c(-c5c(F)cccc5F)c5ccc2[nH]5)C=C4)C=C3)cc1
REMARK SMILES IDX 26 1 25 2 24 3 23 4 22 5 2 6 1 7 3 8 4 9 5 10 9 11 6 12 8 13
REMARK SMILES IDX 7 14 10 15 11 16 15 17 12 18 14 19 13 20 16 21 20 22 17 23
REMARK SMILES IDX 19 24 18 25 21 26 27 28 28 29 29 30 30 31 31 32 32 33 33 34
REMARK SMILES IDX 34 35 35 36 87 37 36 38 86 39 37 40 38 41 39 42 80 43 40 44
REMARK SMILES IDX 85 45 79 46 81 47 41 48 84 49 78 50 77 51 42 53 68 54 51 55
REMARK SMILES IDX 67 56 52 57 55 58 66 59 82 60 53 61 54 62 65 64 83 65 56 66
REMARK SMILES IDX 43 67 44 68 49 69 45 70 46 71 48 72 50 73 47 74 69 75 70 76
REMARK SMILES IDX 75 77 71 78 72 79 74 80 76 81 73 82 57 83 58 84 63 85 59 86
REMARK SMILES IDX 60 87 62 88 64 89 61 90
REMARK H PARENT 21 27 81 52 55 63
REMARK Flexibility Score: inf
ROOT
ATOM      1  C   UNL A   1      35.143  33.680  27.993  1.00  0.00     0.188 C 
ENDROOT
BRANCH   1   2
ATOM      2  O   UNL A   1      35.567  32.362  27.664  1.00  0.00    -0.376 OA
BRANCH   2   3
ATOM      3  C   UNL A   1      34.637  31.331  27.936  1.00  0.00     0.202 C 
BRANCH   3   4
ATOM      4  C   UNL A   1      35.202  29.923  27.841  1.00  0.00     0.261 C 
BRANCH   4   5
ATOM      5  O   UNL A   1      34.686  29.202  26.730  1.00  0.00    -0.463 OA
BRANCH   5   6
ATOM      6  C   UNL A   1      33.668  28.324  26.839  1.00  0.00     0.310 C 
ATOM      7  O   UNL A   1      32.752  28.601  27.615  1.00  0.00    -0.252 OA
BRANCH   6   8
ATOM      8  C   UNL A   1      33.638  27.011  26.070  1.00  0.00     0.163 C 
BRANCH   8   9
ATOM      9  C   UNL A   1      33.686  27.035  24.568  1.00  0.00     0.024 A 
ATOM     10  C   UNL A   1      33.870  28.291  23.995  1.00  0.00     0.121 A 
ATOM     11  C   UNL A   1      33.504  25.967  23.670  1.00  0.00     0.135 A 
ATOM     12  N   UNL A   1      33.842  28.538  22.680  1.00  0.00    -0.244 NA
ATOM     13  N   UNL A   1      33.465  26.205  22.344  1.00  0.00    -0.219 NA
ATOM     14  C   UNL A   1      33.620  27.468  21.918  1.00  0.00     0.224 A 
BRANCH  11  15
ATOM     15  N   UNL A   1      33.449  24.610  24.055  1.00  0.00    -0.356 N 
ATOM     16  C   UNL A   1      33.590  23.674  22.920  1.00  0.00     0.121 C 
ATOM     17  C   UNL A   1      32.257  24.226  24.816  1.00  0.00     0.121 C 
ATOM     18  C   UNL A   1      33.955  22.259  23.394  1.00  0.00     0.060 C 
ATOM     19  C   UNL A   1      32.495  22.841  25.435  1.00  0.00     0.060 C 
ATOM     20  C   UNL A   1      33.163  21.696  24.608  1.00  0.00     0.097 C 
ATOM     21  O   UNL A   1      32.097  20.820  24.151  1.00  0.00    -0.372 OA
ATOM     22  C   UNL A   1      34.103  20.821  25.547  1.00  0.00     0.146 C 
ATOM     23  C   UNL A   1      32.481  19.540  23.617  1.00  0.00     0.161 C 
ATOM     24  C   UNL A   1      34.654  19.592  24.843  1.00  0.00     0.037 C 
ATOM     25  C   UNL A   1      33.474  18.729  24.449  1.00  0.00     0.031 C 
BRANCH  22  26
ATOM     26  O   UNL A   1      33.419  20.327  26.709  1.00  0.00    -0.390 OA
ATOM     27  H   UNL A   1      34.059  19.907  27.306  1.00  0.00     0.211 HD
ENDBRANCH  22  26
ENDBRANCH  11  15
ENDBRANCH   8   9
ENDBRANCH   6   8
ENDBRANCH   5   6
ENDBRANCH   4   5
ENDBRANCH   3   4
ENDBRANCH   2   3
ENDBRANCH   1   2
BRANCH   1  28
ATOM     28  C   UNL A   1      34.253  33.728  29.243  1.00  0.00     0.188 C 
BRANCH  28  29
ATOM     29  O   UNL A   1      34.483  34.766  30.202  1.00  0.00    -0.376 OA
BRANCH  29  30
ATOM     30  C   UNL A   1      34.323  34.447  31.580  1.00  0.00     0.202 C 
BRANCH  30  31
ATOM     31  C   UNL A   1      35.548  34.730  32.447  1.00  0.00     0.261 C 
BRANCH  31  32
ATOM     32  O   UNL A   1      36.644  34.002  31.901  1.00  0.00    -0.460 OA
BRANCH  32  33
ATOM     33  C   UNL A   1      37.099  33.088  32.785  1.00  0.00     0.338 C 
ATOM     34  O   UNL A   1      36.909  33.069  33.982  1.00  0.00    -0.246 OA
BRANCH  33  35
ATOM     35  C   UNL A   1      37.646  31.953  32.026  1.00  0.00     0.060 A 
ATOM     36  C   UNL A   1      38.542  31.122  32.708  1.00  0.00     0.016 A 
ATOM     37  C   UNL A   1      37.342  31.745  30.675  1.00  0.00     0.016 A 
ATOM     38  C   UNL A   1      39.272  30.188  32.004  1.00  0.00     0.010 A 
ATOM     39  C   UNL A   1      38.092  30.824  29.959  1.00  0.00     0.010 A 
ATOM     40  C   UNL A   1      39.122  30.138  30.616  1.00  0.00    -0.014 A 
BRANCH  40  41
ATOM     41  C   UNL A   1      40.289  29.685  29.848  1.00  0.00     0.031 A 
ATOM     42  C   UNL A   1      41.420  30.662  29.679  1.00  0.00     0.074 A 
ATOM     43  C   UNL A   1      40.352  28.417  29.429  1.00  0.00     0.049 A 
ATOM     44  N   UNL A   1      42.564  30.512  29.069  1.00  0.00    -0.248 NA
ATOM     45  C   UNL A   1      41.241  31.997  30.285  1.00  0.00     0.031 C 
ATOM     46  C   UNL A   1      39.318  27.406  29.643  1.00  0.00     0.029 A 
ATOM     47  N   UNL A   1      41.338  27.767  28.748  1.00  0.00    -0.354 N 
ATOM     48  C   UNL A   1      43.223  31.729  29.203  1.00  0.00     0.074 A 
ATOM     49  C   UNL A   1      42.350  32.620  29.925  1.00  0.00     0.031 C 
ATOM     50  C   UNL A   1      39.727  26.250  29.094  1.00  0.00     0.029 A 
ATOM     51  C   UNL A   1      41.028  26.463  28.468  1.00  0.00     0.049 A 
ATOM     52  H   UNL A   1      42.187  28.191  28.486  1.00  0.00     0.167 HD
ATOM     53  C   UNL A   1      44.455  32.063  28.758  1.00  0.00     0.037 A 
ATOM     54  C   UNL A   1      41.729  25.561  27.761  1.00  0.00     0.037 A 
ATOM     55  C   UNL A   1      45.295  31.143  28.041  1.00  0.00     0.049 A 
ATOM     56  C   UNL A   1      43.068  25.979  27.218  1.00  0.00     0.074 A 
ATOM     57  C   UNL A   1      46.563  31.343  27.532  1.00  0.00     0.029 A 
ATOM     58  N   UNL A   1      44.932  29.838  27.728  1.00  0.00    -0.354 N 
ATOM     59  N   UNL A   1      43.691  27.129  27.343  1.00  0.00    -0.248 NA
ATOM     60  C   UNL A   1      43.805  24.973  26.449  1.00  0.00     0.031 C 
ATOM     61  C   UNL A   1      46.942  30.179  26.856  1.00  0.00     0.029 A 
ATOM     62  C   UNL A   1      45.941  29.229  27.007  1.00  0.00     0.049 A 
ATOM     63  H   UNL A   1      44.082  29.412  27.982  1.00  0.00     0.167 HD
ATOM     64  C   UNL A   1      44.910  26.975  26.697  1.00  0.00     0.074 A 
ATOM     65  C   UNL A   1      44.937  25.613  26.197  1.00  0.00     0.031 C 
ATOM     66  C   UNL A   1      45.920  27.866  26.532  1.00  0.00     0.037 A 
BRANCH  53  67
ATOM     67  C   UNL A   1      44.921  33.474  28.982  1.00  0.00     0.057 A 
ATOM     68  C   UNL A   1      44.580  34.526  28.120  1.00  0.00     0.134 A 
ATOM     69  C   UNL A   1      45.732  33.784  30.081  1.00  0.00     0.134 A 
ATOM     70  F   UNL A   1      43.828  34.299  27.033  1.00  0.00    -0.206 F 
ATOM     71  C   UNL A   1      45.049  35.826  28.329  1.00  0.00     0.040 A 
ATOM     72  C   UNL A   1      46.183  35.085  30.318  1.00  0.00     0.040 A 
ATOM     73  F   UNL A   1      46.105  32.827  30.944  1.00  0.00    -0.206 F 
ATOM     74  C   UNL A   1      45.848  36.109  29.436  1.00  0.00     0.006 A 
ENDBRANCH  53  67
BRANCH  54  75
ATOM     75  C   UNL A   1      41.178  24.202  27.543  1.00  0.00     0.057 A 
ATOM     76  C   UNL A   1      41.677  23.097  28.239  1.00  0.00     0.134 A 
ATOM     77  C   UNL A   1      40.126  23.978  26.645  1.00  0.00     0.134 A 
ATOM     78  F   UNL A   1      42.689  23.245  29.107  1.00  0.00    -0.206 F 
ATOM     79  C   UNL A   1      41.166  21.815  28.037  1.00  0.00     0.040 A 
ATOM     80  C   UNL A   1      39.585  22.706  26.454  1.00  0.00     0.040 A 
ATOM     81  F   UNL A   1      39.593  24.999  25.957  1.00  0.00    -0.206 F 
ATOM     82  C   UNL A   1      40.112  21.618  27.146  1.00  0.00     0.006 A 
ENDBRANCH  54  75
BRANCH  66  83
ATOM     83  C   UNL A   1      47.146  27.367  25.826  1.00  0.00     0.057 A 
ATOM     84  C   UNL A   1      48.188  26.726  26.507  1.00  0.00     0.134 A 
ATOM     85  C   UNL A   1      47.270  27.516  24.438  1.00  0.00     0.134 A 
ATOM     86  F   UNL A   1      48.133  26.562  27.837  1.00  0.00    -0.206 F 
ATOM     87  C   UNL A   1      49.331  26.290  25.838  1.00  0.00     0.040 A 
ATOM     88  C   UNL A   1      48.391  27.051  23.754  1.00  0.00     0.040 A 
ATOM     89  F   UNL A   1      46.299  28.106  23.725  1.00  0.00    -0.206 F 
ATOM     90  C   UNL A   1      49.432  26.448  24.457  1.00  0.00     0.006 A 
ENDBRANCH  66  83
ENDBRANCH  40  41
ENDBRANCH  33  35
ENDBRANCH  32  33
ENDBRANCH  31  32
ENDBRANCH  30  31
ENDBRANCH  29  30
ENDBRANCH  28  29
ENDBRANCH   1  28
TORSDOF 20
ENDMDL
