MODEL 1
REMARK VINA RESULT:     -11.8      0.000      0.000
REMARK SMILES Cc1ccc(N2C(=O)N=C(OCCOCCOCCOC(=O)c3ccc(-c4c5nc(c(-c6c(F)cccc6F)c6ccc([nH]6)c(-c6c(F)cccc6F)c6nc(c(-c7c(F)cccc7F)c7ccc4[nH]7)C=C6)C=C5)cc3)/C(=C/c3ccccc3OCc3cccc(C(=O)[O-])c3)C2=O)cc1
REMARK SMILES IDX 15 1 14 2 13 3 12 4 11 5 10 6 6 7 7 8 96 9 8 10 9 11 77 12
REMARK SMILES IDX 97 13 78 14 5 15 1 16 2 17 3 18 99 19 4 20 98 21 79 22 80 23
REMARK SMILES IDX 84 24 81 25 83 26 82 27 85 28 86 29 87 30 88 31 95 32 89 33
REMARK SMILES IDX 91 34 90 35 92 36 93 37 94 38 16 39 17 40 18 41 19 42 20 43
REMARK SMILES IDX 21 44 22 45 23 46 24 47 76 48 25 49 75 50 26 51 27 52 28 53
REMARK SMILES IDX 69 54 29 55 74 56 68 57 70 58 30 59 73 60 67 61 66 62 31 64
REMARK SMILES IDX 57 65 40 66 56 67 41 68 44 69 55 70 71 71 42 72 43 73 54 75
REMARK SMILES IDX 72 76 45 77 32 78 33 79 38 80 34 81 35 82 37 83 39 84 36 85
REMARK SMILES IDX 58 86 59 87 64 88 60 89 61 90 63 91 65 92 62 93 46 94 47 95
REMARK SMILES IDX 52 96 48 97 49 98 51 99 53 100 50 101
REMARK H PARENT 70 63 44 74
REMARK Flexibility Score: inf
ROOT
ATOM      1  C   UNL A   1      43.190  19.207  25.411  1.00  0.00     0.188 C 
ENDROOT
BRANCH   1   2
ATOM      2  O   UNL A   1      42.023  18.638  26.014  1.00  0.00    -0.376 OA
BRANCH   2   3
ATOM      3  C   UNL A   1      40.867  19.479  25.906  1.00  0.00     0.201 C 
BRANCH   3   4
ATOM      4  C   UNL A   1      40.807  20.536  27.007  1.00  0.00     0.260 C 
BRANCH   4   5
ATOM      5  O   UNL A   1      40.144  21.740  26.500  1.00  0.00    -0.475 OA
BRANCH   5   6
ATOM      6  C   UNL A   1      38.989  22.185  25.985  1.00  0.00     0.231 C 
ATOM      7  N   UNL A   1      36.382  22.639  25.163  1.00  0.00    -0.226 N 
ATOM      8  C   UNL A   1      36.920  21.372  25.260  1.00  0.00     0.358 C 
ATOM      9  C   UNL A   1      36.968  23.583  25.978  1.00  0.00     0.272 C 
ATOM     10  O   UNL A   1      36.217  20.366  25.203  1.00  0.00    -0.245 OA
ATOM     11  N   UNL A   1      38.241  21.233  25.557  1.00  0.00    -0.156 NA
ATOM     12  C   UNL A   1      38.584  23.607  26.101  1.00  0.00     0.103 C 
ATOM     13  O   UNL A   1      36.205  24.319  26.606  1.00  0.00    -0.268 OA
ATOM     14  C   UNL A   1      39.675  24.340  26.589  1.00  0.00     0.031 C 
BRANCH   7  15
ATOM     15  C   UNL A   1      34.995  22.782  24.655  1.00  0.00     0.054 A 
ATOM     16  C   UNL A   1      30.968  23.442  23.038  1.00  0.00     0.044 C 
ATOM     17  C   UNL A   1      32.348  23.228  23.589  1.00  0.00    -0.051 A 
ATOM     18  C   UNL A   1      32.527  22.685  24.857  1.00  0.00     0.005 A 
ATOM     19  C   UNL A   1      33.488  23.528  22.844  1.00  0.00     0.005 A 
ATOM     20  C   UNL A   1      33.821  22.480  25.381  1.00  0.00     0.027 A 
ATOM     21  C   UNL A   1      34.778  23.309  23.368  1.00  0.00     0.027 A 
ENDBRANCH   7  15
BRANCH  14  22
ATOM     22  C   UNL A   1      40.454  25.541  27.511  1.00  0.00     0.018 A 
ATOM     23  C   UNL A   1      41.789  25.115  27.763  1.00  0.00     0.012 A 
ATOM     24  C   UNL A   1      40.092  26.864  28.233  1.00  0.00     0.127 A 
ATOM     25  C   UNL A   1      42.628  25.719  28.710  1.00  0.00     0.001 A 
ATOM     26  C   UNL A   1      40.955  27.379  29.229  1.00  0.00     0.047 A 
ATOM     27  C   UNL A   1      42.191  26.792  29.477  1.00  0.00     0.004 A 
BRANCH  24  28
ATOM     28  O   UNL A   1      39.197  28.189  27.793  1.00  0.00    -0.488 OA
BRANCH  28  29
ATOM     29  C   UNL A   1      38.101  29.375  28.385  1.00  0.00     0.265 C 
BRANCH  29  30
ATOM     30  C   UNL A   1      36.793  30.160  27.938  1.00  0.00    -0.010 A 
ATOM     31  C   UNL A   1      36.622  31.508  28.311  1.00  0.00     0.007 A 
ATOM     32  C   UNL A   1      35.631  29.516  27.494  1.00  0.00     0.017 A 
ATOM     33  C   UNL A   1      35.363  32.141  28.254  1.00  0.00     0.001 A 
ATOM     34  C   UNL A   1      34.375  30.131  27.408  1.00  0.00    -0.002 A 
ATOM     35  C   UNL A   1      34.233  31.448  27.817  1.00  0.00     0.010 A 
BRANCH  34  36
ATOM     36  C   UNL A   1      33.191  29.341  26.989  1.00  0.00     0.071 C 
ATOM     37  O   UNL A   1      32.962  28.183  27.270  1.00  0.00    -0.545 OA
ATOM     38  O   UNL A   1      32.351  30.067  26.225  1.00  0.00    -0.545 OA
ENDBRANCH  34  36
ENDBRANCH  29  30
ENDBRANCH  28  29
ENDBRANCH  24  28
ENDBRANCH  14  22
ENDBRANCH   5   6
ENDBRANCH   4   5
ENDBRANCH   3   4
ENDBRANCH   2   3
ENDBRANCH   1   2
BRANCH   1  39
ATOM     39  C   UNL A   1      44.478  18.420  25.713  1.00  0.00     0.188 C 
BRANCH  39  40
ATOM     40  O   UNL A   1      45.568  18.565  24.812  1.00  0.00    -0.376 OA
BRANCH  40  41
ATOM     41  C   UNL A   1      45.520  19.668  23.915  1.00  0.00     0.202 C 
BRANCH  41  42
ATOM     42  C   UNL A   1      46.189  20.856  24.620  1.00  0.00     0.261 C 
BRANCH  42  43
ATOM     43  O   UNL A   1      45.755  22.083  23.988  1.00  0.00    -0.460 OA
BRANCH  43  44
ATOM     44  C   UNL A   1      44.581  22.635  24.409  1.00  0.00     0.338 C 
ATOM     45  O   UNL A   1      43.492  22.512  23.879  1.00  0.00    -0.246 OA
BRANCH  44  46
ATOM     46  C   UNL A   1      44.851  23.536  25.581  1.00  0.00     0.060 A 
ATOM     47  C   UNL A   1      45.255  24.868  25.400  1.00  0.00     0.016 A 
ATOM     48  C   UNL A   1      44.862  23.026  26.871  1.00  0.00     0.016 A 
ATOM     49  C   UNL A   1      45.814  25.622  26.469  1.00  0.00     0.010 A 
ATOM     50  C   UNL A   1      45.498  23.741  27.890  1.00  0.00     0.010 A 
ATOM     51  C   UNL A   1      46.095  25.017  27.698  1.00  0.00    -0.014 A 
BRANCH  51  52
ATOM     52  C   UNL A   1      46.824  25.574  28.965  1.00  0.00     0.031 A 
ATOM     53  C   UNL A   1      48.348  25.983  28.132  1.00  0.00     0.074 A 
ATOM     54  C   UNL A   1      46.271  25.973  30.401  1.00  0.00     0.049 A 
ATOM     55  N   UNL A   1      49.052  27.093  28.112  1.00  0.00    -0.248 NA
ATOM     56  C   UNL A   1      49.082  24.967  27.364  1.00  0.00     0.031 C 
ATOM     57  C   UNL A   1      46.574  27.282  31.449  1.00  0.00     0.029 A 
ATOM     58  N   UNL A   1      45.346  25.481  31.357  1.00  0.00    -0.354 N 
ATOM     59  C   UNL A   1      50.385  26.796  28.044  1.00  0.00     0.074 A 
ATOM     60  C   UNL A   1      50.309  25.524  27.296  1.00  0.00     0.031 C 
ATOM     61  C   UNL A   1      45.642  27.537  32.341  1.00  0.00     0.029 A 
ATOM     62  C   UNL A   1      45.068  26.263  32.483  1.00  0.00     0.049 A 
ATOM     63  H   UNL A   1      44.910  24.608  31.232  1.00  0.00     0.167 HD
ATOM     64  C   UNL A   1      51.350  27.151  29.005  1.00  0.00     0.037 A 
ATOM     65  C   UNL A   1      45.080  25.859  33.765  1.00  0.00     0.037 A 
ATOM     66  C   UNL A   1      51.007  27.524  30.467  1.00  0.00     0.049 A 
ATOM     67  C   UNL A   1      46.518  25.831  34.343  1.00  0.00     0.074 A 
ATOM     68  C   UNL A   1      50.484  28.653  31.101  1.00  0.00     0.029 A 
ATOM     69  N   UNL A   1      51.272  26.678  31.609  1.00  0.00    -0.354 N 
ATOM     70  N   UNL A   1      47.596  26.356  33.760  1.00  0.00    -0.248 NA
ATOM     71  C   UNL A   1      46.875  25.220  35.611  1.00  0.00     0.031 C 
ATOM     72  C   UNL A   1      50.111  28.346  32.465  1.00  0.00     0.029 A 
ATOM     73  C   UNL A   1      50.437  27.029  32.753  1.00  0.00     0.049 A 
ATOM     74  H   UNL A   1      51.938  25.953  31.614  1.00  0.00     0.167 HD
ATOM     75  C   UNL A   1      48.762  25.974  34.393  1.00  0.00     0.074 A 
ATOM     76  C   UNL A   1      48.218  25.346  35.608  1.00  0.00     0.031 C 
ATOM     77  C   UNL A   1      50.067  26.068  33.887  1.00  0.00     0.037 A 
BRANCH  64  78
ATOM     78  C   UNL A   1      52.631  27.691  28.378  1.00  0.00     0.057 A 
ATOM     79  C   UNL A   1      52.693  29.028  27.937  1.00  0.00     0.134 A 
ATOM     80  C   UNL A   1      53.778  26.930  28.086  1.00  0.00     0.134 A 
ATOM     81  F   UNL A   1      51.694  29.894  28.148  1.00  0.00    -0.206 F 
ATOM     82  C   UNL A   1      53.779  29.548  27.223  1.00  0.00     0.040 A 
ATOM     83  C   UNL A   1      54.860  27.431  27.350  1.00  0.00     0.040 A 
ATOM     84  F   UNL A   1      53.926  25.671  28.505  1.00  0.00    -0.206 F 
ATOM     85  C   UNL A   1      54.860  28.743  26.908  1.00  0.00     0.006 A 
ENDBRANCH  64  78
BRANCH  65  86
ATOM     86  C   UNL A   1      43.659  25.495  34.012  1.00  0.00     0.057 A 
ATOM     87  C   UNL A   1      43.394  24.115  34.303  1.00  0.00     0.134 A 
ATOM     88  C   UNL A   1      42.816  26.408  34.644  1.00  0.00     0.134 A 
ATOM     89  F   UNL A   1      44.186  23.155  33.788  1.00  0.00    -0.206 F 
ATOM     90  C   UNL A   1      42.492  23.704  35.295  1.00  0.00     0.040 A 
ATOM     91  C   UNL A   1      41.862  25.996  35.596  1.00  0.00     0.040 A 
ATOM     92  F   UNL A   1      43.022  27.723  34.483  1.00  0.00    -0.206 F 
ATOM     93  C   UNL A   1      41.738  24.654  35.965  1.00  0.00     0.006 A 
ENDBRANCH  65  86
BRANCH  77  94
ATOM     94  C   UNL A   1      51.153  25.172  34.477  1.00  0.00     0.057 A 
ATOM     95  C   UNL A   1      51.984  25.526  35.563  1.00  0.00     0.134 A 
ATOM     96  C   UNL A   1      51.319  23.851  34.025  1.00  0.00     0.134 A 
ATOM     97  F   UNL A   1      51.835  26.684  36.222  1.00  0.00    -0.206 F 
ATOM     98  C   UNL A   1      52.985  24.684  36.063  1.00  0.00     0.040 A 
ATOM     99  C   UNL A   1      52.257  22.969  34.576  1.00  0.00     0.040 A 
ATOM    100  F   UNL A   1      50.556  23.347  33.045  1.00  0.00    -0.206 F 
ATOM    101  C   UNL A   1      53.119  23.395  35.574  1.00  0.00     0.006 A 
ENDBRANCH  77  94
ENDBRANCH  51  52
ENDBRANCH  44  46
ENDBRANCH  43  44
ENDBRANCH  42  43
ENDBRANCH  41  42
ENDBRANCH  40  41
ENDBRANCH  39  40
ENDBRANCH   1  39
TORSDOF 22
ENDMDL
MODEL 2
REMARK VINA RESULT:     -11.5      1.889      4.680
REMARK SMILES Cc1ccc(N2C(=O)N=C(OCCOCCOCCOC(=O)c3ccc(-c4c5nc(c(-c6c(F)cccc6F)c6ccc([nH]6)c(-c6c(F)cccc6F)c6nc(c(-c7c(F)cccc7F)c7ccc4[nH]7)C=C6)C=C5)cc3)/C(=C/c3ccccc3OCc3cccc(C(=O)[O-])c3)C2=O)cc1
REMARK SMILES IDX 15 1 14 2 13 3 12 4 11 5 10 6 6 7 7 8 96 9 8 10 9 11 77 12
REMARK SMILES IDX 97 13 78 14 5 15 1 16 2 17 3 18 99 19 4 20 98 21 79 22 80 23
REMARK SMILES IDX 84 24 81 25 83 26 82 27 85 28 86 29 87 30 88 31 95 32 89 33
REMARK SMILES IDX 91 34 90 35 92 36 93 37 94 38 16 39 17 40 18 41 19 42 20 43
REMARK SMILES IDX 21 44 22 45 23 46 24 47 76 48 25 49 75 50 26 51 27 52 28 53
REMARK SMILES IDX 69 54 29 55 74 56 68 57 70 58 30 59 73 60 67 61 66 62 31 64
REMARK SMILES IDX 57 65 40 66 56 67 41 68 44 69 55 70 71 71 42 72 43 73 54 75
REMARK SMILES IDX 72 76 45 77 32 78 33 79 38 80 34 81 35 82 37 83 39 84 36 85
REMARK SMILES IDX 58 86 59 87 64 88 60 89 61 90 63 91 65 92 62 93 46 94 47 95
REMARK SMILES IDX 52 96 48 97 49 98 51 99 53 100 50 101
REMARK H PARENT 70 63 44 74
REMARK Flexibility Score: inf
ROOT
ATOM      1  C   UNL A   1      42.891  19.519  25.692  1.00  0.00     0.188 C 
ENDROOT
BRANCH   1   2
ATOM      2  O   UNL A   1      41.568  18.999  25.868  1.00  0.00    -0.376 OA
BRANCH   2   3
ATOM      3  C   UNL A   1      40.639  19.978  26.350  1.00  0.00     0.201 C 
BRANCH   3   4
ATOM      4  C   UNL A   1      41.268  20.936  27.360  1.00  0.00     0.260 C 
BRANCH   4   5
ATOM      5  O   UNL A   1      40.461  22.155  27.454  1.00  0.00    -0.475 OA
BRANCH   5   6
ATOM      6  C   UNL A   1      40.518  23.447  27.809  1.00  0.00     0.231 C 
ATOM      7  N   UNL A   1      41.182  26.074  28.389  1.00  0.00    -0.226 N 
ATOM      8  C   UNL A   1      42.061  25.027  28.577  1.00  0.00     0.358 C 
ATOM      9  C   UNL A   1      40.216  25.856  27.431  1.00  0.00     0.272 C 
ATOM     10  O   UNL A   1      43.254  25.218  28.801  1.00  0.00    -0.245 OA
ATOM     11  N   UNL A   1      41.626  23.753  28.382  1.00  0.00    -0.156 NA
ATOM     12  C   UNL A   1      39.476  24.414  27.388  1.00  0.00     0.103 C 
ATOM     13  O   UNL A   1      40.018  26.771  26.629  1.00  0.00    -0.268 OA
ATOM     14  C   UNL A   1      38.413  23.700  26.818  1.00  0.00     0.031 C 
BRANCH   7  15
ATOM     15  C   UNL A   1      41.610  27.438  28.786  1.00  0.00     0.054 A 
ATOM     16  C   UNL A   1      42.613  31.534  30.006  1.00  0.00     0.044 C 
ATOM     17  C   UNL A   1      42.259  30.136  29.587  1.00  0.00    -0.051 A 
ATOM     18  C   UNL A   1      42.930  29.521  28.536  1.00  0.00     0.005 A 
ATOM     19  C   UNL A   1      41.280  29.399  30.253  1.00  0.00     0.005 A 
ATOM     20  C   UNL A   1      42.603  28.208  28.137  1.00  0.00     0.027 A 
ATOM     21  C   UNL A   1      40.967  28.082  29.859  1.00  0.00     0.027 A 
ENDBRANCH   7  15
BRANCH  14  22
ATOM     22  C   UNL A   1      37.150  23.409  25.713  1.00  0.00     0.018 A 
ATOM     23  C   UNL A   1      37.653  22.583  24.668  1.00  0.00     0.012 A 
ATOM     24  C   UNL A   1      35.692  23.877  25.471  1.00  0.00     0.127 A 
ATOM     25  C   UNL A   1      36.976  22.369  23.459  1.00  0.00     0.001 A 
ATOM     26  C   UNL A   1      35.097  23.688  24.202  1.00  0.00     0.047 A 
ATOM     27  C   UNL A   1      35.748  22.967  23.206  1.00  0.00     0.004 A 
BRANCH  24  28
ATOM     28  O   UNL A   1      34.384  24.079  26.471  1.00  0.00    -0.488 OA
BRANCH  28  29
ATOM     29  C   UNL A   1      32.701  24.431  26.489  1.00  0.00     0.265 C 
BRANCH  29  30
ATOM     30  C   UNL A   1      31.676  25.522  25.953  1.00  0.00    -0.010 A 
ATOM     31  C   UNL A   1      30.345  25.156  25.672  1.00  0.00     0.007 A 
ATOM     32  C   UNL A   1      32.081  26.747  25.408  1.00  0.00     0.017 A 
ATOM     33  C   UNL A   1      29.503  25.964  24.881  1.00  0.00     0.001 A 
ATOM     34  C   UNL A   1      31.255  27.577  24.639  1.00  0.00    -0.002 A 
ATOM     35  C   UNL A   1      29.961  27.170  24.350  1.00  0.00     0.010 A 
BRANCH  34  36
ATOM     36  C   UNL A   1      31.801  28.824  24.049  1.00  0.00     0.071 C 
ATOM     37  O   UNL A   1      32.463  28.911  23.036  1.00  0.00    -0.545 OA
ATOM     38  O   UNL A   1      31.480  29.907  24.784  1.00  0.00    -0.545 OA
ENDBRANCH  34  36
ENDBRANCH  29  30
ENDBRANCH  28  29
ENDBRANCH  24  28
ENDBRANCH  14  22
ENDBRANCH   5   6
ENDBRANCH   4   5
ENDBRANCH   3   4
ENDBRANCH   2   3
ENDBRANCH   1   2
BRANCH   1  39
ATOM     39  C   UNL A   1      43.989  18.450  25.830  1.00  0.00     0.188 C 
BRANCH  39  40
ATOM     40  O   UNL A   1      45.007  18.417  24.838  1.00  0.00    -0.376 OA
BRANCH  40  41
ATOM     41  C   UNL A   1      45.081  19.528  23.952  1.00  0.00     0.202 C 
BRANCH  41  42
ATOM     42  C   UNL A   1      46.058  20.537  24.571  1.00  0.00     0.261 C 
BRANCH  42  43
ATOM     43  O   UNL A   1      45.913  21.807  23.894  1.00  0.00    -0.460 OA
BRANCH  43  44
ATOM     44  C   UNL A   1      44.794  22.544  24.156  1.00  0.00     0.338 C 
ATOM     45  O   UNL A   1      43.778  22.578  23.488  1.00  0.00    -0.246 OA
BRANCH  44  46
ATOM     46  C   UNL A   1      45.049  23.419  25.350  1.00  0.00     0.060 A 
ATOM     47  C   UNL A   1      45.389  24.774  25.204  1.00  0.00     0.016 A 
ATOM     48  C   UNL A   1      45.110  22.870  26.623  1.00  0.00     0.016 A 
ATOM     49  C   UNL A   1      45.936  25.518  26.285  1.00  0.00     0.010 A 
ATOM     50  C   UNL A   1      45.735  23.582  27.652  1.00  0.00     0.010 A 
ATOM     51  C   UNL A   1      46.269  24.889  27.488  1.00  0.00    -0.014 A 
BRANCH  51  52
ATOM     52  C   UNL A   1      46.999  25.439  28.758  1.00  0.00     0.031 A 
ATOM     53  C   UNL A   1      48.524  25.849  27.926  1.00  0.00     0.074 A 
ATOM     54  C   UNL A   1      46.447  25.833  30.196  1.00  0.00     0.049 A 
ATOM     55  N   UNL A   1      49.230  26.958  27.912  1.00  0.00    -0.248 NA
ATOM     56  C   UNL A   1      49.257  24.836  27.154  1.00  0.00     0.031 C 
ATOM     57  C   UNL A   1      46.753  27.137  31.249  1.00  0.00     0.029 A 
ATOM     58  N   UNL A   1      45.522  25.338  31.150  1.00  0.00    -0.354 N 
ATOM     59  C   UNL A   1      50.563  26.658  27.842  1.00  0.00     0.074 A 
ATOM     60  C   UNL A   1      50.485  25.390  27.089  1.00  0.00     0.031 C 
ATOM     61  C   UNL A   1      45.822  27.390  32.142  1.00  0.00     0.029 A 
ATOM     62  C   UNL A   1      45.245  26.116  32.279  1.00  0.00     0.049 A 
ATOM     63  H   UNL A   1      45.084  24.466  31.021  1.00  0.00     0.167 HD
ATOM     64  C   UNL A   1      51.528  27.007  28.805  1.00  0.00     0.037 A 
ATOM     65  C   UNL A   1      45.257  25.706  33.559  1.00  0.00     0.037 A 
ATOM     66  C   UNL A   1      51.186  27.375  30.268  1.00  0.00     0.049 A 
ATOM     67  C   UNL A   1      46.694  25.673  34.137  1.00  0.00     0.074 A 
ATOM     68  C   UNL A   1      50.666  28.502  30.908  1.00  0.00     0.029 A 
ATOM     69  N   UNL A   1      51.450  26.523  31.406  1.00  0.00    -0.354 N 
ATOM     70  N   UNL A   1      47.773  26.198  33.557  1.00  0.00    -0.248 NA
ATOM     71  C   UNL A   1      47.050  25.056  35.403  1.00  0.00     0.031 C 
ATOM     72  C   UNL A   1      50.292  28.189  32.270  1.00  0.00     0.029 A 
ATOM     73  C   UNL A   1      50.616  26.870  32.552  1.00  0.00     0.049 A 
ATOM     74  H   UNL A   1      52.115  25.797  31.408  1.00  0.00     0.167 HD
ATOM     75  C   UNL A   1      48.939  25.811  34.188  1.00  0.00     0.074 A 
ATOM     76  C   UNL A   1      48.393  25.179  35.400  1.00  0.00     0.031 C 
ATOM     77  C   UNL A   1      50.244  25.905  33.682  1.00  0.00     0.037 A 
BRANCH  64  78
ATOM     78  C   UNL A   1      52.811  27.548  28.181  1.00  0.00     0.057 A 
ATOM     79  C   UNL A   1      52.891  28.899  27.788  1.00  0.00     0.134 A 
ATOM     80  C   UNL A   1      53.940  26.779  27.845  1.00  0.00     0.134 A 
ATOM     81  F   UNL A   1      51.910  29.774  28.043  1.00  0.00    -0.206 F 
ATOM     82  C   UNL A   1      53.976  29.426  27.078  1.00  0.00     0.040 A 
ATOM     83  C   UNL A   1      55.021  27.288  27.113  1.00  0.00     0.040 A 
ATOM     84  F   UNL A   1      54.072  25.503  28.216  1.00  0.00    -0.206 F 
ATOM     85  C   UNL A   1      55.039  28.614  26.719  1.00  0.00     0.006 A 
ENDBRANCH  64  78
BRANCH  65  86
ATOM     86  C   UNL A   1      43.834  25.343  33.805  1.00  0.00     0.057 A 
ATOM     87  C   UNL A   1      43.562  23.956  34.049  1.00  0.00     0.134 A 
ATOM     88  C   UNL A   1      43.003  26.240  34.476  1.00  0.00     0.134 A 
ATOM     89  F   UNL A   1      44.343  23.009  33.493  1.00  0.00    -0.206 F 
ATOM     90  C   UNL A   1      42.664  23.516  35.033  1.00  0.00     0.040 A 
ATOM     91  C   UNL A   1      42.054  25.801  35.420  1.00  0.00     0.040 A 
ATOM     92  F   UNL A   1      43.218  27.557  34.359  1.00  0.00    -0.206 F 
ATOM     93  C   UNL A   1      41.923  24.448  35.742  1.00  0.00     0.006 A 
ENDBRANCH  65  86
BRANCH  77  94
ATOM     94  C   UNL A   1      51.329  25.005  34.268  1.00  0.00     0.057 A 
ATOM     95  C   UNL A   1      51.620  23.700  33.813  1.00  0.00     0.134 A 
ATOM     96  C   UNL A   1      52.206  25.485  35.257  1.00  0.00     0.134 A 
ATOM     97  F   UNL A   1      50.992  23.159  32.759  1.00  0.00    -0.206 F 
ATOM     98  C   UNL A   1      52.609  22.894  34.390  1.00  0.00     0.040 A 
ATOM     99  C   UNL A   1      53.256  24.721  35.780  1.00  0.00     0.040 A 
ATOM    100  F   UNL A   1      52.099  26.731  35.739  1.00  0.00    -0.206 F 
ATOM    101  C   UNL A   1      53.439  23.408  35.374  1.00  0.00     0.006 A 
ENDBRANCH  77  94
ENDBRANCH  51  52
ENDBRANCH  44  46
ENDBRANCH  43  44
ENDBRANCH  42  43
ENDBRANCH  41  42
ENDBRANCH  40  41
ENDBRANCH  39  40
ENDBRANCH   1  39
TORSDOF 22
ENDMDL
MODEL 3
REMARK VINA RESULT:     -11.5      3.200      6.722
REMARK SMILES Cc1ccc(N2C(=O)N=C(OCCOCCOCCOC(=O)c3ccc(-c4c5nc(c(-c6c(F)cccc6F)c6ccc([nH]6)c(-c6c(F)cccc6F)c6nc(c(-c7c(F)cccc7F)c7ccc4[nH]7)C=C6)C=C5)cc3)/C(=C/c3ccccc3OCc3cccc(C(=O)[O-])c3)C2=O)cc1
REMARK SMILES IDX 15 1 14 2 13 3 12 4 11 5 10 6 6 7 7 8 96 9 8 10 9 11 77 12
REMARK SMILES IDX 97 13 78 14 5 15 1 16 2 17 3 18 99 19 4 20 98 21 79 22 80 23
REMARK SMILES IDX 84 24 81 25 83 26 82 27 85 28 86 29 87 30 88 31 95 32 89 33
REMARK SMILES IDX 91 34 90 35 92 36 93 37 94 38 16 39 17 40 18 41 19 42 20 43
REMARK SMILES IDX 21 44 22 45 23 46 24 47 76 48 25 49 75 50 26 51 27 52 28 53
REMARK SMILES IDX 69 54 29 55 74 56 68 57 70 58 30 59 73 60 67 61 66 62 31 64
REMARK SMILES IDX 57 65 40 66 56 67 41 68 44 69 55 70 71 71 42 72 43 73 54 75
REMARK SMILES IDX 72 76 45 77 32 78 33 79 38 80 34 81 35 82 37 83 39 84 36 85
REMARK SMILES IDX 58 86 59 87 64 88 60 89 61 90 63 91 65 92 62 93 46 94 47 95
REMARK SMILES IDX 52 96 48 97 49 98 51 99 53 100 50 101
REMARK H PARENT 70 63 44 74
REMARK Flexibility Score: inf
ROOT
ATOM      1  C   UNL A   1      43.046  18.991  25.615  1.00  0.00     0.188 C 
ENDROOT
BRANCH   1   2
ATOM      2  O   UNL A   1      42.497  18.897  26.934  1.00  0.00    -0.376 OA
BRANCH   2   3
ATOM      3  C   UNL A   1      41.467  19.861  27.184  1.00  0.00     0.201 C 
BRANCH   3   4
ATOM      4  C   UNL A   1      40.422  19.904  26.070  1.00  0.00     0.260 C 
BRANCH   4   5
ATOM      5  O   UNL A   1      39.633  21.134  26.178  1.00  0.00    -0.475 OA
BRANCH   5   6
ATOM      6  C   UNL A   1      38.501  21.715  25.756  1.00  0.00     0.231 C 
ATOM      7  N   UNL A   1      35.917  22.438  25.067  1.00  0.00    -0.226 N 
ATOM      8  C   UNL A   1      36.371  21.138  24.982  1.00  0.00     0.358 C 
ATOM      9  C   UNL A   1      36.577  23.226  25.985  1.00  0.00     0.272 C 
ATOM     10  O   UNL A   1      35.603  20.195  24.810  1.00  0.00    -0.245 OA
ATOM     11  N   UNL A   1      37.685  20.878  25.225  1.00  0.00    -0.156 NA
ATOM     12  C   UNL A   1      38.193  23.131  26.069  1.00  0.00     0.103 C 
ATOM     13  O   UNL A   1      35.874  23.918  26.724  1.00  0.00    -0.268 OA
ATOM     14  C   UNL A   1      39.338  23.723  26.622  1.00  0.00     0.031 C 
BRANCH   7  15
ATOM     15  C   UNL A   1      34.534  22.735  24.618  1.00  0.00     0.054 A 
ATOM     16  C   UNL A   1      30.545  23.814  23.135  1.00  0.00     0.044 C 
ATOM     17  C   UNL A   1      31.914  23.455  23.639  1.00  0.00    -0.051 A 
ATOM     18  C   UNL A   1      32.104  23.078  24.964  1.00  0.00     0.005 A 
ATOM     19  C   UNL A   1      33.026  23.453  22.797  1.00  0.00     0.005 A 
ATOM     20  C   UNL A   1      33.386  22.739  25.444  1.00  0.00     0.027 A 
ATOM     21  C   UNL A   1      34.303  23.100  23.279  1.00  0.00     0.027 A 
ENDBRANCH   7  15
BRANCH  14  22
ATOM     22  C   UNL A   1      40.209  24.738  27.675  1.00  0.00     0.018 A 
ATOM     23  C   UNL A   1      39.339  25.773  28.120  1.00  0.00     0.012 A 
ATOM     24  C   UNL A   1      41.668  24.916  28.169  1.00  0.00     0.127 A 
ATOM     25  C   UNL A   1      39.785  26.930  28.775  1.00  0.00     0.001 A 
ATOM     26  C   UNL A   1      42.064  26.139  28.759  1.00  0.00     0.047 A 
ATOM     27  C   UNL A   1      41.135  27.138  29.029  1.00  0.00     0.004 A 
BRANCH  24  28
ATOM     28  O   UNL A   1      42.824  23.852  28.701  1.00  0.00    -0.488 OA
BRANCH  28  29
ATOM     29  C   UNL A   1      44.044  23.620  29.890  1.00  0.00     0.265 C 
BRANCH  29  30
ATOM     30  C   UNL A   1      44.511  24.209  31.291  1.00  0.00    -0.010 A 
ATOM     31  C   UNL A   1      45.512  25.201  31.336  1.00  0.00     0.007 A 
ATOM     32  C   UNL A   1      44.251  23.573  32.511  1.00  0.00     0.017 A 
ATOM     33  C   UNL A   1      46.205  25.503  32.527  1.00  0.00     0.001 A 
ATOM     34  C   UNL A   1      44.912  23.872  33.710  1.00  0.00    -0.002 A 
ATOM     35  C   UNL A   1      45.917  24.827  33.713  1.00  0.00     0.010 A 
BRANCH  34  36
ATOM     36  C   UNL A   1      44.611  23.092  34.936  1.00  0.00     0.071 C 
ATOM     37  O   UNL A   1      44.025  23.494  35.919  1.00  0.00    -0.545 OA
ATOM     38  O   UNL A   1      45.077  21.831  34.852  1.00  0.00    -0.545 OA
ENDBRANCH  34  36
ENDBRANCH  29  30
ENDBRANCH  28  29
ENDBRANCH  24  28
ENDBRANCH  14  22
ENDBRANCH   5   6
ENDBRANCH   4   5
ENDBRANCH   3   4
ENDBRANCH   2   3
ENDBRANCH   1   2
BRANCH   1  39
ATOM     39  C   UNL A   1      44.567  18.758  25.571  1.00  0.00     0.188 C 
BRANCH  39  40
ATOM     40  O   UNL A   1      45.277  19.248  24.440  1.00  0.00    -0.376 OA
BRANCH  40  41
ATOM     41  C   UNL A   1      44.581  20.138  23.577  1.00  0.00     0.202 C 
BRANCH  41  42
ATOM     42  C   UNL A   1      45.050  21.560  23.916  1.00  0.00     0.261 C 
BRANCH  42  43
ATOM     43  O   UNL A   1      43.920  22.460  23.834  1.00  0.00    -0.460 OA
BRANCH  43  44
ATOM     44  C   UNL A   1      43.430  22.973  24.999  1.00  0.00     0.338 C 
ATOM     45  O   UNL A   1      42.327  22.768  25.472  1.00  0.00    -0.246 OA
BRANCH  44  46
ATOM     46  C   UNL A   1      44.423  23.947  25.566  1.00  0.00     0.060 A 
ATOM     47  C   UNL A   1      44.467  25.282  25.134  1.00  0.00     0.016 A 
ATOM     48  C   UNL A   1      45.427  23.510  26.418  1.00  0.00     0.016 A 
ATOM     49  C   UNL A   1      45.584  26.114  25.418  1.00  0.00     0.010 A 
ATOM     50  C   UNL A   1      46.562  24.304  26.612  1.00  0.00     0.010 A 
ATOM     51  C   UNL A   1      46.728  25.589  26.028  1.00  0.00    -0.014 A 
BRANCH  51  52
ATOM     52  C   UNL A   1      48.119  26.243  26.318  1.00  0.00     0.031 A 
ATOM     53  C   UNL A   1      48.494  26.634  24.618  1.00  0.00     0.074 A 
ATOM     54  C   UNL A   1      48.790  26.719  27.679  1.00  0.00     0.049 A 
ATOM     55  N   UNL A   1      48.879  27.757  24.053  1.00  0.00    -0.248 NA
ATOM     56  C   UNL A   1      48.479  25.589  23.584  1.00  0.00     0.031 C 
ATOM     57  C   UNL A   1      49.686  28.099  28.120  1.00  0.00     0.029 A 
ATOM     58  N   UNL A   1      48.912  26.267  29.018  1.00  0.00    -0.354 N 
ATOM     59  C   UNL A   1      49.738  27.487  23.024  1.00  0.00     0.074 A 
ATOM     60  C   UNL A   1      49.214  26.169  22.612  1.00  0.00     0.031 C 
ATOM     61  C   UNL A   1      49.709  28.389  29.403  1.00  0.00     0.029 A 
ATOM     62  C   UNL A   1      49.512  27.113  29.957  1.00  0.00     0.049 A 
ATOM     63  H   UNL A   1      48.583  25.378  29.280  1.00  0.00     0.167 HD
ATOM     64  C   UNL A   1      51.073  27.925  22.940  1.00  0.00     0.037 A 
ATOM     65  C   UNL A   1      50.495  26.792  30.814  1.00  0.00     0.037 A 
ATOM     66  C   UNL A   1      51.904  28.383  24.161  1.00  0.00     0.049 A 
ATOM     67  C   UNL A   1      51.886  26.835  30.132  1.00  0.00     0.074 A 
ATOM     68  C   UNL A   1      51.954  29.537  24.946  1.00  0.00     0.029 A 
ATOM     69  N   UNL A   1      52.982  27.618  24.748  1.00  0.00    -0.354 N 
ATOM     70  N   UNL A   1      52.141  27.347  28.928  1.00  0.00    -0.248 NA
ATOM     71  C   UNL A   1      53.103  26.314  30.729  1.00  0.00     0.031 C 
ATOM     72  C   UNL A   1      52.735  29.309  26.142  1.00  0.00     0.029 A 
ATOM     73  C   UNL A   1      53.250  28.021  26.125  1.00  0.00     0.049 A 
ATOM     74  H   UNL A   1      53.476  26.910  24.274  1.00  0.00     0.167 HD
ATOM     75  C   UNL A   1      53.414  27.033  28.493  1.00  0.00     0.074 A 
ATOM     76  C   UNL A   1      53.990  26.471  29.725  1.00  0.00     0.031 C 
ATOM     77  C   UNL A   1      53.904  27.126  27.182  1.00  0.00     0.037 A 
BRANCH  64  78
ATOM     78  C   UNL A   1      51.430  28.455  21.554  1.00  0.00     0.057 A 
ATOM     79  C   UNL A   1      51.730  27.558  20.509  1.00  0.00     0.134 A 
ATOM     80  C   UNL A   1      51.602  29.811  21.221  1.00  0.00     0.134 A 
ATOM     81  F   UNL A   1      51.605  26.232  20.652  1.00  0.00    -0.206 F 
ATOM     82  C   UNL A   1      52.206  27.971  19.261  1.00  0.00     0.040 A 
ATOM     83  C   UNL A   1      52.102  30.236  19.983  1.00  0.00     0.040 A 
ATOM     84  F   UNL A   1      51.283  30.800  22.060  1.00  0.00    -0.206 F 
ATOM     85  C   UNL A   1      52.414  29.314  18.999  1.00  0.00     0.006 A 
ENDBRANCH  64  78
BRANCH  65  86
ATOM     86  C   UNL A   1      49.752  26.411  32.046  1.00  0.00     0.057 A 
ATOM     87  C   UNL A   1      49.961  25.077  32.531  1.00  0.00     0.134 A 
ATOM     88  C   UNL A   1      49.513  27.371  33.028  1.00  0.00     0.134 A 
ATOM     89  F   UNL A   1      50.256  24.085  31.668  1.00  0.00    -0.206 F 
ATOM     90  C   UNL A   1      50.114  24.776  33.892  1.00  0.00     0.040 A 
ATOM     91  C   UNL A   1      49.602  27.061  34.400  1.00  0.00     0.040 A 
ATOM     92  F   UNL A   1      49.366  28.656  32.678  1.00  0.00    -0.206 F 
ATOM     93  C   UNL A   1      49.959  25.781  34.833  1.00  0.00     0.006 A 
ENDBRANCH  65  86
BRANCH  77  94
ATOM     94  C   UNL A   1      55.124  26.295  26.790  1.00  0.00     0.057 A 
ATOM     95  C   UNL A   1      55.069  24.976  26.289  1.00  0.00     0.134 A 
ATOM     96  C   UNL A   1      56.412  26.859  26.802  1.00  0.00     0.134 A 
ATOM     97  F   UNL A   1      53.904  24.355  26.050  1.00  0.00    -0.206 F 
ATOM     98  C   UNL A   1      56.212  24.237  25.960  1.00  0.00     0.040 A 
ATOM     99  C   UNL A   1      57.553  26.160  26.391  1.00  0.00     0.040 A 
ATOM    100  F   UNL A   1      56.616  28.126  27.187  1.00  0.00    -0.206 F 
ATOM    101  C   UNL A   1      57.462  24.832  26.003  1.00  0.00     0.006 A 
ENDBRANCH  77  94
ENDBRANCH  51  52
ENDBRANCH  44  46
ENDBRANCH  43  44
ENDBRANCH  42  43
ENDBRANCH  41  42
ENDBRANCH  40  41
ENDBRANCH  39  40
ENDBRANCH   1  39
TORSDOF 22
ENDMDL
