MODEL 1
REMARK VINA RESULT:     -12.2      0.000      0.000
REMARK SMILES CC1=Nc2c(c(C)nn2-c2ccc(F)cc2)[C@H](c2ccc(C(=O)OCCOCCOCCOC(=O)c3ccc(-c4c5nc(c(-c6c(F)cccc6F)c6ccc([nH]6)c(-c6c(F)cccc6F)c6nc(c(-c7c(F)cccc7F)c7ccc4[nH]7)C=C6)C=C5)cc3)cc2)S1
REMARK SMILES IDX 28 1 27 2 26 3 25 4 24 5 22 6 23 7 21 8 18 9 19 10 91 11
REMARK SMILES IDX 20 12 90 13 17 14 1 15 2 16 3 17 92 18 4 19 5 20 9 21 6 22
REMARK SMILES IDX 8 23 7 24 10 25 11 26 16 27 12 28 15 29 13 30 14 31 29 32
REMARK SMILES IDX 30 33 31 34 32 35 33 36 34 37 35 38 36 39 37 40 89 41 38 42
REMARK SMILES IDX 88 43 39 44 40 45 41 46 82 47 42 48 87 49 81 50 83 51 43 52
REMARK SMILES IDX 86 53 80 54 79 55 44 57 70 58 53 59 69 60 54 61 57 62 68 63
REMARK SMILES IDX 84 64 55 65 56 66 67 68 85 69 58 70 45 71 46 72 51 73 47 74
REMARK SMILES IDX 48 75 50 76 52 77 49 78 71 79 72 80 77 81 73 82 74 83 76 84
REMARK SMILES IDX 78 85 75 86 59 87 60 88 65 89 61 90 62 91 64 92 66 93 63 94
REMARK H PARENT 83 56 57 67
REMARK Flexibility Score: inf
ROOT
ATOM      1  C   UNL A   1      34.106  31.774  28.416  1.00  0.00     0.188 C 
ENDROOT
BRANCH   1   2
ATOM      2  O   UNL A   1      33.987  30.965  27.255  1.00  0.00    -0.376 OA
BRANCH   2   3
ATOM      3  C   UNL A   1      32.698  30.374  27.076  1.00  0.00     0.202 C 
BRANCH   3   4
ATOM      4  C   UNL A   1      32.000  30.734  25.754  1.00  0.00     0.261 C 
BRANCH   4   5
ATOM      5  O   UNL A   1      30.905  29.869  25.408  1.00  0.00    -0.460 OA
BRANCH   5   6
ATOM      6  C   UNL A   1      31.075  29.080  24.323  1.00  0.00     0.338 C 
ATOM      7  O   UNL A   1      30.838  29.396  23.170  1.00  0.00    -0.246 OA
BRANCH   6   8
ATOM      8  C   UNL A   1      31.746  27.808  24.713  1.00  0.00     0.060 A 
ATOM      9  C   UNL A   1      32.954  25.383  25.579  1.00  0.00    -0.030 A 
ATOM     10  C   UNL A   1      31.890  25.972  26.292  1.00  0.00     0.006 A 
ATOM     11  C   UNL A   1      33.358  26.011  24.385  1.00  0.00     0.006 A 
ATOM     12  C   UNL A   1      31.293  27.163  25.866  1.00  0.00     0.016 A 
ATOM     13  C   UNL A   1      32.772  27.219  23.964  1.00  0.00     0.016 A 
BRANCH   9  14
ATOM     14  C   UNL A   1      33.659  24.173  26.182  1.00  0.00     0.119 C 
ATOM     15  C   UNL A   1      37.000  23.236  23.900  1.00  0.00     0.075 C 
ATOM     16  C   UNL A   1      35.693  23.085  24.631  1.00  0.00     0.074 C 
ATOM     17  N   UNL A   1      34.897  22.134  24.259  1.00  0.00    -0.227 NA
ATOM     18  S   UNL A   1      35.470  24.196  25.974  1.00  0.00    -0.098 SA
ATOM     19  C   UNL A   1      33.698  22.020  24.876  1.00  0.00     0.161 A 
ATOM     20  C   UNL A   1      33.038  22.923  25.682  1.00  0.00     0.038 A 
ATOM     21  N   UNL A   1      32.866  20.912  24.755  1.00  0.00    -0.215 N 
ATOM     22  C   UNL A   1      31.792  22.306  25.964  1.00  0.00     0.067 A 
ATOM     23  N   UNL A   1      31.645  21.151  25.303  1.00  0.00    -0.171 NA
ATOM     24  C   UNL A   1      30.707  22.768  26.866  1.00  0.00     0.069 C 
BRANCH  21  25
ATOM     25  C   UNL A   1      33.181  19.631  24.227  1.00  0.00     0.067 A 
ATOM     26  C   UNL A   1      32.421  19.090  23.176  1.00  0.00     0.031 A 
ATOM     27  C   UNL A   1      34.274  18.918  24.739  1.00  0.00     0.031 A 
ATOM     28  C   UNL A   1      32.747  17.837  22.654  1.00  0.00     0.041 A 
ATOM     29  C   UNL A   1      34.564  17.645  24.241  1.00  0.00     0.041 A 
ATOM     30  C   UNL A   1      33.802  17.118  23.202  1.00  0.00     0.123 A 
ATOM     31  F   UNL A   1      34.090  15.902  22.720  1.00  0.00    -0.207 F 
ENDBRANCH  21  25
ENDBRANCH   9  14
ENDBRANCH   6   8
ENDBRANCH   5   6
ENDBRANCH   4   5
ENDBRANCH   3   4
ENDBRANCH   2   3
ENDBRANCH   1   2
BRANCH   1  32
ATOM     32  C   UNL A   1      34.333  33.278  28.166  1.00  0.00     0.188 C 
BRANCH  32  33
ATOM     33  O   UNL A   1      33.265  34.146  27.809  1.00  0.00    -0.376 OA
BRANCH  33  34
ATOM     34  C   UNL A   1      32.953  35.278  28.610  1.00  0.00     0.202 C 
BRANCH  34  35
ATOM     35  C   UNL A   1      33.567  35.417  29.999  1.00  0.00     0.261 C 
BRANCH  35  36
ATOM     36  O   UNL A   1      32.718  34.983  31.055  1.00  0.00    -0.460 OA
BRANCH  36  37
ATOM     37  C   UNL A   1      33.083  35.440  32.274  1.00  0.00     0.338 C 
ATOM     38  O   UNL A   1      32.599  36.380  32.881  1.00  0.00    -0.246 OA
BRANCH  37  39
ATOM     39  C   UNL A   1      34.225  34.663  32.779  1.00  0.00     0.060 A 
ATOM     40  C   UNL A   1      35.394  35.377  33.058  1.00  0.00     0.016 A 
ATOM     41  C   UNL A   1      34.212  33.261  32.766  1.00  0.00     0.016 A 
ATOM     42  C   UNL A   1      36.593  34.695  33.130  1.00  0.00     0.010 A 
ATOM     43  C   UNL A   1      35.413  32.578  32.834  1.00  0.00     0.010 A 
ATOM     44  C   UNL A   1      36.597  33.312  32.925  1.00  0.00    -0.014 A 
BRANCH  44  45
ATOM     45  C   UNL A   1      37.882  32.691  32.655  1.00  0.00     0.031 A 
ATOM     46  C   UNL A   1      38.886  32.676  33.740  1.00  0.00     0.074 A 
ATOM     47  C   UNL A   1      38.126  32.078  31.481  1.00  0.00     0.049 A 
ATOM     48  N   UNL A   1      40.083  33.165  33.725  1.00  0.00    -0.248 NA
ATOM     49  C   UNL A   1      38.500  32.042  35.006  1.00  0.00     0.031 C 
ATOM     50  C   UNL A   1      37.159  31.728  30.438  1.00  0.00     0.029 A 
ATOM     51  N   UNL A   1      39.293  31.540  31.025  1.00  0.00    -0.354 N 
ATOM     52  C   UNL A   1      40.665  32.768  34.921  1.00  0.00     0.074 A 
ATOM     53  C   UNL A   1      39.626  32.153  35.710  1.00  0.00     0.031 C 
ATOM     54  C   UNL A   1      37.736  30.862  29.577  1.00  0.00     0.029 A 
ATOM     55  C   UNL A   1      39.134  30.696  29.940  1.00  0.00     0.049 A 
ATOM     56  H   UNL A   1      40.169  31.734  31.432  1.00  0.00     0.167 HD
ATOM     57  C   UNL A   1      42.007  32.805  35.132  1.00  0.00     0.037 A 
ATOM     58  C   UNL A   1      40.066  29.862  29.427  1.00  0.00     0.037 A 
ATOM     59  C   UNL A   1      42.702  33.643  34.199  1.00  0.00     0.049 A 
ATOM     60  C   UNL A   1      41.401  30.321  29.880  1.00  0.00     0.074 A 
ATOM     61  C   UNL A   1      42.667  34.986  33.881  1.00  0.00     0.029 A 
ATOM     62  N   UNL A   1      43.422  33.042  33.199  1.00  0.00    -0.354 N 
ATOM     63  N   UNL A   1      42.001  31.400  29.465  1.00  0.00    -0.248 NA
ATOM     64  C   UNL A   1      41.969  29.716  31.076  1.00  0.00     0.031 C 
ATOM     65  C   UNL A   1      42.990  35.058  32.496  1.00  0.00     0.029 A 
ATOM     66  C   UNL A   1      43.193  33.753  32.049  1.00  0.00     0.049 A 
ATOM     67  H   UNL A   1      43.998  32.248  33.291  1.00  0.00     0.167 HD
ATOM     68  C   UNL A   1      42.753  31.829  30.549  1.00  0.00     0.074 A 
ATOM     69  C   UNL A   1      42.806  30.685  31.449  1.00  0.00     0.031 C 
ATOM     70  C   UNL A   1      43.022  33.152  30.745  1.00  0.00     0.037 A 
BRANCH  57  71
ATOM     71  C   UNL A   1      42.713  31.844  36.038  1.00  0.00     0.057 A 
ATOM     72  C   UNL A   1      42.868  30.480  35.722  1.00  0.00     0.134 A 
ATOM     73  C   UNL A   1      43.462  32.308  37.128  1.00  0.00     0.134 A 
ATOM     74  F   UNL A   1      42.311  29.946  34.625  1.00  0.00    -0.206 F 
ATOM     75  C   UNL A   1      43.673  29.620  36.471  1.00  0.00     0.040 A 
ATOM     76  C   UNL A   1      44.309  31.467  37.858  1.00  0.00     0.040 A 
ATOM     77  F   UNL A   1      43.433  33.602  37.478  1.00  0.00    -0.206 F 
ATOM     78  C   UNL A   1      44.410  30.117  37.536  1.00  0.00     0.006 A 
ENDBRANCH  57  71
BRANCH  58  79
ATOM     79  C   UNL A   1      39.863  28.554  28.763  1.00  0.00     0.057 A 
ATOM     80  C   UNL A   1      39.371  27.434  29.458  1.00  0.00     0.134 A 
ATOM     81  C   UNL A   1      40.383  28.305  27.487  1.00  0.00     0.134 A 
ATOM     82  F   UNL A   1      38.933  27.533  30.720  1.00  0.00    -0.206 F 
ATOM     83  C   UNL A   1      39.393  26.146  28.915  1.00  0.00     0.040 A 
ATOM     84  C   UNL A   1      40.427  27.017  26.938  1.00  0.00     0.040 A 
ATOM     85  F   UNL A   1      40.919  29.297  26.762  1.00  0.00    -0.206 F 
ATOM     86  C   UNL A   1      39.935  25.931  27.656  1.00  0.00     0.006 A 
ENDBRANCH  58  79
BRANCH  70  87
ATOM     87  C   UNL A   1      42.813  34.087  29.590  1.00  0.00     0.057 A 
ATOM     88  C   UNL A   1      43.910  34.434  28.792  1.00  0.00     0.134 A 
ATOM     89  C   UNL A   1      41.605  34.755  29.339  1.00  0.00     0.134 A 
ATOM     90  F   UNL A   1      45.112  33.879  29.015  1.00  0.00    -0.206 F 
ATOM     91  C   UNL A   1      43.811  35.391  27.779  1.00  0.00     0.040 A 
ATOM     92  C   UNL A   1      41.485  35.690  28.307  1.00  0.00     0.040 A 
ATOM     93  F   UNL A   1      40.533  34.562  30.119  1.00  0.00    -0.206 F 
ATOM     94  C   UNL A   1      42.592  36.014  27.526  1.00  0.00     0.006 A 
ENDBRANCH  70  87
ENDBRANCH  44  45
ENDBRANCH  37  39
ENDBRANCH  36  37
ENDBRANCH  35  36
ENDBRANCH  34  35
ENDBRANCH  33  34
ENDBRANCH  32  33
ENDBRANCH   1  32
TORSDOF 19
ENDMDL
MODEL 2
REMARK VINA RESULT:     -11.6      5.160     10.123
REMARK SMILES CC1=Nc2c(c(C)nn2-c2ccc(F)cc2)[C@H](c2ccc(C(=O)OCCOCCOCCOC(=O)c3ccc(-c4c5nc(c(-c6c(F)cccc6F)c6ccc([nH]6)c(-c6c(F)cccc6F)c6nc(c(-c7c(F)cccc7F)c7ccc4[nH]7)C=C6)C=C5)cc3)cc2)S1
REMARK SMILES IDX 28 1 27 2 26 3 25 4 24 5 22 6 23 7 21 8 18 9 19 10 91 11
REMARK SMILES IDX 20 12 90 13 17 14 1 15 2 16 3 17 92 18 4 19 5 20 9 21 6 22
REMARK SMILES IDX 8 23 7 24 10 25 11 26 16 27 12 28 15 29 13 30 14 31 29 32
REMARK SMILES IDX 30 33 31 34 32 35 33 36 34 37 35 38 36 39 37 40 89 41 38 42
REMARK SMILES IDX 88 43 39 44 40 45 41 46 82 47 42 48 87 49 81 50 83 51 43 52
REMARK SMILES IDX 86 53 80 54 79 55 44 57 70 58 53 59 69 60 54 61 57 62 68 63
REMARK SMILES IDX 84 64 55 65 56 66 67 68 85 69 58 70 45 71 46 72 51 73 47 74
REMARK SMILES IDX 48 75 50 76 52 77 49 78 71 79 72 80 77 81 73 82 74 83 76 84
REMARK SMILES IDX 78 85 75 86 59 87 60 88 65 89 61 90 62 91 64 92 66 93 63 94
REMARK H PARENT 83 56 57 67
REMARK Flexibility Score: inf
ROOT
ATOM      1  C   UNL A   1      42.146  19.711  27.421  1.00  0.00     0.188 C 
ENDROOT
BRANCH   1   2
ATOM      2  O   UNL A   1      40.798  20.088  27.662  1.00  0.00    -0.376 OA
BRANCH   2   3
ATOM      3  C   UNL A   1      40.521  21.470  27.427  1.00  0.00     0.202 C 
BRANCH   3   4
ATOM      4  C   UNL A   1      39.884  21.779  26.062  1.00  0.00     0.261 C 
BRANCH   4   5
ATOM      5  O   UNL A   1      38.448  21.847  26.081  1.00  0.00    -0.460 OA
BRANCH   5   6
ATOM      6  C   UNL A   1      37.901  23.083  26.130  1.00  0.00     0.338 C 
ATOM      7  O   UNL A   1      38.446  24.085  26.558  1.00  0.00    -0.246 OA
BRANCH   6   8
ATOM      8  C   UNL A   1      36.581  23.088  25.439  1.00  0.00     0.060 A 
ATOM      9  C   UNL A   1      34.056  23.238  24.138  1.00  0.00    -0.030 A 
ATOM     10  C   UNL A   1      34.778  24.399  24.479  1.00  0.00     0.006 A 
ATOM     11  C   UNL A   1      34.660  21.996  24.413  1.00  0.00     0.006 A 
ATOM     12  C   UNL A   1      36.022  24.327  25.117  1.00  0.00     0.016 A 
ATOM     13  C   UNL A   1      35.902  21.920  25.071  1.00  0.00     0.016 A 
BRANCH   9  14
ATOM     14  C   UNL A   1      32.642  23.390  23.588  1.00  0.00     0.119 C 
ATOM     15  C   UNL A   1      32.780  25.381  19.946  1.00  0.00     0.075 C 
ATOM     16  C   UNL A   1      32.402  25.037  21.361  1.00  0.00     0.074 C 
ATOM     17  N   UNL A   1      31.952  25.988  22.117  1.00  0.00    -0.227 NA
ATOM     18  S   UNL A   1      32.550  23.334  21.768  1.00  0.00    -0.098 SA
ATOM     19  C   UNL A   1      31.657  25.701  23.406  1.00  0.00     0.161 A 
ATOM     20  C   UNL A   1      32.003  24.599  24.160  1.00  0.00     0.038 A 
ATOM     21  N   UNL A   1      30.940  26.548  24.244  1.00  0.00    -0.215 N 
ATOM     22  C   UNL A   1      31.502  24.882  25.456  1.00  0.00     0.067 A 
ATOM     23  N   UNL A   1      30.972  26.110  25.531  1.00  0.00    -0.171 NA
ATOM     24  C   UNL A   1      31.491  24.014  26.660  1.00  0.00     0.069 C 
BRANCH  21  25
ATOM     25  C   UNL A   1      30.172  27.690  23.890  1.00  0.00     0.067 A 
ATOM     26  C   UNL A   1      28.885  27.540  23.348  1.00  0.00     0.031 A 
ATOM     27  C   UNL A   1      30.692  28.973  24.112  1.00  0.00     0.031 A 
ATOM     28  C   UNL A   1      28.132  28.668  23.016  1.00  0.00     0.041 A 
ATOM     29  C   UNL A   1      29.950  30.095  23.735  1.00  0.00     0.041 A 
ATOM     30  C   UNL A   1      28.677  29.933  23.195  1.00  0.00     0.123 A 
ATOM     31  F   UNL A   1      27.964  31.012  22.845  1.00  0.00    -0.207 F 
ENDBRANCH  21  25
ENDBRANCH   9  14
ENDBRANCH   6   8
ENDBRANCH   5   6
ENDBRANCH   4   5
ENDBRANCH   3   4
ENDBRANCH   2   3
ENDBRANCH   1   2
BRANCH   1  32
ATOM     32  C   UNL A   1      42.387  18.835  26.176  1.00  0.00     0.188 C 
BRANCH  32  33
ATOM     33  O   UNL A   1      42.945  19.371  24.982  1.00  0.00    -0.376 OA
BRANCH  33  34
ATOM     34  C   UNL A   1      44.300  19.117  24.639  1.00  0.00     0.202 C 
BRANCH  34  35
ATOM     35  C   UNL A   1      45.410  19.960  25.257  1.00  0.00     0.261 C 
BRANCH  35  36
ATOM     36  O   UNL A   1      45.873  21.013  24.420  1.00  0.00    -0.460 OA
BRANCH  36  37
ATOM     37  C   UNL A   1      44.922  21.922  24.107  1.00  0.00     0.338 C 
ATOM     38  O   UNL A   1      44.476  22.166  22.999  1.00  0.00    -0.246 OA
BRANCH  37  39
ATOM     39  C   UNL A   1      44.510  22.653  25.316  1.00  0.00     0.060 A 
ATOM     40  C   UNL A   1      43.199  23.135  25.339  1.00  0.00     0.016 A 
ATOM     41  C   UNL A   1      45.446  23.036  26.287  1.00  0.00     0.016 A 
ATOM     42  C   UNL A   1      42.875  24.152  26.215  1.00  0.00     0.010 A 
ATOM     43  C   UNL A   1      45.124  24.058  27.162  1.00  0.00     0.010 A 
ATOM     44  C   UNL A   1      43.870  24.663  27.053  1.00  0.00    -0.014 A 
BRANCH  44  45
ATOM     45  C   UNL A   1      43.602  25.941  27.690  1.00  0.00     0.031 A 
ATOM     46  C   UNL A   1      44.612  27.011  27.551  1.00  0.00     0.074 A 
ATOM     47  C   UNL A   1      42.435  26.172  28.321  1.00  0.00     0.049 A 
ATOM     48  N   UNL A   1      45.237  27.644  28.489  1.00  0.00    -0.248 NA
ATOM     49  C   UNL A   1      44.978  27.419  26.189  1.00  0.00     0.031 C 
ATOM     50  C   UNL A   1      41.220  25.354  28.282  1.00  0.00     0.029 A 
ATOM     51  N   UNL A   1      42.061  27.261  29.051  1.00  0.00    -0.354 N 
ATOM     52  C   UNL A   1      45.963  28.640  27.851  1.00  0.00     0.074 A 
ATOM     53  C   UNL A   1      45.837  28.407  26.432  1.00  0.00     0.031 C 
ATOM     54  C   UNL A   1      40.191  26.072  28.782  1.00  0.00     0.029 A 
ATOM     55  C   UNL A   1      40.698  27.341  29.280  1.00  0.00     0.049 A 
ATOM     56  H   UNL A   1      42.702  27.931  29.384  1.00  0.00     0.167 HD
ATOM     57  C   UNL A   1      46.483  29.707  28.512  1.00  0.00     0.037 A 
ATOM     58  C   UNL A   1      40.026  28.407  29.771  1.00  0.00     0.037 A 
ATOM     59  C   UNL A   1      46.567  29.507  29.929  1.00  0.00     0.049 A 
ATOM     60  C   UNL A   1      40.995  29.287  30.466  1.00  0.00     0.074 A 
ATOM     61  C   UNL A   1      47.227  28.616  30.750  1.00  0.00     0.029 A 
ATOM     62  N   UNL A   1      45.653  30.145  30.728  1.00  0.00    -0.354 N 
ATOM     63  N   UNL A   1      41.577  29.012  31.599  1.00  0.00    -0.248 NA
ATOM     64  C   UNL A   1      41.578  30.393  29.721  1.00  0.00     0.031 C 
ATOM     65  C   UNL A   1      46.388  28.455  31.890  1.00  0.00     0.029 A 
ATOM     66  C   UNL A   1      45.260  29.250  31.690  1.00  0.00     0.049 A 
ATOM     67  H   UNL A   1      45.339  31.073  30.630  1.00  0.00     0.167 HD
ATOM     68  C   UNL A   1      42.816  29.630  31.521  1.00  0.00     0.074 A 
ATOM     69  C   UNL A   1      42.701  30.574  30.419  1.00  0.00     0.031 C 
ATOM     70  C   UNL A   1      43.902  29.120  32.171  1.00  0.00     0.037 A 
BRANCH  57  71
ATOM     71  C   UNL A   1      46.662  31.049  27.872  1.00  0.00     0.057 A 
ATOM     72  C   UNL A   1      47.920  31.530  27.458  1.00  0.00     0.134 A 
ATOM     73  C   UNL A   1      45.553  31.787  27.436  1.00  0.00     0.134 A 
ATOM     74  F   UNL A   1      49.047  30.842  27.696  1.00  0.00    -0.206 F 
ATOM     75  C   UNL A   1      48.071  32.694  26.704  1.00  0.00     0.040 A 
ATOM     76  C   UNL A   1      45.688  32.931  26.641  1.00  0.00     0.040 A 
ATOM     77  F   UNL A   1      44.306  31.386  27.725  1.00  0.00    -0.206 F 
ATOM     78  C   UNL A   1      46.950  33.392  26.280  1.00  0.00     0.006 A 
ENDBRANCH  57  71
BRANCH  58  79
ATOM     79  C   UNL A   1      38.639  28.833  29.477  1.00  0.00     0.057 A 
ATOM     80  C   UNL A   1      38.274  29.372  28.229  1.00  0.00     0.134 A 
ATOM     81  C   UNL A   1      37.689  28.954  30.500  1.00  0.00     0.134 A 
ATOM     82  F   UNL A   1      39.133  29.395  27.202  1.00  0.00    -0.206 F 
ATOM     83  C   UNL A   1      37.038  29.989  28.012  1.00  0.00     0.040 A 
ATOM     84  C   UNL A   1      36.455  29.586  30.300  1.00  0.00     0.040 A 
ATOM     85  F   UNL A   1      37.960  28.516  31.738  1.00  0.00    -0.206 F 
ATOM     86  C   UNL A   1      36.129  30.111  29.053  1.00  0.00     0.006 A 
ENDBRANCH  58  79
BRANCH  70  87
ATOM     87  C   UNL A   1      43.661  28.109  33.254  1.00  0.00     0.057 A 
ATOM     88  C   UNL A   1      43.656  28.533  34.588  1.00  0.00     0.134 A 
ATOM     89  C   UNL A   1      43.577  26.728  33.022  1.00  0.00     0.134 A 
ATOM     90  F   UNL A   1      43.794  29.836  34.885  1.00  0.00    -0.206 F 
ATOM     91  C   UNL A   1      43.558  27.629  35.648  1.00  0.00     0.040 A 
ATOM     92  C   UNL A   1      43.445  25.816  34.074  1.00  0.00     0.040 A 
ATOM     93  F   UNL A   1      43.677  26.227  31.784  1.00  0.00    -0.206 F 
ATOM     94  C   UNL A   1      43.440  26.265  35.391  1.00  0.00     0.006 A 
ENDBRANCH  70  87
ENDBRANCH  44  45
ENDBRANCH  37  39
ENDBRANCH  36  37
ENDBRANCH  35  36
ENDBRANCH  34  35
ENDBRANCH  33  34
ENDBRANCH  32  33
ENDBRANCH   1  32
TORSDOF 19
ENDMDL
MODEL 3
REMARK VINA RESULT:     -11.4      5.467     10.433
REMARK SMILES CC1=Nc2c(c(C)nn2-c2ccc(F)cc2)[C@H](c2ccc(C(=O)OCCOCCOCCOC(=O)c3ccc(-c4c5nc(c(-c6c(F)cccc6F)c6ccc([nH]6)c(-c6c(F)cccc6F)c6nc(c(-c7c(F)cccc7F)c7ccc4[nH]7)C=C6)C=C5)cc3)cc2)S1
REMARK SMILES IDX 28 1 27 2 26 3 25 4 24 5 22 6 23 7 21 8 18 9 19 10 91 11
REMARK SMILES IDX 20 12 90 13 17 14 1 15 2 16 3 17 92 18 4 19 5 20 9 21 6 22
REMARK SMILES IDX 8 23 7 24 10 25 11 26 16 27 12 28 15 29 13 30 14 31 29 32
REMARK SMILES IDX 30 33 31 34 32 35 33 36 34 37 35 38 36 39 37 40 89 41 38 42
REMARK SMILES IDX 88 43 39 44 40 45 41 46 82 47 42 48 87 49 81 50 83 51 43 52
REMARK SMILES IDX 86 53 80 54 79 55 44 57 70 58 53 59 69 60 54 61 57 62 68 63
REMARK SMILES IDX 84 64 55 65 56 66 67 68 85 69 58 70 45 71 46 72 51 73 47 74
REMARK SMILES IDX 48 75 50 76 52 77 49 78 71 79 72 80 77 81 73 82 74 83 76 84
REMARK SMILES IDX 78 85 75 86 59 87 60 88 65 89 61 90 62 91 64 92 66 93 63 94
REMARK H PARENT 83 56 57 67
REMARK Flexibility Score: inf
ROOT
ATOM      1  C   UNL A   1      38.438  21.836  25.688  1.00  0.00     0.188 C 
ENDROOT
BRANCH   1   2
ATOM      2  O   UNL A   1      37.530  21.531  24.639  1.00  0.00    -0.376 OA
BRANCH   2   3
ATOM      3  C   UNL A   1      36.585  20.507  24.956  1.00  0.00     0.202 C 
BRANCH   3   4
ATOM      4  C   UNL A   1      35.221  21.017  25.451  1.00  0.00     0.261 C 
BRANCH   4   5
ATOM      5  O   UNL A   1      34.164  20.045  25.379  1.00  0.00    -0.460 OA
BRANCH   5   6
ATOM      6  C   UNL A   1      33.334  20.130  24.315  1.00  0.00     0.338 C 
ATOM      7  O   UNL A   1      32.888  19.188  23.684  1.00  0.00    -0.246 OA
BRANCH   6   8
ATOM      8  C   UNL A   1      32.908  21.543  24.108  1.00  0.00     0.060 A 
ATOM      9  C   UNL A   1      31.979  24.212  23.791  1.00  0.00    -0.030 A 
ATOM     10  C   UNL A   1      31.358  23.318  24.686  1.00  0.00     0.006 A 
ATOM     11  C   UNL A   1      33.117  23.751  23.102  1.00  0.00     0.006 A 
ATOM     12  C   UNL A   1      31.815  22.005  24.845  1.00  0.00     0.016 A 
ATOM     13  C   UNL A   1      33.568  22.426  23.245  1.00  0.00     0.016 A 
BRANCH   9  14
ATOM     14  C   UNL A   1      31.336  25.575  23.553  1.00  0.00     0.119 C 
ATOM     15  C   UNL A   1      34.098  28.118  21.777  1.00  0.00     0.075 C 
ATOM     16  C   UNL A   1      33.076  27.587  22.746  1.00  0.00     0.074 C 
ATOM     17  N   UNL A   1      33.075  28.066  23.949  1.00  0.00    -0.227 NA
ATOM     18  S   UNL A   1      31.948  26.427  22.062  1.00  0.00    -0.098 SA
ATOM     19  C   UNL A   1      32.194  27.560  24.843  1.00  0.00     0.161 A 
ATOM     20  C   UNL A   1      31.442  26.406  24.775  1.00  0.00     0.038 A 
ATOM     21  N   UNL A   1      31.916  28.145  26.074  1.00  0.00    -0.215 N 
ATOM     22  C   UNL A   1      30.777  26.339  26.027  1.00  0.00     0.067 A 
ATOM     23  N   UNL A   1      31.162  27.323  26.851  1.00  0.00    -0.171 NA
ATOM     24  C   UNL A   1      29.756  25.366  26.488  1.00  0.00     0.069 C 
BRANCH  21  25
ATOM     25  C   UNL A   1      32.254  29.450  26.522  1.00  0.00     0.067 A 
ATOM     26  C   UNL A   1      31.406  30.536  26.248  1.00  0.00     0.031 A 
ATOM     27  C   UNL A   1      33.425  29.648  27.267  1.00  0.00     0.031 A 
ATOM     28  C   UNL A   1      31.738  31.813  26.705  1.00  0.00     0.041 A 
ATOM     29  C   UNL A   1      33.773  30.937  27.680  1.00  0.00     0.041 A 
ATOM     30  C   UNL A   1      32.926  32.005  27.399  1.00  0.00     0.123 A 
ATOM     31  F   UNL A   1      33.257  33.238  27.807  1.00  0.00    -0.207 F 
ENDBRANCH  21  25
ENDBRANCH   9  14
ENDBRANCH   6   8
ENDBRANCH   5   6
ENDBRANCH   4   5
ENDBRANCH   3   4
ENDBRANCH   2   3
ENDBRANCH   1   2
BRANCH   1  32
ATOM     32  C   UNL A   1      39.543  20.792  25.944  1.00  0.00     0.188 C 
BRANCH  32  33
ATOM     33  O   UNL A   1      40.814  21.162  26.465  1.00  0.00    -0.376 OA
BRANCH  33  34
ATOM     34  C   UNL A   1      41.583  20.238  27.222  1.00  0.00     0.202 C 
BRANCH  34  35
ATOM     35  C   UNL A   1      42.560  19.304  26.515  1.00  0.00     0.261 C 
BRANCH  35  36
ATOM     36  O   UNL A   1      42.881  19.698  25.187  1.00  0.00    -0.460 OA
BRANCH  36  37
ATOM     37  C   UNL A   1      44.183  20.018  25.010  1.00  0.00     0.338 C 
ATOM     38  O   UNL A   1      45.111  19.247  24.838  1.00  0.00    -0.246 OA
BRANCH  37  39
ATOM     39  C   UNL A   1      44.359  21.475  25.108  1.00  0.00     0.060 A 
ATOM     40  C   UNL A   1      45.414  21.926  25.907  1.00  0.00     0.016 A 
ATOM     41  C   UNL A   1      43.390  22.358  24.613  1.00  0.00     0.016 A 
ATOM     42  C   UNL A   1      45.392  23.225  26.373  1.00  0.00     0.010 A 
ATOM     43  C   UNL A   1      43.364  23.659  25.083  1.00  0.00     0.010 A 
ATOM     44  C   UNL A   1      44.316  24.048  26.028  1.00  0.00    -0.014 A 
BRANCH  44  45
ATOM     45  C   UNL A   1      44.140  25.262  26.807  1.00  0.00     0.031 A 
ATOM     46  C   UNL A   1      45.183  26.305  26.708  1.00  0.00     0.074 A 
ATOM     47  C   UNL A   1      43.026  25.467  27.535  1.00  0.00     0.049 A 
ATOM     48  N   UNL A   1      45.891  26.817  27.662  1.00  0.00    -0.248 NA
ATOM     49  C   UNL A   1      45.478  26.839  25.373  1.00  0.00     0.031 C 
ATOM     50  C   UNL A   1      41.779  24.699  27.495  1.00  0.00     0.029 A 
ATOM     51  N   UNL A   1      42.743  26.487  28.393  1.00  0.00    -0.354 N 
ATOM     52  C   UNL A   1      46.614  27.849  27.079  1.00  0.00     0.074 A 
ATOM     53  C   UNL A   1      46.390  27.767  25.656  1.00  0.00     0.031 C 
ATOM     54  C   UNL A   1      40.813  25.396  28.133  1.00  0.00     0.029 A 
ATOM     55  C   UNL A   1      41.402  26.589  28.720  1.00  0.00     0.049 A 
ATOM     56  H   UNL A   1      43.431  27.097  28.748  1.00  0.00     0.167 HD
ATOM     57  C   UNL A   1      47.219  28.824  27.808  1.00  0.00     0.037 A 
ATOM     58  C   UNL A   1      40.806  27.620  29.360  1.00  0.00     0.037 A 
ATOM     59  C   UNL A   1      47.383  28.476  29.189  1.00  0.00     0.049 A 
ATOM     60  C   UNL A   1      41.852  28.391  30.074  1.00  0.00     0.074 A 
ATOM     61  C   UNL A   1      48.058  27.482  29.870  1.00  0.00     0.029 A 
ATOM     62  N   UNL A   1      46.549  29.058  30.108  1.00  0.00    -0.354 N 
ATOM     63  N   UNL A   1      42.493  27.981  31.132  1.00  0.00    -0.248 NA
ATOM     64  C   UNL A   1      42.432  29.548  29.406  1.00  0.00     0.031 C 
ATOM     65  C   UNL A   1      47.287  27.233  31.042  1.00  0.00     0.029 A 
ATOM     66  C   UNL A   1      46.181  28.083  30.999  1.00  0.00     0.049 A 
ATOM     67  H   UNL A   1      46.267  30.002  30.125  1.00  0.00     0.167 HD
ATOM     68  C   UNL A   1      43.749  28.561  31.033  1.00  0.00     0.074 A 
ATOM     69  C   UNL A   1      43.603  29.617  30.041  1.00  0.00     0.031 C 
ATOM     70  C   UNL A   1      44.853  27.951  31.554  1.00  0.00     0.037 A 
BRANCH  57  71
ATOM     71  C   UNL A   1      47.411  30.217  27.296  1.00  0.00     0.057 A 
ATOM     72  C   UNL A   1      46.339  31.113  27.112  1.00  0.00     0.134 A 
ATOM     73  C   UNL A   1      48.695  30.774  27.205  1.00  0.00     0.134 A 
ATOM     74  F   UNL A   1      45.067  30.732  27.305  1.00  0.00    -0.206 F 
ATOM     75  C   UNL A   1      46.527  32.461  26.807  1.00  0.00     0.040 A 
ATOM     76  C   UNL A   1      48.897  32.134  26.946  1.00  0.00     0.040 A 
ATOM     77  F   UNL A   1      49.785  30.023  27.420  1.00  0.00    -0.206 F 
ATOM     78  C   UNL A   1      47.812  32.980  26.737  1.00  0.00     0.006 A 
ENDBRANCH  57  71
BRANCH  58  79
ATOM     79  C   UNL A   1      39.422  28.122  29.204  1.00  0.00     0.057 A 
ATOM     80  C   UNL A   1      38.995  28.780  28.036  1.00  0.00     0.134 A 
ATOM     81  C   UNL A   1      38.551  28.189  30.299  1.00  0.00     0.134 A 
ATOM     82  F   UNL A   1      39.782  28.861  26.954  1.00  0.00    -0.206 F 
ATOM     83  C   UNL A   1      37.776  29.460  27.961  1.00  0.00     0.040 A 
ATOM     84  C   UNL A   1      37.335  28.881  30.244  1.00  0.00     0.040 A 
ATOM     85  F   UNL A   1      38.887  27.634  31.473  1.00  0.00    -0.206 F 
ATOM     86  C   UNL A   1      36.946  29.524  29.072  1.00  0.00     0.006 A 
ENDBRANCH  58  79
BRANCH  70  87
ATOM     87  C   UNL A   1      44.639  26.843  32.543  1.00  0.00     0.057 A 
ATOM     88  C   UNL A   1      44.793  27.113  33.909  1.00  0.00     0.134 A 
ATOM     89  C   UNL A   1      44.429  25.505  32.178  1.00  0.00     0.134 A 
ATOM     90  F   UNL A   1      45.056  28.363  34.325  1.00  0.00    -0.206 F 
ATOM     91  C   UNL A   1      44.728  26.104  34.872  1.00  0.00     0.040 A 
ATOM     92  C   UNL A   1      44.330  24.490  33.135  1.00  0.00     0.040 A 
ATOM     93  F   UNL A   1      44.374  25.140  30.890  1.00  0.00    -0.206 F 
ATOM     94  C   UNL A   1      44.484  24.788  34.487  1.00  0.00     0.006 A 
ENDBRANCH  70  87
ENDBRANCH  44  45
ENDBRANCH  37  39
ENDBRANCH  36  37
ENDBRANCH  35  36
ENDBRANCH  34  35
ENDBRANCH  33  34
ENDBRANCH  32  33
ENDBRANCH   1  32
TORSDOF 19
ENDMDL
