MODEL 1
REMARK VINA RESULT:     -10.8      0.000      0.000
REMARK SMILES C[N@H+]1CCO[C@@H](CNS(=O)(=O)N2CCC(C(=O)OCCOCCOCCOC(=O)c3ccc(-c4c5nc(c(-c6c(F)cccc6F)c6ccc([nH]6)c(-c6c(F)cccc6F)c6nc(c(-c7c(F)cccc7F)c7ccc4[nH]7)C=C6)C=C5)cc3)CC2)C1
REMARK SMILES IDX 22 1 21 2 20 3 19 4 18 5 16 6 17 7 15 8 12 9 13 10 85 11
REMARK SMILES IDX 14 12 84 13 9 14 10 15 11 16 8 17 7 19 6 20 1 21 2 22 3 23
REMARK SMILES IDX 86 24 4 26 5 27 23 28 24 29 25 30 26 31 27 32 28 33 29 34
REMARK SMILES IDX 30 35 31 36 83 37 32 38 82 39 33 40 34 41 35 42 76 43 36 44
REMARK SMILES IDX 81 45 75 46 77 47 37 48 80 49 74 50 73 51 38 53 64 54 47 55
REMARK SMILES IDX 63 56 48 57 51 58 62 59 78 60 49 61 50 62 61 64 79 65 52 66
REMARK SMILES IDX 39 67 40 68 45 69 41 70 42 71 44 72 46 73 43 74 65 75 66 76
REMARK SMILES IDX 71 77 67 78 68 79 70 80 72 81 69 82 53 83 54 84 59 85 55 86
REMARK SMILES IDX 56 87 58 88 60 89 57 90
REMARK H PARENT 8 18 2 25 77 52 51 63
REMARK Flexibility Score: inf
ROOT
ATOM      1  C   UNL A   1      41.172  20.881  27.465  1.00  0.00     0.188 C 
ENDROOT
BRANCH   1   2
ATOM      2  O   UNL A   1      39.874  21.347  27.106  1.00  0.00    -0.376 OA
BRANCH   2   3
ATOM      3  C   UNL A   1      39.478  21.347  25.743  1.00  0.00     0.202 C 
BRANCH   3   4
ATOM      4  C   UNL A   1      37.972  21.364  25.430  1.00  0.00     0.261 C 
BRANCH   4   5
ATOM      5  O   UNL A   1      37.476  22.473  24.645  1.00  0.00    -0.463 OA
BRANCH   5   6
ATOM      6  C   UNL A   1      36.826  23.458  25.317  1.00  0.00     0.309 C 
ATOM      7  O   UNL A   1      37.193  23.901  26.401  1.00  0.00    -0.252 OA
BRANCH   6   8
ATOM      8  C   UNL A   1      35.502  23.920  24.677  1.00  0.00     0.102 C 
ATOM      9  N   UNL A   1      32.811  22.893  24.125  1.00  0.00    -0.189 NA
ATOM     10  C   UNL A   1      33.018  23.742  25.298  1.00  0.00     0.104 C 
ATOM     11  C   UNL A   1      33.600  23.402  22.984  1.00  0.00     0.104 C 
ATOM     12  C   UNL A   1      34.460  23.686  25.767  1.00  0.00     0.032 C 
ATOM     13  C   UNL A   1      35.096  23.333  23.309  1.00  0.00     0.032 C 
BRANCH   9  14
ATOM     14  S   UNL A   1      32.549  21.236  24.150  1.00  0.00     0.279 S 
ATOM     15  O   UNL A   1      32.113  20.820  22.842  1.00  0.00    -0.195 OA
ATOM     16  O   UNL A   1      31.732  20.939  25.308  1.00  0.00    -0.195 OA
BRANCH  14  17
ATOM     17  N   UNL A   1      34.049  20.495  24.415  1.00  0.00    -0.199 NA
ATOM     18  H   UNL A   1      34.595  20.564  23.557  1.00  0.00     0.142 HD
BRANCH  17  19
ATOM     19  C   UNL A   1      33.965  19.068  24.796  1.00  0.00     0.138 C 
BRANCH  19  20
ATOM     20  C   UNL A   1      33.220  18.083  23.906  1.00  0.00     0.188 C 
ATOM     21  C   UNL A   1      35.429  16.052  25.302  1.00  0.00     0.332 C 
ATOM     22  N   UNL A   1      34.216  15.815  24.533  1.00  0.00    -0.333 N 
ATOM     23  C   UNL A   1      33.022  15.606  25.372  1.00  0.00     0.290 C 
ATOM     24  C   UNL A   1      33.962  16.810  23.482  1.00  0.00     0.295 C 
ATOM     25  H   UNL A   1      34.405  14.935  24.052  1.00  0.00     0.348 HD
ATOM     26  C   UNL A   1      32.233  16.875  25.736  1.00  0.00     0.222 C 
ATOM     27  O   UNL A   1      31.990  17.709  24.587  1.00  0.00    -0.365 OA
ENDBRANCH  19  20
ENDBRANCH  17  19
ENDBRANCH  14  17
ENDBRANCH   9  14
ENDBRANCH   6   8
ENDBRANCH   5   6
ENDBRANCH   4   5
ENDBRANCH   3   4
ENDBRANCH   2   3
ENDBRANCH   1   2
BRANCH   1  28
ATOM     28  C   UNL A   1      42.273  20.768  26.401  1.00  0.00     0.188 C 
BRANCH  28  29
ATOM     29  O   UNL A   1      43.424  21.526  26.694  1.00  0.00    -0.376 OA
BRANCH  29  30
ATOM     30  C   UNL A   1      44.442  21.536  25.716  1.00  0.00     0.202 C 
BRANCH  30  31
ATOM     31  C   UNL A   1      43.991  22.125  24.374  1.00  0.00     0.261 C 
BRANCH  31  32
ATOM     32  O   UNL A   1      43.507  23.485  24.420  1.00  0.00    -0.460 OA
BRANCH  32  33
ATOM     33  C   UNL A   1      44.333  24.414  24.955  1.00  0.00     0.338 C 
ATOM     34  O   UNL A   1      45.468  24.669  24.594  1.00  0.00    -0.246 OA
BRANCH  33  35
ATOM     35  C   UNL A   1      43.552  25.260  25.897  1.00  0.00     0.060 A 
ATOM     36  C   UNL A   1      43.924  26.604  26.058  1.00  0.00     0.016 A 
ATOM     37  C   UNL A   1      42.472  24.747  26.617  1.00  0.00     0.016 A 
ATOM     38  C   UNL A   1      43.247  27.420  26.969  1.00  0.00     0.010 A 
ATOM     39  C   UNL A   1      41.806  25.563  27.544  1.00  0.00     0.010 A 
ATOM     40  C   UNL A   1      42.213  26.893  27.755  1.00  0.00    -0.014 A 
BRANCH  40  41
ATOM     41  C   UNL A   1      41.693  27.678  28.911  1.00  0.00     0.031 A 
ATOM     42  C   UNL A   1      42.404  27.573  30.237  1.00  0.00     0.074 A 
ATOM     43  C   UNL A   1      40.640  28.508  28.791  1.00  0.00     0.049 A 
ATOM     44  N   UNL A   1      42.137  28.160  31.376  1.00  0.00    -0.248 NA
ATOM     45  C   UNL A   1      43.575  26.685  30.280  1.00  0.00     0.031 C 
ATOM     46  C   UNL A   1      39.877  28.739  27.567  1.00  0.00     0.029 A 
ATOM     47  N   UNL A   1      40.031  29.313  29.724  1.00  0.00    -0.354 N 
ATOM     48  C   UNL A   1      43.102  27.711  32.270  1.00  0.00     0.074 A 
ATOM     49  C   UNL A   1      43.937  26.773  31.550  1.00  0.00     0.031 C 
ATOM     50  C   UNL A   1      38.898  29.623  27.825  1.00  0.00     0.029 A 
ATOM     51  C   UNL A   1      38.945  30.000  29.238  1.00  0.00     0.049 A 
ATOM     52  H   UNL A   1      40.344  29.391  30.654  1.00  0.00     0.167 HD
ATOM     53  C   UNL A   1      43.288  28.052  33.568  1.00  0.00     0.037 A 
ATOM     54  C   UNL A   1      38.079  30.824  29.862  1.00  0.00     0.037 A 
ATOM     55  C   UNL A   1      42.458  28.977  34.296  1.00  0.00     0.049 A 
ATOM     56  C   UNL A   1      38.261  31.132  31.328  1.00  0.00     0.074 A 
ATOM     57  C   UNL A   1      42.580  29.396  35.610  1.00  0.00     0.029 A 
ATOM     58  N   UNL A   1      41.344  29.621  33.778  1.00  0.00    -0.354 N 
ATOM     59  N   UNL A   1      39.196  30.725  32.153  1.00  0.00    -0.248 NA
ATOM     60  C   UNL A   1      37.269  32.025  31.945  1.00  0.00     0.031 C 
ATOM     61  C   UNL A   1      41.506  30.244  35.905  1.00  0.00     0.029 A 
ATOM     62  C   UNL A   1      40.754  30.409  34.754  1.00  0.00     0.049 A 
ATOM     63  H   UNL A   1      41.020  29.530  32.852  1.00  0.00     0.167 HD
ATOM     64  C   UNL A   1      38.922  31.335  33.373  1.00  0.00     0.074 A 
ATOM     65  C   UNL A   1      37.748  32.157  33.173  1.00  0.00     0.031 C 
ATOM     66  C   UNL A   1      39.583  31.225  34.553  1.00  0.00     0.037 A 
BRANCH  53  67
ATOM     67  C   UNL A   1      44.424  27.393  34.300  1.00  0.00     0.057 A 
ATOM     68  C   UNL A   1      44.276  26.160  34.948  1.00  0.00     0.134 A 
ATOM     69  C   UNL A   1      45.693  27.988  34.329  1.00  0.00     0.134 A 
ATOM     70  F   UNL A   1      43.086  25.542  34.971  1.00  0.00    -0.206 F 
ATOM     71  C   UNL A   1      45.341  25.556  35.620  1.00  0.00     0.040 A 
ATOM     72  C   UNL A   1      46.772  27.379  34.971  1.00  0.00     0.040 A 
ATOM     73  F   UNL A   1      45.907  29.167  33.724  1.00  0.00    -0.206 F 
ATOM     74  C   UNL A   1      46.595  26.162  35.626  1.00  0.00     0.006 A 
ENDBRANCH  53  67
BRANCH  54  75
ATOM     75  C   UNL A   1      36.941  31.421  29.113  1.00  0.00     0.057 A 
ATOM     76  C   UNL A   1      36.970  32.753  28.681  1.00  0.00     0.134 A 
ATOM     77  C   UNL A   1      35.777  30.686  28.851  1.00  0.00     0.134 A 
ATOM     78  F   UNL A   1      38.042  33.519  28.928  1.00  0.00    -0.206 F 
ATOM     79  C   UNL A   1      35.877  33.339  28.038  1.00  0.00     0.040 A 
ATOM     80  C   UNL A   1      34.690  31.250  28.180  1.00  0.00     0.040 A 
ATOM     81  F   UNL A   1      35.681  29.407  29.243  1.00  0.00    -0.206 F 
ATOM     82  C   UNL A   1      34.735  32.583  27.780  1.00  0.00     0.006 A 
ENDBRANCH  54  75
BRANCH  66  83
ATOM     83  C   UNL A   1      39.077  32.046  35.708  1.00  0.00     0.057 A 
ATOM     84  C   UNL A   1      38.196  31.525  36.666  1.00  0.00     0.134 A 
ATOM     85  C   UNL A   1      39.481  33.379  35.868  1.00  0.00     0.134 A 
ATOM     86  F   UNL A   1      37.760  30.259  36.573  1.00  0.00    -0.206 F 
ATOM     87  C   UNL A   1      37.701  32.311  37.711  1.00  0.00     0.040 A 
ATOM     88  C   UNL A   1      39.021  34.163  36.927  1.00  0.00     0.040 A 
ATOM     89  F   UNL A   1      40.334  33.942  34.999  1.00  0.00    -0.206 F 
ATOM     90  C   UNL A   1      38.117  33.634  37.845  1.00  0.00     0.006 A 
ENDBRANCH  66  83
ENDBRANCH  40  41
ENDBRANCH  33  35
ENDBRANCH  32  33
ENDBRANCH  31  32
ENDBRANCH  30  31
ENDBRANCH  29  30
ENDBRANCH  28  29
ENDBRANCH   1  28
TORSDOF 21
ENDMDL
MODEL 2
REMARK VINA RESULT:     -10.4      1.762      3.811
REMARK SMILES C[N@H+]1CCO[C@@H](CNS(=O)(=O)N2CCC(C(=O)OCCOCCOCCOC(=O)c3ccc(-c4c5nc(c(-c6c(F)cccc6F)c6ccc([nH]6)c(-c6c(F)cccc6F)c6nc(c(-c7c(F)cccc7F)c7ccc4[nH]7)C=C6)C=C5)cc3)CC2)C1
REMARK SMILES IDX 22 1 21 2 20 3 19 4 18 5 16 6 17 7 15 8 12 9 13 10 85 11
REMARK SMILES IDX 14 12 84 13 9 14 10 15 11 16 8 17 7 19 6 20 1 21 2 22 3 23
REMARK SMILES IDX 86 24 4 26 5 27 23 28 24 29 25 30 26 31 27 32 28 33 29 34
REMARK SMILES IDX 30 35 31 36 83 37 32 38 82 39 33 40 34 41 35 42 76 43 36 44
REMARK SMILES IDX 81 45 75 46 77 47 37 48 80 49 74 50 73 51 38 53 64 54 47 55
REMARK SMILES IDX 63 56 48 57 51 58 62 59 78 60 49 61 50 62 61 64 79 65 52 66
REMARK SMILES IDX 39 67 40 68 45 69 41 70 42 71 44 72 46 73 43 74 65 75 66 76
REMARK SMILES IDX 71 77 67 78 68 79 70 80 72 81 69 82 53 83 54 84 59 85 55 86
REMARK SMILES IDX 56 87 58 88 60 89 57 90
REMARK H PARENT 8 18 2 25 77 52 51 63
REMARK Flexibility Score: inf
ROOT
ATOM      1  C   UNL A   1      40.961  19.902  26.468  1.00  0.00     0.188 C 
ENDROOT
BRANCH   1   2
ATOM      2  O   UNL A   1      40.789  21.301  26.260  1.00  0.00    -0.376 OA
BRANCH   2   3
ATOM      3  C   UNL A   1      39.681  21.969  26.845  1.00  0.00     0.202 C 
BRANCH   3   4
ATOM      4  C   UNL A   1      38.986  23.067  26.021  1.00  0.00     0.261 C 
BRANCH   4   5
ATOM      5  O   UNL A   1      37.544  23.003  25.927  1.00  0.00    -0.463 OA
BRANCH   5   6
ATOM      6  C   UNL A   1      37.006  21.815  25.550  1.00  0.00     0.309 C 
ATOM      7  O   UNL A   1      37.558  21.029  24.786  1.00  0.00    -0.252 OA
BRANCH   6   8
ATOM      8  C   UNL A   1      35.576  21.554  26.061  1.00  0.00     0.102 C 
ATOM      9  N   UNL A   1      32.807  22.266  25.406  1.00  0.00    -0.189 NA
ATOM     10  C   UNL A   1      33.328  20.972  24.967  1.00  0.00     0.104 C 
ATOM     11  C   UNL A   1      33.292  22.573  26.768  1.00  0.00     0.104 C 
ATOM     12  C   UNL A   1      34.840  21.003  24.843  1.00  0.00     0.032 C 
ATOM     13  C   UNL A   1      34.820  22.700  26.764  1.00  0.00     0.032 C 
BRANCH   9  14
ATOM     14  S   UNL A   1      32.517  23.590  24.419  1.00  0.00     0.279 S 
ATOM     15  O   UNL A   1      31.548  23.216  23.421  1.00  0.00    -0.195 OA
ATOM     16  O   UNL A   1      33.800  24.122  24.011  1.00  0.00    -0.195 OA
BRANCH  14  17
ATOM     17  N   UNL A   1      31.785  24.780  25.378  1.00  0.00    -0.199 NA
ATOM     18  H   UNL A   1      30.773  24.665  25.313  1.00  0.00     0.142 HD
BRANCH  17  19
ATOM     19  C   UNL A   1      32.117  26.168  24.988  1.00  0.00     0.138 C 
BRANCH  19  20
ATOM     20  C   UNL A   1      31.262  26.896  23.959  1.00  0.00     0.188 C 
ATOM     21  C   UNL A   1      33.072  29.419  25.108  1.00  0.00     0.332 C 
ATOM     22  N   UNL A   1      32.215  29.268  23.942  1.00  0.00    -0.333 N 
ATOM     23  C   UNL A   1      32.948  28.884  22.722  1.00  0.00     0.290 C 
ATOM     24  C   UNL A   1      31.048  28.402  24.157  1.00  0.00     0.295 C 
ATOM     25  H   UNL A   1      31.848  30.208  23.790  1.00  0.00     0.348 HD
ATOM     26  C   UNL A   1      33.099  27.373  22.482  1.00  0.00     0.222 C 
ATOM     27  O   UNL A   1      31.853  26.672  22.649  1.00  0.00    -0.365 OA
ENDBRANCH  19  20
ENDBRANCH  17  19
ENDBRANCH  14  17
ENDBRANCH   9  14
ENDBRANCH   6   8
ENDBRANCH   5   6
ENDBRANCH   4   5
ENDBRANCH   3   4
ENDBRANCH   2   3
ENDBRANCH   1   2
BRANCH   1  28
ATOM     28  C   UNL A   1      42.283  19.221  26.086  1.00  0.00     0.188 C 
BRANCH  28  29
ATOM     29  O   UNL A   1      42.954  19.845  25.016  1.00  0.00    -0.376 OA
BRANCH  29  30
ATOM     30  C   UNL A   1      44.182  20.472  25.317  1.00  0.00     0.202 C 
BRANCH  30  31
ATOM     31  C   UNL A   1      44.395  21.790  24.562  1.00  0.00     0.261 C 
BRANCH  31  32
ATOM     32  O   UNL A   1      43.630  22.916  25.043  1.00  0.00    -0.460 OA
BRANCH  32  33
ATOM     33  C   UNL A   1      44.273  24.104  25.126  1.00  0.00     0.338 C 
ATOM     34  O   UNL A   1      45.198  24.479  24.426  1.00  0.00    -0.246 OA
BRANCH  33  35
ATOM     35  C   UNL A   1      43.513  24.995  26.044  1.00  0.00     0.060 A 
ATOM     36  C   UNL A   1      43.920  26.332  26.171  1.00  0.00     0.016 A 
ATOM     37  C   UNL A   1      42.418  24.529  26.772  1.00  0.00     0.016 A 
ATOM     38  C   UNL A   1      43.262  27.189  27.058  1.00  0.00     0.010 A 
ATOM     39  C   UNL A   1      41.771  25.386  27.676  1.00  0.00     0.010 A 
ATOM     40  C   UNL A   1      42.212  26.711  27.854  1.00  0.00    -0.014 A 
BRANCH  40  41
ATOM     41  C   UNL A   1      41.710  27.538  28.987  1.00  0.00     0.031 A 
ATOM     42  C   UNL A   1      42.437  27.476  30.308  1.00  0.00     0.074 A 
ATOM     43  C   UNL A   1      40.661  28.370  28.850  1.00  0.00     0.049 A 
ATOM     44  N   UNL A   1      42.186  28.105  31.429  1.00  0.00    -0.248 NA
ATOM     45  C   UNL A   1      43.604  26.583  30.369  1.00  0.00     0.031 C 
ATOM     46  C   UNL A   1      39.884  28.561  27.629  1.00  0.00     0.029 A 
ATOM     47  N   UNL A   1      40.067  29.210  29.762  1.00  0.00    -0.354 N 
ATOM     48  C   UNL A   1      43.159  27.682  32.327  1.00  0.00     0.074 A 
ATOM     49  C   UNL A   1      43.981  26.714  31.631  1.00  0.00     0.031 C 
ATOM     50  C   UNL A   1      38.913  29.460  27.866  1.00  0.00     0.029 A 
ATOM     51  C   UNL A   1      38.979  29.886  29.265  1.00  0.00     0.049 A 
ATOM     52  H   UNL A   1      40.391  29.319  30.685  1.00  0.00     0.167 HD
ATOM     53  C   UNL A   1      43.363  28.067  33.610  1.00  0.00     0.037 A 
ATOM     54  C   UNL A   1      38.125  30.736  29.870  1.00  0.00     0.037 A 
ATOM     55  C   UNL A   1      42.546  29.023  34.314  1.00  0.00     0.049 A 
ATOM     56  C   UNL A   1      38.326  31.095  31.321  1.00  0.00     0.074 A 
ATOM     57  C   UNL A   1      42.686  29.487  35.611  1.00  0.00     0.029 A 
ATOM     58  N   UNL A   1      41.429  29.654  33.786  1.00  0.00    -0.354 N 
ATOM     59  N   UNL A   1      39.268  30.712  32.149  1.00  0.00    -0.248 NA
ATOM     60  C   UNL A   1      37.345  32.014  31.918  1.00  0.00     0.031 C 
ATOM     61  C   UNL A   1      41.620  30.350  35.888  1.00  0.00     0.029 A 
ATOM     62  C   UNL A   1      40.855  30.478  34.741  1.00  0.00     0.049 A 
ATOM     63  H   UNL A   1      41.094  29.532  32.869  1.00  0.00     0.167 HD
ATOM     64  C   UNL A   1      39.011  31.366  33.350  1.00  0.00     0.074 A 
ATOM     65  C   UNL A   1      37.840  32.187  33.135  1.00  0.00     0.031 C 
ATOM     66  C   UNL A   1      39.686  31.294  34.525  1.00  0.00     0.037 A 
BRANCH  53  67
ATOM     67  C   UNL A   1      44.504  27.429  34.351  1.00  0.00     0.057 A 
ATOM     68  C   UNL A   1      44.406  26.146  34.906  1.00  0.00     0.134 A 
ATOM     69  C   UNL A   1      45.729  28.096  34.484  1.00  0.00     0.134 A 
ATOM     70  F   UNL A   1      43.257  25.457  34.828  1.00  0.00    -0.206 F 
ATOM     71  C   UNL A   1      45.475  25.561  35.588  1.00  0.00     0.040 A 
ATOM     72  C   UNL A   1      46.815  27.509  35.136  1.00  0.00     0.040 A 
ATOM     73  F   UNL A   1      45.896  29.325  33.972  1.00  0.00    -0.206 F 
ATOM     74  C   UNL A   1      46.687  26.240  35.697  1.00  0.00     0.006 A 
ENDBRANCH  53  67
BRANCH  54  75
ATOM     75  C   UNL A   1      36.980  31.312  29.113  1.00  0.00     0.057 A 
ATOM     76  C   UNL A   1      37.002  32.636  28.653  1.00  0.00     0.134 A 
ATOM     77  C   UNL A   1      35.818  30.568  28.872  1.00  0.00     0.134 A 
ATOM     78  F   UNL A   1      38.072  33.411  28.879  1.00  0.00    -0.206 F 
ATOM     79  C   UNL A   1      35.904  33.203  28.003  1.00  0.00     0.040 A 
ATOM     80  C   UNL A   1      34.726  31.113  28.195  1.00  0.00     0.040 A 
ATOM     81  F   UNL A   1      35.730  29.297  29.291  1.00  0.00    -0.206 F 
ATOM     82  C   UNL A   1      34.764  32.437  27.766  1.00  0.00     0.006 A 
ENDBRANCH  54  75
BRANCH  66  83
ATOM     83  C   UNL A   1      39.198  32.158  35.656  1.00  0.00     0.057 A 
ATOM     84  C   UNL A   1      39.586  33.498  35.795  1.00  0.00     0.134 A 
ATOM     85  C   UNL A   1      38.320  31.642  36.621  1.00  0.00     0.134 A 
ATOM     86  F   UNL A   1      40.430  34.057  34.913  1.00  0.00    -0.206 F 
ATOM     87  C   UNL A   1      39.158  34.277  36.873  1.00  0.00     0.040 A 
ATOM     88  C   UNL A   1      37.858  32.421  37.683  1.00  0.00     0.040 A 
ATOM     89  F   UNL A   1      37.894  30.373  36.546  1.00  0.00    -0.206 F 
ATOM     90  C   UNL A   1      38.288  33.739  37.819  1.00  0.00     0.006 A 
ENDBRANCH  66  83
ENDBRANCH  40  41
ENDBRANCH  33  35
ENDBRANCH  32  33
ENDBRANCH  31  32
ENDBRANCH  30  31
ENDBRANCH  29  30
ENDBRANCH  28  29
ENDBRANCH   1  28
TORSDOF 21
ENDMDL
MODEL 3
REMARK VINA RESULT:     -10.0      1.941      7.020
REMARK SMILES C[N@H+]1CCO[C@@H](CNS(=O)(=O)N2CCC(C(=O)OCCOCCOCCOC(=O)c3ccc(-c4c5nc(c(-c6c(F)cccc6F)c6ccc([nH]6)c(-c6c(F)cccc6F)c6nc(c(-c7c(F)cccc7F)c7ccc4[nH]7)C=C6)C=C5)cc3)CC2)C1
REMARK SMILES IDX 22 1 21 2 20 3 19 4 18 5 16 6 17 7 15 8 12 9 13 10 85 11
REMARK SMILES IDX 14 12 84 13 9 14 10 15 11 16 8 17 7 19 6 20 1 21 2 22 3 23
REMARK SMILES IDX 86 24 4 26 5 27 23 28 24 29 25 30 26 31 27 32 28 33 29 34
REMARK SMILES IDX 30 35 31 36 83 37 32 38 82 39 33 40 34 41 35 42 76 43 36 44
REMARK SMILES IDX 81 45 75 46 77 47 37 48 80 49 74 50 73 51 38 53 64 54 47 55
REMARK SMILES IDX 63 56 48 57 51 58 62 59 78 60 49 61 50 62 61 64 79 65 52 66
REMARK SMILES IDX 39 67 40 68 45 69 41 70 42 71 44 72 46 73 43 74 65 75 66 76
REMARK SMILES IDX 71 77 67 78 68 79 70 80 72 81 69 82 53 83 54 84 59 85 55 86
REMARK SMILES IDX 56 87 58 88 60 89 57 90
REMARK H PARENT 8 18 2 25 77 52 51 63
REMARK Flexibility Score: inf
ROOT
ATOM      1  C   UNL A   1      41.070  19.956  26.597  1.00  0.00     0.188 C 
ENDROOT
BRANCH   1   2
ATOM      2  O   UNL A   1      39.796  19.946  25.959  1.00  0.00    -0.376 OA
BRANCH   2   3
ATOM      3  C   UNL A   1      39.082  21.162  25.795  1.00  0.00     0.202 C 
BRANCH   3   4
ATOM      4  C   UNL A   1      37.678  21.094  25.167  1.00  0.00     0.261 C 
BRANCH   4   5
ATOM      5  O   UNL A   1      37.293  22.185  24.300  1.00  0.00    -0.463 OA
BRANCH   5   6
ATOM      6  C   UNL A   1      36.153  22.850  24.620  1.00  0.00     0.309 C 
ATOM      7  O   UNL A   1      35.897  23.987  24.237  1.00  0.00    -0.252 OA
BRANCH   6   8
ATOM      8  C   UNL A   1      35.226  22.118  25.610  1.00  0.00     0.102 C 
ATOM      9  N   UNL A   1      32.409  22.092  26.428  1.00  0.00    -0.189 NA
ATOM     10  C   UNL A   1      32.881  21.080  25.483  1.00  0.00     0.104 C 
ATOM     11  C   UNL A   1      33.427  22.324  27.473  1.00  0.00     0.104 C 
ATOM     12  C   UNL A   1      34.109  21.562  24.731  1.00  0.00     0.032 C 
ATOM     13  C   UNL A   1      34.708  22.884  26.844  1.00  0.00     0.032 C 
BRANCH   9  14
ATOM     14  S   UNL A   1      31.438  23.406  26.050  1.00  0.00     0.279 S 
ATOM     15  O   UNL A   1      30.702  23.786  27.228  1.00  0.00    -0.195 OA
ATOM     16  O   UNL A   1      30.727  23.089  24.830  1.00  0.00    -0.195 OA
BRANCH  14  17
ATOM     17  N   UNL A   1      32.466  24.702  25.686  1.00  0.00    -0.199 NA
ATOM     18  H   UNL A   1      32.538  25.295  26.513  1.00  0.00     0.142 HD
BRANCH  17  19
ATOM     19  C   UNL A   1      32.014  25.541  24.555  1.00  0.00     0.138 C 
BRANCH  19  20
ATOM     20  C   UNL A   1      32.978  25.886  23.428  1.00  0.00     0.188 C 
ATOM     21  C   UNL A   1      30.427  27.841  22.634  1.00  0.00     0.332 C 
ATOM     22  N   UNL A   1      31.811  27.790  22.185  1.00  0.00    -0.333 N 
ATOM     23  C   UNL A   1      32.699  28.712  22.918  1.00  0.00     0.290 C 
ATOM     24  C   UNL A   1      32.379  26.436  22.128  1.00  0.00     0.295 C 
ATOM     25  H   UNL A   1      31.763  28.120  21.221  1.00  0.00     0.348 HD
ATOM     26  C   UNL A   1      33.361  28.137  24.181  1.00  0.00     0.222 C 
ATOM     27  O   UNL A   1      33.944  26.843  23.945  1.00  0.00    -0.365 OA
ENDBRANCH  19  20
ENDBRANCH  17  19
ENDBRANCH  14  17
ENDBRANCH   9  14
ENDBRANCH   6   8
ENDBRANCH   5   6
ENDBRANCH   4   5
ENDBRANCH   3   4
ENDBRANCH   2   3
ENDBRANCH   1   2
BRANCH   1  28
ATOM     28  C   UNL A   1      42.248  19.188  25.981  1.00  0.00     0.188 C 
BRANCH  28  29
ATOM     29  O   UNL A   1      43.177  20.013  25.317  1.00  0.00    -0.376 OA
BRANCH  29  30
ATOM     30  C   UNL A   1      43.182  21.378  25.675  1.00  0.00     0.202 C 
BRANCH  30  31
ATOM     31  C   UNL A   1      44.575  22.018  25.616  1.00  0.00     0.261 C 
BRANCH  31  32
ATOM     32  O   UNL A   1      44.730  23.247  26.358  1.00  0.00    -0.460 OA
BRANCH  32  33
ATOM     33  C   UNL A   1      44.377  24.393  25.729  1.00  0.00     0.338 C 
ATOM     34  O   UNL A   1      44.419  24.604  24.530  1.00  0.00    -0.246 OA
BRANCH  33  35
ATOM     35  C   UNL A   1      43.686  25.278  26.704  1.00  0.00     0.060 A 
ATOM     36  C   UNL A   1      44.141  26.598  26.853  1.00  0.00     0.016 A 
ATOM     37  C   UNL A   1      42.608  24.826  27.466  1.00  0.00     0.016 A 
ATOM     38  C   UNL A   1      43.551  27.448  27.792  1.00  0.00     0.010 A 
ATOM     39  C   UNL A   1      42.029  25.674  28.421  1.00  0.00     0.010 A 
ATOM     40  C   UNL A   1      42.520  26.979  28.618  1.00  0.00    -0.014 A 
BRANCH  40  41
ATOM     41  C   UNL A   1      42.093  27.786  29.796  1.00  0.00     0.031 A 
ATOM     42  C   UNL A   1      40.867  28.655  29.673  1.00  0.00     0.074 A 
ATOM     43  C   UNL A   1      42.743  27.725  30.973  1.00  0.00     0.049 A 
ATOM     44  N   UNL A   1      40.308  29.440  30.560  1.00  0.00    -0.248 NA
ATOM     45  C   UNL A   1      40.180  28.635  28.372  1.00  0.00     0.031 C 
ATOM     46  C   UNL A   1      43.919  26.905  31.251  1.00  0.00     0.029 A 
ATOM     47  N   UNL A   1      42.497  28.375  32.160  1.00  0.00    -0.354 N 
ATOM     48  C   UNL A   1      39.209  30.007  29.925  1.00  0.00     0.074 A 
ATOM     49  C   UNL A   1      39.203  29.506  28.567  1.00  0.00     0.031 C 
ATOM     50  C   UNL A   1      44.297  27.103  32.526  1.00  0.00     0.029 A 
ATOM     51  C   UNL A   1      43.408  28.086  33.147  1.00  0.00     0.049 A 
ATOM     52  H   UNL A   1      41.740  28.989  32.290  1.00  0.00     0.167 HD
ATOM     53  C   UNL A   1      38.280  30.859  30.424  1.00  0.00     0.037 A 
ATOM     54  C   UNL A   1      43.523  28.569  34.401  1.00  0.00     0.037 A 
ATOM     55  C   UNL A   1      38.281  31.370  31.770  1.00  0.00     0.049 A 
ATOM     56  C   UNL A   1      42.520  29.574  34.912  1.00  0.00     0.074 A 
ATOM     57  C   UNL A   1      37.371  32.225  32.369  1.00  0.00     0.029 A 
ATOM     58  N   UNL A   1      39.244  31.084  32.727  1.00  0.00    -0.354 N 
ATOM     59  N   UNL A   1      41.468  30.077  34.312  1.00  0.00    -0.248 NA
ATOM     60  C   UNL A   1      42.718  30.069  36.282  1.00  0.00     0.031 C 
ATOM     61  C   UNL A   1      37.816  32.505  33.666  1.00  0.00     0.029 A 
ATOM     62  C   UNL A   1      38.966  31.769  33.899  1.00  0.00     0.049 A 
ATOM     63  H   UNL A   1      40.012  30.484  32.591  1.00  0.00     0.167 HD
ATOM     64  C   UNL A   1      40.865  30.922  35.239  1.00  0.00     0.074 A 
ATOM     65  C   UNL A   1      41.656  30.843  36.449  1.00  0.00     0.031 C 
ATOM     66  C   UNL A   1      39.756  31.691  35.102  1.00  0.00     0.037 A 
BRANCH  53  67
ATOM     67  C   UNL A   1      37.193  31.318  29.493  1.00  0.00     0.057 A 
ATOM     68  C   UNL A   1      37.219  32.578  28.882  1.00  0.00     0.134 A 
ATOM     69  C   UNL A   1      36.119  30.473  29.179  1.00  0.00     0.134 A 
ATOM     70  F   UNL A   1      38.211  33.442  29.148  1.00  0.00    -0.206 F 
ATOM     71  C   UNL A   1      36.206  32.992  28.014  1.00  0.00     0.040 A 
ATOM     72  C   UNL A   1      35.116  30.864  28.290  1.00  0.00     0.040 A 
ATOM     73  F   UNL A   1      36.032  29.250  29.724  1.00  0.00    -0.206 F 
ATOM     74  C   UNL A   1      35.154  32.130  27.710  1.00  0.00     0.006 A 
ENDBRANCH  53  67
BRANCH  54  75
ATOM     75  C   UNL A   1      44.640  28.123  35.276  1.00  0.00     0.057 A 
ATOM     76  C   UNL A   1      44.491  27.043  36.156  1.00  0.00     0.134 A 
ATOM     77  C   UNL A   1      45.869  28.795  35.287  1.00  0.00     0.134 A 
ATOM     78  F   UNL A   1      43.328  26.377  36.216  1.00  0.00    -0.206 F 
ATOM     79  C   UNL A   1      45.512  26.662  37.029  1.00  0.00     0.040 A 
ATOM     80  C   UNL A   1      46.910  28.405  36.132  1.00  0.00     0.040 A 
ATOM     81  F   UNL A   1      46.076  29.841  34.474  1.00  0.00    -0.206 F 
ATOM     82  C   UNL A   1      46.729  27.341  37.013  1.00  0.00     0.006 A 
ENDBRANCH  54  75
BRANCH  66  83
ATOM     83  C   UNL A   1      39.308  32.478  36.304  1.00  0.00     0.057 A 
ATOM     84  C   UNL A   1      38.337  31.996  37.193  1.00  0.00     0.134 A 
ATOM     85  C   UNL A   1      39.862  33.736  36.581  1.00  0.00     0.134 A 
ATOM     86  F   UNL A   1      37.758  30.803  36.988  1.00  0.00    -0.206 F 
ATOM     87  C   UNL A   1      37.900  32.755  38.283  1.00  0.00     0.040 A 
ATOM     88  C   UNL A   1      39.459  34.488  37.686  1.00  0.00     0.040 A 
ATOM     89  F   UNL A   1      40.807  34.255  35.784  1.00  0.00    -0.206 F 
ATOM     90  C   UNL A   1      38.465  34.004  38.533  1.00  0.00     0.006 A 
ENDBRANCH  66  83
ENDBRANCH  40  41
ENDBRANCH  33  35
ENDBRANCH  32  33
ENDBRANCH  31  32
ENDBRANCH  30  31
ENDBRANCH  29  30
ENDBRANCH  28  29
ENDBRANCH   1  28
TORSDOF 21
ENDMDL
