MODEL 1
REMARK VINA RESULT:     -10.2      0.000      0.000
REMARK SMILES C[C@H]1[C@@H](C(=O)OCCOCCOCCOC(=O)c2ccc(-c3c4nc(c(-c5c(F)cccc5F)c5ccc([nH]5)c(-c5c(F)cccc5F)c5nc(c(-c6c(F)cccc6F)c6ccc3[nH]6)C=C5)C=C4)cc2)CCN1C(=O)NCC(C1CC1)C1CC1
REMARK SMILES IDX 10 1 9 2 8 3 7 4 6 5 4 6 5 7 3 8 1 9 2 10 74 11 72 12 73 13
REMARK SMILES IDX 75 14 76 15 77 16 78 18 79 19 80 20 81 21 82 22 83 23 84 24
REMARK SMILES IDX 85 25 11 26 12 27 13 28 14 29 15 30 16 31 17 32 18 33 19 34
REMARK SMILES IDX 71 35 20 36 70 37 21 38 22 39 23 40 64 41 24 42 69 43 63 44
REMARK SMILES IDX 65 45 25 46 68 47 62 48 61 49 26 51 52 52 35 53 51 54 36 55
REMARK SMILES IDX 39 56 50 57 66 58 37 59 38 60 49 62 67 63 40 64 27 65 28 66
REMARK SMILES IDX 33 67 29 68 30 69 32 70 34 71 31 72 53 73 54 74 59 75 55 76
REMARK SMILES IDX 56 77 58 78 60 79 57 80 41 81 42 82 47 83 43 84 44 85 46 86
REMARK SMILES IDX 48 87 45 88
REMARK H PARENT 77 17 65 50 39 61
REMARK Flexibility Score: inf
ROOT
ATOM      1  C   UNL A   1      38.996  21.944  26.149  1.00  0.00     0.188 C 
ENDROOT
BRANCH   1   2
ATOM      2  O   UNL A   1      37.982  22.014  25.164  1.00  0.00    -0.376 OA
BRANCH   2   3
ATOM      3  C   UNL A   1      36.681  22.452  25.535  1.00  0.00     0.202 C 
BRANCH   3   4
ATOM      4  C   UNL A   1      35.524  21.453  25.451  1.00  0.00     0.261 C 
BRANCH   4   5
ATOM      5  O   UNL A   1      34.755  21.646  24.252  1.00  0.00    -0.463 OA
BRANCH   5   6
ATOM      6  C   UNL A   1      33.410  21.662  24.330  1.00  0.00     0.311 C 
ATOM      7  O   UNL A   1      32.725  20.664  24.525  1.00  0.00    -0.252 OA
BRANCH   6   8
ATOM      8  C   UNL A   1      32.795  23.053  24.241  1.00  0.00     0.123 C 
ATOM      9  C   UNL A   1      32.145  23.092  26.812  1.00  0.00     0.032 C 
ATOM     10  C   UNL A   1      32.218  23.814  25.457  1.00  0.00     0.098 C 
ATOM     11  N   UNL A   1      30.938  24.388  25.022  1.00  0.00    -0.321 N 
ATOM     12  C   UNL A   1      31.709  23.095  23.160  1.00  0.00     0.039 C 
ATOM     13  C   UNL A   1      30.533  23.854  23.739  1.00  0.00     0.122 C 
BRANCH  11  14
ATOM     14  C   UNL A   1      30.162  25.385  25.541  1.00  0.00     0.317 C 
ATOM     15  O   UNL A   1      29.584  25.241  26.624  1.00  0.00    -0.249 OA
ATOM     16  N   UNL A   1      29.939  26.557  24.919  1.00  0.00    -0.338 N 
ATOM     17  H   UNL A   1      29.266  27.104  25.385  1.00  0.00     0.165 HD
BRANCH  16  18
ATOM     18  C   UNL A   1      30.449  27.211  23.727  1.00  0.00     0.121 C 
BRANCH  18  19
ATOM     19  C   UNL A   1      31.746  28.013  23.893  1.00  0.00     0.014 C 
BRANCH  19  20
ATOM     20  C   UNL A   1      32.020  28.461  25.318  1.00  0.00    -0.006 C 
ATOM     21  C   UNL A   1      33.383  28.689  25.929  1.00  0.00     0.004 C 
ATOM     22  C   UNL A   1      32.506  29.866  25.594  1.00  0.00     0.004 C 
ENDBRANCH  19  20
BRANCH  19  23
ATOM     23  C   UNL A   1      32.991  27.269  23.384  1.00  0.00    -0.006 C 
ATOM     24  C   UNL A   1      32.991  26.443  22.114  1.00  0.00     0.004 C 
ATOM     25  C   UNL A   1      33.814  27.699  22.189  1.00  0.00     0.004 C 
ENDBRANCH  19  23
ENDBRANCH  18  19
ENDBRANCH  16  18
ENDBRANCH  11  14
ENDBRANCH   6   8
ENDBRANCH   5   6
ENDBRANCH   4   5
ENDBRANCH   3   4
ENDBRANCH   2   3
ENDBRANCH   1   2
BRANCH   1  26
ATOM     26  C   UNL A   1      40.009  20.788  26.139  1.00  0.00     0.188 C 
BRANCH  26  27
ATOM     27  O   UNL A   1      40.567  20.263  27.324  1.00  0.00    -0.376 OA
BRANCH  27  28
ATOM     28  C   UNL A   1      41.970  20.285  27.505  1.00  0.00     0.202 C 
BRANCH  28  29
ATOM     29  C   UNL A   1      42.881  20.822  26.397  1.00  0.00     0.261 C 
BRANCH  29  30
ATOM     30  O   UNL A   1      43.466  22.104  26.667  1.00  0.00    -0.460 OA
BRANCH  30  31
ATOM     31  C   UNL A   1      43.125  23.093  25.807  1.00  0.00     0.338 C 
ATOM     32  O   UNL A   1      43.057  23.034  24.587  1.00  0.00    -0.246 OA
BRANCH  31  33
ATOM     33  C   UNL A   1      42.656  24.252  26.584  1.00  0.00     0.060 A 
ATOM     34  C   UNL A   1      43.269  25.501  26.400  1.00  0.00     0.016 A 
ATOM     35  C   UNL A   1      41.629  24.095  27.511  1.00  0.00     0.016 A 
ATOM     36  C   UNL A   1      42.852  26.606  27.141  1.00  0.00     0.010 A 
ATOM     37  C   UNL A   1      41.240  25.190  28.280  1.00  0.00     0.010 A 
ATOM     38  C   UNL A   1      41.862  26.442  28.113  1.00  0.00    -0.014 A 
BRANCH  38  39
ATOM     39  C   UNL A   1      41.593  27.498  29.113  1.00  0.00     0.031 A 
ATOM     40  C   UNL A   1      42.383  27.468  30.387  1.00  0.00     0.074 A 
ATOM     41  C   UNL A   1      40.627  28.413  28.927  1.00  0.00     0.049 A 
ATOM     42  N   UNL A   1      42.167  28.094  31.514  1.00  0.00    -0.248 NA
ATOM     43  C   UNL A   1      43.571  26.600  30.393  1.00  0.00     0.031 C 
ATOM     44  C   UNL A   1      39.852  28.592  27.702  1.00  0.00     0.029 A 
ATOM     45  N   UNL A   1      40.112  29.344  29.795  1.00  0.00    -0.354 N 
ATOM     46  C   UNL A   1      43.172  27.667  32.373  1.00  0.00     0.074 A 
ATOM     47  C   UNL A   1      43.991  26.726  31.642  1.00  0.00     0.031 C 
ATOM     48  C   UNL A   1      38.930  29.549  27.909  1.00  0.00     0.029 A 
ATOM     49  C   UNL A   1      39.013  30.001  29.297  1.00  0.00     0.049 A 
ATOM     50  H   UNL A   1      40.491  29.521  30.686  1.00  0.00     0.167 HD
ATOM     51  C   UNL A   1      43.381  28.026  33.661  1.00  0.00     0.037 A 
ATOM     52  C   UNL A   1      38.147  30.829  29.914  1.00  0.00     0.037 A 
ATOM     53  C   UNL A   1      42.556  28.962  34.374  1.00  0.00     0.049 A 
ATOM     54  C   UNL A   1      38.338  31.139  31.378  1.00  0.00     0.074 A 
ATOM     55  C   UNL A   1      42.678  29.397  35.681  1.00  0.00     0.029 A 
ATOM     56  N   UNL A   1      41.448  29.601  33.837  1.00  0.00    -0.354 N 
ATOM     57  N   UNL A   1      39.275  30.724  32.197  1.00  0.00    -0.248 NA
ATOM     58  C   UNL A   1      37.346  32.023  32.008  1.00  0.00     0.031 C 
ATOM     59  C   UNL A   1      41.609  30.256  35.954  1.00  0.00     0.029 A 
ATOM     60  C   UNL A   1      40.863  30.410  34.796  1.00  0.00     0.049 A 
ATOM     61  H   UNL A   1      41.126  29.495  32.914  1.00  0.00     0.167 HD
ATOM     62  C   UNL A   1      39.013  31.329  33.420  1.00  0.00     0.074 A 
ATOM     63  C   UNL A   1      37.825  32.136  33.240  1.00  0.00     0.031 C 
ATOM     64  C   UNL A   1      39.698  31.233  34.586  1.00  0.00     0.037 A 
BRANCH  51  65
ATOM     65  C   UNL A   1      44.514  27.365  34.389  1.00  0.00     0.057 A 
ATOM     66  C   UNL A   1      45.799  27.918  34.431  1.00  0.00     0.134 A 
ATOM     67  C   UNL A   1      44.306  26.163  35.079  1.00  0.00     0.134 A 
ATOM     68  F   UNL A   1      46.070  29.059  33.778  1.00  0.00    -0.206 F 
ATOM     69  C   UNL A   1      46.843  27.288  35.110  1.00  0.00     0.040 A 
ATOM     70  C   UNL A   1      45.333  25.539  35.788  1.00  0.00     0.040 A 
ATOM     71  F   UNL A   1      43.098  25.579  35.082  1.00  0.00    -0.206 F 
ATOM     72  C   UNL A   1      46.609  26.099  35.798  1.00  0.00     0.006 A 
ENDBRANCH  51  65
BRANCH  52  73
ATOM     73  C   UNL A   1      36.992  31.392  29.167  1.00  0.00     0.057 A 
ATOM     74  C   UNL A   1      35.861  30.616  28.891  1.00  0.00     0.134 A 
ATOM     75  C   UNL A   1      36.999  32.709  28.689  1.00  0.00     0.134 A 
ATOM     76  F   UNL A   1      35.803  29.340  29.299  1.00  0.00    -0.206 F 
ATOM     77  C   UNL A   1      34.789  31.119  28.152  1.00  0.00     0.040 A 
ATOM     78  C   UNL A   1      35.921  33.236  27.974  1.00  0.00     0.040 A 
ATOM     79  F   UNL A   1      38.052  33.507  28.916  1.00  0.00    -0.206 F 
ATOM     80  C   UNL A   1      34.815  32.436  27.696  1.00  0.00     0.006 A 
ENDBRANCH  52  73
BRANCH  64  81
ATOM     81  C   UNL A   1      39.242  32.073  35.743  1.00  0.00     0.057 A 
ATOM     82  C   UNL A   1      38.375  31.582  36.726  1.00  0.00     0.134 A 
ATOM     83  C   UNL A   1      39.765  33.362  35.925  1.00  0.00     0.134 A 
ATOM     84  F   UNL A   1      37.832  30.362  36.607  1.00  0.00    -0.206 F 
ATOM     85  C   UNL A   1      38.041  32.345  37.847  1.00  0.00     0.040 A 
ATOM     86  C   UNL A   1      39.461  34.121  37.053  1.00  0.00     0.040 A 
ATOM     87  F   UNL A   1      40.610  33.885  35.024  1.00  0.00    -0.206 F 
ATOM     88  C   UNL A   1      38.596  33.613  38.020  1.00  0.00     0.006 A 
ENDBRANCH  64  81
ENDBRANCH  38  39
ENDBRANCH  31  33
ENDBRANCH  30  31
ENDBRANCH  29  30
ENDBRANCH  28  29
ENDBRANCH  27  28
ENDBRANCH  26  27
ENDBRANCH   1  26
TORSDOF 22
ENDMDL
MODEL 2
REMARK VINA RESULT:      -9.9      1.142      2.040
REMARK SMILES C[C@H]1[C@@H](C(=O)OCCOCCOCCOC(=O)c2ccc(-c3c4nc(c(-c5c(F)cccc5F)c5ccc([nH]5)c(-c5c(F)cccc5F)c5nc(c(-c6c(F)cccc6F)c6ccc3[nH]6)C=C5)C=C4)cc2)CCN1C(=O)NCC(C1CC1)C1CC1
REMARK SMILES IDX 10 1 9 2 8 3 7 4 6 5 4 6 5 7 3 8 1 9 2 10 74 11 72 12 73 13
REMARK SMILES IDX 75 14 76 15 77 16 78 18 79 19 80 20 81 21 82 22 83 23 84 24
REMARK SMILES IDX 85 25 11 26 12 27 13 28 14 29 15 30 16 31 17 32 18 33 19 34
REMARK SMILES IDX 71 35 20 36 70 37 21 38 22 39 23 40 64 41 24 42 69 43 63 44
REMARK SMILES IDX 65 45 25 46 68 47 62 48 61 49 26 51 52 52 35 53 51 54 36 55
REMARK SMILES IDX 39 56 50 57 66 58 37 59 38 60 49 62 67 63 40 64 27 65 28 66
REMARK SMILES IDX 33 67 29 68 30 69 32 70 34 71 31 72 53 73 54 74 59 75 55 76
REMARK SMILES IDX 56 77 58 78 60 79 57 80 41 81 42 82 47 83 43 84 44 85 46 86
REMARK SMILES IDX 48 87 45 88
REMARK H PARENT 77 17 65 50 39 61
REMARK Flexibility Score: inf
ROOT
ATOM      1  C   UNL A   1      39.032  21.742  26.138  1.00  0.00     0.188 C 
ENDROOT
BRANCH   1   2
ATOM      2  O   UNL A   1      38.027  21.859  25.148  1.00  0.00    -0.376 OA
BRANCH   2   3
ATOM      3  C   UNL A   1      36.908  22.702  25.392  1.00  0.00     0.202 C 
BRANCH   3   4
ATOM      4  C   UNL A   1      35.635  22.076  25.969  1.00  0.00     0.261 C 
BRANCH   4   5
ATOM      5  O   UNL A   1      34.583  22.036  24.990  1.00  0.00    -0.463 OA
BRANCH   5   6
ATOM      6  C   UNL A   1      33.331  22.368  25.358  1.00  0.00     0.311 C 
ATOM      7  O   UNL A   1      32.584  21.627  25.988  1.00  0.00    -0.252 OA
BRANCH   6   8
ATOM      8  C   UNL A   1      32.932  23.795  25.002  1.00  0.00     0.123 C 
ATOM      9  C   UNL A   1      33.019  23.327  22.393  1.00  0.00     0.032 C 
ATOM     10  C   UNL A   1      32.708  24.286  23.553  1.00  0.00     0.098 C 
ATOM     11  N   UNL A   1      33.382  25.586  23.444  1.00  0.00    -0.321 N 
ATOM     12  C   UNL A   1      33.891  24.801  25.648  1.00  0.00     0.039 C 
ATOM     13  C   UNL A   1      34.218  25.843  24.597  1.00  0.00     0.122 C 
BRANCH  11  14
ATOM     14  C   UNL A   1      33.263  26.602  22.538  1.00  0.00     0.317 C 
ATOM     15  O   UNL A   1      33.701  26.481  21.388  1.00  0.00    -0.249 OA
ATOM     16  N   UNL A   1      32.710  27.795  22.823  1.00  0.00    -0.338 N 
ATOM     17  H   UNL A   1      32.815  28.439  22.086  1.00  0.00     0.165 HD
BRANCH  16  18
ATOM     18  C   UNL A   1      31.998  28.363  23.953  1.00  0.00     0.121 C 
BRANCH  18  19
ATOM     19  C   UNL A   1      30.471  28.208  23.942  1.00  0.00     0.014 C 
BRANCH  19  20
ATOM     20  C   UNL A   1      29.821  28.570  22.619  1.00  0.00    -0.006 C 
ATOM     21  C   UNL A   1      28.443  29.163  22.441  1.00  0.00     0.004 C 
ATOM     22  C   UNL A   1      29.660  30.019  22.221  1.00  0.00     0.004 C 
ENDBRANCH  19  20
BRANCH  19  23
ATOM     23  C   UNL A   1      30.001  26.798  24.331  1.00  0.00    -0.006 C 
ATOM     24  C   UNL A   1      28.554  26.360  24.235  1.00  0.00     0.004 C 
ATOM     25  C   UNL A   1      29.585  25.733  23.338  1.00  0.00     0.004 C 
ENDBRANCH  19  23
ENDBRANCH  18  19
ENDBRANCH  16  18
ENDBRANCH  11  14
ENDBRANCH   6   8
ENDBRANCH   5   6
ENDBRANCH   4   5
ENDBRANCH   3   4
ENDBRANCH   2   3
ENDBRANCH   1   2
BRANCH   1  26
ATOM     26  C   UNL A   1      40.044  20.585  26.083  1.00  0.00     0.188 C 
BRANCH  26  27
ATOM     27  O   UNL A   1      40.621  20.032  27.246  1.00  0.00    -0.376 OA
BRANCH  27  28
ATOM     28  C   UNL A   1      42.004  20.208  27.490  1.00  0.00     0.202 C 
BRANCH  28  29
ATOM     29  C   UNL A   1      42.919  20.746  26.385  1.00  0.00     0.261 C 
BRANCH  29  30
ATOM     30  O   UNL A   1      43.487  22.036  26.651  1.00  0.00    -0.460 OA
BRANCH  30  31
ATOM     31  C   UNL A   1      43.129  23.019  25.789  1.00  0.00     0.338 C 
ATOM     32  O   UNL A   1      43.049  22.952  24.570  1.00  0.00    -0.246 OA
BRANCH  31  33
ATOM     33  C   UNL A   1      42.662  24.178  26.565  1.00  0.00     0.060 A 
ATOM     34  C   UNL A   1      43.267  25.430  26.370  1.00  0.00     0.016 A 
ATOM     35  C   UNL A   1      41.643  24.020  27.502  1.00  0.00     0.016 A 
ATOM     36  C   UNL A   1      42.852  26.535  27.110  1.00  0.00     0.010 A 
ATOM     37  C   UNL A   1      41.256  25.117  28.269  1.00  0.00     0.010 A 
ATOM     38  C   UNL A   1      41.870  26.371  28.091  1.00  0.00    -0.014 A 
BRANCH  38  39
ATOM     39  C   UNL A   1      41.605  27.430  29.088  1.00  0.00     0.031 A 
ATOM     40  C   UNL A   1      42.402  27.407  30.359  1.00  0.00     0.074 A 
ATOM     41  C   UNL A   1      40.636  28.342  28.905  1.00  0.00     0.049 A 
ATOM     42  N   UNL A   1      42.192  28.036  31.484  1.00  0.00    -0.248 NA
ATOM     43  C   UNL A   1      43.593  26.542  30.360  1.00  0.00     0.031 C 
ATOM     44  C   UNL A   1      39.853  28.515  27.684  1.00  0.00     0.029 A 
ATOM     45  N   UNL A   1      40.123  29.275  29.773  1.00  0.00    -0.354 N 
ATOM     46  C   UNL A   1      43.203  27.616  32.339  1.00  0.00     0.074 A 
ATOM     47  C   UNL A   1      44.020  26.674  31.606  1.00  0.00     0.031 C 
ATOM     48  C   UNL A   1      38.930  29.470  27.893  1.00  0.00     0.029 A 
ATOM     49  C   UNL A   1      39.021  29.928  29.279  1.00  0.00     0.049 A 
ATOM     50  H   UNL A   1      40.508  29.456  30.660  1.00  0.00     0.167 HD
ATOM     51  C   UNL A   1      43.419  27.979  33.624  1.00  0.00     0.037 A 
ATOM     52  C   UNL A   1      38.156  30.756  29.898  1.00  0.00     0.037 A 
ATOM     53  C   UNL A   1      42.596  28.916  34.338  1.00  0.00     0.049 A 
ATOM     54  C   UNL A   1      38.355  31.072  31.360  1.00  0.00     0.074 A 
ATOM     55  C   UNL A   1      42.725  29.357  35.643  1.00  0.00     0.029 A 
ATOM     56  N   UNL A   1      41.483  29.551  33.806  1.00  0.00    -0.354 N 
ATOM     57  N   UNL A   1      39.298  30.662  32.174  1.00  0.00    -0.248 NA
ATOM     58  C   UNL A   1      37.365  31.957  31.992  1.00  0.00     0.031 C 
ATOM     59  C   UNL A   1      41.656  30.214  35.919  1.00  0.00     0.029 A 
ATOM     60  C   UNL A   1      40.902  30.362  34.765  1.00  0.00     0.049 A 
ATOM     61  H   UNL A   1      41.156  29.441  32.885  1.00  0.00     0.167 HD
ATOM     62  C   UNL A   1      39.042  31.272  33.397  1.00  0.00     0.074 A 
ATOM     63  C   UNL A   1      37.851  32.075  33.221  1.00  0.00     0.031 C 
ATOM     64  C   UNL A   1      39.734  31.182  34.559  1.00  0.00     0.037 A 
BRANCH  51  65
ATOM     65  C   UNL A   1      44.558  27.324  34.348  1.00  0.00     0.057 A 
ATOM     66  C   UNL A   1      45.829  27.905  34.423  1.00  0.00     0.134 A 
ATOM     67  C   UNL A   1      44.369  26.098  34.999  1.00  0.00     0.134 A 
ATOM     68  F   UNL A   1      46.081  29.071  33.807  1.00  0.00    -0.206 F 
ATOM     69  C   UNL A   1      46.878  27.280  35.098  1.00  0.00     0.040 A 
ATOM     70  C   UNL A   1      45.402  25.477  35.704  1.00  0.00     0.040 A 
ATOM     71  F   UNL A   1      43.176  25.486  34.970  1.00  0.00    -0.206 F 
ATOM     72  C   UNL A   1      46.664  26.066  35.748  1.00  0.00     0.006 A 
ENDBRANCH  51  65
BRANCH  52  73
ATOM     73  C   UNL A   1      36.995  31.314  29.156  1.00  0.00     0.057 A 
ATOM     74  C   UNL A   1      35.868  30.532  28.883  1.00  0.00     0.134 A 
ATOM     75  C   UNL A   1      36.993  32.631  28.679  1.00  0.00     0.134 A 
ATOM     76  F   UNL A   1      35.819  29.254  29.289  1.00  0.00    -0.206 F 
ATOM     77  C   UNL A   1      34.791  31.030  28.148  1.00  0.00     0.040 A 
ATOM     78  C   UNL A   1      35.910  33.153  27.969  1.00  0.00     0.040 A 
ATOM     79  F   UNL A   1      38.043  33.435  28.904  1.00  0.00    -0.206 F 
ATOM     80  C   UNL A   1      34.807  32.347  27.694  1.00  0.00     0.006 A 
ENDBRANCH  52  73
BRANCH  64  81
ATOM     81  C   UNL A   1      39.283  32.025  35.716  1.00  0.00     0.057 A 
ATOM     82  C   UNL A   1      39.684  33.357  35.869  1.00  0.00     0.134 A 
ATOM     83  C   UNL A   1      38.350  31.519  36.632  1.00  0.00     0.134 A 
ATOM     84  F   UNL A   1      40.582  33.899  35.033  1.00  0.00    -0.206 F 
ATOM     85  C   UNL A   1      39.176  34.155  36.897  1.00  0.00     0.040 A 
ATOM     86  C   UNL A   1      37.815  32.314  37.644  1.00  0.00     0.040 A 
ATOM     87  F   UNL A   1      37.917  30.253  36.532  1.00  0.00    -0.206 F 
ATOM     88  C   UNL A   1      38.227  33.638  37.779  1.00  0.00     0.006 A 
ENDBRANCH  64  81
ENDBRANCH  38  39
ENDBRANCH  31  33
ENDBRANCH  30  31
ENDBRANCH  29  30
ENDBRANCH  28  29
ENDBRANCH  27  28
ENDBRANCH  26  27
ENDBRANCH   1  26
TORSDOF 22
ENDMDL
MODEL 3
REMARK VINA RESULT:      -9.8      1.391      6.363
REMARK SMILES C[C@H]1[C@@H](C(=O)OCCOCCOCCOC(=O)c2ccc(-c3c4nc(c(-c5c(F)cccc5F)c5ccc([nH]5)c(-c5c(F)cccc5F)c5nc(c(-c6c(F)cccc6F)c6ccc3[nH]6)C=C5)C=C4)cc2)CCN1C(=O)NCC(C1CC1)C1CC1
REMARK SMILES IDX 10 1 9 2 8 3 7 4 6 5 4 6 5 7 3 8 1 9 2 10 74 11 72 12 73 13
REMARK SMILES IDX 75 14 76 15 77 16 78 18 79 19 80 20 81 21 82 22 83 23 84 24
REMARK SMILES IDX 85 25 11 26 12 27 13 28 14 29 15 30 16 31 17 32 18 33 19 34
REMARK SMILES IDX 71 35 20 36 70 37 21 38 22 39 23 40 64 41 24 42 69 43 63 44
REMARK SMILES IDX 65 45 25 46 68 47 62 48 61 49 26 51 52 52 35 53 51 54 36 55
REMARK SMILES IDX 39 56 50 57 66 58 37 59 38 60 49 62 67 63 40 64 27 65 28 66
REMARK SMILES IDX 33 67 29 68 30 69 32 70 34 71 31 72 53 73 54 74 59 75 55 76
REMARK SMILES IDX 56 77 58 78 60 79 57 80 41 81 42 82 47 83 43 84 44 85 46 86
REMARK SMILES IDX 48 87 45 88
REMARK H PARENT 77 17 65 50 39 61
REMARK Flexibility Score: inf
ROOT
ATOM      1  C   UNL A   1      40.000  21.464  26.687  1.00  0.00     0.188 C 
ENDROOT
BRANCH   1   2
ATOM      2  O   UNL A   1      39.025  20.965  25.789  1.00  0.00    -0.376 OA
BRANCH   2   3
ATOM      3  C   UNL A   1      37.996  21.832  25.330  1.00  0.00     0.202 C 
BRANCH   3   4
ATOM      4  C   UNL A   1      36.547  21.504  25.704  1.00  0.00     0.261 C 
BRANCH   4   5
ATOM      5  O   UNL A   1      35.622  22.112  24.787  1.00  0.00    -0.463 OA
BRANCH   5   6
ATOM      6  C   UNL A   1      34.314  22.152  25.105  1.00  0.00     0.311 C 
ATOM      7  O   UNL A   1      33.731  21.263  25.716  1.00  0.00    -0.252 OA
BRANCH   6   8
ATOM      8  C   UNL A   1      33.614  23.450  24.717  1.00  0.00     0.123 C 
ATOM      9  C   UNL A   1      33.028  22.579  22.282  1.00  0.00     0.032 C 
ATOM     10  C   UNL A   1      32.915  23.673  23.356  1.00  0.00     0.098 C 
ATOM     11  N   UNL A   1      33.321  25.005  22.892  1.00  0.00    -0.321 N 
ATOM     12  C   UNL A   1      34.550  24.647  24.915  1.00  0.00     0.039 C 
ATOM     13  C   UNL A   1      34.400  25.535  23.697  1.00  0.00     0.122 C 
BRANCH  11  14
ATOM     14  C   UNL A   1      32.795  25.841  21.948  1.00  0.00     0.317 C 
ATOM     15  O   UNL A   1      33.189  25.805  20.777  1.00  0.00    -0.249 OA
ATOM     16  N   UNL A   1      31.859  26.770  22.214  1.00  0.00    -0.338 N 
ATOM     17  H   UNL A   1      31.684  27.355  21.442  1.00  0.00     0.165 HD
BRANCH  16  18
ATOM     18  C   UNL A   1      31.044  27.121  23.364  1.00  0.00     0.121 C 
BRANCH  18  19
ATOM     19  C   UNL A   1      31.017  28.605  23.752  1.00  0.00     0.014 C 
BRANCH  19  20
ATOM     20  C   UNL A   1      29.686  29.289  23.495  1.00  0.00    -0.006 C 
ATOM     21  C   UNL A   1      29.436  30.779  23.515  1.00  0.00     0.004 C 
ATOM     22  C   UNL A   1      29.453  30.040  22.204  1.00  0.00     0.004 C 
ENDBRANCH  19  20
BRANCH  19  23
ATOM     23  C   UNL A   1      31.403  28.857  25.218  1.00  0.00    -0.006 C 
ATOM     24  C   UNL A   1      32.817  28.689  25.736  1.00  0.00     0.004 C 
ATOM     25  C   UNL A   1      32.192  30.057  25.699  1.00  0.00     0.004 C 
ENDBRANCH  19  23
ENDBRANCH  18  19
ENDBRANCH  16  18
ENDBRANCH  11  14
ENDBRANCH   6   8
ENDBRANCH   5   6
ENDBRANCH   4   5
ENDBRANCH   3   4
ENDBRANCH   2   3
ENDBRANCH   1   2
BRANCH   1  26
ATOM     26  C   UNL A   1      41.249  22.184  26.155  1.00  0.00     0.188 C 
BRANCH  26  27
ATOM     27  O   UNL A   1      42.246  21.517  25.411  1.00  0.00    -0.376 OA
BRANCH  27  28
ATOM     28  C   UNL A   1      43.585  21.969  25.475  1.00  0.00     0.202 C 
BRANCH  28  29
ATOM     29  C   UNL A   1      44.095  23.009  24.472  1.00  0.00     0.261 C 
BRANCH  29  30
ATOM     30  O   UNL A   1      43.521  24.316  24.618  1.00  0.00    -0.460 OA
BRANCH  30  31
ATOM     31  C   UNL A   1      44.330  25.248  25.177  1.00  0.00     0.338 C 
ATOM     32  O   UNL A   1      45.440  25.599  24.800  1.00  0.00    -0.246 OA
BRANCH  31  33
ATOM     33  C   UNL A   1      43.587  25.937  26.244  1.00  0.00     0.060 A 
ATOM     34  C   UNL A   1      43.982  27.225  26.641  1.00  0.00     0.016 A 
ATOM     35  C   UNL A   1      42.517  25.299  26.867  1.00  0.00     0.016 A 
ATOM     36  C   UNL A   1      43.303  27.885  27.663  1.00  0.00     0.010 A 
ATOM     37  C   UNL A   1      41.865  25.944  27.916  1.00  0.00     0.010 A 
ATOM     38  C   UNL A   1      42.266  27.228  28.330  1.00  0.00    -0.014 A 
BRANCH  38  39
ATOM     39  C   UNL A   1      41.714  27.761  29.595  1.00  0.00     0.031 A 
ATOM     40  C   UNL A   1      40.483  28.614  29.514  1.00  0.00     0.074 A 
ATOM     41  C   UNL A   1      42.327  27.555  30.772  1.00  0.00     0.049 A 
ATOM     42  N   UNL A   1      39.961  29.408  30.410  1.00  0.00    -0.248 NA
ATOM     43  C   UNL A   1      39.751  28.575  28.238  1.00  0.00     0.031 C 
ATOM     44  C   UNL A   1      43.478  26.680  30.988  1.00  0.00     0.029 A 
ATOM     45  N   UNL A   1      42.081  28.103  32.006  1.00  0.00    -0.354 N 
ATOM     46  C   UNL A   1      38.861  29.989  29.795  1.00  0.00     0.074 A 
ATOM     47  C   UNL A   1      38.794  29.464  28.449  1.00  0.00     0.031 C 
ATOM     48  C   UNL A   1      43.863  26.781  32.272  1.00  0.00     0.029 A 
ATOM     49  C   UNL A   1      43.025  27.772  32.947  1.00  0.00     0.049 A 
ATOM     50  H   UNL A   1      41.304  28.677  32.197  1.00  0.00     0.167 HD
ATOM     51  C   UNL A   1      37.991  30.889  30.309  1.00  0.00     0.037 A 
ATOM     52  C   UNL A   1      43.218  28.259  34.189  1.00  0.00     0.037 A 
ATOM     53  C   UNL A   1      38.072  31.403  31.649  1.00  0.00     0.049 A 
ATOM     54  C   UNL A   1      42.298  29.335  34.710  1.00  0.00     0.074 A 
ATOM     55  C   UNL A   1      37.243  32.317  32.274  1.00  0.00     0.029 A 
ATOM     56  N   UNL A   1      39.048  31.049  32.570  1.00  0.00    -0.354 N 
ATOM     57  N   UNL A   1      41.268  29.899  34.125  1.00  0.00    -0.248 NA
ATOM     58  C   UNL A   1      42.572  29.850  36.060  1.00  0.00     0.031 C 
ATOM     59  C   UNL A   1      37.752  32.561  33.553  1.00  0.00     0.029 A 
ATOM     60  C   UNL A   1      38.855  31.745  33.750  1.00  0.00     0.049 A 
ATOM     61  H   UNL A   1      39.769  30.399  32.407  1.00  0.00     0.167 HD
ATOM     62  C   UNL A   1      40.748  30.799  35.047  1.00  0.00     0.074 A 
ATOM     63  C   UNL A   1      41.578  30.712  36.230  1.00  0.00     0.031 C 
ATOM     64  C   UNL A   1      39.674  31.618  34.929  1.00  0.00     0.037 A 
BRANCH  51  65
ATOM     65  C   UNL A   1      36.914  31.409  29.404  1.00  0.00     0.057 A 
ATOM     66  C   UNL A   1      36.975  32.682  28.824  1.00  0.00     0.134 A 
ATOM     67  C   UNL A   1      35.805  30.611  29.092  1.00  0.00     0.134 A 
ATOM     68  F   UNL A   1      38.002  33.503  29.095  1.00  0.00    -0.206 F 
ATOM     69  C   UNL A   1      35.963  33.152  27.987  1.00  0.00     0.040 A 
ATOM     70  C   UNL A   1      34.802  31.057  28.231  1.00  0.00     0.040 A 
ATOM     71  F   UNL A   1      35.684  29.380  29.610  1.00  0.00    -0.206 F 
ATOM     72  C   UNL A   1      34.876  32.336  27.682  1.00  0.00     0.006 A 
ENDBRANCH  51  65
BRANCH  52  73
ATOM     73  C   UNL A   1      44.351  27.768  35.016  1.00  0.00     0.057 A 
ATOM     74  C   UNL A   1      44.204  26.664  35.863  1.00  0.00     0.134 A 
ATOM     75  C   UNL A   1      45.600  28.403  35.002  1.00  0.00     0.134 A 
ATOM     76  F   UNL A   1      43.026  26.028  35.943  1.00  0.00    -0.206 F 
ATOM     77  C   UNL A   1      45.247  26.221  36.678  1.00  0.00     0.040 A 
ATOM     78  C   UNL A   1      46.661  27.954  35.789  1.00  0.00     0.040 A 
ATOM     79  F   UNL A   1      45.809  29.469  34.214  1.00  0.00    -0.206 F 
ATOM     80  C   UNL A   1      46.483  26.863  36.638  1.00  0.00     0.006 A 
ENDBRANCH  52  73
BRANCH  64  81
ATOM     81  C   UNL A   1      39.274  32.433  36.125  1.00  0.00     0.057 A 
ATOM     82  C   UNL A   1      39.762  33.726  36.345  1.00  0.00     0.134 A 
ATOM     83  C   UNL A   1      38.304  31.946  37.013  1.00  0.00     0.134 A 
ATOM     84  F   UNL A   1      40.699  34.247  35.539  1.00  0.00    -0.206 F 
ATOM     85  C   UNL A   1      39.303  34.504  37.410  1.00  0.00     0.040 A 
ATOM     86  C   UNL A   1      37.817  32.725  38.062  1.00  0.00     0.040 A 
ATOM     87  F   UNL A   1      37.788  30.719  36.850  1.00  0.00    -0.206 F 
ATOM     88  C   UNL A   1      38.317  34.009  38.263  1.00  0.00     0.006 A 
ENDBRANCH  64  81
ENDBRANCH  38  39
ENDBRANCH  31  33
ENDBRANCH  30  31
ENDBRANCH  29  30
ENDBRANCH  28  29
ENDBRANCH  27  28
ENDBRANCH  26  27
ENDBRANCH   1  26
TORSDOF 22
ENDMDL
