MODEL 1
REMARK VINA RESULT:      -9.8      0.000      0.000
REMARK SMILES Cc1cscc1CNC(=O)CC(C)(C)C(=O)OCCOCCOCCOC(=O)c1ccc(-c2c3nc(c(-c4c(F)cccc4F)c4ccc([nH]4)c(-c4c(F)cccc4F)c4nc(c(-c5c(F)cccc5F)c5ccc2[nH]5)C=C4)C=C3)cc1
REMARK SMILES IDX 21 1 20 2 19 3 18 4 17 5 15 6 16 7 12 8 13 9 14 10 11 11
REMARK SMILES IDX 9 12 8 13 10 15 7 16 6 17 1 18 2 19 3 20 4 21 5 22 22 23
REMARK SMILES IDX 23 24 24 25 25 26 26 27 27 28 28 29 29 30 30 31 82 32 31 33
REMARK SMILES IDX 81 34 32 35 33 36 34 37 75 38 35 39 80 40 74 41 76 42 36 43
REMARK SMILES IDX 79 44 73 45 72 46 37 48 63 49 46 50 62 51 47 52 50 53 61 54
REMARK SMILES IDX 77 55 48 56 49 57 60 59 78 60 51 61 38 62 39 63 44 64 40 65
REMARK SMILES IDX 41 66 43 67 45 68 42 69 64 70 65 71 70 72 66 73 67 74 69 75
REMARK SMILES IDX 71 76 68 77 52 78 53 79 58 80 54 81 55 82 57 83 59 84 56 85
REMARK H PARENT 8 14 76 47 50 58
REMARK Flexibility Score: inf
ROOT
ATOM      1  C   UNL A   1      35.608  31.775  28.075  1.00  0.00     0.188 C 
ENDROOT
BRANCH   1   2
ATOM      2  O   UNL A   1      34.495  31.063  27.579  1.00  0.00    -0.376 OA
BRANCH   2   3
ATOM      3  C   UNL A   1      34.512  29.645  27.514  1.00  0.00     0.202 C 
BRANCH   3   4
ATOM      4  C   UNL A   1      33.637  28.850  26.526  1.00  0.00     0.261 C 
BRANCH   4   5
ATOM      5  O   UNL A   1      33.844  27.418  26.450  1.00  0.00    -0.463 OA
BRANCH   5   6
ATOM      6  C   UNL A   1      32.882  26.751  25.761  1.00  0.00     0.312 C 
ATOM      7  O   UNL A   1      31.703  26.848  26.075  1.00  0.00    -0.252 OA
BRANCH   6   8
ATOM      8  C   UNL A   1      33.386  25.835  24.613  1.00  0.00     0.071 C 
ATOM      9  C   UNL A   1      32.195  24.970  24.170  1.00  0.00     0.024 C 
ATOM     10  C   UNL A   1      34.481  24.800  24.981  1.00  0.00     0.024 C 
BRANCH   8  11
ATOM     11  C   UNL A   1      33.948  26.699  23.430  1.00  0.00     0.118 C 
BRANCH  11  12
ATOM     12  C   UNL A   1      33.143  26.805  22.138  1.00  0.00     0.221 C 
ATOM     13  N   UNL A   1      32.179  27.752  21.984  1.00  0.00    -0.352 N 
ATOM     14  H   UNL A   1      31.876  27.898  21.060  1.00  0.00     0.163 HD
ATOM     15  O   UNL A   1      33.358  26.021  21.209  1.00  0.00    -0.275 OA
BRANCH  13  16
ATOM     16  C   UNL A   1      31.537  28.574  22.977  1.00  0.00     0.152 C 
BRANCH  16  17
ATOM     17  C   UNL A   1      30.132  28.975  22.614  1.00  0.00    -0.015 A 
ATOM     18  C   UNL A   1      29.040  26.911  23.761  1.00  0.00     0.045 C 
ATOM     19  C   UNL A   1      28.971  28.224  23.054  1.00  0.00    -0.035 A 
ATOM     20  C   UNL A   1      27.791  28.882  22.757  1.00  0.00     0.068 A 
ATOM     21  S   UNL A   1      28.040  30.320  21.879  1.00  0.00    -0.152 S 
ATOM     22  C   UNL A   1      29.731  30.080  21.879  1.00  0.00     0.070 A 
ENDBRANCH  16  17
ENDBRANCH  13  16
ENDBRANCH  11  12
ENDBRANCH   8  11
ENDBRANCH   6   8
ENDBRANCH   5   6
ENDBRANCH   4   5
ENDBRANCH   3   4
ENDBRANCH   2   3
ENDBRANCH   1   2
BRANCH   1  23
ATOM     23  C   UNL A   1      35.505  33.280  28.304  1.00  0.00     0.188 C 
BRANCH  23  24
ATOM     24  O   UNL A   1      34.280  33.935  28.114  1.00  0.00    -0.376 OA
BRANCH  24  25
ATOM     25  C   UNL A   1      34.099  35.299  28.436  1.00  0.00     0.202 C 
BRANCH  25  26
ATOM     26  C   UNL A   1      32.982  35.876  29.324  1.00  0.00     0.261 C 
BRANCH  26  27
ATOM     27  O   UNL A   1      32.546  35.112  30.448  1.00  0.00    -0.460 OA
BRANCH  27  28
ATOM     28  C   UNL A   1      32.748  35.663  31.669  1.00  0.00     0.338 C 
ATOM     29  O   UNL A   1      32.029  36.454  32.253  1.00  0.00    -0.246 OA
BRANCH  28  30
ATOM     30  C   UNL A   1      33.886  34.942  32.280  1.00  0.00     0.060 A 
ATOM     31  C   UNL A   1      35.163  35.526  32.244  1.00  0.00     0.016 A 
ATOM     32  C   UNL A   1      33.680  33.726  32.932  1.00  0.00     0.016 A 
ATOM     33  C   UNL A   1      36.246  34.881  32.841  1.00  0.00     0.010 A 
ATOM     34  C   UNL A   1      34.770  33.064  33.496  1.00  0.00     0.010 A 
ATOM     35  C   UNL A   1      36.060  33.623  33.423  1.00  0.00    -0.014 A 
BRANCH  35  36
ATOM     36  C   UNL A   1      37.223  32.755  33.719  1.00  0.00     0.031 A 
ATOM     37  C   UNL A   1      37.962  33.009  35.002  1.00  0.00     0.074 A 
ATOM     38  C   UNL A   1      37.643  31.803  32.870  1.00  0.00     0.049 A 
ATOM     39  N   UNL A   1      39.101  32.523  35.421  1.00  0.00    -0.248 NA
ATOM     40  C   UNL A   1      37.331  33.956  35.936  1.00  0.00     0.031 C 
ATOM     41  C   UNL A   1      36.973  31.406  31.635  1.00  0.00     0.029 A 
ATOM     42  N   UNL A   1      38.763  31.011  32.922  1.00  0.00    -0.354 N 
ATOM     43  C   UNL A   1      39.336  33.129  36.649  1.00  0.00     0.074 A 
ATOM     44  C   UNL A   1      38.232  34.027  36.900  1.00  0.00     0.031 C 
ATOM     45  C   UNL A   1      37.709  30.456  31.032  1.00  0.00     0.029 A 
ATOM     46  C   UNL A   1      38.922  30.215  31.814  1.00  0.00     0.049 A 
ATOM     47  H   UNL A   1      39.392  31.013  33.679  1.00  0.00     0.167 HD
ATOM     48  C   UNL A   1      40.383  32.956  37.488  1.00  0.00     0.037 A 
ATOM     49  C   UNL A   1      39.946  29.412  31.466  1.00  0.00     0.037 A 
ATOM     50  C   UNL A   1      41.478  32.061  37.231  1.00  0.00     0.049 A 
ATOM     51  C   UNL A   1      41.150  29.307  32.368  1.00  0.00     0.074 A 
ATOM     52  C   UNL A   1      42.577  31.795  38.027  1.00  0.00     0.029 A 
ATOM     53  N   UNL A   1      41.618  31.298  36.082  1.00  0.00    -0.354 N 
ATOM     54  N   UNL A   1      41.368  29.872  33.531  1.00  0.00    -0.248 NA
ATOM     55  C   UNL A   1      42.257  28.457  31.903  1.00  0.00     0.031 C 
ATOM     56  C   UNL A   1      43.414  30.918  37.332  1.00  0.00     0.029 A 
ATOM     57  C   UNL A   1      42.804  30.585  36.133  1.00  0.00     0.049 A 
ATOM     58  H   UNL A   1      40.973  31.268  35.340  1.00  0.00     0.167 HD
ATOM     59  C   UNL A   1      42.608  29.410  33.958  1.00  0.00     0.074 A 
ATOM     60  C   UNL A   1      43.101  28.525  32.924  1.00  0.00     0.031 C 
ATOM     61  C   UNL A   1      43.271  29.685  35.108  1.00  0.00     0.037 A 
BRANCH  48  62
ATOM     62  C   UNL A   1      40.414  33.799  38.728  1.00  0.00     0.057 A 
ATOM     63  C   UNL A   1      39.720  33.443  39.893  1.00  0.00     0.134 A 
ATOM     64  C   UNL A   1      41.148  34.991  38.753  1.00  0.00     0.134 A 
ATOM     65  F   UNL A   1      38.982  32.323  39.930  1.00  0.00    -0.206 F 
ATOM     66  C   UNL A   1      39.728  34.260  41.025  1.00  0.00     0.040 A 
ATOM     67  C   UNL A   1      41.190  35.800  39.889  1.00  0.00     0.040 A 
ATOM     68  F   UNL A   1      41.836  35.391  37.673  1.00  0.00    -0.206 F 
ATOM     69  C   UNL A   1      40.470  35.441  41.026  1.00  0.00     0.006 A 
ENDBRANCH  48  62
BRANCH  49  70
ATOM     70  C   UNL A   1      39.888  28.641  30.197  1.00  0.00     0.057 A 
ATOM     71  C   UNL A   1      39.231  27.407  30.136  1.00  0.00     0.134 A 
ATOM     72  C   UNL A   1      40.500  29.103  29.026  1.00  0.00     0.134 A 
ATOM     73  F   UNL A   1      38.652  26.897  31.233  1.00  0.00    -0.206 F 
ATOM     74  C   UNL A   1      39.193  26.654  28.961  1.00  0.00     0.040 A 
ATOM     75  C   UNL A   1      40.448  28.374  27.837  1.00  0.00     0.040 A 
ATOM     76  F   UNL A   1      41.154  30.274  29.018  1.00  0.00    -0.206 F 
ATOM     77  C   UNL A   1      39.797  27.141  27.805  1.00  0.00     0.006 A 
ENDBRANCH  49  70
BRANCH  61  78
ATOM     78  C   UNL A   1      44.570  28.973  35.360  1.00  0.00     0.057 A 
ATOM     79  C   UNL A   1      45.806  29.521  34.996  1.00  0.00     0.134 A 
ATOM     80  C   UNL A   1      44.581  27.756  36.055  1.00  0.00     0.134 A 
ATOM     81  F   UNL A   1      45.866  30.678  34.320  1.00  0.00    -0.206 F 
ATOM     82  C   UNL A   1      47.006  28.879  35.308  1.00  0.00     0.040 A 
ATOM     83  C   UNL A   1      45.775  27.120  36.397  1.00  0.00     0.040 A 
ATOM     84  F   UNL A   1      43.432  27.182  36.443  1.00  0.00    -0.206 F 
ATOM     85  C   UNL A   1      46.993  27.680  36.021  1.00  0.00     0.006 A 
ENDBRANCH  61  78
ENDBRANCH  35  36
ENDBRANCH  28  30
ENDBRANCH  27  28
ENDBRANCH  26  27
ENDBRANCH  25  26
ENDBRANCH  24  25
ENDBRANCH  23  24
ENDBRANCH   1  23
TORSDOF 21
ENDMDL
MODEL 2
REMARK VINA RESULT:      -9.6      2.273      3.548
REMARK SMILES Cc1cscc1CNC(=O)CC(C)(C)C(=O)OCCOCCOCCOC(=O)c1ccc(-c2c3nc(c(-c4c(F)cccc4F)c4ccc([nH]4)c(-c4c(F)cccc4F)c4nc(c(-c5c(F)cccc5F)c5ccc2[nH]5)C=C4)C=C3)cc1
REMARK SMILES IDX 21 1 20 2 19 3 18 4 17 5 15 6 16 7 12 8 13 9 14 10 11 11
REMARK SMILES IDX 9 12 8 13 10 15 7 16 6 17 1 18 2 19 3 20 4 21 5 22 22 23
REMARK SMILES IDX 23 24 24 25 25 26 26 27 27 28 28 29 29 30 30 31 82 32 31 33
REMARK SMILES IDX 81 34 32 35 33 36 34 37 75 38 35 39 80 40 74 41 76 42 36 43
REMARK SMILES IDX 79 44 73 45 72 46 37 48 63 49 46 50 62 51 47 52 50 53 61 54
REMARK SMILES IDX 77 55 48 56 49 57 60 59 78 60 51 61 38 62 39 63 44 64 40 65
REMARK SMILES IDX 41 66 43 67 45 68 42 69 64 70 65 71 70 72 66 73 67 74 69 75
REMARK SMILES IDX 71 76 68 77 52 78 53 79 58 80 54 81 55 82 57 83 59 84 56 85
REMARK H PARENT 8 14 76 47 50 58
REMARK Flexibility Score: inf
ROOT
ATOM      1  C   UNL A   1      34.378  31.447  27.964  1.00  0.00     0.188 C 
ENDROOT
BRANCH   1   2
ATOM      2  O   UNL A   1      33.233  31.206  27.175  1.00  0.00    -0.376 OA
BRANCH   2   3
ATOM      3  C   UNL A   1      33.111  30.008  26.421  1.00  0.00     0.202 C 
BRANCH   3   4
ATOM      4  C   UNL A   1      31.777  29.252  26.278  1.00  0.00     0.261 C 
BRANCH   4   5
ATOM      5  O   UNL A   1      31.758  28.083  25.421  1.00  0.00    -0.463 OA
BRANCH   5   6
ATOM      6  C   UNL A   1      31.594  26.909  26.083  1.00  0.00     0.312 C 
ATOM      7  O   UNL A   1      31.070  26.879  27.189  1.00  0.00    -0.252 OA
BRANCH   6   8
ATOM      8  C   UNL A   1      32.159  25.648  25.374  1.00  0.00     0.071 C 
ATOM      9  C   UNL A   1      33.356  26.107  24.524  1.00  0.00     0.024 C 
ATOM     10  C   UNL A   1      31.224  24.948  24.353  1.00  0.00     0.024 C 
BRANCH   8  11
ATOM     11  C   UNL A   1      32.578  24.568  26.430  1.00  0.00     0.118 C 
BRANCH  11  12
ATOM     12  C   UNL A   1      31.613  23.432  26.757  1.00  0.00     0.221 C 
ATOM     13  N   UNL A   1      31.989  22.131  26.636  1.00  0.00    -0.352 N 
ATOM     14  H   UNL A   1      31.399  21.479  27.077  1.00  0.00     0.163 HD
ATOM     15  O   UNL A   1      30.465  23.685  27.135  1.00  0.00    -0.275 OA
BRANCH  13  16
ATOM     16  C   UNL A   1      33.127  21.567  25.957  1.00  0.00     0.152 C 
BRANCH  16  17
ATOM     17  C   UNL A   1      32.803  20.331  25.159  1.00  0.00    -0.015 A 
ATOM     18  C   UNL A   1      32.162  21.652  23.011  1.00  0.00     0.045 C 
ATOM     19  C   UNL A   1      32.426  20.386  23.759  1.00  0.00    -0.035 A 
ATOM     20  C   UNL A   1      32.359  19.126  23.194  1.00  0.00     0.068 A 
ATOM     21  S   UNL A   1      32.638  17.882  24.323  1.00  0.00    -0.152 S 
ATOM     22  C   UNL A   1      32.846  19.013  25.586  1.00  0.00     0.070 A 
ENDBRANCH  16  17
ENDBRANCH  13  16
ENDBRANCH  11  12
ENDBRANCH   8  11
ENDBRANCH   6   8
ENDBRANCH   5   6
ENDBRANCH   4   5
ENDBRANCH   3   4
ENDBRANCH   2   3
ENDBRANCH   1   2
BRANCH   1  23
ATOM     23  C   UNL A   1      34.686  32.863  28.441  1.00  0.00     0.188 C 
BRANCH  23  24
ATOM     24  O   UNL A   1      33.851  33.925  28.065  1.00  0.00    -0.376 OA
BRANCH  24  25
ATOM     25  C   UNL A   1      34.013  35.229  28.587  1.00  0.00     0.202 C 
BRANCH  25  26
ATOM     26  C   UNL A   1      33.023  35.959  29.510  1.00  0.00     0.261 C 
BRANCH  26  27
ATOM     27  O   UNL A   1      32.458  35.240  30.605  1.00  0.00    -0.460 OA
BRANCH  27  28
ATOM     28  C   UNL A   1      32.651  35.765  31.838  1.00  0.00     0.338 C 
ATOM     29  O   UNL A   1      31.926  36.540  32.436  1.00  0.00    -0.246 OA
BRANCH  28  30
ATOM     30  C   UNL A   1      33.789  35.035  32.439  1.00  0.00     0.060 A 
ATOM     31  C   UNL A   1      35.066  35.620  32.414  1.00  0.00     0.016 A 
ATOM     32  C   UNL A   1      33.583  33.809  33.073  1.00  0.00     0.016 A 
ATOM     33  C   UNL A   1      36.148  34.966  33.002  1.00  0.00     0.010 A 
ATOM     34  C   UNL A   1      34.672  33.139  33.628  1.00  0.00     0.010 A 
ATOM     35  C   UNL A   1      35.962  33.699  33.564  1.00  0.00    -0.014 A 
BRANCH  35  36
ATOM     36  C   UNL A   1      37.125  32.827  33.848  1.00  0.00     0.031 A 
ATOM     37  C   UNL A   1      37.881  33.081  35.122  1.00  0.00     0.074 A 
ATOM     38  C   UNL A   1      37.530  31.872  32.997  1.00  0.00     0.049 A 
ATOM     39  N   UNL A   1      39.023  32.592  35.528  1.00  0.00    -0.248 NA
ATOM     40  C   UNL A   1      37.265  34.034  36.061  1.00  0.00     0.031 C 
ATOM     41  C   UNL A   1      36.844  31.474  31.771  1.00  0.00     0.029 A 
ATOM     42  N   UNL A   1      38.648  31.075  33.037  1.00  0.00    -0.354 N 
ATOM     43  C   UNL A   1      39.276  33.200  36.751  1.00  0.00     0.074 A 
ATOM     44  C   UNL A   1      38.178  34.103  37.014  1.00  0.00     0.031 C 
ATOM     45  C   UNL A   1      37.569  30.519  31.162  1.00  0.00     0.029 A 
ATOM     46  C   UNL A   1      38.790  30.275  31.930  1.00  0.00     0.049 A 
ATOM     47  H   UNL A   1      39.286  31.076  33.786  1.00  0.00     0.167 HD
ATOM     48  C   UNL A   1      40.332  33.025  37.578  1.00  0.00     0.037 A 
ATOM     49  C   UNL A   1      39.806  29.467  31.571  1.00  0.00     0.037 A 
ATOM     50  C   UNL A   1      41.420  32.125  37.310  1.00  0.00     0.049 A 
ATOM     51  C   UNL A   1      41.021  29.360  32.458  1.00  0.00     0.074 A 
ATOM     52  C   UNL A   1      42.527  31.856  38.093  1.00  0.00     0.029 A 
ATOM     53  N   UNL A   1      41.543  31.358  36.161  1.00  0.00    -0.354 N 
ATOM     54  N   UNL A   1      41.255  29.927  33.618  1.00  0.00    -0.248 NA
ATOM     55  C   UNL A   1      42.119  28.504  31.982  1.00  0.00     0.031 C 
ATOM     56  C   UNL A   1      43.352  30.974  37.390  1.00  0.00     0.029 A 
ATOM     57  C   UNL A   1      42.726  30.640  36.200  1.00  0.00     0.049 A 
ATOM     58  H   UNL A   1      40.888  31.329  35.428  1.00  0.00     0.167 HD
ATOM     59  C   UNL A   1      42.499  29.461  34.030  1.00  0.00     0.074 A 
ATOM     60  C   UNL A   1      42.975  28.571  32.992  1.00  0.00     0.031 C 
ATOM     61  C   UNL A   1      43.177  29.736  35.171  1.00  0.00     0.037 A 
BRANCH  48  62
ATOM     62  C   UNL A   1      40.382  33.871  38.815  1.00  0.00     0.057 A 
ATOM     63  C   UNL A   1      41.069  35.091  38.863  1.00  0.00     0.134 A 
ATOM     64  C   UNL A   1      39.732  33.450  39.983  1.00  0.00     0.134 A 
ATOM     65  F   UNL A   1      41.729  35.543  37.785  1.00  0.00    -0.206 F 
ATOM     66  C   UNL A   1      41.137  35.845  40.036  1.00  0.00     0.040 A 
ATOM     67  C   UNL A   1      39.766  34.211  41.152  1.00  0.00     0.040 A 
ATOM     68  F   UNL A   1      39.054  32.293  40.007  1.00  0.00    -0.206 F 
ATOM     69  C   UNL A   1      40.479  35.407  41.184  1.00  0.00     0.006 A 
ENDBRANCH  48  62
BRANCH  49  70
ATOM     70  C   UNL A   1      39.730  28.693  30.305  1.00  0.00     0.057 A 
ATOM     71  C   UNL A   1      40.233  29.220  29.110  1.00  0.00     0.134 A 
ATOM     72  C   UNL A   1      39.139  27.425  30.252  1.00  0.00     0.134 A 
ATOM     73  F   UNL A   1      40.784  30.442  29.092  1.00  0.00    -0.206 F 
ATOM     74  C   UNL A   1      40.143  28.520  27.906  1.00  0.00     0.040 A 
ATOM     75  C   UNL A   1      39.065  26.703  29.060  1.00  0.00     0.040 A 
ATOM     76  F   UNL A   1      38.629  26.867  31.359  1.00  0.00    -0.206 F 
ATOM     77  C   UNL A   1      39.563  27.254  27.880  1.00  0.00     0.006 A 
ENDBRANCH  49  70
BRANCH  61  78
ATOM     78  C   UNL A   1      44.476  29.019  35.409  1.00  0.00     0.057 A 
ATOM     79  C   UNL A   1      45.713  29.578  35.065  1.00  0.00     0.134 A 
ATOM     80  C   UNL A   1      44.487  27.784  36.071  1.00  0.00     0.134 A 
ATOM     81  F   UNL A   1      45.774  30.753  34.421  1.00  0.00    -0.206 F 
ATOM     82  C   UNL A   1      46.913  28.930  35.364  1.00  0.00     0.040 A 
ATOM     83  C   UNL A   1      45.680  27.140  36.401  1.00  0.00     0.040 A 
ATOM     84  F   UNL A   1      43.337  27.198  36.439  1.00  0.00    -0.206 F 
ATOM     85  C   UNL A   1      46.898  27.712  36.044  1.00  0.00     0.006 A 
ENDBRANCH  61  78
ENDBRANCH  35  36
ENDBRANCH  28  30
ENDBRANCH  27  28
ENDBRANCH  26  27
ENDBRANCH  25  26
ENDBRANCH  24  25
ENDBRANCH  23  24
ENDBRANCH   1  23
TORSDOF 21
ENDMDL
MODEL 3
REMARK VINA RESULT:      -9.4      1.766      2.784
REMARK SMILES Cc1cscc1CNC(=O)CC(C)(C)C(=O)OCCOCCOCCOC(=O)c1ccc(-c2c3nc(c(-c4c(F)cccc4F)c4ccc([nH]4)c(-c4c(F)cccc4F)c4nc(c(-c5c(F)cccc5F)c5ccc2[nH]5)C=C4)C=C3)cc1
REMARK SMILES IDX 21 1 20 2 19 3 18 4 17 5 15 6 16 7 12 8 13 9 14 10 11 11
REMARK SMILES IDX 9 12 8 13 10 15 7 16 6 17 1 18 2 19 3 20 4 21 5 22 22 23
REMARK SMILES IDX 23 24 24 25 25 26 26 27 27 28 28 29 29 30 30 31 82 32 31 33
REMARK SMILES IDX 81 34 32 35 33 36 34 37 75 38 35 39 80 40 74 41 76 42 36 43
REMARK SMILES IDX 79 44 73 45 72 46 37 48 63 49 46 50 62 51 47 52 50 53 61 54
REMARK SMILES IDX 77 55 48 56 49 57 60 59 78 60 51 61 38 62 39 63 44 64 40 65
REMARK SMILES IDX 41 66 43 67 45 68 42 69 64 70 65 71 70 72 66 73 67 74 69 75
REMARK SMILES IDX 71 76 68 77 52 78 53 79 58 80 54 81 55 82 57 83 59 84 56 85
REMARK H PARENT 8 14 76 47 50 58
REMARK Flexibility Score: inf
ROOT
ATOM      1  C   UNL A   1      34.493  31.194  27.636  1.00  0.00     0.188 C 
ENDROOT
BRANCH   1   2
ATOM      2  O   UNL A   1      33.209  30.609  27.667  1.00  0.00    -0.376 OA
BRANCH   2   3
ATOM      3  C   UNL A   1      32.399  30.576  26.500  1.00  0.00     0.202 C 
BRANCH   3   4
ATOM      4  C   UNL A   1      31.729  29.284  25.994  1.00  0.00     0.261 C 
BRANCH   4   5
ATOM      5  O   UNL A   1      31.819  28.994  24.577  1.00  0.00    -0.463 OA
BRANCH   5   6
ATOM      6  C   UNL A   1      31.598  27.692  24.260  1.00  0.00     0.312 C 
ATOM      7  O   UNL A   1      30.688  27.064  24.783  1.00  0.00    -0.252 OA
BRANCH   6   8
ATOM      8  C   UNL A   1      32.601  27.063  23.254  1.00  0.00     0.071 C 
ATOM      9  C   UNL A   1      33.691  26.363  24.081  1.00  0.00     0.024 C 
ATOM     10  C   UNL A   1      33.391  28.050  22.354  1.00  0.00     0.024 C 
BRANCH   8  11
ATOM     11  C   UNL A   1      31.862  26.062  22.300  1.00  0.00     0.118 C 
BRANCH  11  12
ATOM     12  C   UNL A   1      32.686  25.171  21.373  1.00  0.00     0.221 C 
ATOM     13  N   UNL A   1      32.875  23.853  21.648  1.00  0.00    -0.352 N 
ATOM     14  H   UNL A   1      33.213  23.312  20.900  1.00  0.00     0.163 HD
ATOM     15  O   UNL A   1      33.199  25.645  20.355  1.00  0.00    -0.275 OA
BRANCH  13  16
ATOM     16  C   UNL A   1      32.650  23.133  22.874  1.00  0.00     0.152 C 
BRANCH  16  17
ATOM     17  C   UNL A   1      33.918  22.670  23.545  1.00  0.00    -0.015 A 
ATOM     18  C   UNL A   1      32.722  20.870  24.994  1.00  0.00     0.045 C 
ATOM     19  C   UNL A   1      33.942  21.560  24.478  1.00  0.00    -0.035 A 
ATOM     20  C   UNL A   1      35.233  21.202  24.818  1.00  0.00     0.068 A 
ATOM     21  S   UNL A   1      36.405  22.226  24.126  1.00  0.00    -0.152 S 
ATOM     22  C   UNL A   1      35.199  23.167  23.366  1.00  0.00     0.070 A 
ENDBRANCH  16  17
ENDBRANCH  13  16
ENDBRANCH  11  12
ENDBRANCH   8  11
ENDBRANCH   6   8
ENDBRANCH   5   6
ENDBRANCH   4   5
ENDBRANCH   3   4
ENDBRANCH   2   3
ENDBRANCH   1   2
BRANCH   1  23
ATOM     23  C   UNL A   1      34.700  32.599  28.195  1.00  0.00     0.188 C 
BRANCH  23  24
ATOM     24  O   UNL A   1      33.610  33.472  28.313  1.00  0.00    -0.376 OA
BRANCH  24  25
ATOM     25  C   UNL A   1      33.776  34.873  28.403  1.00  0.00     0.202 C 
BRANCH  25  26
ATOM     26  C   UNL A   1      33.188  35.783  29.496  1.00  0.00     0.261 C 
BRANCH  26  27
ATOM     27  O   UNL A   1      32.493  35.175  30.583  1.00  0.00    -0.460 OA
BRANCH  27  28
ATOM     28  C   UNL A   1      32.699  35.712  31.810  1.00  0.00     0.338 C 
ATOM     29  O   UNL A   1      31.983  36.497  32.406  1.00  0.00    -0.246 OA
BRANCH  28  30
ATOM     30  C   UNL A   1      33.839  34.984  32.408  1.00  0.00     0.060 A 
ATOM     31  C   UNL A   1      35.107  35.588  32.417  1.00  0.00     0.016 A 
ATOM     32  C   UNL A   1      33.643  33.738  33.006  1.00  0.00     0.016 A 
ATOM     33  C   UNL A   1      36.191  34.936  33.004  1.00  0.00     0.010 A 
ATOM     34  C   UNL A   1      34.734  33.070  33.560  1.00  0.00     0.010 A 
ATOM     35  C   UNL A   1      36.016  33.651  33.530  1.00  0.00    -0.014 A 
BRANCH  35  36
ATOM     36  C   UNL A   1      37.188  32.790  33.808  1.00  0.00     0.031 A 
ATOM     37  C   UNL A   1      37.935  33.035  35.089  1.00  0.00     0.074 A 
ATOM     38  C   UNL A   1      37.610  31.852  32.946  1.00  0.00     0.049 A 
ATOM     39  N   UNL A   1      39.081  32.554  35.495  1.00  0.00    -0.248 NA
ATOM     40  C   UNL A   1      37.302  33.967  36.038  1.00  0.00     0.031 C 
ATOM     41  C   UNL A   1      36.935  31.463  31.711  1.00  0.00     0.029 A 
ATOM     42  N   UNL A   1      38.737  31.068  32.981  1.00  0.00    -0.354 N 
ATOM     43  C   UNL A   1      39.319  33.149  36.728  1.00  0.00     0.074 A 
ATOM     44  C   UNL A   1      38.209  34.034  36.997  1.00  0.00     0.031 C 
ATOM     45  C   UNL A   1      37.675  30.525  31.093  1.00  0.00     0.029 A 
ATOM     46  C   UNL A   1      38.895  30.285  31.864  1.00  0.00     0.049 A 
ATOM     47  H   UNL A   1      39.372  31.067  33.734  1.00  0.00     0.167 HD
ATOM     48  C   UNL A   1      40.373  32.975  37.558  1.00  0.00     0.037 A 
ATOM     49  C   UNL A   1      39.923  29.495  31.499  1.00  0.00     0.037 A 
ATOM     50  C   UNL A   1      41.474  32.092  37.283  1.00  0.00     0.049 A 
ATOM     51  C   UNL A   1      41.134  29.390  32.391  1.00  0.00     0.074 A 
ATOM     52  C   UNL A   1      42.580  31.826  38.069  1.00  0.00     0.029 A 
ATOM     53  N   UNL A   1      41.612  31.343  36.124  1.00  0.00    -0.354 N 
ATOM     54  N   UNL A   1      41.355  29.944  33.560  1.00  0.00    -0.248 NA
ATOM     55  C   UNL A   1      42.245  28.555  31.909  1.00  0.00     0.031 C 
ATOM     56  C   UNL A   1      43.419  30.964  37.358  1.00  0.00     0.029 A 
ATOM     57  C   UNL A   1      42.804  30.639  36.160  1.00  0.00     0.049 A 
ATOM     58  H   UNL A   1      40.961  31.316  35.387  1.00  0.00     0.167 HD
ATOM     59  C   UNL A   1      42.602  29.488  33.973  1.00  0.00     0.074 A 
ATOM     60  C   UNL A   1      43.095  28.619  32.925  1.00  0.00     0.031 C 
ATOM     61  C   UNL A   1      43.271  29.755  35.122  1.00  0.00     0.037 A 
BRANCH  48  62
ATOM     62  C   UNL A   1      40.405  33.804  38.807  1.00  0.00     0.057 A 
ATOM     63  C   UNL A   1      39.729  33.425  39.975  1.00  0.00     0.134 A 
ATOM     64  C   UNL A   1      41.124  35.006  38.838  1.00  0.00     0.134 A 
ATOM     65  F   UNL A   1      39.006  32.295  40.007  1.00  0.00    -0.206 F 
ATOM     66  C   UNL A   1      39.738  34.230  41.116  1.00  0.00     0.040 A 
ATOM     67  C   UNL A   1      41.166  35.802  39.983  1.00  0.00     0.040 A 
ATOM     68  F   UNL A   1      41.795  35.427  37.755  1.00  0.00    -0.206 F 
ATOM     69  C   UNL A   1      40.463  35.420  41.123  1.00  0.00     0.006 A 
ENDBRANCH  48  62
BRANCH  49  70
ATOM     70  C   UNL A   1      39.863  28.738  30.222  1.00  0.00     0.057 A 
ATOM     71  C   UNL A   1      39.224  27.495  30.154  1.00  0.00     0.134 A 
ATOM     72  C   UNL A   1      40.455  29.223  29.050  1.00  0.00     0.134 A 
ATOM     73  F   UNL A   1      38.663  26.964  31.251  1.00  0.00    -0.206 F 
ATOM     74  C   UNL A   1      39.183  26.756  28.970  1.00  0.00     0.040 A 
ATOM     75  C   UNL A   1      40.401  28.506  27.853  1.00  0.00     0.040 A 
ATOM     76  F   UNL A   1      41.092  30.403  29.049  1.00  0.00    -0.206 F 
ATOM     77  C   UNL A   1      39.768  27.265  27.813  1.00  0.00     0.006 A 
ENDBRANCH  49  70
BRANCH  61  78
ATOM     78  C   UNL A   1      44.577  29.051  35.356  1.00  0.00     0.057 A 
ATOM     79  C   UNL A   1      45.812  29.669  35.125  1.00  0.00     0.134 A 
ATOM     80  C   UNL A   1      44.592  27.761  35.904  1.00  0.00     0.134 A 
ATOM     81  F   UNL A   1      45.870  30.899  34.592  1.00  0.00    -0.206 F 
ATOM     82  C   UNL A   1      47.015  29.025  35.422  1.00  0.00     0.040 A 
ATOM     83  C   UNL A   1      45.787  27.119  36.232  1.00  0.00     0.040 A 
ATOM     84  F   UNL A   1      43.444  27.117  36.161  1.00  0.00    -0.206 F 
ATOM     85  C   UNL A   1      47.004  27.750  35.988  1.00  0.00     0.006 A 
ENDBRANCH  61  78
ENDBRANCH  35  36
ENDBRANCH  28  30
ENDBRANCH  27  28
ENDBRANCH  26  27
ENDBRANCH  25  26
ENDBRANCH  24  25
ENDBRANCH  23  24
ENDBRANCH   1  23
TORSDOF 21
ENDMDL
