MODEL 1
REMARK VINA RESULT:     -11.1      0.000      0.000
REMARK SMILES CCc1ccc2c(CC(=O)OCCOCCOCCOC(=O)c3ccc(-c4c5nc(c(-c6c(F)cccc6F)c6ccc([nH]6)c(-c6c(F)cccc6F)c6nc(c(-c7c(F)cccc7F)c7ccc4[nH]7)C=C6)C=C5)cc3)c(C(=O)c3cc(C)ccn3)[nH]c2c1
REMARK SMILES IDX 15 1 14 2 13 3 12 4 11 5 9 6 10 7 8 8 7 9 3 10 4 11 89 12
REMARK SMILES IDX 5 13 88 14 6 15 87 16 77 17 2 19 1 20 78 21 79 22 80 23
REMARK SMILES IDX 81 24 86 25 82 26 85 27 83 28 84 29 16 30 17 31 18 32 19 33
REMARK SMILES IDX 20 34 21 35 22 36 23 37 24 38 76 39 25 40 75 41 26 42 27 43
REMARK SMILES IDX 28 44 69 45 29 46 74 47 68 48 70 49 30 50 73 51 67 52 66 53
REMARK SMILES IDX 31 55 57 56 40 57 56 58 41 59 44 60 55 61 71 62 42 63 43 64
REMARK SMILES IDX 54 66 72 67 45 68 32 69 33 70 38 71 34 72 35 73 37 74 39 75
REMARK SMILES IDX 36 76 58 77 59 78 64 79 60 80 61 81 63 82 65 83 62 84 46 85
REMARK SMILES IDX 47 86 52 87 48 88 49 89 51 90 53 91 50 92
REMARK H PARENT 87 18 70 54 44 65
REMARK Flexibility Score: inf
ROOT
ATOM      1  C   UNL A   1      31.745  26.428  22.160  1.00  0.00     0.188 C 
ENDROOT
BRANCH   1   2
ATOM      2  O   UNL A   1      31.263  25.185  22.665  1.00  0.00    -0.376 OA
BRANCH   2   3
ATOM      3  C   UNL A   1      30.312  25.211  23.721  1.00  0.00     0.202 C 
BRANCH   3   4
ATOM      4  C   UNL A   1      30.819  24.725  25.084  1.00  0.00     0.261 C 
BRANCH   4   5
ATOM      5  O   UNL A   1      32.253  24.842  25.212  1.00  0.00    -0.463 OA
BRANCH   5   6
ATOM      6  C   UNL A   1      32.936  23.724  25.569  1.00  0.00     0.310 C 
ATOM      7  O   UNL A   1      32.949  23.278  26.715  1.00  0.00    -0.252 OA
BRANCH   6   8
ATOM      8  C   UNL A   1      33.536  22.950  24.401  1.00  0.00     0.161 C 
BRANCH   8   9
ATOM      9  C   UNL A   1      34.316  21.686  24.678  1.00  0.00     0.000 A 
ATOM     10  C   UNL A   1      33.456  17.555  24.370  1.00  0.00    -0.046 A 
ATOM     11  C   UNL A   1      32.364  18.422  24.245  1.00  0.00     0.004 A 
ATOM     12  C   UNL A   1      34.709  18.081  24.724  1.00  0.00     0.030 A 
ATOM     13  C   UNL A   1      32.504  19.812  24.405  1.00  0.00     0.011 A 
ATOM     14  C   UNL A   1      34.835  19.468  24.835  1.00  0.00     0.046 A 
ATOM     15  C   UNL A   1      33.778  20.353  24.658  1.00  0.00     0.004 A 
ATOM     16  N   UNL A   1      35.951  20.224  25.079  1.00  0.00    -0.352 N 
ATOM     17  C   UNL A   1      35.712  21.531  24.710  1.00  0.00     0.093 A 
ATOM     18  H   UNL A   1      36.793  19.888  25.460  1.00  0.00     0.167 HD
BRANCH  10  19
ATOM     19  C   UNL A   1      33.383  16.065  24.116  1.00  0.00     0.032 C 
ATOM     20  C   UNL A   1      33.021  15.180  25.300  1.00  0.00     0.009 C 
ENDBRANCH  10  19
BRANCH  17  21
ATOM     21  C   UNL A   1      36.777  22.456  24.351  1.00  0.00     0.227 C 
ATOM     22  O   UNL A   1      36.853  23.003  23.254  1.00  0.00    -0.285 OA
BRANCH  21  23
ATOM     23  C   UNL A   1      37.867  22.712  25.339  1.00  0.00     0.113 A 
ATOM     24  C   UNL A   1      37.926  23.917  26.033  1.00  0.00     0.036 A 
ATOM     25  N   UNL A   1      38.753  21.697  25.508  1.00  0.00    -0.253 NA
ATOM     26  C   UNL A   1      38.939  24.085  26.984  1.00  0.00    -0.047 A 
ATOM     27  C   UNL A   1      39.680  21.864  26.476  1.00  0.00     0.112 A 
ATOM     28  C   UNL A   1      39.119  25.370  27.737  1.00  0.00     0.044 C 
ATOM     29  C   UNL A   1      39.808  23.019  27.231  1.00  0.00     0.023 A 
ENDBRANCH  21  23
ENDBRANCH  17  21
ENDBRANCH   8   9
ENDBRANCH   6   8
ENDBRANCH   5   6
ENDBRANCH   4   5
ENDBRANCH   3   4
ENDBRANCH   2   3
ENDBRANCH   1   2
BRANCH   1  30
ATOM     30  C   UNL A   1      33.227  26.808  22.373  1.00  0.00     0.188 C 
BRANCH  30  31
ATOM     31  O   UNL A   1      33.412  27.917  23.243  1.00  0.00    -0.376 OA
BRANCH  31  32
ATOM     32  C   UNL A   1      32.209  28.558  23.640  1.00  0.00     0.202 C 
BRANCH  32  33
ATOM     33  C   UNL A   1      32.175  28.803  25.148  1.00  0.00     0.261 C 
BRANCH  33  34
ATOM     34  O   UNL A   1      33.345  29.523  25.592  1.00  0.00    -0.460 OA
BRANCH  34  35
ATOM     35  C   UNL A   1      33.186  30.437  26.565  1.00  0.00     0.338 C 
ATOM     36  O   UNL A   1      32.212  31.169  26.725  1.00  0.00    -0.246 OA
BRANCH  35  37
ATOM     37  C   UNL A   1      34.396  30.501  27.421  1.00  0.00     0.060 A 
ATOM     38  C   UNL A   1      35.031  31.707  27.732  1.00  0.00     0.016 A 
ATOM     39  C   UNL A   1      34.972  29.305  27.846  1.00  0.00     0.016 A 
ATOM     40  C   UNL A   1      36.259  31.719  28.406  1.00  0.00     0.010 A 
ATOM     41  C   UNL A   1      36.163  29.323  28.580  1.00  0.00     0.010 A 
ATOM     42  C   UNL A   1      36.838  30.528  28.851  1.00  0.00    -0.014 A 
BRANCH  42  43
ATOM     43  C   UNL A   1      38.146  30.500  29.567  1.00  0.00     0.031 A 
ATOM     44  C   UNL A   1      39.310  29.753  28.971  1.00  0.00     0.074 A 
ATOM     45  C   UNL A   1      38.298  31.086  30.772  1.00  0.00     0.049 A 
ATOM     46  N   UNL A   1      40.411  29.333  29.542  1.00  0.00    -0.248 NA
ATOM     47  C   UNL A   1      39.215  29.426  27.539  1.00  0.00     0.031 C 
ATOM     48  C   UNL A   1      37.306  31.918  31.450  1.00  0.00     0.029 A 
ATOM     49  N   UNL A   1      39.352  31.040  31.658  1.00  0.00    -0.354 N 
ATOM     50  C   UNL A   1      41.109  28.642  28.560  1.00  0.00     0.074 A 
ATOM     51  C   UNL A   1      40.315  28.708  27.351  1.00  0.00     0.031 C 
ATOM     52  C   UNL A   1      37.786  32.290  32.648  1.00  0.00     0.029 A 
ATOM     53  C   UNL A   1      39.082  31.653  32.859  1.00  0.00     0.049 A 
ATOM     54  H   UNL A   1      40.213  30.610  31.452  1.00  0.00     0.167 HD
ATOM     55  C   UNL A   1      42.298  28.001  28.664  1.00  0.00     0.037 A 
ATOM     56  C   UNL A   1      39.760  31.648  34.024  1.00  0.00     0.037 A 
ATOM     57  C   UNL A   1      43.113  27.976  29.852  1.00  0.00     0.049 A 
ATOM     58  C   UNL A   1      41.042  30.868  34.137  1.00  0.00     0.074 A 
ATOM     59  C   UNL A   1      44.342  27.364  30.042  1.00  0.00     0.029 A 
ATOM     60  N   UNL A   1      42.790  28.597  31.047  1.00  0.00    -0.354 N 
ATOM     61  N   UNL A   1      41.671  30.169  33.224  1.00  0.00    -0.248 NA
ATOM     62  C   UNL A   1      41.700  30.863  35.452  1.00  0.00     0.031 C 
ATOM     63  C   UNL A   1      44.740  27.577  31.365  1.00  0.00     0.029 A 
ATOM     64  C   UNL A   1      43.784  28.365  31.984  1.00  0.00     0.049 A 
ATOM     65  H   UNL A   1      41.975  29.126  31.208  1.00  0.00     0.167 HD
ATOM     66  C   UNL A   1      42.806  29.664  33.846  1.00  0.00     0.074 A 
ATOM     67  C   UNL A   1      42.791  30.149  35.209  1.00  0.00     0.031 C 
ATOM     68  C   UNL A   1      43.773  28.865  33.333  1.00  0.00     0.037 A 
BRANCH  55  69
ATOM     69  C   UNL A   1      42.788  27.229  27.474  1.00  0.00     0.057 A 
ATOM     70  C   UNL A   1      43.438  27.844  26.398  1.00  0.00     0.134 A 
ATOM     71  C   UNL A   1      42.679  25.831  27.451  1.00  0.00     0.134 A 
ATOM     72  F   UNL A   1      43.565  29.178  26.353  1.00  0.00    -0.206 F 
ATOM     73  C   UNL A   1      43.958  27.096  25.338  1.00  0.00     0.040 A 
ATOM     74  C   UNL A   1      43.214  25.072  26.409  1.00  0.00     0.040 A 
ATOM     75  F   UNL A   1      42.073  25.179  28.455  1.00  0.00    -0.206 F 
ATOM     76  C   UNL A   1      43.855  25.706  25.347  1.00  0.00     0.006 A 
ENDBRANCH  55  69
BRANCH  56  77
ATOM     77  C   UNL A   1      39.205  32.345  35.215  1.00  0.00     0.057 A 
ATOM     78  C   UNL A   1      38.357  31.686  36.112  1.00  0.00     0.134 A 
ATOM     79  C   UNL A   1      39.474  33.698  35.458  1.00  0.00     0.134 A 
ATOM     80  F   UNL A   1      38.035  30.400  35.915  1.00  0.00    -0.206 F 
ATOM     81  C   UNL A   1      37.781  32.352  37.195  1.00  0.00     0.040 A 
ATOM     82  C   UNL A   1      38.931  34.367  36.555  1.00  0.00     0.040 A 
ATOM     83  F   UNL A   1      40.273  34.390  34.632  1.00  0.00    -0.206 F 
ATOM     84  C   UNL A   1      38.073  33.696  37.422  1.00  0.00     0.006 A 
ENDBRANCH  56  77
BRANCH  68  85
ATOM     85  C   UNL A   1      44.920  28.507  34.231  1.00  0.00     0.057 A 
ATOM     86  C   UNL A   1      46.062  29.314  34.335  1.00  0.00     0.134 A 
ATOM     87  C   UNL A   1      44.871  27.354  35.026  1.00  0.00     0.134 A 
ATOM     88  F   UNL A   1      46.179  30.425  33.591  1.00  0.00    -0.206 F 
ATOM     89  C   UNL A   1      47.121  28.973  35.178  1.00  0.00     0.040 A 
ATOM     90  C   UNL A   1      45.912  27.017  35.891  1.00  0.00     0.040 A 
ATOM     91  F   UNL A   1      43.804  26.542  34.981  1.00  0.00    -0.206 F 
ATOM     92  C   UNL A   1      47.045  27.825  35.963  1.00  0.00     0.006 A 
ENDBRANCH  68  85
ENDBRANCH  42  43
ENDBRANCH  35  37
ENDBRANCH  34  35
ENDBRANCH  33  34
ENDBRANCH  32  33
ENDBRANCH  31  32
ENDBRANCH  30  31
ENDBRANCH   1  30
TORSDOF 21
ENDMDL
MODEL 2
REMARK VINA RESULT:     -10.5      2.739      7.759
REMARK SMILES CCc1ccc2c(CC(=O)OCCOCCOCCOC(=O)c3ccc(-c4c5nc(c(-c6c(F)cccc6F)c6ccc([nH]6)c(-c6c(F)cccc6F)c6nc(c(-c7c(F)cccc7F)c7ccc4[nH]7)C=C6)C=C5)cc3)c(C(=O)c3cc(C)ccn3)[nH]c2c1
REMARK SMILES IDX 15 1 14 2 13 3 12 4 11 5 9 6 10 7 8 8 7 9 3 10 4 11 89 12
REMARK SMILES IDX 5 13 88 14 6 15 87 16 77 17 2 19 1 20 78 21 79 22 80 23
REMARK SMILES IDX 81 24 86 25 82 26 85 27 83 28 84 29 16 30 17 31 18 32 19 33
REMARK SMILES IDX 20 34 21 35 22 36 23 37 24 38 76 39 25 40 75 41 26 42 27 43
REMARK SMILES IDX 28 44 69 45 29 46 74 47 68 48 70 49 30 50 73 51 67 52 66 53
REMARK SMILES IDX 31 55 57 56 40 57 56 58 41 59 44 60 55 61 71 62 42 63 43 64
REMARK SMILES IDX 54 66 72 67 45 68 32 69 33 70 38 71 34 72 35 73 37 74 39 75
REMARK SMILES IDX 36 76 58 77 59 78 64 79 60 80 61 81 63 82 65 83 62 84 46 85
REMARK SMILES IDX 47 86 52 87 48 88 49 89 51 90 53 91 50 92
REMARK H PARENT 87 18 70 54 44 65
REMARK Flexibility Score: inf
ROOT
ATOM      1  C   UNL A   1      41.873  21.290  27.576  1.00  0.00     0.188 C 
ENDROOT
BRANCH   1   2
ATOM      2  O   UNL A   1      40.605  21.929  27.441  1.00  0.00    -0.376 OA
BRANCH   2   3
ATOM      3  C   UNL A   1      39.709  21.443  26.450  1.00  0.00     0.202 C 
BRANCH   3   4
ATOM      4  C   UNL A   1      38.497  22.335  26.155  1.00  0.00     0.261 C 
BRANCH   4   5
ATOM      5  O   UNL A   1      37.364  21.580  25.669  1.00  0.00    -0.463 OA
BRANCH   5   6
ATOM      6  C   UNL A   1      36.166  22.218  25.635  1.00  0.00     0.310 C 
ATOM      7  O   UNL A   1      35.903  23.200  26.326  1.00  0.00    -0.252 OA
BRANCH   6   8
ATOM      8  C   UNL A   1      35.227  21.738  24.534  1.00  0.00     0.161 C 
BRANCH   8   9
ATOM      9  C   UNL A   1      34.074  20.831  24.893  1.00  0.00     0.000 A 
ATOM     10  C   UNL A   1      33.557  16.635  25.064  1.00  0.00    -0.046 A 
ATOM     11  C   UNL A   1      34.727  17.086  24.441  1.00  0.00     0.004 A 
ATOM     12  C   UNL A   1      32.585  17.571  25.453  1.00  0.00     0.030 A 
ATOM     13  C   UNL A   1      34.980  18.456  24.252  1.00  0.00     0.011 A 
ATOM     14  C   UNL A   1      32.875  18.929  25.295  1.00  0.00     0.046 A 
ATOM     15  C   UNL A   1      34.056  19.402  24.733  1.00  0.00     0.004 A 
ATOM     16  N   UNL A   1      32.145  20.025  25.669  1.00  0.00    -0.352 N 
ATOM     17  C   UNL A   1      32.961  21.136  25.695  1.00  0.00     0.093 A 
ATOM     18  H   UNL A   1      31.185  20.021  25.886  1.00  0.00     0.167 HD
BRANCH  10  19
ATOM     19  C   UNL A   1      33.276  15.182  25.379  1.00  0.00     0.032 C 
ATOM     20  C   UNL A   1      32.009  14.879  26.165  1.00  0.00     0.009 C 
ENDBRANCH  10  19
BRANCH  17  21
ATOM     21  C   UNL A   1      32.673  22.308  26.509  1.00  0.00     0.227 C 
ATOM     22  O   UNL A   1      32.967  22.391  27.698  1.00  0.00    -0.285 OA
BRANCH  21  23
ATOM     23  C   UNL A   1      31.930  23.446  25.889  1.00  0.00     0.113 A 
ATOM     24  C   UNL A   1      31.913  24.697  26.498  1.00  0.00     0.036 A 
ATOM     25  N   UNL A   1      31.310  23.167  24.713  1.00  0.00    -0.253 NA
ATOM     26  C   UNL A   1      31.243  25.739  25.849  1.00  0.00    -0.047 A 
ATOM     27  C   UNL A   1      30.726  24.208  24.081  1.00  0.00     0.112 A 
ATOM     28  C   UNL A   1      31.119  27.106  26.456  1.00  0.00     0.044 C 
ATOM     29  C   UNL A   1      30.672  25.492  24.598  1.00  0.00     0.023 A 
ENDBRANCH  21  23
ENDBRANCH  17  21
ENDBRANCH   8   9
ENDBRANCH   6   8
ENDBRANCH   5   6
ENDBRANCH   4   5
ENDBRANCH   3   4
ENDBRANCH   2   3
ENDBRANCH   1   2
BRANCH   1  30
ATOM     30  C   UNL A   1      42.431  20.458  26.401  1.00  0.00     0.188 C 
BRANCH  30  31
ATOM     31  O   UNL A   1      43.129  21.233  25.435  1.00  0.00    -0.376 OA
BRANCH  31  32
ATOM     32  C   UNL A   1      43.850  22.332  25.974  1.00  0.00     0.202 C 
BRANCH  32  33
ATOM     33  C   UNL A   1      43.450  23.646  25.306  1.00  0.00     0.261 C 
BRANCH  33  34
ATOM     34  O   UNL A   1      42.760  24.518  26.228  1.00  0.00    -0.460 OA
BRANCH  34  35
ATOM     35  C   UNL A   1      42.389  25.732  25.785  1.00  0.00     0.338 C 
ATOM     36  O   UNL A   1      42.478  26.144  24.631  1.00  0.00    -0.246 OA
BRANCH  35  37
ATOM     37  C   UNL A   1      41.896  26.568  26.907  1.00  0.00     0.060 A 
ATOM     38  C   UNL A   1      42.382  27.855  27.152  1.00  0.00     0.016 A 
ATOM     39  C   UNL A   1      40.989  26.006  27.803  1.00  0.00     0.016 A 
ATOM     40  C   UNL A   1      42.015  28.553  28.310  1.00  0.00     0.010 A 
ATOM     41  C   UNL A   1      40.570  26.732  28.924  1.00  0.00     0.010 A 
ATOM     42  C   UNL A   1      41.094  28.007  29.208  1.00  0.00    -0.014 A 
BRANCH  42  43
ATOM     43  C   UNL A   1      40.684  28.717  30.453  1.00  0.00     0.031 A 
ATOM     44  C   UNL A   1      39.547  29.705  30.411  1.00  0.00     0.074 A 
ATOM     45  C   UNL A   1      41.347  28.538  31.614  1.00  0.00     0.049 A 
ATOM     46  N   UNL A   1      39.230  30.648  31.263  1.00  0.00    -0.248 NA
ATOM     47  C   UNL A   1      38.651  29.624  29.246  1.00  0.00     0.031 C 
ATOM     48  C   UNL A   1      42.410  27.563  31.849  1.00  0.00     0.029 A 
ATOM     49  N   UNL A   1      41.236  29.204  32.815  1.00  0.00    -0.354 N 
ATOM     50  C   UNL A   1      38.142  31.310  30.710  1.00  0.00     0.074 A 
ATOM     51  C   UNL A   1      37.842  30.654  29.455  1.00  0.00     0.031 C 
ATOM     52  C   UNL A   1      42.865  27.702  33.106  1.00  0.00     0.029 A 
ATOM     53  C   UNL A   1      42.188  28.832  33.734  1.00  0.00     0.049 A 
ATOM     54  H   UNL A   1      40.544  29.880  32.996  1.00  0.00     0.167 HD
ATOM     55  C   UNL A   1      37.465  32.376  31.202  1.00  0.00     0.037 A 
ATOM     56  C   UNL A   1      42.531  29.377  34.919  1.00  0.00     0.037 A 
ATOM     57  C   UNL A   1      37.730  32.998  32.474  1.00  0.00     0.049 A 
ATOM     58  C   UNL A   1      41.813  30.605  35.411  1.00  0.00     0.074 A 
ATOM     59  C   UNL A   1      37.082  34.073  33.059  1.00  0.00     0.029 A 
ATOM     60  N   UNL A   1      38.715  32.596  33.362  1.00  0.00    -0.354 N 
ATOM     61  N   UNL A   1      40.822  31.263  34.859  1.00  0.00    -0.248 NA
ATOM     62  C   UNL A   1      42.275  31.177  36.684  1.00  0.00     0.031 C 
ATOM     63  C   UNL A   1      37.704  34.350  34.281  1.00  0.00     0.029 A 
ATOM     64  C   UNL A   1      38.705  33.415  34.480  1.00  0.00     0.049 A 
ATOM     65  H   UNL A   1      39.330  31.840  33.220  1.00  0.00     0.167 HD
ATOM     66  C   UNL A   1      40.529  32.306  35.728  1.00  0.00     0.074 A 
ATOM     67  C   UNL A   1      41.433  32.187  36.851  1.00  0.00     0.031 C 
ATOM     68  C   UNL A   1      39.595  33.281  35.602  1.00  0.00     0.037 A 
BRANCH  55  69
ATOM     69  C   UNL A   1      36.387  32.978  30.349  1.00  0.00     0.057 A 
ATOM     70  C   UNL A   1      35.027  32.809  30.630  1.00  0.00     0.134 A 
ATOM     71  C   UNL A   1      36.727  33.816  29.277  1.00  0.00     0.134 A 
ATOM     72  F   UNL A   1      34.634  32.011  31.635  1.00  0.00    -0.206 F 
ATOM     73  C   UNL A   1      34.042  33.445  29.871  1.00  0.00     0.040 A 
ATOM     74  C   UNL A   1      35.752  34.475  28.526  1.00  0.00     0.040 A 
ATOM     75  F   UNL A   1      38.013  34.027  28.959  1.00  0.00    -0.206 F 
ATOM     76  C   UNL A   1      34.404  34.289  28.822  1.00  0.00     0.006 A 
ENDBRANCH  55  69
BRANCH  56  77
ATOM     77  C   UNL A   1      43.665  28.814  35.700  1.00  0.00     0.057 A 
ATOM     78  C   UNL A   1      44.973  29.274  35.513  1.00  0.00     0.134 A 
ATOM     79  C   UNL A   1      43.472  27.774  36.617  1.00  0.00     0.134 A 
ATOM     80  F   UNL A   1      45.228  30.245  34.624  1.00  0.00    -0.206 F 
ATOM     81  C   UNL A   1      46.051  28.706  36.195  1.00  0.00     0.040 A 
ATOM     82  C   UNL A   1      44.536  27.220  37.330  1.00  0.00     0.040 A 
ATOM     83  F   UNL A   1      42.244  27.283  36.837  1.00  0.00    -0.206 F 
ATOM     84  C   UNL A   1      45.831  27.679  37.112  1.00  0.00     0.006 A 
ENDBRANCH  56  77
BRANCH  68  85
ATOM     85  C   UNL A   1      39.468  34.263  36.729  1.00  0.00     0.057 A 
ATOM     86  C   UNL A   1      38.744  33.968  37.893  1.00  0.00     0.134 A 
ATOM     87  C   UNL A   1      40.101  35.510  36.662  1.00  0.00     0.134 A 
ATOM     88  F   UNL A   1      38.102  32.796  38.016  1.00  0.00    -0.206 F 
ATOM     89  C   UNL A   1      38.637  34.888  38.937  1.00  0.00     0.040 A 
ATOM     90  C   UNL A   1      40.022  36.428  37.710  1.00  0.00     0.040 A 
ATOM     91  F   UNL A   1      40.817  35.853  35.580  1.00  0.00    -0.206 F 
ATOM     92  C   UNL A   1      39.282  36.120  38.850  1.00  0.00     0.006 A 
ENDBRANCH  68  85
ENDBRANCH  42  43
ENDBRANCH  35  37
ENDBRANCH  34  35
ENDBRANCH  33  34
ENDBRANCH  32  33
ENDBRANCH  31  32
ENDBRANCH  30  31
ENDBRANCH   1  30
TORSDOF 21
ENDMDL
MODEL 3
REMARK VINA RESULT:     -10.5      4.095      8.225
REMARK SMILES CCc1ccc2c(CC(=O)OCCOCCOCCOC(=O)c3ccc(-c4c5nc(c(-c6c(F)cccc6F)c6ccc([nH]6)c(-c6c(F)cccc6F)c6nc(c(-c7c(F)cccc7F)c7ccc4[nH]7)C=C6)C=C5)cc3)c(C(=O)c3cc(C)ccn3)[nH]c2c1
REMARK SMILES IDX 15 1 14 2 13 3 12 4 11 5 9 6 10 7 8 8 7 9 3 10 4 11 89 12
REMARK SMILES IDX 5 13 88 14 6 15 87 16 77 17 2 19 1 20 78 21 79 22 80 23
REMARK SMILES IDX 81 24 86 25 82 26 85 27 83 28 84 29 16 30 17 31 18 32 19 33
REMARK SMILES IDX 20 34 21 35 22 36 23 37 24 38 76 39 25 40 75 41 26 42 27 43
REMARK SMILES IDX 28 44 69 45 29 46 74 47 68 48 70 49 30 50 73 51 67 52 66 53
REMARK SMILES IDX 31 55 57 56 40 57 56 58 41 59 44 60 55 61 71 62 42 63 43 64
REMARK SMILES IDX 54 66 72 67 45 68 32 69 33 70 38 71 34 72 35 73 37 74 39 75
REMARK SMILES IDX 36 76 58 77 59 78 64 79 60 80 61 81 63 82 65 83 62 84 46 85
REMARK SMILES IDX 47 86 52 87 48 88 49 89 51 90 53 91 50 92
REMARK H PARENT 87 18 70 54 44 65
REMARK Flexibility Score: inf
ROOT
ATOM      1  C   UNL A   1      31.819  32.204  27.256  1.00  0.00     0.188 C 
ENDROOT
BRANCH   1   2
ATOM      2  O   UNL A   1      31.075  32.031  26.052  1.00  0.00    -0.376 OA
BRANCH   2   3
ATOM      3  C   UNL A   1      31.066  30.745  25.446  1.00  0.00     0.202 C 
BRANCH   3   4
ATOM      4  C   UNL A   1      32.179  29.791  25.895  1.00  0.00     0.261 C 
BRANCH   4   5
ATOM      5  O   UNL A   1      31.725  28.845  26.889  1.00  0.00    -0.463 OA
BRANCH   5   6
ATOM      6  C   UNL A   1      32.094  27.548  26.722  1.00  0.00     0.310 C 
ATOM      7  O   UNL A   1      31.331  26.601  26.898  1.00  0.00    -0.252 OA
BRANCH   6   8
ATOM      8  C   UNL A   1      33.480  27.360  26.117  1.00  0.00     0.161 C 
BRANCH   8   9
ATOM      9  C   UNL A   1      33.659  26.385  24.976  1.00  0.00     0.000 A 
ATOM     10  C   UNL A   1      33.411  22.176  24.621  1.00  0.00    -0.046 A 
ATOM     11  C   UNL A   1      33.414  22.684  25.926  1.00  0.00     0.004 A 
ATOM     12  C   UNL A   1      33.630  23.052  23.546  1.00  0.00     0.030 A 
ATOM     13  C   UNL A   1      33.569  24.058  26.181  1.00  0.00     0.011 A 
ATOM     14  C   UNL A   1      33.739  24.418  23.819  1.00  0.00     0.046 A 
ATOM     15  C   UNL A   1      33.686  24.952  25.101  1.00  0.00     0.004 A 
ATOM     16  N   UNL A   1      33.866  25.472  22.953  1.00  0.00    -0.352 N 
ATOM     17  C   UNL A   1      33.537  26.643  23.601  1.00  0.00     0.093 A 
ATOM     18  H   UNL A   1      34.149  25.404  22.013  1.00  0.00     0.167 HD
BRANCH  10  19
ATOM     19  C   UNL A   1      33.153  20.724  24.283  1.00  0.00     0.032 C 
ATOM     20  C   UNL A   1      33.214  19.727  25.431  1.00  0.00     0.009 C 
ENDBRANCH  10  19
BRANCH  17  21
ATOM     21  C   UNL A   1      33.071  27.829  22.898  1.00  0.00     0.227 C 
ATOM     22  O   UNL A   1      33.827  28.655  22.393  1.00  0.00    -0.285 OA
BRANCH  21  23
ATOM     23  C   UNL A   1      31.601  28.093  22.835  1.00  0.00     0.113 A 
ATOM     24  C   UNL A   1      30.697  27.210  23.418  1.00  0.00     0.036 A 
ATOM     25  N   UNL A   1      31.240  29.237  22.199  1.00  0.00    -0.253 NA
ATOM     26  C   UNL A   1      29.336  27.531  23.373  1.00  0.00    -0.047 A 
ATOM     27  C   UNL A   1      29.926  29.551  22.228  1.00  0.00     0.112 A 
ATOM     28  C   UNL A   1      28.283  26.613  23.920  1.00  0.00     0.044 C 
ATOM     29  C   UNL A   1      28.954  28.746  22.797  1.00  0.00     0.023 A 
ENDBRANCH  21  23
ENDBRANCH  17  21
ENDBRANCH   8   9
ENDBRANCH   6   8
ENDBRANCH   5   6
ENDBRANCH   4   5
ENDBRANCH   3   4
ENDBRANCH   2   3
ENDBRANCH   1   2
BRANCH   1  30
ATOM     30  C   UNL A   1      32.631  33.501  27.465  1.00  0.00     0.188 C 
BRANCH  30  31
ATOM     31  O   UNL A   1      33.623  33.396  28.477  1.00  0.00    -0.376 OA
BRANCH  31  32
ATOM     32  C   UNL A   1      34.883  33.948  28.123  1.00  0.00     0.202 C 
BRANCH  32  33
ATOM     33  C   UNL A   1      36.029  33.001  28.475  1.00  0.00     0.261 C 
BRANCH  33  34
ATOM     34  O   UNL A   1      35.555  31.848  29.205  1.00  0.00    -0.460 OA
BRANCH  34  35
ATOM     35  C   UNL A   1      35.530  30.668  28.563  1.00  0.00     0.338 C 
ATOM     36  O   UNL A   1      34.554  30.154  28.021  1.00  0.00    -0.246 OA
BRANCH  35  37
ATOM     37  C   UNL A   1      36.855  30.006  28.639  1.00  0.00     0.060 A 
ATOM     38  C   UNL A   1      37.402  29.558  29.845  1.00  0.00     0.016 A 
ATOM     39  C   UNL A   1      37.621  29.920  27.477  1.00  0.00     0.016 A 
ATOM     40  C   UNL A   1      38.719  29.086  29.905  1.00  0.00     0.010 A 
ATOM     41  C   UNL A   1      38.913  29.383  27.527  1.00  0.00     0.010 A 
ATOM     42  C   UNL A   1      39.491  28.980  28.745  1.00  0.00    -0.014 A 
BRANCH  42  43
ATOM     43  C   UNL A   1      40.898  28.488  28.770  1.00  0.00     0.031 A 
ATOM     44  C   UNL A   1      42.029  29.462  28.975  1.00  0.00     0.074 A 
ATOM     45  C   UNL A   1      41.190  27.188  28.557  1.00  0.00     0.049 A 
ATOM     46  N   UNL A   1      43.306  29.321  28.722  1.00  0.00    -0.248 NA
ATOM     47  C   UNL A   1      41.668  30.777  29.530  1.00  0.00     0.031 C 
ATOM     48  C   UNL A   1      40.219  26.104  28.428  1.00  0.00     0.029 A 
ATOM     49  N   UNL A   1      42.407  26.566  28.381  1.00  0.00    -0.354 N 
ATOM     50  C   UNL A   1      43.891  30.543  29.028  1.00  0.00     0.074 A 
ATOM     51  C   UNL A   1      42.833  31.413  29.497  1.00  0.00     0.031 C 
ATOM     52  C   UNL A   1      40.871  24.956  28.177  1.00  0.00     0.029 A 
ATOM     53  C   UNL A   1      42.296  25.238  28.041  1.00  0.00     0.049 A 
ATOM     54  H   UNL A   1      43.269  27.028  28.486  1.00  0.00     0.167 HD
ATOM     55  C   UNL A   1      45.191  30.908  28.914  1.00  0.00     0.037 A 
ATOM     56  C   UNL A   1      43.219  24.360  27.602  1.00  0.00     0.037 A 
ATOM     57  C   UNL A   1      46.254  30.028  28.495  1.00  0.00     0.049 A 
ATOM     58  C   UNL A   1      44.644  24.807  27.414  1.00  0.00     0.074 A 
ATOM     59  C   UNL A   1      47.604  30.310  28.367  1.00  0.00     0.029 A 
ATOM     60  N   UNL A   1      46.089  28.698  28.146  1.00  0.00    -0.354 N 
ATOM     61  N   UNL A   1      45.183  25.979  27.649  1.00  0.00    -0.248 NA
ATOM     62  C   UNL A   1      45.585  23.812  26.880  1.00  0.00     0.031 C 
ATOM     63  C   UNL A   1      48.249  29.162  27.897  1.00  0.00     0.029 A 
ATOM     64  C   UNL A   1      47.310  28.151  27.783  1.00  0.00     0.049 A 
ATOM     65  H   UNL A   1      45.233  28.212  28.155  1.00  0.00     0.167 HD
ATOM     66  C   UNL A   1      46.526  25.853  27.316  1.00  0.00     0.074 A 
ATOM     67  C   UNL A   1      46.726  24.489  26.879  1.00  0.00     0.031 C 
ATOM     68  C   UNL A   1      47.506  26.788  27.365  1.00  0.00     0.037 A 
BRANCH  55  69
ATOM     69  C   UNL A   1      45.550  32.335  29.207  1.00  0.00     0.057 A 
ATOM     70  C   UNL A   1      45.499  33.335  28.231  1.00  0.00     0.134 A 
ATOM     71  C   UNL A   1      45.867  32.724  30.517  1.00  0.00     0.134 A 
ATOM     72  F   UNL A   1      45.213  33.029  26.956  1.00  0.00    -0.206 F 
ATOM     73  C   UNL A   1      45.759  34.672  28.544  1.00  0.00     0.040 A 
ATOM     74  C   UNL A   1      46.106  34.059  30.846  1.00  0.00     0.040 A 
ATOM     75  F   UNL A   1      45.925  31.815  31.502  1.00  0.00    -0.206 F 
ATOM     76  C   UNL A   1      46.054  35.038  29.857  1.00  0.00     0.006 A 
ENDBRANCH  55  69
BRANCH  56  77
ATOM     77  C   UNL A   1      42.818  22.977  27.231  1.00  0.00     0.057 A 
ATOM     78  C   UNL A   1      42.616  22.614  25.894  1.00  0.00     0.134 A 
ATOM     79  C   UNL A   1      42.584  22.000  28.206  1.00  0.00     0.134 A 
ATOM     80  F   UNL A   1      42.792  23.514  24.916  1.00  0.00    -0.206 F 
ATOM     81  C   UNL A   1      42.177  21.336  25.543  1.00  0.00     0.040 A 
ATOM     82  C   UNL A   1      42.177  20.709  27.867  1.00  0.00     0.040 A 
ATOM     83  F   UNL A   1      42.752  22.285  29.506  1.00  0.00    -0.206 F 
ATOM     84  C   UNL A   1      41.962  20.378  26.532  1.00  0.00     0.006 A 
ENDBRANCH  56  77
BRANCH  68  85
ATOM     85  C   UNL A   1      48.891  26.356  26.986  1.00  0.00     0.057 A 
ATOM     86  C   UNL A   1      49.742  25.708  27.892  1.00  0.00     0.134 A 
ATOM     87  C   UNL A   1      49.372  26.564  25.687  1.00  0.00     0.134 A 
ATOM     88  F   UNL A   1      49.348  25.490  29.157  1.00  0.00    -0.206 F 
ATOM     89  C   UNL A   1      51.027  25.306  27.526  1.00  0.00     0.040 A 
ATOM     90  C   UNL A   1      50.646  26.144  25.302  1.00  0.00     0.040 A 
ATOM     91  F   UNL A   1      48.607  27.172  24.767  1.00  0.00    -0.206 F 
ATOM     92  C   UNL A   1      51.480  25.518  26.226  1.00  0.00     0.006 A 
ENDBRANCH  68  85
ENDBRANCH  42  43
ENDBRANCH  35  37
ENDBRANCH  34  35
ENDBRANCH  33  34
ENDBRANCH  32  33
ENDBRANCH  31  32
ENDBRANCH  30  31
ENDBRANCH   1  30
TORSDOF 21
ENDMDL
