MODEL 1
REMARK VINA RESULT:      -9.7      0.000      0.000
REMARK SMILES C=CCOc1cccc(NS(=O)(=O)c2c[nH]c(C(=O)OCCOCCOCCOC(=O)c3ccc(-c4c5nc(c(-c6c(F)cccc6F)c6ccc([nH]6)c(-c6c(F)cccc6F)c6nc(c(-c7c(F)cccc7F)c7ccc4[nH]7)C=C6)C=C5)cc3)c2)c1
REMARK SMILES IDX 22 1 21 2 20 3 18 4 19 5 17 6 14 7 15 8 86 9 16 10 11 12
REMARK SMILES IDX 12 13 13 14 10 15 9 17 5 18 6 19 87 20 7 21 8 22 4 23 3 24
REMARK SMILES IDX 2 25 1 26 23 27 24 28 25 29 26 30 27 31 28 32 29 33 30 34
REMARK SMILES IDX 31 35 32 36 33 37 85 38 34 39 84 40 35 41 36 42 37 43 78 44
REMARK SMILES IDX 38 45 83 46 77 47 79 48 39 49 82 50 76 51 75 52 40 54 66 55
REMARK SMILES IDX 49 56 65 57 50 58 53 59 64 60 80 61 51 62 52 63 63 65 81 66
REMARK SMILES IDX 54 67 41 68 42 69 47 70 43 71 44 72 46 73 48 74 45 75 67 76
REMARK SMILES IDX 68 77 73 78 69 79 70 80 72 81 74 82 71 83 55 84 56 85 61 86
REMARK SMILES IDX 57 87 58 88 60 89 62 90 59 91
REMARK H PARENT 16 11 10 16 79 53 53 64
REMARK Flexibility Score: inf
ROOT
ATOM      1  C   UNL A   1      34.585  34.052  29.190  1.00  0.00     0.202 C 
ENDROOT
BRANCH   1   2
ATOM      2  C   UNL A   1      34.743  33.032  28.041  1.00  0.00     0.261 C 
BRANCH   2   3
ATOM      3  O   UNL A   1      34.535  31.650  28.367  1.00  0.00    -0.459 OA
BRANCH   3   4
ATOM      4  C   UNL A   1      35.195  30.751  27.595  1.00  0.00     0.354 C 
ATOM      5  O   UNL A   1      36.405  30.542  27.623  1.00  0.00    -0.244 OA
BRANCH   4   6
ATOM      6  C   UNL A   1      34.255  29.880  26.935  1.00  0.00     0.126 A 
ATOM      7  C   UNL A   1      32.984  28.213  26.094  1.00  0.00     0.106 A 
ATOM      8  C   UNL A   1      32.545  29.403  25.547  1.00  0.00     0.105 A 
ATOM      9  C   UNL A   1      34.147  28.499  26.862  1.00  0.00     0.057 A 
ATOM     10  N   UNL A   1      33.223  30.403  26.181  1.00  0.00    -0.354 N 
ATOM     11  H   UNL A   1      33.006  31.362  26.112  1.00  0.00     0.166 HD
BRANCH   7  12
ATOM     12  S   UNL A   1      32.148  26.708  25.969  1.00  0.00     0.263 S 
ATOM     13  O   UNL A   1      31.923  26.519  24.553  1.00  0.00    -0.201 OA
ATOM     14  O   UNL A   1      31.048  26.814  26.902  1.00  0.00    -0.201 OA
BRANCH  12  15
ATOM     15  N   UNL A   1      33.153  25.431  26.485  1.00  0.00    -0.279 N 
ATOM     16  H   UNL A   1      33.503  25.421  27.405  1.00  0.00     0.180 HD
BRANCH  15  17
ATOM     17  C   UNL A   1      33.492  24.368  25.578  1.00  0.00     0.052 A 
ATOM     18  C   UNL A   1      33.010  22.193  24.649  1.00  0.00     0.121 A 
ATOM     19  C   UNL A   1      34.023  22.336  23.703  1.00  0.00     0.046 A 
ATOM     20  C   UNL A   1      32.791  23.168  25.628  1.00  0.00     0.073 A 
ATOM     21  C   UNL A   1      34.721  23.534  23.647  1.00  0.00     0.006 A 
ATOM     22  C   UNL A   1      34.400  24.565  24.535  1.00  0.00     0.027 A 
BRANCH  18  23
ATOM     23  O   UNL A   1      32.209  21.083  24.588  1.00  0.00    -0.489 OA
BRANCH  23  24
ATOM     24  C   UNL A   1      32.732  20.042  25.435  1.00  0.00     0.257 C 
BRANCH  24  25
ATOM     25  C   UNL A   1      33.659  19.161  24.645  1.00  0.00     0.006 C 
ATOM     26  C   UNL A   1      33.273  18.339  23.659  1.00  0.00     0.007 C 
ENDBRANCH  24  25
ENDBRANCH  23  24
ENDBRANCH  18  23
ENDBRANCH  15  17
ENDBRANCH  12  15
ENDBRANCH   7  12
ENDBRANCH   4   6
ENDBRANCH   3   4
ENDBRANCH   2   3
ENDBRANCH   1   2
BRANCH   1  27
ATOM     27  O   UNL A   1      33.322  34.369  29.764  1.00  0.00    -0.376 OA
BRANCH  27  28
ATOM     28  C   UNL A   1      33.088  35.648  30.335  1.00  0.00     0.188 C 
BRANCH  28  29
ATOM     29  C   UNL A   1      32.615  35.780  31.797  1.00  0.00     0.188 C 
BRANCH  29  30
ATOM     30  O   UNL A   1      33.645  36.099  32.705  1.00  0.00    -0.376 OA
BRANCH  30  31
ATOM     31  C   UNL A   1      34.755  35.234  32.861  1.00  0.00     0.202 C 
BRANCH  31  32
ATOM     32  C   UNL A   1      34.595  33.804  33.391  1.00  0.00     0.261 C 
BRANCH  32  33
ATOM     33  O   UNL A   1      35.252  32.778  32.666  1.00  0.00    -0.460 OA
BRANCH  33  34
ATOM     34  C   UNL A   1      36.354  32.335  33.293  1.00  0.00     0.338 C 
ATOM     35  O   UNL A   1      36.950  32.856  34.222  1.00  0.00    -0.246 OA
BRANCH  34  36
ATOM     36  C   UNL A   1      36.840  31.140  32.625  1.00  0.00     0.060 A 
ATOM     37  C   UNL A   1      37.854  30.448  33.289  1.00  0.00     0.016 A 
ATOM     38  C   UNL A   1      36.702  31.168  31.234  1.00  0.00     0.016 A 
ATOM     39  C   UNL A   1      38.899  29.981  32.533  1.00  0.00     0.010 A 
ATOM     40  C   UNL A   1      37.774  30.757  30.484  1.00  0.00     0.010 A 
ATOM     41  C   UNL A   1      38.879  30.211  31.150  1.00  0.00    -0.014 A 
BRANCH  41  42
ATOM     42  C   UNL A   1      39.961  29.625  30.368  1.00  0.00     0.031 A 
ATOM     43  C   UNL A   1      41.024  30.726  30.129  1.00  0.00     0.074 A 
ATOM     44  C   UNL A   1      39.776  28.316  29.997  1.00  0.00     0.049 A 
ATOM     45  N   UNL A   1      41.927  30.822  29.209  1.00  0.00    -0.248 NA
ATOM     46  C   UNL A   1      41.062  31.940  31.012  1.00  0.00     0.031 C 
ATOM     47  C   UNL A   1      38.644  27.445  30.416  1.00  0.00     0.029 A 
ATOM     48  N   UNL A   1      40.480  27.442  29.196  1.00  0.00    -0.354 N 
ATOM     49  C   UNL A   1      42.773  31.901  29.551  1.00  0.00     0.074 A 
ATOM     50  C   UNL A   1      42.117  32.632  30.582  1.00  0.00     0.031 C 
ATOM     51  C   UNL A   1      38.690  26.240  29.795  1.00  0.00     0.029 A 
ATOM     52  C   UNL A   1      39.857  26.182  28.937  1.00  0.00     0.049 A 
ATOM     53  H   UNL A   1      41.361  27.673  28.822  1.00  0.00     0.167 HD
ATOM     54  C   UNL A   1      44.045  32.008  29.070  1.00  0.00     0.037 A 
ATOM     55  C   UNL A   1      40.252  25.197  28.059  1.00  0.00     0.037 A 
ATOM     56  C   UNL A   1      44.274  30.968  28.127  1.00  0.00     0.049 A 
ATOM     57  C   UNL A   1      41.590  25.626  27.645  1.00  0.00     0.074 A 
ATOM     58  C   UNL A   1      43.754  30.769  26.875  1.00  0.00     0.029 A 
ATOM     59  N   UNL A   1      44.741  29.778  28.633  1.00  0.00    -0.354 N 
ATOM     60  N   UNL A   1      42.639  25.564  28.405  1.00  0.00    -0.248 NA
ATOM     61  C   UNL A   1      41.753  26.276  26.341  1.00  0.00     0.031 C 
ATOM     62  C   UNL A   1      43.440  29.397  26.897  1.00  0.00     0.029 A 
ATOM     63  C   UNL A   1      44.073  28.776  27.981  1.00  0.00     0.049 A 
ATOM     64  H   UNL A   1      45.425  29.668  29.332  1.00  0.00     0.167 HD
ATOM     65  C   UNL A   1      43.462  26.492  27.823  1.00  0.00     0.074 A 
ATOM     66  C   UNL A   1      43.035  26.611  26.442  1.00  0.00     0.031 C 
ATOM     67  C   UNL A   1      44.009  27.471  28.592  1.00  0.00     0.037 A 
BRANCH  54  68
ATOM     68  C   UNL A   1      45.240  32.786  29.532  1.00  0.00     0.057 A 
ATOM     69  C   UNL A   1      45.749  32.497  30.819  1.00  0.00     0.134 A 
ATOM     70  C   UNL A   1      45.632  34.007  28.976  1.00  0.00     0.134 A 
ATOM     71  F   UNL A   1      45.484  31.325  31.421  1.00  0.00    -0.206 F 
ATOM     72  C   UNL A   1      46.456  33.433  31.572  1.00  0.00     0.040 A 
ATOM     73  C   UNL A   1      46.388  34.933  29.706  1.00  0.00     0.040 A 
ATOM     74  F   UNL A   1      45.221  34.389  27.760  1.00  0.00    -0.206 F 
ATOM     75  C   UNL A   1      46.756  34.670  31.022  1.00  0.00     0.006 A 
ENDBRANCH  54  68
BRANCH  55  76
ATOM     76  C   UNL A   1      39.761  23.923  27.395  1.00  0.00     0.057 A 
ATOM     77  C   UNL A   1      38.665  23.791  26.543  1.00  0.00     0.134 A 
ATOM     78  C   UNL A   1      40.511  22.713  27.539  1.00  0.00     0.134 A 
ATOM     79  F   UNL A   1      37.784  24.788  26.392  1.00  0.00    -0.206 F 
ATOM     80  C   UNL A   1      38.417  22.606  25.807  1.00  0.00     0.040 A 
ATOM     81  C   UNL A   1      40.315  21.558  26.776  1.00  0.00     0.040 A 
ATOM     82  F   UNL A   1      41.494  22.587  28.441  1.00  0.00    -0.206 F 
ATOM     83  C   UNL A   1      39.271  21.506  25.882  1.00  0.00     0.006 A 
ENDBRANCH  55  76
BRANCH  67  84
ATOM     84  C   UNL A   1      44.107  27.139  30.077  1.00  0.00     0.057 A 
ATOM     85  C   UNL A   1      44.818  26.005  30.497  1.00  0.00     0.134 A 
ATOM     86  C   UNL A   1      43.424  27.819  31.100  1.00  0.00     0.134 A 
ATOM     87  F   UNL A   1      45.546  25.304  29.616  1.00  0.00    -0.206 F 
ATOM     88  C   UNL A   1      44.802  25.548  31.825  1.00  0.00     0.040 A 
ATOM     89  C   UNL A   1      43.394  27.377  32.433  1.00  0.00     0.040 A 
ATOM     90  F   UNL A   1      42.764  28.947  30.851  1.00  0.00    -0.206 F 
ATOM     91  C   UNL A   1      44.077  26.227  32.797  1.00  0.00     0.006 A 
ENDBRANCH  67  84
ENDBRANCH  41  42
ENDBRANCH  34  36
ENDBRANCH  33  34
ENDBRANCH  32  33
ENDBRANCH  31  32
ENDBRANCH  30  31
ENDBRANCH  29  30
ENDBRANCH  28  29
ENDBRANCH  27  28
ENDBRANCH   1  27
TORSDOF 23
ENDMDL
MODEL 2
REMARK VINA RESULT:      -9.5      3.888      9.034
REMARK SMILES C=CCOc1cccc(NS(=O)(=O)c2c[nH]c(C(=O)OCCOCCOCCOC(=O)c3ccc(-c4c5nc(c(-c6c(F)cccc6F)c6ccc([nH]6)c(-c6c(F)cccc6F)c6nc(c(-c7c(F)cccc7F)c7ccc4[nH]7)C=C6)C=C5)cc3)c2)c1
REMARK SMILES IDX 22 1 21 2 20 3 18 4 19 5 17 6 14 7 15 8 86 9 16 10 11 12
REMARK SMILES IDX 12 13 13 14 10 15 9 17 5 18 6 19 87 20 7 21 8 22 4 23 3 24
REMARK SMILES IDX 2 25 1 26 23 27 24 28 25 29 26 30 27 31 28 32 29 33 30 34
REMARK SMILES IDX 31 35 32 36 33 37 85 38 34 39 84 40 35 41 36 42 37 43 78 44
REMARK SMILES IDX 38 45 83 46 77 47 79 48 39 49 82 50 76 51 75 52 40 54 66 55
REMARK SMILES IDX 49 56 65 57 50 58 53 59 64 60 80 61 51 62 52 63 63 65 81 66
REMARK SMILES IDX 54 67 41 68 42 69 47 70 43 71 44 72 46 73 48 74 45 75 67 76
REMARK SMILES IDX 68 77 73 78 69 79 70 80 72 81 74 82 71 83 55 84 56 85 61 86
REMARK SMILES IDX 57 87 58 88 60 89 62 90 59 91
REMARK H PARENT 16 11 10 16 79 53 53 64
REMARK Flexibility Score: inf
ROOT
ATOM      1  C   UNL A   1      40.627  20.804  26.649  1.00  0.00     0.202 C 
ENDROOT
BRANCH   1   2
ATOM      2  C   UNL A   1      40.022  22.214  26.833  1.00  0.00     0.261 C 
BRANCH   2   3
ATOM      3  O   UNL A   1      39.201  22.713  25.766  1.00  0.00    -0.459 OA
BRANCH   3   4
ATOM      4  C   UNL A   1      38.204  23.558  26.129  1.00  0.00     0.354 C 
ATOM      5  O   UNL A   1      38.289  24.433  26.987  1.00  0.00    -0.244 OA
BRANCH   4   6
ATOM      6  C   UNL A   1      37.119  23.477  25.184  1.00  0.00     0.126 A 
ATOM      7  C   UNL A   1      35.237  23.631  23.944  1.00  0.00     0.106 A 
ATOM      8  C   UNL A   1      36.047  22.669  23.373  1.00  0.00     0.105 A 
ATOM      9  C   UNL A   1      35.852  24.043  25.159  1.00  0.00     0.057 A 
ATOM     10  N   UNL A   1      37.233  22.701  24.047  1.00  0.00    -0.354 N 
ATOM     11  H   UNL A   1      38.055  22.238  23.762  1.00  0.00     0.166 HD
BRANCH   7  12
ATOM     12  S   UNL A   1      33.828  24.296  23.200  1.00  0.00     0.263 S 
ATOM     13  O   UNL A   1      32.802  24.235  24.217  1.00  0.00    -0.201 OA
ATOM     14  O   UNL A   1      33.696  23.583  21.948  1.00  0.00    -0.201 OA
BRANCH  12  15
ATOM     15  N   UNL A   1      34.073  25.945  22.841  1.00  0.00    -0.279 N 
ATOM     16  H   UNL A   1      34.867  26.225  22.331  1.00  0.00     0.180 HD
BRANCH  15  17
ATOM     17  C   UNL A   1      33.123  26.928  23.285  1.00  0.00     0.052 A 
ATOM     18  C   UNL A   1      31.064  28.137  22.935  1.00  0.00     0.121 A 
ATOM     19  C   UNL A   1      31.155  28.725  24.194  1.00  0.00     0.046 A 
ATOM     20  C   UNL A   1      32.076  27.301  22.449  1.00  0.00     0.073 A 
ATOM     21  C   UNL A   1      32.196  28.351  25.033  1.00  0.00     0.006 A 
ATOM     22  C   UNL A   1      33.127  27.402  24.599  1.00  0.00     0.027 A 
BRANCH  18  23
ATOM     23  O   UNL A   1      29.944  28.374  22.181  1.00  0.00    -0.489 OA
BRANCH  23  24
ATOM     24  C   UNL A   1      29.477  29.722  22.389  1.00  0.00     0.257 C 
BRANCH  24  25
ATOM     25  C   UNL A   1      27.988  29.718  22.597  1.00  0.00     0.006 C 
ATOM     26  C   UNL A   1      27.292  28.691  23.105  1.00  0.00     0.007 C 
ENDBRANCH  24  25
ENDBRANCH  23  24
ENDBRANCH  18  23
ENDBRANCH  15  17
ENDBRANCH  12  15
ENDBRANCH   7  12
ENDBRANCH   4   6
ENDBRANCH   3   4
ENDBRANCH   2   3
ENDBRANCH   1   2
BRANCH   1  27
ATOM     27  O   UNL A   1      41.651  20.529  25.700  1.00  0.00    -0.376 OA
BRANCH  27  28
ATOM     28  C   UNL A   1      42.956  20.169  26.129  1.00  0.00     0.188 C 
BRANCH  28  29
ATOM     29  C   UNL A   1      44.117  20.080  25.117  1.00  0.00     0.188 C 
BRANCH  29  30
ATOM     30  O   UNL A   1      44.746  21.314  24.858  1.00  0.00    -0.376 OA
BRANCH  30  31
ATOM     31  C   UNL A   1      45.588  21.908  25.831  1.00  0.00     0.202 C 
BRANCH  31  32
ATOM     32  C   UNL A   1      45.894  23.410  25.823  1.00  0.00     0.261 C 
BRANCH  32  33
ATOM     33  O   UNL A   1      45.052  24.228  25.029  1.00  0.00    -0.460 OA
BRANCH  33  34
ATOM     34  C   UNL A   1      43.832  24.382  25.571  1.00  0.00     0.338 C 
ATOM     35  O   UNL A   1      42.755  24.060  25.096  1.00  0.00    -0.246 OA
BRANCH  34  36
ATOM     36  C   UNL A   1      43.948  25.114  26.820  1.00  0.00     0.060 A 
ATOM     37  C   UNL A   1      43.149  24.651  27.867  1.00  0.00     0.016 A 
ATOM     38  C   UNL A   1      44.327  26.451  26.664  1.00  0.00     0.016 A 
ATOM     39  C   UNL A   1      42.507  25.591  28.633  1.00  0.00     0.010 A 
ATOM     40  C   UNL A   1      43.640  27.390  27.390  1.00  0.00     0.010 A 
ATOM     41  C   UNL A   1      42.704  26.946  28.333  1.00  0.00    -0.014 A 
BRANCH  41  42
ATOM     42  C   UNL A   1      42.077  27.916  29.222  1.00  0.00     0.031 A 
ATOM     43  C   UNL A   1      42.828  27.875  30.576  1.00  0.00     0.074 A 
ATOM     44  C   UNL A   1      40.988  28.573  28.702  1.00  0.00     0.049 A 
ATOM     45  N   UNL A   1      42.434  28.231  31.754  1.00  0.00    -0.248 NA
ATOM     46  C   UNL A   1      44.213  27.299  30.651  1.00  0.00     0.031 C 
ATOM     47  C   UNL A   1      40.487  28.454  27.305  1.00  0.00     0.029 A 
ATOM     48  N   UNL A   1      40.073  29.464  29.221  1.00  0.00    -0.354 N 
ATOM     49  C   UNL A   1      43.557  28.188  32.612  1.00  0.00     0.074 A 
ATOM     50  C   UNL A   1      44.580  27.479  31.919  1.00  0.00     0.031 C 
ATOM     51  C   UNL A   1      39.333  29.145  27.133  1.00  0.00     0.029 A 
ATOM     52  C   UNL A   1      38.974  29.805  28.373  1.00  0.00     0.049 A 
ATOM     53  H   UNL A   1      40.171  29.844  30.124  1.00  0.00     0.167 HD
ATOM     54  C   UNL A   1      43.613  28.900  33.773  1.00  0.00     0.037 A 
ATOM     55  C   UNL A   1      37.848  30.535  28.684  1.00  0.00     0.037 A 
ATOM     56  C   UNL A   1      42.358  29.534  33.990  1.00  0.00     0.049 A 
ATOM     57  C   UNL A   1      38.158  31.095  30.002  1.00  0.00     0.074 A 
ATOM     58  C   UNL A   1      41.134  29.005  34.303  1.00  0.00     0.029 A 
ATOM     59  N   UNL A   1      42.198  30.778  33.426  1.00  0.00    -0.354 N 
ATOM     60  N   UNL A   1      39.007  32.056  30.199  1.00  0.00    -0.248 NA
ATOM     61  C   UNL A   1      37.576  30.468  31.192  1.00  0.00     0.031 C 
ATOM     62  C   UNL A   1      40.275  29.705  33.437  1.00  0.00     0.029 A 
ATOM     63  C   UNL A   1      40.932  30.822  32.906  1.00  0.00     0.049 A 
ATOM     64  H   UNL A   1      42.867  31.499  33.401  1.00  0.00     0.167 HD
ATOM     65  C   UNL A   1      39.327  31.879  31.520  1.00  0.00     0.074 A 
ATOM     66  C   UNL A   1      38.212  31.173  32.123  1.00  0.00     0.031 C 
ATOM     67  C   UNL A   1      40.635  31.793  31.881  1.00  0.00     0.037 A 
BRANCH  54  68
ATOM     68  C   UNL A   1      44.755  29.333  34.642  1.00  0.00     0.057 A 
ATOM     69  C   UNL A   1      45.856  29.957  34.010  1.00  0.00     0.134 A 
ATOM     70  C   UNL A   1      44.988  28.828  35.924  1.00  0.00     0.134 A 
ATOM     71  F   UNL A   1      45.726  30.530  32.802  1.00  0.00    -0.206 F 
ATOM     72  C   UNL A   1      47.142  29.926  34.545  1.00  0.00     0.040 A 
ATOM     73  C   UNL A   1      46.269  28.839  36.492  1.00  0.00     0.040 A 
ATOM     74  F   UNL A   1      44.023  28.221  36.626  1.00  0.00    -0.206 F 
ATOM     75  C   UNL A   1      47.357  29.340  35.783  1.00  0.00     0.006 A 
ENDBRANCH  54  68
BRANCH  55  76
ATOM     76  C   UNL A   1      36.468  30.883  28.157  1.00  0.00     0.057 A 
ATOM     77  C   UNL A   1      35.484  29.990  27.731  1.00  0.00     0.134 A 
ATOM     78  C   UNL A   1      36.029  32.245  28.161  1.00  0.00     0.134 A 
ATOM     79  F   UNL A   1      35.762  28.694  27.546  1.00  0.00    -0.206 F 
ATOM     80  C   UNL A   1      34.155  30.402  27.459  1.00  0.00     0.040 A 
ATOM     81  C   UNL A   1      34.709  32.657  27.955  1.00  0.00     0.040 A 
ATOM     82  F   UNL A   1      36.871  33.265  28.374  1.00  0.00    -0.206 F 
ATOM     83  C   UNL A   1      33.753  31.727  27.621  1.00  0.00     0.006 A 
ENDBRANCH  55  76
BRANCH  67  84
ATOM     84  C   UNL A   1      41.613  32.434  30.903  1.00  0.00     0.057 A 
ATOM     85  C   UNL A   1      41.488  33.793  30.575  1.00  0.00     0.134 A 
ATOM     86  C   UNL A   1      42.594  31.740  30.174  1.00  0.00     0.134 A 
ATOM     87  F   UNL A   1      40.617  34.567  31.240  1.00  0.00    -0.206 F 
ATOM     88  C   UNL A   1      42.242  34.400  29.558  1.00  0.00     0.040 A 
ATOM     89  C   UNL A   1      43.354  32.328  29.151  1.00  0.00     0.040 A 
ATOM     90  F   UNL A   1      42.860  30.462  30.430  1.00  0.00    -0.206 F 
ATOM     91  C   UNL A   1      43.171  33.664  28.831  1.00  0.00     0.006 A 
ENDBRANCH  67  84
ENDBRANCH  41  42
ENDBRANCH  34  36
ENDBRANCH  33  34
ENDBRANCH  32  33
ENDBRANCH  31  32
ENDBRANCH  30  31
ENDBRANCH  29  30
ENDBRANCH  28  29
ENDBRANCH  27  28
ENDBRANCH   1  27
TORSDOF 23
ENDMDL
MODEL 3
REMARK VINA RESULT:      -9.3      4.192      9.583
REMARK SMILES C=CCOc1cccc(NS(=O)(=O)c2c[nH]c(C(=O)OCCOCCOCCOC(=O)c3ccc(-c4c5nc(c(-c6c(F)cccc6F)c6ccc([nH]6)c(-c6c(F)cccc6F)c6nc(c(-c7c(F)cccc7F)c7ccc4[nH]7)C=C6)C=C5)cc3)c2)c1
REMARK SMILES IDX 22 1 21 2 20 3 18 4 19 5 17 6 14 7 15 8 86 9 16 10 11 12
REMARK SMILES IDX 12 13 13 14 10 15 9 17 5 18 6 19 87 20 7 21 8 22 4 23 3 24
REMARK SMILES IDX 2 25 1 26 23 27 24 28 25 29 26 30 27 31 28 32 29 33 30 34
REMARK SMILES IDX 31 35 32 36 33 37 85 38 34 39 84 40 35 41 36 42 37 43 78 44
REMARK SMILES IDX 38 45 83 46 77 47 79 48 39 49 82 50 76 51 75 52 40 54 66 55
REMARK SMILES IDX 49 56 65 57 50 58 53 59 64 60 80 61 51 62 52 63 63 65 81 66
REMARK SMILES IDX 54 67 41 68 42 69 47 70 43 71 44 72 46 73 48 74 45 75 67 76
REMARK SMILES IDX 68 77 73 78 69 79 70 80 72 81 74 82 71 83 55 84 56 85 61 86
REMARK SMILES IDX 57 87 58 88 60 89 62 90 59 91
REMARK H PARENT 16 11 10 16 79 53 53 64
REMARK Flexibility Score: inf
ROOT
ATOM      1  C   UNL A   1      43.679  18.504  26.023  1.00  0.00     0.202 C 
ENDROOT
BRANCH   1   2
ATOM      2  C   UNL A   1      42.763  19.613  25.456  1.00  0.00     0.261 C 
BRANCH   2   3
ATOM      3  O   UNL A   1      41.349  19.440  25.632  1.00  0.00    -0.459 OA
BRANCH   3   4
ATOM      4  C   UNL A   1      40.761  20.247  26.550  1.00  0.00     0.354 C 
ATOM      5  O   UNL A   1      41.310  20.711  27.545  1.00  0.00    -0.244 OA
BRANCH   4   6
ATOM      6  C   UNL A   1      39.488  20.710  26.058  1.00  0.00     0.126 A 
ATOM      7  C   UNL A   1      37.613  21.803  25.431  1.00  0.00     0.106 A 
ATOM      8  C   UNL A   1      37.458  20.468  25.108  1.00  0.00     0.105 A 
ATOM      9  C   UNL A   1      38.834  21.930  26.150  1.00  0.00     0.057 A 
ATOM     10  N   UNL A   1      38.654  19.861  25.356  1.00  0.00    -0.354 N 
ATOM     11  H   UNL A   1      38.890  18.947  25.075  1.00  0.00     0.166 HD
BRANCH   7  12
ATOM     12  S   UNL A   1      36.570  23.069  24.895  1.00  0.00     0.263 S 
ATOM     13  O   UNL A   1      37.167  23.556  23.671  1.00  0.00    -0.201 OA
ATOM     14  O   UNL A   1      36.402  23.927  26.048  1.00  0.00    -0.201 OA
BRANCH  12  15
ATOM     15  N   UNL A   1      35.041  22.438  24.483  1.00  0.00    -0.279 N 
ATOM     16  H   UNL A   1      34.878  21.469  24.533  1.00  0.00     0.180 HD
BRANCH  15  17
ATOM     17  C   UNL A   1      33.986  23.321  24.061  1.00  0.00     0.052 A 
ATOM     18  C   UNL A   1      32.981  25.515  24.070  1.00  0.00     0.121 A 
ATOM     19  C   UNL A   1      32.034  25.122  23.127  1.00  0.00     0.046 A 
ATOM     20  C   UNL A   1      33.906  24.604  24.591  1.00  0.00     0.073 A 
ATOM     21  C   UNL A   1      32.114  23.843  22.592  1.00  0.00     0.006 A 
ATOM     22  C   UNL A   1      33.132  22.981  23.008  1.00  0.00     0.027 A 
BRANCH  18  23
ATOM     23  O   UNL A   1      33.007  26.827  24.465  1.00  0.00    -0.489 OA
BRANCH  23  24
ATOM     24  C   UNL A   1      33.314  26.920  25.870  1.00  0.00     0.257 C 
BRANCH  24  25
ATOM     25  C   UNL A   1      32.079  27.301  26.637  1.00  0.00     0.006 C 
ATOM     26  C   UNL A   1      31.791  28.544  27.050  1.00  0.00     0.007 C 
ENDBRANCH  24  25
ENDBRANCH  23  24
ENDBRANCH  18  23
ENDBRANCH  15  17
ENDBRANCH  12  15
ENDBRANCH   7  12
ENDBRANCH   4   6
ENDBRANCH   3   4
ENDBRANCH   2   3
ENDBRANCH   1   2
BRANCH   1  27
ATOM     27  O   UNL A   1      44.873  18.090  25.369  1.00  0.00    -0.376 OA
BRANCH  27  28
ATOM     28  C   UNL A   1      45.854  19.042  24.985  1.00  0.00     0.188 C 
BRANCH  28  29
ATOM     29  C   UNL A   1      45.613  20.549  25.209  1.00  0.00     0.188 C 
BRANCH  29  30
ATOM     30  O   UNL A   1      46.666  21.369  24.757  1.00  0.00    -0.376 OA
BRANCH  30  31
ATOM     31  C   UNL A   1      46.399  22.666  24.254  1.00  0.00     0.202 C 
BRANCH  31  32
ATOM     32  C   UNL A   1      45.762  23.754  25.125  1.00  0.00     0.261 C 
BRANCH  32  33
ATOM     33  O   UNL A   1      44.354  23.894  25.042  1.00  0.00    -0.460 OA
BRANCH  33  34
ATOM     34  C   UNL A   1      43.756  23.769  26.239  1.00  0.00     0.338 C 
ATOM     35  O   UNL A   1      43.850  22.847  27.031  1.00  0.00    -0.246 OA
BRANCH  34  36
ATOM     36  C   UNL A   1      42.849  24.886  26.442  1.00  0.00     0.060 A 
ATOM     37  C   UNL A   1      43.429  26.154  26.374  1.00  0.00     0.016 A 
ATOM     38  C   UNL A   1      41.738  24.581  27.235  1.00  0.00     0.016 A 
ATOM     39  C   UNL A   1      43.042  27.076  27.313  1.00  0.00     0.010 A 
ATOM     40  C   UNL A   1      41.395  25.481  28.212  1.00  0.00     0.010 A 
ATOM     41  C   UNL A   1      42.086  26.698  28.266  1.00  0.00    -0.014 A 
BRANCH  41  42
ATOM     42  C   UNL A   1      41.635  27.729  29.193  1.00  0.00     0.031 A 
ATOM     43  C   UNL A   1      42.429  27.561  30.513  1.00  0.00     0.074 A 
ATOM     44  C   UNL A   1      40.628  28.539  28.727  1.00  0.00     0.049 A 
ATOM     45  N   UNL A   1      42.136  27.947  31.711  1.00  0.00    -0.248 NA
ATOM     46  C   UNL A   1      43.723  26.799  30.522  1.00  0.00     0.031 C 
ATOM     47  C   UNL A   1      40.058  28.515  27.352  1.00  0.00     0.029 A 
ATOM     48  N   UNL A   1      39.866  29.538  29.296  1.00  0.00    -0.354 N 
ATOM     49  C   UNL A   1      43.276  27.735  32.519  1.00  0.00     0.074 A 
ATOM     50  C   UNL A   1      44.163  26.905  31.775  1.00  0.00     0.031 C 
ATOM     51  C   UNL A   1      39.004  29.360  27.239  1.00  0.00     0.029 A 
ATOM     52  C   UNL A   1      38.791  30.041  28.500  1.00  0.00     0.049 A 
ATOM     53  H   UNL A   1      40.052  29.884  30.198  1.00  0.00     0.167 HD
ATOM     54  C   UNL A   1      43.477  28.413  33.685  1.00  0.00     0.037 A 
ATOM     55  C   UNL A   1      37.790  30.913  28.868  1.00  0.00     0.037 A 
ATOM     56  C   UNL A   1      42.331  29.209  33.964  1.00  0.00     0.049 A 
ATOM     57  C   UNL A   1      38.228  31.401  30.178  1.00  0.00     0.074 A 
ATOM     58  C   UNL A   1      41.060  28.847  34.322  1.00  0.00     0.029 A 
ATOM     59  N   UNL A   1      42.322  30.472  33.422  1.00  0.00    -0.354 N 
ATOM     60  N   UNL A   1      39.208  32.233  30.350  1.00  0.00    -0.248 NA
ATOM     61  C   UNL A   1      37.614  30.839  31.384  1.00  0.00     0.031 C 
ATOM     62  C   UNL A   1      40.271  29.673  33.502  1.00  0.00     0.029 A 
ATOM     63  C   UNL A   1      41.053  30.699  32.957  1.00  0.00     0.049 A 
ATOM     64  H   UNL A   1      43.082  31.095  33.377  1.00  0.00     0.167 HD
ATOM     65  C   UNL A   1      39.555  31.991  31.654  1.00  0.00     0.074 A 
ATOM     66  C   UNL A   1      38.378  31.434  32.295  1.00  0.00     0.031 C 
ATOM     67  C   UNL A   1      40.851  31.720  31.958  1.00  0.00     0.037 A 
BRANCH  54  68
ATOM     68  C   UNL A   1      44.702  28.669  34.509  1.00  0.00     0.057 A 
ATOM     69  C   UNL A   1      45.763  29.377  33.899  1.00  0.00     0.134 A 
ATOM     70  C   UNL A   1      45.029  27.943  35.658  1.00  0.00     0.134 A 
ATOM     71  F   UNL A   1      45.547  30.155  32.825  1.00  0.00    -0.206 F 
ATOM     72  C   UNL A   1      47.089  29.233  34.303  1.00  0.00     0.040 A 
ATOM     73  C   UNL A   1      46.354  27.835  36.103  1.00  0.00     0.040 A 
ATOM     74  F   UNL A   1      44.110  27.238  36.328  1.00  0.00    -0.206 F 
ATOM     75  C   UNL A   1      47.391  28.437  35.396  1.00  0.00     0.006 A 
ENDBRANCH  54  68
BRANCH  55  76
ATOM     76  C   UNL A   1      36.451  31.456  28.405  1.00  0.00     0.057 A 
ATOM     77  C   UNL A   1      35.287  30.725  28.165  1.00  0.00     0.134 A 
ATOM     78  C   UNL A   1      36.265  32.869  28.272  1.00  0.00     0.134 A 
ATOM     79  F   UNL A   1      35.310  29.387  28.122  1.00  0.00    -0.206 F 
ATOM     80  C   UNL A   1      34.034  31.348  27.943  1.00  0.00     0.040 A 
ATOM     81  C   UNL A   1      35.027  33.498  28.115  1.00  0.00     0.040 A 
ATOM     82  F   UNL A   1      37.293  33.728  28.295  1.00  0.00    -0.206 F 
ATOM     83  C   UNL A   1      33.892  32.735  27.969  1.00  0.00     0.006 A 
ENDBRANCH  55  76
BRANCH  67  84
ATOM     84  C   UNL A   1      41.868  32.238  30.946  1.00  0.00     0.057 A 
ATOM     85  C   UNL A   1      41.919  33.606  30.641  1.00  0.00     0.134 A 
ATOM     86  C   UNL A   1      42.712  31.428  30.167  1.00  0.00     0.134 A 
ATOM     87  F   UNL A   1      41.192  34.481  31.352  1.00  0.00    -0.206 F 
ATOM     88  C   UNL A   1      42.707  34.122  29.600  1.00  0.00     0.040 A 
ATOM     89  C   UNL A   1      43.505  31.925  29.120  1.00  0.00     0.040 A 
ATOM     90  F   UNL A   1      42.810  30.121  30.395  1.00  0.00    -0.206 F 
ATOM     91  C   UNL A   1      43.495  33.279  28.824  1.00  0.00     0.006 A 
ENDBRANCH  67  84
ENDBRANCH  41  42
ENDBRANCH  34  36
ENDBRANCH  33  34
ENDBRANCH  32  33
ENDBRANCH  31  32
ENDBRANCH  30  31
ENDBRANCH  29  30
ENDBRANCH  28  29
ENDBRANCH  27  28
ENDBRANCH   1  27
TORSDOF 23
ENDMDL
