MODEL 1
REMARK VINA RESULT:     -11.4      0.000      0.000
REMARK SMILES N#Cc1cccnc1N1CC[NH+]([C@@H](C(=O)OCCOCCOCCOC(=O)c2ccc(-c3c4nc(c(-c5c(F)cccc5F)c5ccc([nH]5)c(-c5c(F)cccc5F)c5nc(c(-c6c(F)cccc6F)c6ccc3[nH]6)C=C5)C=C4)cc2)c2c[nH]c3cc(CO)ccc23)CC1
REMARK SMILES IDX 20 1 19 2 18 3 17 4 16 5 14 6 15 7 13 8 12 9 9 10 10 11
REMARK SMILES IDX 94 12 11 13 93 14 8 16 3 17 4 18 5 19 7 20 6 21 2 22 1 23
REMARK SMILES IDX 82 24 83 25 92 26 84 27 85 28 91 29 86 31 90 32 87 33 88 34
REMARK SMILES IDX 89 35 21 37 22 38 23 39 24 40 25 41 26 42 27 43 28 44 29 45
REMARK SMILES IDX 81 46 30 47 80 48 31 49 32 50 33 51 74 52 34 53 79 54 73 55
REMARK SMILES IDX 75 56 35 57 78 58 72 59 71 60 36 62 62 63 45 64 61 65 46 66
REMARK SMILES IDX 49 67 60 68 76 69 47 70 48 71 59 73 77 74 50 75 37 76 38 77
REMARK SMILES IDX 43 78 39 79 40 80 42 81 44 82 41 83 63 84 64 85 69 86 65 87
REMARK SMILES IDX 66 88 68 89 70 90 67 91 51 92 52 93 57 94 53 95 54 96 56 97
REMARK SMILES IDX 58 98 55 99
REMARK H PARENT 12 15 84 30 89 36 75 61 49 72
REMARK Flexibility Score: inf
ROOT
ATOM      1  C   UNL A   1      39.644  22.149  26.538  1.00  0.00     0.188 C 
ENDROOT
BRANCH   1   2
ATOM      2  O   UNL A   1      38.931  21.281  25.683  1.00  0.00    -0.376 OA
BRANCH   2   3
ATOM      3  C   UNL A   1      37.531  21.534  25.572  1.00  0.00     0.202 C 
BRANCH   3   4
ATOM      4  C   UNL A   1      37.079  22.801  24.809  1.00  0.00     0.261 C 
BRANCH   4   5
ATOM      5  O   UNL A   1      35.687  23.178  25.001  1.00  0.00    -0.459 OA
BRANCH   5   6
ATOM      6  C   UNL A   1      34.953  23.559  23.917  1.00  0.00     0.370 C 
ATOM      7  O   UNL A   1      35.421  23.591  22.779  1.00  0.00    -0.245 OA
BRANCH   6   8
ATOM      8  C   UNL A   1      33.466  23.918  24.233  1.00  0.00     0.328 C 
BRANCH   8   9
ATOM      9  N   UNL A   1      33.197  25.064  25.213  1.00  0.00    -0.316 N 
ATOM     10  N   UNL A   1      31.518  27.481  24.715  1.00  0.00    -0.344 N 
ATOM     11  C   UNL A   1      32.818  27.258  24.093  1.00  0.00     0.179 C 
ATOM     12  C   UNL A   1      30.852  26.227  25.140  1.00  0.00     0.179 C 
ATOM     13  C   UNL A   1      33.651  26.451  25.091  1.00  0.00     0.285 C 
ATOM     14  C   UNL A   1      31.840  25.183  25.803  1.00  0.00     0.285 C 
ATOM     15  H   UNL A   1      33.918  24.594  25.760  1.00  0.00     0.349 HD
BRANCH  10  16
ATOM     16  C   UNL A   1      30.747  28.446  24.066  1.00  0.00     0.146 A 
ATOM     17  C   UNL A   1      30.684  29.763  24.522  1.00  0.00     0.095 A 
ATOM     18  C   UNL A   1      29.849  30.687  23.870  1.00  0.00     0.025 A 
ATOM     19  C   UNL A   1      29.140  30.306  22.744  1.00  0.00     0.022 A 
ATOM     20  N   UNL A   1      30.096  28.104  22.930  1.00  0.00    -0.238 NA
ATOM     21  C   UNL A   1      29.337  29.027  22.293  1.00  0.00     0.113 A 
BRANCH  17  22
ATOM     22  C   UNL A   1      31.540  30.223  25.569  1.00  0.00     0.103 C 
ATOM     23  N   UNL A   1      32.199  30.562  26.463  1.00  0.00    -0.192 NA
ENDBRANCH  17  22
ENDBRANCH  10  16
ENDBRANCH   8   9
BRANCH   8  24
ATOM     24  C   UNL A   1      32.357  22.754  23.763  1.00  0.00     0.046 A 
ATOM     25  C   UNL A   1      31.519  22.292  24.777  1.00  0.00     0.094 A 
ATOM     26  C   UNL A   1      32.496  21.421  23.188  1.00  0.00     0.009 A 
ATOM     27  N   UNL A   1      32.422  21.448  25.468  1.00  0.00    -0.361 N 
ATOM     28  C   UNL A   1      33.296  20.752  24.493  1.00  0.00     0.046 A 
ATOM     29  C   UNL A   1      31.804  20.251  21.968  1.00  0.00     0.011 A 
ATOM     30  H   UNL A   1      32.463  21.339  26.446  1.00  0.00     0.166 HD
ATOM     31  C   UNL A   1      33.869  19.076  24.601  1.00  0.00     0.032 A 
ATOM     32  C   UNL A   1      32.326  18.296  22.109  1.00  0.00     0.007 A 
ATOM     33  C   UNL A   1      33.402  17.823  23.452  1.00  0.00    -0.021 A 
BRANCH  33  34
ATOM     34  C   UNL A   1      34.064  16.488  23.469  1.00  0.00     0.191 C 
BRANCH  34  35
ATOM     35  O   UNL A   1      33.475  15.695  24.489  1.00  0.00    -0.392 OA
ATOM     36  H   UNL A   1      32.525  15.603  24.319  1.00  0.00     0.211 HD
ENDBRANCH  34  35
ENDBRANCH  33  34
ENDBRANCH   8  24
ENDBRANCH   6   8
ENDBRANCH   5   6
ENDBRANCH   4   5
ENDBRANCH   3   4
ENDBRANCH   2   3
ENDBRANCH   1   2
BRANCH   1  37
ATOM     37  C   UNL A   1      40.810  21.537  27.301  1.00  0.00     0.188 C 
BRANCH  37  38
ATOM     38  O   UNL A   1      41.872  22.360  27.751  1.00  0.00    -0.376 OA
BRANCH  38  39
ATOM     39  C   UNL A   1      43.094  22.339  27.024  1.00  0.00     0.202 C 
BRANCH  39  40
ATOM     40  C   UNL A   1      43.476  23.587  26.222  1.00  0.00     0.261 C 
BRANCH  40  41
ATOM     41  O   UNL A   1      42.310  24.278  25.771  1.00  0.00    -0.460 OA
BRANCH  41  42
ATOM     42  C   UNL A   1      42.039  25.581  25.621  1.00  0.00     0.338 C 
ATOM     43  O   UNL A   1      42.265  26.247  24.632  1.00  0.00    -0.246 OA
BRANCH  42  44
ATOM     44  C   UNL A   1      41.659  25.986  27.096  1.00  0.00     0.060 A 
ATOM     45  C   UNL A   1      40.133  25.929  28.434  1.00  0.00     0.016 A 
ATOM     46  C   UNL A   1      42.979  27.204  27.506  1.00  0.00     0.016 A 
ATOM     47  C   UNL A   1      40.135  26.954  29.849  1.00  0.00     0.010 A 
ATOM     48  C   UNL A   1      42.817  28.191  28.949  1.00  0.00     0.010 A 
ATOM     49  C   UNL A   1      41.428  28.061  30.017  1.00  0.00    -0.014 A 
BRANCH  49  50
ATOM     50  C   UNL A   1      41.125  29.034  31.047  1.00  0.00     0.031 A 
ATOM     51  C   UNL A   1      39.983  29.985  30.838  1.00  0.00     0.074 A 
ATOM     52  C   UNL A   1      41.733  28.796  32.212  1.00  0.00     0.049 A 
ATOM     53  N   UNL A   1      39.534  30.913  31.633  1.00  0.00    -0.248 NA
ATOM     54  C   UNL A   1      39.196  29.862  29.595  1.00  0.00     0.031 C 
ATOM     55  C   UNL A   1      42.673  27.696  32.466  1.00  0.00     0.029 A 
ATOM     56  N   UNL A   1      41.647  29.448  33.398  1.00  0.00    -0.354 N 
ATOM     57  C   UNL A   1      38.441  31.479  30.979  1.00  0.00     0.074 A 
ATOM     58  C   UNL A   1      38.266  30.793  29.732  1.00  0.00     0.031 C 
ATOM     59  C   UNL A   1      43.144  27.806  33.714  1.00  0.00     0.029 A 
ATOM     60  C   UNL A   1      42.575  29.004  34.304  1.00  0.00     0.049 A 
ATOM     61  H   UNL A   1      40.992  30.157  33.587  1.00  0.00     0.167 HD
ATOM     62  C   UNL A   1      37.672  32.500  31.408  1.00  0.00     0.037 A 
ATOM     63  C   UNL A   1      42.962  29.592  35.443  1.00  0.00     0.037 A 
ATOM     64  C   UNL A   1      37.935  33.138  32.666  1.00  0.00     0.049 A 
ATOM     65  C   UNL A   1      42.212  30.836  35.820  1.00  0.00     0.074 A 
ATOM     66  C   UNL A   1      37.320  34.228  33.239  1.00  0.00     0.029 A 
ATOM     67  N   UNL A   1      38.934  32.717  33.541  1.00  0.00    -0.354 N 
ATOM     68  N   UNL A   1      41.233  31.432  35.174  1.00  0.00    -0.248 NA
ATOM     69  C   UNL A   1      42.598  31.484  37.071  1.00  0.00     0.031 C 
ATOM     70  C   UNL A   1      38.000  34.515  34.425  1.00  0.00     0.029 A 
ATOM     71  C   UNL A   1      38.978  33.548  34.636  1.00  0.00     0.049 A 
ATOM     72  H   UNL A   1      39.522  31.940  33.397  1.00  0.00     0.167 HD
ATOM     73  C   UNL A   1      40.844  32.496  35.964  1.00  0.00     0.074 A 
ATOM     74  C   UNL A   1      41.708  32.464  37.134  1.00  0.00     0.031 C 
ATOM     75  C   UNL A   1      39.864  33.413  35.768  1.00  0.00     0.037 A 
BRANCH  62  76
ATOM     76  C   UNL A   1      36.607  33.034  30.495  1.00  0.00     0.057 A 
ATOM     77  C   UNL A   1      36.885  33.852  29.390  1.00  0.00     0.134 A 
ATOM     78  C   UNL A   1      35.262  32.717  30.729  1.00  0.00     0.134 A 
ATOM     79  F   UNL A   1      38.144  34.232  29.123  1.00  0.00    -0.206 F 
ATOM     80  C   UNL A   1      35.867  34.330  28.557  1.00  0.00     0.040 A 
ATOM     81  C   UNL A   1      34.239  33.169  29.893  1.00  0.00     0.040 A 
ATOM     82  F   UNL A   1      34.918  31.959  31.783  1.00  0.00    -0.206 F 
ATOM     83  C   UNL A   1      34.540  33.979  28.802  1.00  0.00     0.006 A 
ENDBRANCH  62  76
BRANCH  63  84
ATOM     84  C   UNL A   1      44.116  29.061  36.203  1.00  0.00     0.057 A 
ATOM     85  C   UNL A   1      43.997  27.941  37.026  1.00  0.00     0.134 A 
ATOM     86  C   UNL A   1      45.382  29.663  36.115  1.00  0.00     0.134 A 
ATOM     87  F   UNL A   1      42.819  27.310  37.142  1.00  0.00    -0.206 F 
ATOM     88  C   UNL A   1      45.079  27.462  37.768  1.00  0.00     0.040 A 
ATOM     89  C   UNL A   1      46.479  29.177  36.824  1.00  0.00     0.040 A 
ATOM     90  F   UNL A   1      45.576  30.726  35.318  1.00  0.00    -0.206 F 
ATOM     91  C   UNL A   1      46.324  28.081  37.669  1.00  0.00     0.006 A 
ENDBRANCH  63  84
BRANCH  75  92
ATOM     92  C   UNL A   1      39.635  34.378  36.881  1.00  0.00     0.057 A 
ATOM     93  C   UNL A   1      38.916  34.025  38.026  1.00  0.00     0.134 A 
ATOM     94  C   UNL A   1      40.234  35.642  36.832  1.00  0.00     0.134 A 
ATOM     95  F   UNL A   1      38.316  32.829  38.113  1.00  0.00    -0.206 F 
ATOM     96  C   UNL A   1      38.785  34.913  39.088  1.00  0.00     0.040 A 
ATOM     97  C   UNL A   1      40.144  36.522  37.904  1.00  0.00     0.040 A 
ATOM     98  F   UNL A   1      40.949  36.017  35.760  1.00  0.00    -0.206 F 
ATOM     99  C   UNL A   1      39.413  36.158  39.033  1.00  0.00     0.006 A 
ENDBRANCH  75  92
ENDBRANCH  49  50
ENDBRANCH  42  44
ENDBRANCH  41  42
ENDBRANCH  40  41
ENDBRANCH  39  40
ENDBRANCH  38  39
ENDBRANCH  37  38
ENDBRANCH   1  37
TORSDOF 23
ENDMDL
MODEL 2
REMARK VINA RESULT:     -11.2      1.323      2.127
REMARK SMILES N#Cc1cccnc1N1CC[NH+]([C@@H](C(=O)OCCOCCOCCOC(=O)c2ccc(-c3c4nc(c(-c5c(F)cccc5F)c5ccc([nH]5)c(-c5c(F)cccc5F)c5nc(c(-c6c(F)cccc6F)c6ccc3[nH]6)C=C5)C=C4)cc2)c2c[nH]c3cc(CO)ccc23)CC1
REMARK SMILES IDX 20 1 19 2 18 3 17 4 16 5 14 6 15 7 13 8 12 9 9 10 10 11
REMARK SMILES IDX 94 12 11 13 93 14 8 16 3 17 4 18 5 19 7 20 6 21 2 22 1 23
REMARK SMILES IDX 82 24 83 25 92 26 84 27 85 28 91 29 86 31 90 32 87 33 88 34
REMARK SMILES IDX 89 35 21 37 22 38 23 39 24 40 25 41 26 42 27 43 28 44 29 45
REMARK SMILES IDX 81 46 30 47 80 48 31 49 32 50 33 51 74 52 34 53 79 54 73 55
REMARK SMILES IDX 75 56 35 57 78 58 72 59 71 60 36 62 62 63 45 64 61 65 46 66
REMARK SMILES IDX 49 67 60 68 76 69 47 70 48 71 59 73 77 74 50 75 37 76 38 77
REMARK SMILES IDX 43 78 39 79 40 80 42 81 44 82 41 83 63 84 64 85 69 86 65 87
REMARK SMILES IDX 66 88 68 89 70 90 67 91 51 92 52 93 57 94 53 95 54 96 56 97
REMARK SMILES IDX 58 98 55 99
REMARK H PARENT 12 15 84 30 89 36 75 61 49 72
REMARK Flexibility Score: inf
ROOT
ATOM      1  C   UNL A   1      40.313  20.998  26.488  1.00  0.00     0.188 C 
ENDROOT
BRANCH   1   2
ATOM      2  O   UNL A   1      39.600  22.154  26.102  1.00  0.00    -0.376 OA
BRANCH   2   3
ATOM      3  C   UNL A   1      38.238  21.949  25.733  1.00  0.00     0.202 C 
BRANCH   3   4
ATOM      4  C   UNL A   1      37.320  23.188  25.620  1.00  0.00     0.261 C 
BRANCH   4   5
ATOM      5  O   UNL A   1      35.920  22.902  25.346  1.00  0.00    -0.459 OA
BRANCH   5   6
ATOM      6  C   UNL A   1      35.367  23.366  24.189  1.00  0.00     0.370 C 
ATOM      7  O   UNL A   1      35.948  23.302  23.106  1.00  0.00    -0.245 OA
BRANCH   6   8
ATOM      8  C   UNL A   1      33.928  23.952  24.347  1.00  0.00     0.328 C 
BRANCH   8   9
ATOM      9  N   UNL A   1      33.747  25.180  25.244  1.00  0.00    -0.316 N 
ATOM     10  N   UNL A   1      31.950  27.509  24.742  1.00  0.00    -0.344 N 
ATOM     11  C   UNL A   1      33.170  27.253  23.986  1.00  0.00     0.179 C 
ATOM     12  C   UNL A   1      31.377  26.288  25.359  1.00  0.00     0.179 C 
ATOM     13  C   UNL A   1      34.142  26.557  24.941  1.00  0.00     0.285 C 
ATOM     14  C   UNL A   1      32.470  25.329  25.985  1.00  0.00     0.285 C 
ATOM     15  H   UNL A   1      34.543  24.776  25.737  1.00  0.00     0.349 HD
BRANCH  10  16
ATOM     16  C   UNL A   1      31.077  28.395  24.109  1.00  0.00     0.146 A 
ATOM     17  C   UNL A   1      30.858  29.683  24.597  1.00  0.00     0.095 A 
ATOM     18  C   UNL A   1      29.927  30.521  23.960  1.00  0.00     0.025 A 
ATOM     19  C   UNL A   1      29.276  30.091  22.817  1.00  0.00     0.022 A 
ATOM     20  N   UNL A   1      30.479  28.010  22.958  1.00  0.00    -0.238 NA
ATOM     21  C   UNL A   1      29.624  28.855  22.336  1.00  0.00     0.113 A 
BRANCH  17  22
ATOM     22  C   UNL A   1      31.646  30.211  25.665  1.00  0.00     0.103 C 
ATOM     23  N   UNL A   1      32.231  30.655  26.566  1.00  0.00    -0.192 NA
ENDBRANCH  17  22
ENDBRANCH  10  16
ENDBRANCH   8   9
BRANCH   8  24
ATOM     24  C   UNL A   1      32.705  22.934  23.825  1.00  0.00     0.046 A 
ATOM     25  C   UNL A   1      31.746  22.621  24.789  1.00  0.00     0.094 A 
ATOM     26  C   UNL A   1      32.698  21.577  23.291  1.00  0.00     0.009 A 
ATOM     27  N   UNL A   1      32.478  21.684  25.559  1.00  0.00    -0.361 N 
ATOM     28  C   UNL A   1      33.311  20.848  24.663  1.00  0.00     0.046 A 
ATOM     29  C   UNL A   1      31.936  20.473  22.052  1.00  0.00     0.011 A 
ATOM     30  H   UNL A   1      32.439  21.601  26.540  1.00  0.00     0.166 HD
ATOM     31  C   UNL A   1      33.643  19.114  24.847  1.00  0.00     0.032 A 
ATOM     32  C   UNL A   1      32.176  18.471  22.271  1.00  0.00     0.007 A 
ATOM     33  C   UNL A   1      33.086  17.900  23.696  1.00  0.00    -0.021 A 
BRANCH  33  34
ATOM     34  C   UNL A   1      33.557  16.488  23.788  1.00  0.00     0.191 C 
BRANCH  34  35
ATOM     35  O   UNL A   1      34.419  16.219  22.693  1.00  0.00    -0.392 OA
ATOM     36  H   UNL A   1      35.339  16.206  23.000  1.00  0.00     0.211 HD
ENDBRANCH  34  35
ENDBRANCH  33  34
ENDBRANCH   8  24
ENDBRANCH   6   8
ENDBRANCH   5   6
ENDBRANCH   4   5
ENDBRANCH   3   4
ENDBRANCH   2   3
ENDBRANCH   1   2
BRANCH   1  37
ATOM     37  C   UNL A   1      41.824  21.143  26.602  1.00  0.00     0.188 C 
BRANCH  37  38
ATOM     38  O   UNL A   1      42.625  21.145  25.434  1.00  0.00    -0.376 OA
BRANCH  38  39
ATOM     39  C   UNL A   1      43.361  22.323  25.125  1.00  0.00     0.202 C 
BRANCH  39  40
ATOM     40  C   UNL A   1      42.679  23.676  25.346  1.00  0.00     0.261 C 
BRANCH  40  41
ATOM     41  O   UNL A   1      43.484  24.740  24.835  1.00  0.00    -0.460 OA
BRANCH  41  42
ATOM     42  C   UNL A   1      44.641  25.272  25.250  1.00  0.00     0.338 C 
ATOM     43  O   UNL A   1      45.689  25.264  24.641  1.00  0.00    -0.246 OA
BRANCH  42  44
ATOM     44  C   UNL A   1      44.303  25.599  26.755  1.00  0.00     0.060 A 
ATOM     45  C   UNL A   1      43.219  24.935  28.339  1.00  0.00     0.016 A 
ATOM     46  C   UNL A   1      44.840  27.356  26.891  1.00  0.00     0.016 A 
ATOM     47  C   UNL A   1      42.875  25.978  29.697  1.00  0.00     0.010 A 
ATOM     48  C   UNL A   1      44.380  28.287  28.306  1.00  0.00     0.010 A 
ATOM     49  C   UNL A   1      43.415  27.598  29.602  1.00  0.00    -0.014 A 
BRANCH  49  50
ATOM     50  C   UNL A   1      42.789  28.398  30.637  1.00  0.00     0.031 A 
ATOM     51  C   UNL A   1      41.483  29.076  30.343  1.00  0.00     0.074 A 
ATOM     52  C   UNL A   1      43.315  28.218  31.851  1.00  0.00     0.049 A 
ATOM     53  N   UNL A   1      40.751  29.816  31.125  1.00  0.00    -0.248 NA
ATOM     54  C   UNL A   1      40.877  28.870  29.013  1.00  0.00     0.031 C 
ATOM     55  C   UNL A   1      44.455  27.345  32.158  1.00  0.00     0.029 A 
ATOM     56  N   UNL A   1      42.958  28.743  33.050  1.00  0.00    -0.354 N 
ATOM     57  C   UNL A   1      39.628  30.165  30.377  1.00  0.00     0.074 A 
ATOM     58  C   UNL A   1      39.746  29.552  29.086  1.00  0.00     0.031 C 
ATOM     59  C   UNL A   1      44.759  27.466  33.457  1.00  0.00     0.029 A 
ATOM     60  C   UNL A   1      43.867  28.456  34.034  1.00  0.00     0.049 A 
ATOM     61  H   UNL A   1      42.139  29.268  33.196  1.00  0.00     0.167 HD
ATOM     62  C   UNL A   1      38.601  30.949  30.764  1.00  0.00     0.037 A 
ATOM     63  C   UNL A   1      43.988  29.030  35.238  1.00  0.00     0.037 A 
ATOM     64  C   UNL A   1      38.578  31.534  32.073  1.00  0.00     0.049 A 
ATOM     65  C   UNL A   1      42.933  30.039  35.585  1.00  0.00     0.074 A 
ATOM     66  C   UNL A   1      37.669  32.410  32.623  1.00  0.00     0.029 A 
ATOM     67  N   UNL A   1      39.554  31.288  33.037  1.00  0.00    -0.354 N 
ATOM     68  N   UNL A   1      41.912  30.443  34.860  1.00  0.00    -0.248 NA
ATOM     69  C   UNL A   1      43.027  30.664  36.903  1.00  0.00     0.031 C 
ATOM     70  C   UNL A   1      38.140  32.755  33.893  1.00  0.00     0.029 A 
ATOM     71  C   UNL A   1      39.291  32.023  34.169  1.00  0.00     0.049 A 
ATOM     72  H   UNL A   1      40.319  30.679  32.924  1.00  0.00     0.167 HD
ATOM     73  C   UNL A   1      41.206  31.329  35.651  1.00  0.00     0.074 A 
ATOM     74  C   UNL A   1      41.930  31.407  36.910  1.00  0.00     0.031 C 
ATOM     75  C   UNL A   1      40.063  32.010  35.387  1.00  0.00     0.037 A 
BRANCH  62  76
ATOM     76  C   UNL A   1      37.539  31.293  29.760  1.00  0.00     0.057 A 
ATOM     77  C   UNL A   1      36.461  30.447  29.465  1.00  0.00     0.134 A 
ATOM     78  C   UNL A   1      37.599  32.511  29.069  1.00  0.00     0.134 A 
ATOM     79  F   UNL A   1      36.356  29.247  30.056  1.00  0.00    -0.206 F 
ATOM     80  C   UNL A   1      35.486  30.800  28.525  1.00  0.00     0.040 A 
ATOM     81  C   UNL A   1      36.621  32.886  28.145  1.00  0.00     0.040 A 
ATOM     82  F   UNL A   1      38.616  33.362  29.281  1.00  0.00    -0.206 F 
ATOM     83  C   UNL A   1      35.560  32.028  27.870  1.00  0.00     0.006 A 
ENDBRANCH  62  76
BRANCH  63  84
ATOM     84  C   UNL A   1      45.151  28.721  36.100  1.00  0.00     0.057 A 
ATOM     85  C   UNL A   1      46.348  29.430  35.996  1.00  0.00     0.134 A 
ATOM     86  C   UNL A   1      45.086  27.705  37.067  1.00  0.00     0.134 A 
ATOM     87  F   UNL A   1      46.469  30.423  35.104  1.00  0.00    -0.206 F 
ATOM     88  C   UNL A   1      47.454  29.114  36.787  1.00  0.00     0.040 A 
ATOM     89  C   UNL A   1      46.172  27.400  37.887  1.00  0.00     0.040 A 
ATOM     90  F   UNL A   1      43.956  27.003  37.244  1.00  0.00    -0.206 F 
ATOM     91  C   UNL A   1      47.368  28.095  37.736  1.00  0.00     0.006 A 
ENDBRANCH  63  84
BRANCH  75  92
ATOM     92  C   UNL A   1      39.503  32.812  36.512  1.00  0.00     0.057 A 
ATOM     93  C   UNL A   1      39.935  34.114  36.776  1.00  0.00     0.134 A 
ATOM     94  C   UNL A   1      38.448  32.291  37.271  1.00  0.00     0.134 A 
ATOM     95  F   UNL A   1      40.950  34.650  36.081  1.00  0.00    -0.206 F 
ATOM     96  C   UNL A   1      39.341  34.874  37.778  1.00  0.00     0.040 A 
ATOM     97  C   UNL A   1      37.821  33.056  38.247  1.00  0.00     0.040 A 
ATOM     98  F   UNL A   1      37.989  31.052  37.042  1.00  0.00    -0.206 F 
ATOM     99  C   UNL A   1      38.273  34.349  38.506  1.00  0.00     0.006 A 
ENDBRANCH  75  92
ENDBRANCH  49  50
ENDBRANCH  42  44
ENDBRANCH  41  42
ENDBRANCH  40  41
ENDBRANCH  39  40
ENDBRANCH  38  39
ENDBRANCH  37  38
ENDBRANCH   1  37
TORSDOF 23
ENDMDL
MODEL 3
REMARK VINA RESULT:     -10.8      1.501      5.107
REMARK SMILES N#Cc1cccnc1N1CC[NH+]([C@@H](C(=O)OCCOCCOCCOC(=O)c2ccc(-c3c4nc(c(-c5c(F)cccc5F)c5ccc([nH]5)c(-c5c(F)cccc5F)c5nc(c(-c6c(F)cccc6F)c6ccc3[nH]6)C=C5)C=C4)cc2)c2c[nH]c3cc(CO)ccc23)CC1
REMARK SMILES IDX 20 1 19 2 18 3 17 4 16 5 14 6 15 7 13 8 12 9 9 10 10 11
REMARK SMILES IDX 94 12 11 13 93 14 8 16 3 17 4 18 5 19 7 20 6 21 2 22 1 23
REMARK SMILES IDX 82 24 83 25 92 26 84 27 85 28 91 29 86 31 90 32 87 33 88 34
REMARK SMILES IDX 89 35 21 37 22 38 23 39 24 40 25 41 26 42 27 43 28 44 29 45
REMARK SMILES IDX 81 46 30 47 80 48 31 49 32 50 33 51 74 52 34 53 79 54 73 55
REMARK SMILES IDX 75 56 35 57 78 58 72 59 71 60 36 62 62 63 45 64 61 65 46 66
REMARK SMILES IDX 49 67 60 68 76 69 47 70 48 71 59 73 77 74 50 75 37 76 38 77
REMARK SMILES IDX 43 78 39 79 40 80 42 81 44 82 41 83 63 84 64 85 69 86 65 87
REMARK SMILES IDX 66 88 68 89 70 90 67 91 51 92 52 93 57 94 53 95 54 96 56 97
REMARK SMILES IDX 58 98 55 99
REMARK H PARENT 12 15 84 30 89 36 75 61 49 72
REMARK Flexibility Score: inf
ROOT
ATOM      1  C   UNL A   1      39.537  22.975  26.520  1.00  0.00     0.188 C 
ENDROOT
BRANCH   1   2
ATOM      2  O   UNL A   1      38.170  22.788  26.224  1.00  0.00    -0.376 OA
BRANCH   2   3
ATOM      3  C   UNL A   1      37.568  23.794  25.412  1.00  0.00     0.202 C 
BRANCH   3   4
ATOM      4  C   UNL A   1      36.051  24.049  25.575  1.00  0.00     0.261 C 
BRANCH   4   5
ATOM      5  O   UNL A   1      35.199  23.358  24.620  1.00  0.00    -0.459 OA
BRANCH   5   6
ATOM      6  C   UNL A   1      34.019  23.934  24.252  1.00  0.00     0.370 C 
ATOM      7  O   UNL A   1      33.710  24.115  23.074  1.00  0.00    -0.245 OA
BRANCH   6   8
ATOM      8  C   UNL A   1      33.082  24.313  25.443  1.00  0.00     0.328 C 
BRANCH   8   9
ATOM      9  N   UNL A   1      32.281  23.191  26.110  1.00  0.00    -0.316 N 
ATOM     10  N   UNL A   1      32.609  20.257  25.668  1.00  0.00    -0.344 N 
ATOM     11  C   UNL A   1      32.033  21.164  24.682  1.00  0.00     0.179 C 
ATOM     12  C   UNL A   1      33.509  20.937  26.630  1.00  0.00     0.179 C 
ATOM     13  C   UNL A   1      31.336  22.280  25.462  1.00  0.00     0.285 C 
ATOM     14  C   UNL A   1      32.964  22.341  27.118  1.00  0.00     0.285 C 
ATOM     15  H   UNL A   1      31.715  23.970  26.445  1.00  0.00     0.349 HD
BRANCH  10  16
ATOM     16  C   UNL A   1      33.024  19.038  25.130  1.00  0.00     0.146 A 
ATOM     17  C   UNL A   1      34.321  18.850  24.655  1.00  0.00     0.095 A 
ATOM     18  C   UNL A   1      34.678  17.623  24.069  1.00  0.00     0.025 A 
ATOM     19  C   UNL A   1      33.763  16.586  24.022  1.00  0.00     0.022 A 
ATOM     20  N   UNL A   1      32.159  17.997  25.132  1.00  0.00    -0.238 NA
ATOM     21  C   UNL A   1      32.544  16.810  24.607  1.00  0.00     0.113 A 
BRANCH  17  22
ATOM     22  C   UNL A   1      35.330  19.841  24.854  1.00  0.00     0.103 C 
ATOM     23  N   UNL A   1      36.196  20.602  24.996  1.00  0.00    -0.192 NA
ENDBRANCH  17  22
ENDBRANCH  10  16
ENDBRANCH   8   9
BRANCH   8  24
ATOM     24  C   UNL A   1      32.775  25.953  25.588  1.00  0.00     0.046 A 
ATOM     25  C   UNL A   1      32.021  26.316  26.705  1.00  0.00     0.094 A 
ATOM     26  C   UNL A   1      32.090  26.918  24.737  1.00  0.00     0.009 A 
ATOM     27  N   UNL A   1      30.737  25.906  26.269  1.00  0.00    -0.361 N 
ATOM     28  C   UNL A   1      30.589  26.189  24.822  1.00  0.00     0.046 A 
ATOM     29  C   UNL A   1      32.131  28.630  24.102  1.00  0.00     0.011 A 
ATOM     30  H   UNL A   1      30.048  25.495  26.841  1.00  0.00     0.166 HD
ATOM     31  C   UNL A   1      29.120  26.759  24.005  1.00  0.00     0.032 A 
ATOM     32  C   UNL A   1      30.446  29.384  23.262  1.00  0.00     0.007 A 
ATOM     33  C   UNL A   1      28.999  28.339  23.233  1.00  0.00    -0.021 A 
BRANCH  33  34
ATOM     34  C   UNL A   1      27.819  28.689  22.392  1.00  0.00     0.191 C 
BRANCH  34  35
ATOM     35  O   UNL A   1      26.968  29.553  23.130  1.00  0.00    -0.392 OA
ATOM     36  H   UNL A   1      26.120  29.112  23.292  1.00  0.00     0.211 HD
ENDBRANCH  34  35
ENDBRANCH  33  34
ENDBRANCH   8  24
ENDBRANCH   6   8
ENDBRANCH   5   6
ENDBRANCH   4   5
ENDBRANCH   3   4
ENDBRANCH   2   3
ENDBRANCH   1   2
BRANCH   1  37
ATOM     37  C   UNL A   1      40.294  21.752  27.019  1.00  0.00     0.188 C 
BRANCH  37  38
ATOM     38  O   UNL A   1      41.369  21.227  26.260  1.00  0.00    -0.376 OA
BRANCH  38  39
ATOM     39  C   UNL A   1      42.383  22.124  25.820  1.00  0.00     0.202 C 
BRANCH  39  40
ATOM     40  C   UNL A   1      42.671  23.360  26.677  1.00  0.00     0.261 C 
BRANCH  40  41
ATOM     41  O   UNL A   1      42.949  24.495  25.854  1.00  0.00    -0.460 OA
BRANCH  41  42
ATOM     42  C   UNL A   1      42.299  25.650  25.667  1.00  0.00     0.338 C 
ATOM     43  O   UNL A   1      42.248  26.281  24.632  1.00  0.00    -0.246 OA
BRANCH  42  44
ATOM     44  C   UNL A   1      41.922  26.033  27.149  1.00  0.00     0.060 A 
ATOM     45  C   UNL A   1      40.403  25.944  28.494  1.00  0.00     0.016 A 
ATOM     46  C   UNL A   1      43.232  27.258  27.569  1.00  0.00     0.016 A 
ATOM     47  C   UNL A   1      40.402  26.951  29.922  1.00  0.00     0.010 A 
ATOM     48  C   UNL A   1      43.068  28.224  29.025  1.00  0.00     0.010 A 
ATOM     49  C   UNL A   1      41.686  28.067  30.098  1.00  0.00    -0.014 A 
BRANCH  49  50
ATOM     50  C   UNL A   1      41.379  29.024  31.142  1.00  0.00     0.031 A 
ATOM     51  C   UNL A   1      40.223  29.962  30.954  1.00  0.00     0.074 A 
ATOM     52  C   UNL A   1      42.000  28.780  32.299  1.00  0.00     0.049 A 
ATOM     53  N   UNL A   1      39.768  30.875  31.763  1.00  0.00    -0.248 NA
ATOM     54  C   UNL A   1      39.426  29.843  29.716  1.00  0.00     0.031 C 
ATOM     55  C   UNL A   1      42.956  27.690  32.532  1.00  0.00     0.029 A 
ATOM     56  N   UNL A   1      41.915  29.416  33.494  1.00  0.00    -0.354 N 
ATOM     57  C   UNL A   1      38.663  31.434  31.125  1.00  0.00     0.074 A 
ATOM     58  C   UNL A   1      38.486  30.760  29.872  1.00  0.00     0.031 C 
ATOM     59  C   UNL A   1      43.437  27.791  33.777  1.00  0.00     0.029 A 
ATOM     60  C   UNL A   1      42.856  28.975  34.386  1.00  0.00     0.049 A 
ATOM     61  H   UNL A   1      41.252  30.115  33.697  1.00  0.00     0.167 HD
ATOM     62  C   UNL A   1      37.884  32.440  31.573  1.00  0.00     0.037 A 
ATOM     63  C   UNL A   1      43.245  29.554  35.529  1.00  0.00     0.037 A 
ATOM     64  C   UNL A   1      38.150  33.065  32.837  1.00  0.00     0.049 A 
ATOM     65  C   UNL A   1      42.483  30.783  35.927  1.00  0.00     0.074 A 
ATOM     66  C   UNL A   1      37.524  34.141  33.427  1.00  0.00     0.029 A 
ATOM     67  N   UNL A   1      39.161  32.648  33.698  1.00  0.00    -0.354 N 
ATOM     68  N   UNL A   1      41.490  31.374  35.296  1.00  0.00    -0.248 NA
ATOM     69  C   UNL A   1      42.871  31.422  37.182  1.00  0.00     0.031 C 
ATOM     70  C   UNL A   1      38.211  34.422  34.611  1.00  0.00     0.029 A 
ATOM     71  C   UNL A   1      39.204  33.466  34.803  1.00  0.00     0.049 A 
ATOM     72  H   UNL A   1      39.757  31.881  33.540  1.00  0.00     0.167 HD
ATOM     73  C   UNL A   1      41.094  32.424  36.102  1.00  0.00     0.074 A 
ATOM     74  C   UNL A   1      41.968  32.389  37.265  1.00  0.00     0.031 C 
ATOM     75  C   UNL A   1      40.100  33.330  35.925  1.00  0.00     0.037 A 
BRANCH  62  76
ATOM     76  C   UNL A   1      36.805  32.970  30.675  1.00  0.00     0.057 A 
ATOM     77  C   UNL A   1      37.050  33.880  29.637  1.00  0.00     0.134 A 
ATOM     78  C   UNL A   1      35.478  32.554  30.856  1.00  0.00     0.134 A 
ATOM     79  F   UNL A   1      38.287  34.356  29.426  1.00  0.00    -0.206 F 
ATOM     80  C   UNL A   1      36.019  34.352  28.816  1.00  0.00     0.040 A 
ATOM     81  C   UNL A   1      34.444  33.001  30.030  1.00  0.00     0.040 A 
ATOM     82  F   UNL A   1      35.163  31.704  31.846  1.00  0.00    -0.206 F 
ATOM     83  C   UNL A   1      34.714  33.903  29.006  1.00  0.00     0.006 A 
ENDBRANCH  62  76
BRANCH  63  84
ATOM     84  C   UNL A   1      44.412  29.029  36.273  1.00  0.00     0.057 A 
ATOM     85  C   UNL A   1      45.675  29.612  36.160  1.00  0.00     0.134 A 
ATOM     86  C   UNL A   1      44.288  27.926  37.134  1.00  0.00     0.134 A 
ATOM     87  F   UNL A   1      45.857  30.678  35.368  1.00  0.00    -0.206 F 
ATOM     88  C   UNL A   1      46.781  29.095  36.837  1.00  0.00     0.040 A 
ATOM     89  C   UNL A   1      45.376  27.419  37.841  1.00  0.00     0.040 A 
ATOM     90  F   UNL A   1      43.096  27.336  37.315  1.00  0.00    -0.206 F 
ATOM     91  C   UNL A   1      46.633  27.994  37.681  1.00  0.00     0.006 A 
ENDBRANCH  63  84
BRANCH  75  92
ATOM     92  C   UNL A   1      39.869  34.278  37.051  1.00  0.00     0.057 A 
ATOM     93  C   UNL A   1      40.366  35.583  37.031  1.00  0.00     0.134 A 
ATOM     94  C   UNL A   1      39.050  33.892  38.120  1.00  0.00     0.134 A 
ATOM     95  F   UNL A   1      41.163  35.993  36.032  1.00  0.00    -0.206 F 
ATOM     96  C   UNL A   1      40.069  36.477  38.054  1.00  0.00     0.040 A 
ATOM     97  C   UNL A   1      38.714  34.789  39.127  1.00  0.00     0.040 A 
ATOM     98  F   UNL A   1      38.536  32.654  38.174  1.00  0.00    -0.206 F 
ATOM     99  C   UNL A   1      39.230  36.084  39.097  1.00  0.00     0.006 A 
ENDBRANCH  75  92
ENDBRANCH  49  50
ENDBRANCH  42  44
ENDBRANCH  41  42
ENDBRANCH  40  41
ENDBRANCH  39  40
ENDBRANCH  38  39
ENDBRANCH  37  38
ENDBRANCH   1  37
TORSDOF 23
ENDMDL
