MODEL 1
REMARK VINA RESULT:     -11.2      0.000      0.000
REMARK SMILES CCc1cc(N2CCC[C@H](C(=O)OCCOCCOCCOC(=O)c3ccc(-c4c5nc(c(-c6c(F)cccc6F)c6ccc([nH]6)c(-c6c(F)cccc6F)c6nc(c(-c7c(F)cccc7F)c7ccc4[nH]7)C=C6)C=C5)cc3)C2)nc(-c2ccc(Cl)cc2)n1
REMARK SMILES IDX 17 1 16 2 15 3 14 4 13 5 11 6 12 7 10 8 6 9 7 10 79 11 8 12
REMARK SMILES IDX 9 13 5 14 3 15 4 16 89 17 81 18 80 19 2 20 1 21 82 22 83 23
REMARK SMILES IDX 88 24 84 25 87 26 85 27 86 28 18 29 19 30 20 31 21 32 22 33
REMARK SMILES IDX 23 34 24 35 25 36 26 37 78 38 27 39 77 40 28 41 29 42 30 43
REMARK SMILES IDX 71 44 31 45 76 46 70 47 72 48 32 49 75 50 69 51 68 52 33 54
REMARK SMILES IDX 59 55 42 56 58 57 43 58 46 59 57 60 73 61 44 62 45 63 56 65
REMARK SMILES IDX 74 66 47 67 34 68 35 69 40 70 36 71 37 72 39 73 41 74 38 75
REMARK SMILES IDX 60 76 61 77 66 78 62 79 63 80 65 81 67 82 64 83 48 84 49 85
REMARK SMILES IDX 54 86 50 87 51 88 53 89 55 90 52 91
REMARK H PARENT 72 53 46 64
REMARK Flexibility Score: inf
ROOT
ATOM      1  C   UNL A   1      37.211  23.601  25.460  1.00  0.00     0.188 C 
ENDROOT
BRANCH   1   2
ATOM      2  O   UNL A   1      35.793  23.553  25.399  1.00  0.00    -0.376 OA
BRANCH   2   3
ATOM      3  C   UNL A   1      35.120  24.807  25.389  1.00  0.00     0.202 C 
BRANCH   3   4
ATOM      4  C   UNL A   1      34.422  25.240  24.089  1.00  0.00     0.261 C 
BRANCH   4   5
ATOM      5  O   UNL A   1      33.709  24.222  23.360  1.00  0.00    -0.463 OA
BRANCH   5   6
ATOM      6  C   UNL A   1      32.494  24.562  22.868  1.00  0.00     0.310 C 
ATOM      7  O   UNL A   1      32.290  25.509  22.112  1.00  0.00    -0.252 OA
BRANCH   6   8
ATOM      8  C   UNL A   1      31.364  23.643  23.308  1.00  0.00     0.118 C 
ATOM      9  N   UNL A   1      30.435  25.209  24.925  1.00  0.00    -0.356 N 
ATOM     10  C   UNL A   1      30.677  24.375  26.093  1.00  0.00     0.118 C 
ATOM     11  C   UNL A   1      30.181  24.541  23.648  1.00  0.00     0.133 C 
ATOM     12  C   UNL A   1      31.762  23.337  25.823  1.00  0.00     0.022 C 
ATOM     13  C   UNL A   1      31.590  22.659  24.463  1.00  0.00     0.019 C 
BRANCH   9  14
ATOM     14  C   UNL A   1      30.829  26.540  24.917  1.00  0.00     0.132 A 
ATOM     15  C   UNL A   1      32.372  28.180  25.656  1.00  0.00     0.046 A 
ATOM     16  C   UNL A   1      31.881  26.898  25.740  1.00  0.00     0.070 A 
ATOM     17  N   UNL A   1      31.796  29.103  24.873  1.00  0.00    -0.233 NA
ATOM     18  C   UNL A   1      30.733  28.702  24.151  1.00  0.00     0.161 A 
ATOM     19  N   UNL A   1      30.237  27.445  24.113  1.00  0.00    -0.211 NA
BRANCH  15  20
ATOM     20  C   UNL A   1      33.590  28.590  26.439  1.00  0.00     0.053 C 
ATOM     21  C   UNL A   1      33.333  29.780  27.359  1.00  0.00     0.011 C 
ENDBRANCH  15  20
BRANCH  18  22
ATOM     22  C   UNL A   1      30.063  29.761  23.386  1.00  0.00     0.019 A 
ATOM     23  C   UNL A   1      29.600  30.928  24.017  1.00  0.00     0.013 A 
ATOM     24  C   UNL A   1      29.758  29.595  22.025  1.00  0.00     0.013 A 
ATOM     25  C   UNL A   1      28.880  31.898  23.307  1.00  0.00     0.021 A 
ATOM     26  C   UNL A   1      29.062  30.571  21.302  1.00  0.00     0.021 A 
ATOM     27  C   UNL A   1      28.621  31.718  21.952  1.00  0.00     0.041 A 
ATOM     28  Cl  UNL A   1      27.720  32.898  21.082  1.00  0.00    -0.084 Cl
ENDBRANCH  18  22
ENDBRANCH   9  14
ENDBRANCH   6   8
ENDBRANCH   5   6
ENDBRANCH   4   5
ENDBRANCH   3   4
ENDBRANCH   2   3
ENDBRANCH   1   2
BRANCH   1  29
ATOM     29  C   UNL A   1      37.934  22.278  25.740  1.00  0.00     0.188 C 
BRANCH  29  30
ATOM     30  O   UNL A   1      37.576  21.186  24.914  1.00  0.00    -0.376 OA
BRANCH  30  31
ATOM     31  C   UNL A   1      38.361  19.998  24.974  1.00  0.00     0.202 C 
BRANCH  31  32
ATOM     32  C   UNL A   1      39.717  20.058  25.718  1.00  0.00     0.261 C 
BRANCH  32  33
ATOM     33  O   UNL A   1      40.483  18.836  25.801  1.00  0.00    -0.460 OA
BRANCH  33  34
ATOM     34  C   UNL A   1      41.809  18.936  26.055  1.00  0.00     0.338 C 
ATOM     35  O   UNL A   1      42.664  18.118  25.756  1.00  0.00    -0.246 OA
BRANCH  34  36
ATOM     36  C   UNL A   1      42.107  20.340  26.477  1.00  0.00     0.060 A 
ATOM     37  C   UNL A   1      42.423  21.275  25.477  1.00  0.00     0.016 A 
ATOM     38  C   UNL A   1      41.968  20.772  27.801  1.00  0.00     0.016 A 
ATOM     39  C   UNL A   1      42.647  22.618  25.800  1.00  0.00     0.010 A 
ATOM     40  C   UNL A   1      42.214  22.114  28.126  1.00  0.00     0.010 A 
ATOM     41  C   UNL A   1      42.593  23.038  27.134  1.00  0.00    -0.014 A 
BRANCH  41  42
ATOM     42  C   UNL A   1      43.161  24.358  27.524  1.00  0.00     0.031 A 
ATOM     43  C   UNL A   1      42.201  25.445  27.928  1.00  0.00     0.074 A 
ATOM     44  C   UNL A   1      44.483  24.610  27.532  1.00  0.00     0.049 A 
ATOM     45  N   UNL A   1      42.432  26.695  28.239  1.00  0.00    -0.248 NA
ATOM     46  C   UNL A   1      40.780  25.065  27.976  1.00  0.00     0.031 C 
ATOM     47  C   UNL A   1      45.532  23.651  27.202  1.00  0.00     0.029 A 
ATOM     48  N   UNL A   1      45.163  25.771  27.815  1.00  0.00    -0.354 N 
ATOM     49  C   UNL A   1      41.186  27.254  28.498  1.00  0.00     0.074 A 
ATOM     50  C   UNL A   1      40.203  26.215  28.281  1.00  0.00     0.031 C 
ATOM     51  C   UNL A   1      46.725  24.269  27.275  1.00  0.00     0.029 A 
ATOM     52  C   UNL A   1      46.520  25.676  27.624  1.00  0.00     0.049 A 
ATOM     53  H   UNL A   1      44.719  26.594  28.124  1.00  0.00     0.167 HD
ATOM     54  C   UNL A   1      40.882  28.516  28.883  1.00  0.00     0.037 A 
ATOM     55  C   UNL A   1      47.482  26.620  27.692  1.00  0.00     0.037 A 
ATOM     56  C   UNL A   1      41.854  29.555  29.097  1.00  0.00     0.049 A 
ATOM     57  C   UNL A   1      47.123  28.037  28.062  1.00  0.00     0.074 A 
ATOM     58  C   UNL A   1      41.645  30.853  29.528  1.00  0.00     0.029 A 
ATOM     59  N   UNL A   1      43.217  29.421  28.877  1.00  0.00    -0.354 N 
ATOM     60  N   UNL A   1      45.948  28.547  28.346  1.00  0.00    -0.248 NA
ATOM     61  C   UNL A   1      48.225  29.010  28.127  1.00  0.00     0.031 C 
ATOM     62  C   UNL A   1      42.873  31.525  29.503  1.00  0.00     0.029 A 
ATOM     63  C   UNL A   1      43.856  30.624  29.126  1.00  0.00     0.049 A 
ATOM     64  H   UNL A   1      43.664  28.593  28.588  1.00  0.00     0.167 HD
ATOM     65  C   UNL A   1      46.172  29.887  28.644  1.00  0.00     0.074 A 
ATOM     66  C   UNL A   1      47.597  30.110  28.520  1.00  0.00     0.031 C 
ATOM     67  C   UNL A   1      45.276  30.844  28.996  1.00  0.00     0.037 A 
BRANCH  54  68
ATOM     68  C   UNL A   1      39.426  28.851  29.044  1.00  0.00     0.057 A 
ATOM     69  C   UNL A   1      38.754  28.705  30.264  1.00  0.00     0.134 A 
ATOM     70  C   UNL A   1      38.685  29.322  27.952  1.00  0.00     0.134 A 
ATOM     71  F   UNL A   1      39.399  28.242  31.346  1.00  0.00    -0.206 F 
ATOM     72  C   UNL A   1      37.389  28.976  30.383  1.00  0.00     0.040 A 
ATOM     73  C   UNL A   1      37.329  29.630  28.067  1.00  0.00     0.040 A 
ATOM     74  F   UNL A   1      39.267  29.491  26.755  1.00  0.00    -0.206 F 
ATOM     75  C   UNL A   1      36.675  29.445  29.282  1.00  0.00     0.006 A 
ENDBRANCH  54  68
BRANCH  55  76
ATOM     76  C   UNL A   1      48.889  26.259  27.372  1.00  0.00     0.057 A 
ATOM     77  C   UNL A   1      49.378  26.309  26.061  1.00  0.00     0.134 A 
ATOM     78  C   UNL A   1      49.780  25.856  28.375  1.00  0.00     0.134 A 
ATOM     79  F   UNL A   1      48.566  26.657  25.051  1.00  0.00    -0.206 F 
ATOM     80  C   UNL A   1      50.698  25.969  25.758  1.00  0.00     0.040 A 
ATOM     81  C   UNL A   1      51.108  25.538  28.090  1.00  0.00     0.040 A 
ATOM     82  F   UNL A   1      49.372  25.779  29.650  1.00  0.00    -0.206 F 
ATOM     83  C   UNL A   1      51.570  25.591  26.778  1.00  0.00     0.006 A 
ENDBRANCH  55  76
BRANCH  67  84
ATOM     84  C   UNL A   1      45.805  32.217  29.307  1.00  0.00     0.057 A 
ATOM     85  C   UNL A   1      45.902  33.218  28.333  1.00  0.00     0.134 A 
ATOM     86  C   UNL A   1      46.171  32.558  30.617  1.00  0.00     0.134 A 
ATOM     87  F   UNL A   1      45.575  32.960  27.058  1.00  0.00    -0.206 F 
ATOM     88  C   UNL A   1      46.365  34.499  28.644  1.00  0.00     0.040 A 
ATOM     89  C   UNL A   1      46.606  33.843  30.946  1.00  0.00     0.040 A 
ATOM     90  F   UNL A   1      46.092  31.654  31.605  1.00  0.00    -0.206 F 
ATOM     91  C   UNL A   1      46.710  34.817  29.957  1.00  0.00     0.006 A 
ENDBRANCH  67  84
ENDBRANCH  41  42
ENDBRANCH  34  36
ENDBRANCH  33  34
ENDBRANCH  32  33
ENDBRANCH  31  32
ENDBRANCH  30  31
ENDBRANCH  29  30
ENDBRANCH   1  29
TORSDOF 20
ENDMDL
MODEL 2
REMARK VINA RESULT:     -11.0      4.643      8.699
REMARK SMILES CCc1cc(N2CCC[C@H](C(=O)OCCOCCOCCOC(=O)c3ccc(-c4c5nc(c(-c6c(F)cccc6F)c6ccc([nH]6)c(-c6c(F)cccc6F)c6nc(c(-c7c(F)cccc7F)c7ccc4[nH]7)C=C6)C=C5)cc3)C2)nc(-c2ccc(Cl)cc2)n1
REMARK SMILES IDX 17 1 16 2 15 3 14 4 13 5 11 6 12 7 10 8 6 9 7 10 79 11 8 12
REMARK SMILES IDX 9 13 5 14 3 15 4 16 89 17 81 18 80 19 2 20 1 21 82 22 83 23
REMARK SMILES IDX 88 24 84 25 87 26 85 27 86 28 18 29 19 30 20 31 21 32 22 33
REMARK SMILES IDX 23 34 24 35 25 36 26 37 78 38 27 39 77 40 28 41 29 42 30 43
REMARK SMILES IDX 71 44 31 45 76 46 70 47 72 48 32 49 75 50 69 51 68 52 33 54
REMARK SMILES IDX 59 55 42 56 58 57 43 58 46 59 57 60 73 61 44 62 45 63 56 65
REMARK SMILES IDX 74 66 47 67 34 68 35 69 40 70 36 71 37 72 39 73 41 74 38 75
REMARK SMILES IDX 60 76 61 77 66 78 62 79 63 80 65 81 67 82 64 83 48 84 49 85
REMARK SMILES IDX 54 86 50 87 51 88 53 89 55 90 52 91
REMARK H PARENT 72 53 46 64
REMARK Flexibility Score: inf
ROOT
ATOM      1  C   UNL A   1      37.274  21.254  24.638  1.00  0.00     0.188 C 
ENDROOT
BRANCH   1   2
ATOM      2  O   UNL A   1      36.308  22.222  24.253  1.00  0.00    -0.376 OA
BRANCH   2   3
ATOM      3  C   UNL A   1      35.682  22.942  25.310  1.00  0.00     0.202 C 
BRANCH   3   4
ATOM      4  C   UNL A   1      35.106  24.331  24.991  1.00  0.00     0.261 C 
BRANCH   4   5
ATOM      5  O   UNL A   1      34.335  24.972  26.026  1.00  0.00    -0.463 OA
BRANCH   5   6
ATOM      6  C   UNL A   1      33.616  26.062  25.665  1.00  0.00     0.310 C 
ATOM      7  O   UNL A   1      33.903  26.805  24.730  1.00  0.00    -0.252 OA
BRANCH   6   8
ATOM      8  C   UNL A   1      32.371  26.293  26.508  1.00  0.00     0.118 C 
ATOM      9  N   UNL A   1      30.964  24.776  25.225  1.00  0.00    -0.356 N 
ATOM     10  C   UNL A   1      30.032  25.794  24.764  1.00  0.00     0.118 C 
ATOM     11  C   UNL A   1      31.607  24.974  26.524  1.00  0.00     0.133 C 
ATOM     12  C   UNL A   1      30.649  27.187  24.831  1.00  0.00     0.022 C 
ATOM     13  C   UNL A   1      31.403  27.425  26.140  1.00  0.00     0.019 C 
BRANCH   9  14
ATOM     14  C   UNL A   1      31.533  23.884  24.326  1.00  0.00     0.132 A 
ATOM     15  C   UNL A   1      32.548  23.538  22.213  1.00  0.00     0.046 A 
ATOM     16  C   UNL A   1      31.869  24.367  23.075  1.00  0.00     0.070 A 
ATOM     17  N   UNL A   1      32.803  22.259  22.522  1.00  0.00    -0.233 NA
ATOM     18  C   UNL A   1      32.386  21.837  23.731  1.00  0.00     0.161 A 
ATOM     19  N   UNL A   1      31.785  22.605  24.667  1.00  0.00    -0.211 NA
BRANCH  15  20
ATOM     20  C   UNL A   1      33.044  24.048  20.886  1.00  0.00     0.053 C 
ATOM     21  C   UNL A   1      32.753  25.531  20.673  1.00  0.00     0.011 C 
ENDBRANCH  15  20
BRANCH  18  22
ATOM     22  C   UNL A   1      32.587  20.407  23.995  1.00  0.00     0.019 A 
ATOM     23  C   UNL A   1      32.425  19.453  22.977  1.00  0.00     0.013 A 
ATOM     24  C   UNL A   1      32.832  19.934  25.295  1.00  0.00     0.013 A 
ATOM     25  C   UNL A   1      32.525  18.081  23.247  1.00  0.00     0.021 A 
ATOM     26  C   UNL A   1      32.960  18.567  25.569  1.00  0.00     0.021 A 
ATOM     27  C   UNL A   1      32.800  17.646  24.540  1.00  0.00     0.041 A 
ATOM     28  Cl  UNL A   1      32.904  15.962  24.879  1.00  0.00    -0.084 Cl
ENDBRANCH  18  22
ENDBRANCH   9  14
ENDBRANCH   6   8
ENDBRANCH   5   6
ENDBRANCH   4   5
ENDBRANCH   3   4
ENDBRANCH   2   3
ENDBRANCH   1   2
BRANCH   1  29
ATOM     29  C   UNL A   1      38.401  21.735  25.559  1.00  0.00     0.188 C 
BRANCH  29  30
ATOM     30  O   UNL A   1      39.409  20.788  25.858  1.00  0.00    -0.376 OA
BRANCH  30  31
ATOM     31  C   UNL A   1      40.562  21.221  26.576  1.00  0.00     0.202 C 
BRANCH  31  32
ATOM     32  C   UNL A   1      41.873  21.441  25.784  1.00  0.00     0.261 C 
BRANCH  32  33
ATOM     33  O   UNL A   1      42.889  22.263  26.398  1.00  0.00    -0.460 OA
BRANCH  33  34
ATOM     34  C   UNL A   1      43.167  23.459  25.827  1.00  0.00     0.338 C 
ATOM     35  O   UNL A   1      43.559  23.639  24.685  1.00  0.00    -0.246 OA
BRANCH  34  36
ATOM     36  C   UNL A   1      42.626  24.542  26.705  1.00  0.00     0.060 A 
ATOM     37  C   UNL A   1      43.254  25.798  26.665  1.00  0.00     0.016 A 
ATOM     38  C   UNL A   1      41.460  24.383  27.463  1.00  0.00     0.016 A 
ATOM     39  C   UNL A   1      42.756  26.871  27.413  1.00  0.00     0.010 A 
ATOM     40  C   UNL A   1      40.974  25.453  28.229  1.00  0.00     0.010 A 
ATOM     41  C   UNL A   1      41.640  26.692  28.239  1.00  0.00    -0.014 A 
BRANCH  41  42
ATOM     42  C   UNL A   1      41.318  27.702  29.285  1.00  0.00     0.031 A 
ATOM     43  C   UNL A   1      42.106  27.661  30.568  1.00  0.00     0.074 A 
ATOM     44  C   UNL A   1      40.364  28.638  29.127  1.00  0.00     0.049 A 
ATOM     45  N   UNL A   1      41.975  28.376  31.656  1.00  0.00    -0.248 NA
ATOM     46  C   UNL A   1      43.189  26.665  30.628  1.00  0.00     0.031 C 
ATOM     47  C   UNL A   1      39.546  28.823  27.933  1.00  0.00     0.029 A 
ATOM     48  N   UNL A   1      39.913  29.600  30.000  1.00  0.00    -0.354 N 
ATOM     49  C   UNL A   1      42.940  27.902  32.536  1.00  0.00     0.074 A 
ATOM     50  C   UNL A   1      43.631  26.822  31.864  1.00  0.00     0.031 C 
ATOM     51  C   UNL A   1      38.672  29.822  28.157  1.00  0.00     0.029 A 
ATOM     52  C   UNL A   1      38.847  30.323  29.521  1.00  0.00     0.049 A 
ATOM     53  H   UNL A   1      40.314  29.756  30.885  1.00  0.00     0.167 HD
ATOM     54  C   UNL A   1      43.231  28.323  33.789  1.00  0.00     0.037 A 
ATOM     55  C   UNL A   1      38.081  31.257  30.122  1.00  0.00     0.037 A 
ATOM     56  C   UNL A   1      42.547  29.394  34.464  1.00  0.00     0.049 A 
ATOM     57  C   UNL A   1      38.378  31.675  31.541  1.00  0.00     0.074 A 
ATOM     58  C   UNL A   1      42.799  29.920  35.719  1.00  0.00     0.029 A 
ATOM     59  N   UNL A   1      41.463  30.089  33.949  1.00  0.00    -0.354 N 
ATOM     60  N   UNL A   1      39.318  31.251  32.351  1.00  0.00    -0.248 NA
ATOM     61  C   UNL A   1      37.507  32.706  32.128  1.00  0.00     0.031 C 
ATOM     62  C   UNL A   1      41.824  30.886  35.991  1.00  0.00     0.029 A 
ATOM     63  C   UNL A   1      41.010  31.012  34.877  1.00  0.00     0.049 A 
ATOM     64  H   UNL A   1      41.074  29.947  33.056  1.00  0.00     0.167 HD
ATOM     65  C   UNL A   1      39.169  31.976  33.528  1.00  0.00     0.074 A 
ATOM     66  C   UNL A   1      38.055  32.878  33.324  1.00  0.00     0.031 C 
ATOM     67  C   UNL A   1      39.896  31.906  34.672  1.00  0.00     0.037 A 
BRANCH  54  68
ATOM     68  C   UNL A   1      44.309  27.581  34.528  1.00  0.00     0.057 A 
ATOM     69  C   UNL A   1      45.654  27.970  34.483  1.00  0.00     0.134 A 
ATOM     70  C   UNL A   1      43.990  26.452  35.294  1.00  0.00     0.134 A 
ATOM     71  F   UNL A   1      46.030  29.033  33.754  1.00  0.00    -0.206 F 
ATOM     72  C   UNL A   1      46.648  27.241  35.137  1.00  0.00     0.040 A 
ATOM     73  C   UNL A   1      44.970  25.734  35.981  1.00  0.00     0.040 A 
ATOM     74  F   UNL A   1      42.722  26.026  35.386  1.00  0.00    -0.206 F 
ATOM     75  C   UNL A   1      46.305  26.121  35.894  1.00  0.00     0.006 A 
ENDBRANCH  54  68
BRANCH  55  76
ATOM     76  C   UNL A   1      36.931  31.847  29.389  1.00  0.00     0.057 A 
ATOM     77  C   UNL A   1      35.690  31.202  29.331  1.00  0.00     0.134 A 
ATOM     78  C   UNL A   1      37.047  33.076  28.727  1.00  0.00     0.134 A 
ATOM     79  F   UNL A   1      35.523  30.007  29.916  1.00  0.00    -0.206 F 
ATOM     80  C   UNL A   1      34.609  31.754  28.640  1.00  0.00     0.040 A 
ATOM     81  C   UNL A   1      35.968  33.652  28.056  1.00  0.00     0.040 A 
ATOM     82  F   UNL A   1      38.211  33.743  28.737  1.00  0.00    -0.206 F 
ATOM     83  C   UNL A   1      34.745  32.988  28.008  1.00  0.00     0.006 A 
ENDBRANCH  55  76
BRANCH  67  84
ATOM     84  C   UNL A   1      39.538  32.848  35.789  1.00  0.00     0.057 A 
ATOM     85  C   UNL A   1      40.099  34.126  35.895  1.00  0.00     0.134 A 
ATOM     86  C   UNL A   1      38.575  32.487  36.741  1.00  0.00     0.134 A 
ATOM     87  F   UNL A   1      41.033  34.534  35.023  1.00  0.00    -0.206 F 
ATOM     88  C   UNL A   1      39.733  35.002  36.920  1.00  0.00     0.040 A 
ATOM     89  C   UNL A   1      38.178  33.365  37.752  1.00  0.00     0.040 A 
ATOM     90  F   UNL A   1      37.985  31.283  36.694  1.00  0.00    -0.206 F 
ATOM     91  C   UNL A   1      38.762  34.625  37.847  1.00  0.00     0.006 A 
ENDBRANCH  67  84
ENDBRANCH  41  42
ENDBRANCH  34  36
ENDBRANCH  33  34
ENDBRANCH  32  33
ENDBRANCH  31  32
ENDBRANCH  30  31
ENDBRANCH  29  30
ENDBRANCH   1  29
TORSDOF 20
ENDMDL
MODEL 3
REMARK VINA RESULT:     -11.0      5.194      7.879
REMARK SMILES CCc1cc(N2CCC[C@H](C(=O)OCCOCCOCCOC(=O)c3ccc(-c4c5nc(c(-c6c(F)cccc6F)c6ccc([nH]6)c(-c6c(F)cccc6F)c6nc(c(-c7c(F)cccc7F)c7ccc4[nH]7)C=C6)C=C5)cc3)C2)nc(-c2ccc(Cl)cc2)n1
REMARK SMILES IDX 17 1 16 2 15 3 14 4 13 5 11 6 12 7 10 8 6 9 7 10 79 11 8 12
REMARK SMILES IDX 9 13 5 14 3 15 4 16 89 17 81 18 80 19 2 20 1 21 82 22 83 23
REMARK SMILES IDX 88 24 84 25 87 26 85 27 86 28 18 29 19 30 20 31 21 32 22 33
REMARK SMILES IDX 23 34 24 35 25 36 26 37 78 38 27 39 77 40 28 41 29 42 30 43
REMARK SMILES IDX 71 44 31 45 76 46 70 47 72 48 32 49 75 50 69 51 68 52 33 54
REMARK SMILES IDX 59 55 42 56 58 57 43 58 46 59 57 60 73 61 44 62 45 63 56 65
REMARK SMILES IDX 74 66 47 67 34 68 35 69 40 70 36 71 37 72 39 73 41 74 38 75
REMARK SMILES IDX 60 76 61 77 66 78 62 79 63 80 65 81 67 82 64 83 48 84 49 85
REMARK SMILES IDX 54 86 50 87 51 88 53 89 55 90 52 91
REMARK H PARENT 72 53 46 64
REMARK Flexibility Score: inf
ROOT
ATOM      1  C   UNL A   1      37.871  21.881  25.585  1.00  0.00     0.188 C 
ENDROOT
BRANCH   1   2
ATOM      2  O   UNL A   1      36.520  22.309  25.683  1.00  0.00    -0.376 OA
BRANCH   2   3
ATOM      3  C   UNL A   1      36.313  23.708  25.856  1.00  0.00     0.202 C 
BRANCH   3   4
ATOM      4  C   UNL A   1      35.066  24.335  25.212  1.00  0.00     0.261 C 
BRANCH   4   5
ATOM      5  O   UNL A   1      34.063  24.859  26.105  1.00  0.00    -0.463 OA
BRANCH   5   6
ATOM      6  C   UNL A   1      33.493  26.038  25.757  1.00  0.00     0.310 C 
ATOM      7  O   UNL A   1      33.952  26.812  24.921  1.00  0.00    -0.252 OA
BRANCH   6   8
ATOM      8  C   UNL A   1      32.185  26.332  26.476  1.00  0.00     0.118 C 
ATOM      9  N   UNL A   1      30.827  24.919  25.031  1.00  0.00    -0.356 N 
ATOM     10  C   UNL A   1      30.007  25.997  24.500  1.00  0.00     0.118 C 
ATOM     11  C   UNL A   1      31.347  25.062  26.392  1.00  0.00     0.133 C 
ATOM     12  C   UNL A   1      30.694  27.350  24.654  1.00  0.00     0.022 C 
ATOM     13  C   UNL A   1      31.327  27.525  26.036  1.00  0.00     0.019 C 
BRANCH   9  14
ATOM     14  C   UNL A   1      31.430  24.006  24.177  1.00  0.00     0.132 A 
ATOM     15  C   UNL A   1      32.607  23.625  22.156  1.00  0.00     0.046 A 
ATOM     16  C   UNL A   1      31.895  24.480  22.964  1.00  0.00     0.070 A 
ATOM     17  N   UNL A   1      32.775  22.333  22.474  1.00  0.00    -0.233 NA
ATOM     18  C   UNL A   1      32.235  21.925  23.638  1.00  0.00     0.161 A 
ATOM     19  N   UNL A   1      31.591  22.715  24.527  1.00  0.00    -0.211 NA
BRANCH  15  20
ATOM     20  C   UNL A   1      33.240  24.119  20.882  1.00  0.00     0.053 C 
ATOM     21  C   UNL A   1      32.611  25.410  20.369  1.00  0.00     0.011 C 
ENDBRANCH  15  20
BRANCH  18  22
ATOM     22  C   UNL A   1      32.345  20.485  23.905  1.00  0.00     0.019 A 
ATOM     23  C   UNL A   1      32.625  20.007  25.195  1.00  0.00     0.013 A 
ATOM     24  C   UNL A   1      32.292  19.545  22.862  1.00  0.00     0.013 A 
ATOM     25  C   UNL A   1      32.822  18.641  25.435  1.00  0.00     0.021 A 
ATOM     26  C   UNL A   1      32.461  18.176  23.096  1.00  0.00     0.021 A 
ATOM     27  C   UNL A   1      32.732  17.731  24.385  1.00  0.00     0.041 A 
ATOM     28  Cl  UNL A   1      32.992  16.055  24.672  1.00  0.00    -0.084 Cl
ENDBRANCH  18  22
ENDBRANCH   9  14
ENDBRANCH   6   8
ENDBRANCH   5   6
ENDBRANCH   4   5
ENDBRANCH   3   4
ENDBRANCH   2   3
ENDBRANCH   1   2
BRANCH   1  29
ATOM     29  C   UNL A   1      38.919  22.743  26.300  1.00  0.00     0.188 C 
BRANCH  29  30
ATOM     30  O   UNL A   1      39.970  22.044  26.939  1.00  0.00    -0.376 OA
BRANCH  30  31
ATOM     31  C   UNL A   1      41.080  21.614  26.156  1.00  0.00     0.202 C 
BRANCH  31  32
ATOM     32  C   UNL A   1      42.310  22.548  26.061  1.00  0.00     0.261 C 
BRANCH  32  33
ATOM     33  O   UNL A   1      42.335  23.704  26.926  1.00  0.00    -0.460 OA
BRANCH  33  34
ATOM     34  C   UNL A   1      42.204  24.925  26.355  1.00  0.00     0.338 C 
ATOM     35  O   UNL A   1      42.188  25.163  25.158  1.00  0.00    -0.246 OA
BRANCH  34  36
ATOM     36  C   UNL A   1      41.771  25.896  27.408  1.00  0.00     0.060 A 
ATOM     37  C   UNL A   1      42.417  27.142  27.458  1.00  0.00     0.016 A 
ATOM     38  C   UNL A   1      40.683  25.653  28.252  1.00  0.00     0.016 A 
ATOM     39  C   UNL A   1      42.015  28.119  28.376  1.00  0.00     0.010 A 
ATOM     40  C   UNL A   1      40.294  26.625  29.187  1.00  0.00     0.010 A 
ATOM     41  C   UNL A   1      40.982  27.849  29.281  1.00  0.00    -0.014 A 
BRANCH  41  42
ATOM     42  C   UNL A   1      40.783  28.725  30.468  1.00  0.00     0.031 A 
ATOM     43  C   UNL A   1      39.684  29.754  30.405  1.00  0.00     0.074 A 
ATOM     44  C   UNL A   1      41.535  28.631  31.580  1.00  0.00     0.049 A 
ATOM     45  N   UNL A   1      39.353  30.681  31.269  1.00  0.00    -0.248 NA
ATOM     46  C   UNL A   1      38.852  29.736  29.192  1.00  0.00     0.031 C 
ATOM     47  C   UNL A   1      42.606  27.666  31.801  1.00  0.00     0.029 A 
ATOM     48  N   UNL A   1      41.515  29.385  32.730  1.00  0.00    -0.354 N 
ATOM     49  C   UNL A   1      38.291  31.368  30.692  1.00  0.00     0.074 A 
ATOM     50  C   UNL A   1      38.052  30.768  29.397  1.00  0.00     0.031 C 
ATOM     51  C   UNL A   1      43.162  27.901  33.003  1.00  0.00     0.029 A 
ATOM     52  C   UNL A   1      42.507  29.054  33.623  1.00  0.00     0.049 A 
ATOM     53  H   UNL A   1      40.854  30.094  32.899  1.00  0.00     0.167 HD
ATOM     54  C   UNL A   1      37.575  32.402  31.192  1.00  0.00     0.037 A 
ATOM     55  C   UNL A   1      42.865  29.634  34.787  1.00  0.00     0.037 A 
ATOM     56  C   UNL A   1      37.809  33.005  32.478  1.00  0.00     0.049 A 
ATOM     57  C   UNL A   1      42.097  30.825  35.304  1.00  0.00     0.074 A 
ATOM     58  C   UNL A   1      37.108  34.031  33.088  1.00  0.00     0.029 A 
ATOM     59  N   UNL A   1      38.834  32.650  33.343  1.00  0.00    -0.354 N 
ATOM     60  N   UNL A   1      41.069  31.441  34.773  1.00  0.00    -0.248 NA
ATOM     61  C   UNL A   1      42.539  31.398  36.586  1.00  0.00     0.031 C 
ATOM     62  C   UNL A   1      37.750  34.343  34.291  1.00  0.00     0.029 A 
ATOM     63  C   UNL A   1      38.808  33.464  34.463  1.00  0.00     0.049 A 
ATOM     64  H   UNL A   1      39.482  31.928  33.184  1.00  0.00     0.167 HD
ATOM     65  C   UNL A   1      40.726  32.455  35.662  1.00  0.00     0.074 A 
ATOM     66  C   UNL A   1      41.649  32.363  36.774  1.00  0.00     0.031 C 
ATOM     67  C   UNL A   1      39.731  33.373  35.568  1.00  0.00     0.037 A 
BRANCH  54  68
ATOM     68  C   UNL A   1      36.502  32.980  30.313  1.00  0.00     0.057 A 
ATOM     69  C   UNL A   1      36.791  33.826  29.234  1.00  0.00     0.134 A 
ATOM     70  C   UNL A   1      35.154  32.687  30.559  1.00  0.00     0.134 A 
ATOM     71  F   UNL A   1      38.060  34.161  28.954  1.00  0.00    -0.206 F 
ATOM     72  C   UNL A   1      35.779  34.391  28.457  1.00  0.00     0.040 A 
ATOM     73  C   UNL A   1      34.134  33.219  29.768  1.00  0.00     0.040 A 
ATOM     74  F   UNL A   1      34.805  31.881  31.573  1.00  0.00    -0.206 F 
ATOM     75  C   UNL A   1      34.445  34.084  28.722  1.00  0.00     0.006 A 
ENDBRANCH  54  68
BRANCH  55  76
ATOM     76  C   UNL A   1      44.035  29.109  35.539  1.00  0.00     0.057 A 
ATOM     77  C   UNL A   1      43.892  28.126  36.526  1.00  0.00     0.134 A 
ATOM     78  C   UNL A   1      45.330  29.580  35.286  1.00  0.00     0.134 A 
ATOM     79  F   UNL A   1      42.675  27.657  36.838  1.00  0.00    -0.206 F 
ATOM     80  C   UNL A   1      44.990  27.633  37.234  1.00  0.00     0.040 A 
ATOM     81  C   UNL A   1      46.439  29.078  35.967  1.00  0.00     0.040 A 
ATOM     82  F   UNL A   1      45.535  30.527  34.358  1.00  0.00    -0.206 F 
ATOM     83  C   UNL A   1      46.270  28.104  36.948  1.00  0.00     0.006 A 
ENDBRANCH  55  76
BRANCH  67  84
ATOM     84  C   UNL A   1      39.558  34.338  36.708  1.00  0.00     0.057 A 
ATOM     85  C   UNL A   1      38.872  33.995  37.880  1.00  0.00     0.134 A 
ATOM     86  C   UNL A   1      40.136  35.615  36.653  1.00  0.00     0.134 A 
ATOM     87  F   UNL A   1      38.288  32.793  37.998  1.00  0.00    -0.206 F 
ATOM     88  C   UNL A   1      38.748  34.891  38.944  1.00  0.00     0.040 A 
ATOM     89  C   UNL A   1      40.045  36.508  37.722  1.00  0.00     0.040 A 
ATOM     90  F   UNL A   1      40.819  36.008  35.567  1.00  0.00    -0.206 F 
ATOM     91  C   UNL A   1      39.343  36.150  38.870  1.00  0.00     0.006 A 
ENDBRANCH  67  84
ENDBRANCH  41  42
ENDBRANCH  34  36
ENDBRANCH  33  34
ENDBRANCH  32  33
ENDBRANCH  31  32
ENDBRANCH  30  31
ENDBRANCH  29  30
ENDBRANCH   1  29
TORSDOF 20
ENDMDL
