MODEL 1
REMARK VINA RESULT:     -10.2      0.000      0.000
REMARK SMILES Cc1cc(C)c2c(=O)n(CCCC(=O)OCCOCCOCCOC(=O)c3ccc(-c4c5nc(c(-c6c(F)cccc6F)c6ccc([nH]6)c(-c6c(F)cccc6F)c6nc(c(-c7c(F)cccc7F)c7ccc4[nH]7)C=C6)C=C5)cc3)sc2n1
REMARK SMILES IDX 19 1 18 2 17 3 16 4 15 5 13 6 14 7 12 8 11 9 10 10 9 11 1 12
REMARK SMILES IDX 2 13 3 14 83 15 4 16 82 17 5 18 6 19 81 20 7 21 8 22 20 23
REMARK SMILES IDX 21 24 22 25 23 26 24 27 25 28 26 29 27 30 28 31 80 32 29 33
REMARK SMILES IDX 79 34 30 35 31 36 32 37 73 38 33 39 78 40 72 41 74 42 34 43
REMARK SMILES IDX 77 44 71 45 70 46 35 48 61 49 44 50 60 51 45 52 48 53 59 54
REMARK SMILES IDX 75 55 46 56 47 57 58 59 76 60 49 61 36 62 37 63 42 64 38 65
REMARK SMILES IDX 39 66 41 67 43 68 40 69 62 70 63 71 68 72 64 73 65 74 67 75
REMARK SMILES IDX 69 76 66 77 50 78 51 79 56 80 52 81 53 82 55 83 57 84 54 85
REMARK H PARENT 74 47 48 58
REMARK Flexibility Score: inf
ROOT
ATOM      1  C   UNL A   1      34.482  30.134  27.425  1.00  0.00     0.188 C 
ENDROOT
BRANCH   1   2
ATOM      2  O   UNL A   1      33.450  29.176  27.426  1.00  0.00    -0.376 OA
BRANCH   2   3
ATOM      3  C   UNL A   1      33.154  28.525  26.202  1.00  0.00     0.202 C 
BRANCH   3   4
ATOM      4  C   UNL A   1      32.761  27.035  26.171  1.00  0.00     0.261 C 
BRANCH   4   5
ATOM      5  O   UNL A   1      33.867  26.121  26.036  1.00  0.00    -0.463 OA
BRANCH   5   6
ATOM      6  C   UNL A   1      33.572  24.827  25.762  1.00  0.00     0.305 C 
ATOM      7  O   UNL A   1      32.719  24.177  26.358  1.00  0.00    -0.252 OA
BRANCH   6   8
ATOM      8  C   UNL A   1      34.301  24.243  24.560  1.00  0.00     0.124 C 
BRANCH   8   9
ATOM      9  C   UNL A   1      33.613  23.530  23.385  1.00  0.00     0.035 C 
BRANCH   9  10
ATOM     10  C   UNL A   1      33.056  24.335  22.209  1.00  0.00     0.139 C 
BRANCH  10  11
ATOM     11  N   UNL A   1      32.306  25.499  22.614  1.00  0.00    -0.262 N 
ATOM     12  C   UNL A   1      29.337  30.731  21.997  1.00  0.00     0.067 C 
ATOM     13  C   UNL A   1      29.706  29.351  22.440  1.00  0.00     0.039 A 
ATOM     14  C   UNL A   1      28.796  28.530  23.124  1.00  0.00     0.027 A 
ATOM     15  N   UNL A   1      30.974  28.978  22.177  1.00  0.00    -0.241 NA
ATOM     16  C   UNL A   1      29.159  27.220  23.478  1.00  0.00    -0.033 A 
ATOM     17  C   UNL A   1      31.286  27.723  22.522  1.00  0.00     0.146 A 
ATOM     18  C   UNL A   1      28.240  26.329  24.251  1.00  0.00     0.045 C 
ATOM     19  C   UNL A   1      30.423  26.806  23.093  1.00  0.00     0.081 A 
ATOM     20  S   UNL A   1      32.900  27.066  22.301  1.00  0.00    -0.035 S 
ATOM     21  C   UNL A   1      31.017  25.453  23.122  1.00  0.00     0.270 A 
ATOM     22  O   UNL A   1      30.401  24.457  23.464  1.00  0.00    -0.268 OA
ENDBRANCH  10  11
ENDBRANCH   9  10
ENDBRANCH   8   9
ENDBRANCH   6   8
ENDBRANCH   5   6
ENDBRANCH   4   5
ENDBRANCH   3   4
ENDBRANCH   2   3
ENDBRANCH   1   2
BRANCH   1  23
ATOM     23  C   UNL A   1      34.218  31.555  27.946  1.00  0.00     0.188 C 
BRANCH  23  24
ATOM     24  O   UNL A   1      34.936  32.725  27.613  1.00  0.00    -0.376 OA
BRANCH  24  25
ATOM     25  C   UNL A   1      35.075  33.924  28.365  1.00  0.00     0.202 C 
BRANCH  25  26
ATOM     26  C   UNL A   1      33.927  34.712  28.996  1.00  0.00     0.261 C 
BRANCH  26  27
ATOM     27  O   UNL A   1      33.517  34.204  30.235  1.00  0.00    -0.460 OA
BRANCH  27  28
ATOM     28  C   UNL A   1      33.684  35.077  31.245  1.00  0.00     0.338 C 
ATOM     29  O   UNL A   1      33.149  36.166  31.399  1.00  0.00    -0.246 OA
BRANCH  28  30
ATOM     30  C   UNL A   1      34.574  34.431  32.212  1.00  0.00     0.060 A 
ATOM     31  C   UNL A   1      35.664  35.175  32.653  1.00  0.00     0.016 A 
ATOM     32  C   UNL A   1      34.404  33.070  32.519  1.00  0.00     0.016 A 
ATOM     33  C   UNL A   1      36.777  34.467  32.999  1.00  0.00     0.010 A 
ATOM     34  C   UNL A   1      35.508  32.363  32.879  1.00  0.00     0.010 A 
ATOM     35  C   UNL A   1      36.695  33.075  32.906  1.00  0.00    -0.014 A 
BRANCH  35  36
ATOM     36  C   UNL A   1      37.907  32.370  32.598  1.00  0.00     0.031 A 
ATOM     37  C   UNL A   1      38.829  32.331  33.729  1.00  0.00     0.074 A 
ATOM     38  C   UNL A   1      38.104  31.843  31.375  1.00  0.00     0.049 A 
ATOM     39  N   UNL A   1      39.887  33.049  33.880  1.00  0.00    -0.248 NA
ATOM     40  C   UNL A   1      38.398  31.598  34.923  1.00  0.00     0.031 C 
ATOM     41  C   UNL A   1      37.166  31.664  30.260  1.00  0.00     0.029 A 
ATOM     42  N   UNL A   1      39.244  31.283  30.903  1.00  0.00    -0.354 N 
ATOM     43  C   UNL A   1      40.384  32.692  35.120  1.00  0.00     0.074 A 
ATOM     44  C   UNL A   1      39.331  31.978  35.796  1.00  0.00     0.031 C 
ATOM     45  C   UNL A   1      37.716  30.834  29.341  1.00  0.00     0.029 A 
ATOM     46  C   UNL A   1      39.084  30.551  29.734  1.00  0.00     0.049 A 
ATOM     47  H   UNL A   1      40.114  31.387  31.353  1.00  0.00     0.167 HD
ATOM     48  C   UNL A   1      41.712  32.775  35.380  1.00  0.00     0.037 A 
ATOM     49  C   UNL A   1      40.024  29.716  29.225  1.00  0.00     0.037 A 
ATOM     50  C   UNL A   1      42.385  33.626  34.430  1.00  0.00     0.049 A 
ATOM     51  C   UNL A   1      41.333  30.141  29.804  1.00  0.00     0.074 A 
ATOM     52  C   UNL A   1      42.276  34.964  34.097  1.00  0.00     0.029 A 
ATOM     53  N   UNL A   1      43.027  33.026  33.371  1.00  0.00    -0.354 N 
ATOM     54  N   UNL A   1      41.907  31.275  29.503  1.00  0.00    -0.248 NA
ATOM     55  C   UNL A   1      41.724  29.568  31.087  1.00  0.00     0.031 C 
ATOM     56  C   UNL A   1      42.424  35.008  32.680  1.00  0.00     0.029 A 
ATOM     57  C   UNL A   1      42.678  33.711  32.233  1.00  0.00     0.049 A 
ATOM     58  H   UNL A   1      43.629  32.248  33.421  1.00  0.00     0.167 HD
ATOM     59  C   UNL A   1      42.404  31.759  30.708  1.00  0.00     0.074 A 
ATOM     60  C   UNL A   1      42.311  30.636  31.639  1.00  0.00     0.031 C 
ATOM     61  C   UNL A   1      42.556  33.099  30.928  1.00  0.00     0.037 A 
BRANCH  48  62
ATOM     62  C   UNL A   1      42.428  31.790  36.256  1.00  0.00     0.057 A 
ATOM     63  C   UNL A   1      43.185  32.263  37.336  1.00  0.00     0.134 A 
ATOM     64  C   UNL A   1      42.618  30.430  35.929  1.00  0.00     0.134 A 
ATOM     65  F   UNL A   1      43.104  33.544  37.724  1.00  0.00    -0.206 F 
ATOM     66  C   UNL A   1      44.106  31.453  38.007  1.00  0.00     0.040 A 
ATOM     67  C   UNL A   1      43.491  29.600  36.628  1.00  0.00     0.040 A 
ATOM     68  F   UNL A   1      42.055  29.859  34.858  1.00  0.00    -0.206 F 
ATOM     69  C   UNL A   1      44.264  30.118  37.652  1.00  0.00     0.006 A 
ENDBRANCH  48  62
BRANCH  49  70
ATOM     70  C   UNL A   1      39.815  28.395  28.592  1.00  0.00     0.057 A 
ATOM     71  C   UNL A   1      40.347  28.099  27.330  1.00  0.00     0.134 A 
ATOM     72  C   UNL A   1      39.321  27.300  29.324  1.00  0.00     0.134 A 
ATOM     73  F   UNL A   1      40.881  29.068  26.573  1.00  0.00    -0.206 F 
ATOM     74  C   UNL A   1      40.404  26.789  26.833  1.00  0.00     0.040 A 
ATOM     75  C   UNL A   1      39.368  25.989  28.840  1.00  0.00     0.040 A 
ATOM     76  F   UNL A   1      38.857  27.454  30.573  1.00  0.00    -0.206 F 
ATOM     77  C   UNL A   1      39.923  25.726  27.594  1.00  0.00     0.006 A 
ENDBRANCH  49  70
BRANCH  61  78
ATOM     78  C   UNL A   1      42.332  34.030  29.765  1.00  0.00     0.057 A 
ATOM     79  C   UNL A   1      41.107  34.666  29.505  1.00  0.00     0.134 A 
ATOM     80  C   UNL A   1      43.425  34.433  28.993  1.00  0.00     0.134 A 
ATOM     81  F   UNL A   1      40.029  34.423  30.261  1.00  0.00    -0.206 F 
ATOM     82  C   UNL A   1      40.969  35.627  28.499  1.00  0.00     0.040 A 
ATOM     83  C   UNL A   1      43.308  35.414  28.006  1.00  0.00     0.040 A 
ATOM     84  F   UNL A   1      44.641  33.917  29.227  1.00  0.00    -0.206 F 
ATOM     85  C   UNL A   1      42.075  36.010  27.749  1.00  0.00     0.006 A 
ENDBRANCH  61  78
ENDBRANCH  35  36
ENDBRANCH  28  30
ENDBRANCH  27  28
ENDBRANCH  26  27
ENDBRANCH  25  26
ENDBRANCH  24  25
ENDBRANCH  23  24
ENDBRANCH   1  23
TORSDOF 20
ENDMDL
MODEL 2
REMARK VINA RESULT:     -10.1      3.875      8.822
REMARK SMILES Cc1cc(C)c2c(=O)n(CCCC(=O)OCCOCCOCCOC(=O)c3ccc(-c4c5nc(c(-c6c(F)cccc6F)c6ccc([nH]6)c(-c6c(F)cccc6F)c6nc(c(-c7c(F)cccc7F)c7ccc4[nH]7)C=C6)C=C5)cc3)sc2n1
REMARK SMILES IDX 19 1 18 2 17 3 16 4 15 5 13 6 14 7 12 8 11 9 10 10 9 11 1 12
REMARK SMILES IDX 2 13 3 14 83 15 4 16 82 17 5 18 6 19 81 20 7 21 8 22 20 23
REMARK SMILES IDX 21 24 22 25 23 26 24 27 25 28 26 29 27 30 28 31 80 32 29 33
REMARK SMILES IDX 79 34 30 35 31 36 32 37 73 38 33 39 78 40 72 41 74 42 34 43
REMARK SMILES IDX 77 44 71 45 70 46 35 48 61 49 44 50 60 51 45 52 48 53 59 54
REMARK SMILES IDX 75 55 46 56 47 57 58 59 76 60 49 61 36 62 37 63 42 64 38 65
REMARK SMILES IDX 39 66 41 67 43 68 40 69 62 70 63 71 68 72 64 73 65 74 67 75
REMARK SMILES IDX 69 76 66 77 50 78 51 79 56 80 52 81 53 82 55 83 57 84 54 85
REMARK H PARENT 74 47 48 58
REMARK Flexibility Score: inf
ROOT
ATOM      1  C   UNL A   1      34.300  34.374  33.131  1.00  0.00     0.188 C 
ENDROOT
BRANCH   1   2
ATOM      2  O   UNL A   1      33.280  34.618  32.190  1.00  0.00    -0.376 OA
BRANCH   2   3
ATOM      3  C   UNL A   1      32.978  35.968  31.884  1.00  0.00     0.202 C 
BRANCH   3   4
ATOM      4  C   UNL A   1      32.784  36.426  30.425  1.00  0.00     0.261 C 
BRANCH   4   5
ATOM      5  O   UNL A   1      32.873  35.373  29.444  1.00  0.00    -0.463 OA
BRANCH   5   6
ATOM      6  C   UNL A   1      33.840  35.484  28.501  1.00  0.00     0.305 C 
ATOM      7  O   UNL A   1      34.284  36.555  28.097  1.00  0.00    -0.252 OA
BRANCH   6   8
ATOM      8  C   UNL A   1      34.443  34.165  28.041  1.00  0.00     0.124 C 
BRANCH   8   9
ATOM      9  C   UNL A   1      33.780  32.791  28.227  1.00  0.00     0.035 C 
BRANCH   9  10
ATOM     10  C   UNL A   1      34.467  31.523  27.716  1.00  0.00     0.139 C 
BRANCH  10  11
ATOM     11  N   UNL A   1      33.555  30.578  27.119  1.00  0.00    -0.262 N 
ATOM     12  C   UNL A   1      29.904  28.221  22.913  1.00  0.00     0.067 C 
ATOM     13  C   UNL A   1      30.937  28.348  23.987  1.00  0.00     0.039 A 
ATOM     14  C   UNL A   1      31.825  27.302  24.283  1.00  0.00     0.027 A 
ATOM     15  N   UNL A   1      30.922  29.509  24.671  1.00  0.00    -0.241 NA
ATOM     16  C   UNL A   1      32.818  27.476  25.261  1.00  0.00    -0.033 A 
ATOM     17  C   UNL A   1      31.882  29.645  25.592  1.00  0.00     0.146 A 
ATOM     18  C   UNL A   1      33.751  26.372  25.643  1.00  0.00     0.045 C 
ATOM     19  C   UNL A   1      32.870  28.719  25.871  1.00  0.00     0.081 A 
ATOM     20  S   UNL A   1      32.002  31.068  26.616  1.00  0.00    -0.035 S 
ATOM     21  C   UNL A   1      33.902  29.283  26.765  1.00  0.00     0.270 A 
ATOM     22  O   UNL A   1      34.934  28.698  27.051  1.00  0.00    -0.268 OA
ENDBRANCH  10  11
ENDBRANCH   9  10
ENDBRANCH   8   9
ENDBRANCH   6   8
ENDBRANCH   5   6
ENDBRANCH   4   5
ENDBRANCH   3   4
ENDBRANCH   2   3
ENDBRANCH   1   2
BRANCH   1  23
ATOM     23  C   UNL A   1      35.730  34.870  32.867  1.00  0.00     0.188 C 
BRANCH  23  24
ATOM     24  O   UNL A   1      36.671  34.304  31.978  1.00  0.00    -0.376 OA
BRANCH  24  25
ATOM     25  C   UNL A   1      36.454  33.348  30.948  1.00  0.00     0.202 C 
BRANCH  25  26
ATOM     26  C   UNL A   1      36.006  31.902  31.161  1.00  0.00     0.261 C 
BRANCH  26  27
ATOM     27  O   UNL A   1      36.854  30.962  30.563  1.00  0.00    -0.460 OA
BRANCH  27  28
ATOM     28  C   UNL A   1      37.016  29.851  31.305  1.00  0.00     0.338 C 
ATOM     29  O   UNL A   1      36.664  29.654  32.458  1.00  0.00    -0.246 OA
BRANCH  28  30
ATOM     30  C   UNL A   1      37.623  28.848  30.426  1.00  0.00     0.060 A 
ATOM     31  C   UNL A   1      38.243  27.766  31.044  1.00  0.00     0.016 A 
ATOM     32  C   UNL A   1      37.709  29.090  29.044  1.00  0.00     0.016 A 
ATOM     33  C   UNL A   1      39.293  27.210  30.376  1.00  0.00     0.010 A 
ATOM     34  C   UNL A   1      38.745  28.524  28.370  1.00  0.00     0.010 A 
ATOM     35  C   UNL A   1      39.612  27.760  29.131  1.00  0.00    -0.014 A 
BRANCH  35  36
ATOM     36  C   UNL A   1      40.990  27.709  28.732  1.00  0.00     0.031 A 
ATOM     37  C   UNL A   1      41.324  26.464  28.048  1.00  0.00     0.074 A 
ATOM     38  C   UNL A   1      41.823  28.731  29.006  1.00  0.00     0.049 A 
ATOM     39  N   UNL A   1      41.963  25.463  28.546  1.00  0.00    -0.248 NA
ATOM     40  C   UNL A   1      40.671  26.207  26.760  1.00  0.00     0.031 C 
ATOM     41  C   UNL A   1      41.532  30.081  29.503  1.00  0.00     0.029 A 
ATOM     42  N   UNL A   1      43.165  28.761  28.819  1.00  0.00    -0.354 N 
ATOM     43  C   UNL A   1      41.979  24.516  27.539  1.00  0.00     0.074 A 
ATOM     44  C   UNL A   1      41.000  24.931  26.567  1.00  0.00     0.031 C 
ATOM     45  C   UNL A   1      42.631  30.860  29.353  1.00  0.00     0.029 A 
ATOM     46  C   UNL A   1      43.728  30.028  28.895  1.00  0.00     0.049 A 
ATOM     47  H   UNL A   1      43.696  27.951  28.644  1.00  0.00     0.167 HD
ATOM     48  C   UNL A   1      42.990  23.616  27.457  1.00  0.00     0.037 A 
ATOM     49  C   UNL A   1      44.993  30.323  28.505  1.00  0.00     0.037 A 
ATOM     50  C   UNL A   1      43.715  23.520  28.699  1.00  0.00     0.049 A 
ATOM     51  C   UNL A   1      45.754  29.039  28.518  1.00  0.00     0.074 A 
ATOM     52  C   UNL A   1      43.369  23.145  29.985  1.00  0.00     0.029 A 
ATOM     53  N   UNL A   1      44.885  24.235  28.819  1.00  0.00    -0.354 N 
ATOM     54  N   UNL A   1      46.043  28.395  29.618  1.00  0.00    -0.248 NA
ATOM     55  C   UNL A   1      45.725  28.222  27.309  1.00  0.00     0.031 C 
ATOM     56  C   UNL A   1      44.073  24.045  30.838  1.00  0.00     0.029 A 
ATOM     57  C   UNL A   1      44.857  24.874  30.035  1.00  0.00     0.049 A 
ATOM     58  H   UNL A   1      45.609  24.280  28.154  1.00  0.00     0.167 HD
ATOM     59  C   UNL A   1      45.827  27.055  29.318  1.00  0.00     0.074 A 
ATOM     60  C   UNL A   1      45.688  27.005  27.864  1.00  0.00     0.031 C 
ATOM     61  C   UNL A   1      45.474  26.157  30.287  1.00  0.00     0.037 A 
BRANCH  48  62
ATOM     62  C   UNL A   1      43.530  23.125  26.147  1.00  0.00     0.057 A 
ATOM     63  C   UNL A   1      43.566  21.746  25.898  1.00  0.00     0.134 A 
ATOM     64  C   UNL A   1      44.252  23.925  25.236  1.00  0.00     0.134 A 
ATOM     65  F   UNL A   1      42.935  20.885  26.709  1.00  0.00    -0.206 F 
ATOM     66  C   UNL A   1      44.313  21.201  24.850  1.00  0.00     0.040 A 
ATOM     67  C   UNL A   1      44.954  23.396  24.155  1.00  0.00     0.040 A 
ATOM     68  F   UNL A   1      44.408  25.245  25.400  1.00  0.00    -0.206 F 
ATOM     69  C   UNL A   1      45.013  22.026  23.977  1.00  0.00     0.006 A 
ENDBRANCH  48  62
BRANCH  49  70
ATOM     70  C   UNL A   1      45.463  31.530  27.790  1.00  0.00     0.057 A 
ATOM     71  C   UNL A   1      44.739  32.072  26.721  1.00  0.00     0.134 A 
ATOM     72  C   UNL A   1      46.490  32.340  28.311  1.00  0.00     0.134 A 
ATOM     73  F   UNL A   1      43.713  31.396  26.183  1.00  0.00    -0.206 F 
ATOM     74  C   UNL A   1      45.004  33.352  26.212  1.00  0.00     0.040 A 
ATOM     75  C   UNL A   1      46.767  33.616  27.812  1.00  0.00     0.040 A 
ATOM     76  F   UNL A   1      47.199  31.955  29.382  1.00  0.00    -0.206 F 
ATOM     77  C   UNL A   1      46.015  34.133  26.766  1.00  0.00     0.006 A 
ENDBRANCH  49  70
BRANCH  61  78
ATOM     78  C   UNL A   1      45.492  26.627  31.718  1.00  0.00     0.057 A 
ATOM     79  C   UNL A   1      44.383  27.201  32.360  1.00  0.00     0.134 A 
ATOM     80  C   UNL A   1      46.599  26.332  32.518  1.00  0.00     0.134 A 
ATOM     81  F   UNL A   1      43.241  27.423  31.699  1.00  0.00    -0.206 F 
ATOM     82  C   UNL A   1      44.391  27.502  33.726  1.00  0.00     0.040 A 
ATOM     83  C   UNL A   1      46.609  26.599  33.890  1.00  0.00     0.040 A 
ATOM     84  F   UNL A   1      47.672  25.724  31.988  1.00  0.00    -0.206 F 
ATOM     85  C   UNL A   1      45.506  27.194  34.498  1.00  0.00     0.006 A 
ENDBRANCH  61  78
ENDBRANCH  35  36
ENDBRANCH  28  30
ENDBRANCH  27  28
ENDBRANCH  26  27
ENDBRANCH  25  26
ENDBRANCH  24  25
ENDBRANCH  23  24
ENDBRANCH   1  23
TORSDOF 20
ENDMDL
MODEL 3
REMARK VINA RESULT:     -10.1      1.434      2.921
REMARK SMILES Cc1cc(C)c2c(=O)n(CCCC(=O)OCCOCCOCCOC(=O)c3ccc(-c4c5nc(c(-c6c(F)cccc6F)c6ccc([nH]6)c(-c6c(F)cccc6F)c6nc(c(-c7c(F)cccc7F)c7ccc4[nH]7)C=C6)C=C5)cc3)sc2n1
REMARK SMILES IDX 19 1 18 2 17 3 16 4 15 5 13 6 14 7 12 8 11 9 10 10 9 11 1 12
REMARK SMILES IDX 2 13 3 14 83 15 4 16 82 17 5 18 6 19 81 20 7 21 8 22 20 23
REMARK SMILES IDX 21 24 22 25 23 26 24 27 25 28 26 29 27 30 28 31 80 32 29 33
REMARK SMILES IDX 79 34 30 35 31 36 32 37 73 38 33 39 78 40 72 41 74 42 34 43
REMARK SMILES IDX 77 44 71 45 70 46 35 48 61 49 44 50 60 51 45 52 48 53 59 54
REMARK SMILES IDX 75 55 46 56 47 57 58 59 76 60 49 61 36 62 37 63 42 64 38 65
REMARK SMILES IDX 39 66 41 67 43 68 40 69 62 70 63 71 68 72 64 73 65 74 67 75
REMARK SMILES IDX 69 76 66 77 50 78 51 79 56 80 52 81 53 82 55 83 57 84 54 85
REMARK H PARENT 74 47 48 58
REMARK Flexibility Score: inf
ROOT
ATOM      1  C   UNL A   1      33.641  29.645  27.263  1.00  0.00     0.188 C 
ENDROOT
BRANCH   1   2
ATOM      2  O   UNL A   1      33.688  29.150  25.945  1.00  0.00    -0.376 OA
BRANCH   2   3
ATOM      3  C   UNL A   1      32.501  28.589  25.411  1.00  0.00     0.202 C 
BRANCH   3   4
ATOM      4  C   UNL A   1      31.565  27.732  26.286  1.00  0.00     0.261 C 
BRANCH   4   5
ATOM      5  O   UNL A   1      31.961  26.352  26.421  1.00  0.00    -0.463 OA
BRANCH   5   6
ATOM      6  C   UNL A   1      31.028  25.409  26.139  1.00  0.00     0.305 C 
ATOM      7  O   UNL A   1      30.807  24.431  26.847  1.00  0.00    -0.252 OA
BRANCH   6   8
ATOM      8  C   UNL A   1      30.168  25.702  24.918  1.00  0.00     0.124 C 
BRANCH   8   9
ATOM      9  C   UNL A   1      30.454  25.174  23.504  1.00  0.00     0.035 C 
BRANCH   9  10
ATOM     10  C   UNL A   1      30.766  23.693  23.277  1.00  0.00     0.139 C 
BRANCH  10  11
ATOM     11  N   UNL A   1      32.161  23.367  23.450  1.00  0.00    -0.262 N 
ATOM     12  C   UNL A   1      37.715  23.650  25.826  1.00  0.00     0.067 C 
ATOM     13  C   UNL A   1      36.440  23.115  25.255  1.00  0.00     0.039 A 
ATOM     14  C   UNL A   1      36.115  21.752  25.327  1.00  0.00     0.027 A 
ATOM     15  N   UNL A   1      35.659  24.022  24.634  1.00  0.00    -0.241 NA
ATOM     16  C   UNL A   1      34.885  21.294  24.828  1.00  0.00    -0.033 A 
ATOM     17  C   UNL A   1      34.493  23.555  24.174  1.00  0.00     0.146 A 
ATOM     18  C   UNL A   1      34.520  19.844  24.838  1.00  0.00     0.045 C 
ATOM     19  C   UNL A   1      34.037  22.256  24.303  1.00  0.00     0.081 A 
ATOM     20  S   UNL A   1      33.359  24.570  23.298  1.00  0.00    -0.035 S 
ATOM     21  C   UNL A   1      32.620  22.139  23.900  1.00  0.00     0.270 A 
ATOM     22  O   UNL A   1      31.964  21.120  24.043  1.00  0.00    -0.268 OA
ENDBRANCH  10  11
ENDBRANCH   9  10
ENDBRANCH   8   9
ENDBRANCH   6   8
ENDBRANCH   5   6
ENDBRANCH   4   5
ENDBRANCH   3   4
ENDBRANCH   2   3
ENDBRANCH   1   2
BRANCH   1  23
ATOM     23  C   UNL A   1      33.519  31.156  27.517  1.00  0.00     0.188 C 
BRANCH  23  24
ATOM     24  O   UNL A   1      34.362  31.947  28.328  1.00  0.00    -0.376 OA
BRANCH  24  25
ATOM     25  C   UNL A   1      34.786  33.289  28.122  1.00  0.00     0.202 C 
BRANCH  25  26
ATOM     26  C   UNL A   1      34.336  34.497  28.945  1.00  0.00     0.261 C 
BRANCH  26  27
ATOM     27  O   UNL A   1      33.637  34.150  30.108  1.00  0.00    -0.460 OA
BRANCH  27  28
ATOM     28  C   UNL A   1      33.841  35.010  31.122  1.00  0.00     0.338 C 
ATOM     29  O   UNL A   1      33.353  36.119  31.283  1.00  0.00    -0.246 OA
BRANCH  28  30
ATOM     30  C   UNL A   1      34.703  34.320  32.085  1.00  0.00     0.060 A 
ATOM     31  C   UNL A   1      35.777  35.045  32.595  1.00  0.00     0.016 A 
ATOM     32  C   UNL A   1      34.529  32.946  32.322  1.00  0.00     0.016 A 
ATOM     33  C   UNL A   1      36.881  34.325  32.941  1.00  0.00     0.010 A 
ATOM     34  C   UNL A   1      35.624  32.226  32.683  1.00  0.00     0.010 A 
ATOM     35  C   UNL A   1      36.807  32.938  32.780  1.00  0.00    -0.014 A 
BRANCH  35  36
ATOM     36  C   UNL A   1      38.030  32.251  32.477  1.00  0.00     0.031 A 
ATOM     37  C   UNL A   1      38.928  32.184  33.626  1.00  0.00     0.074 A 
ATOM     38  C   UNL A   1      38.257  31.763  31.243  1.00  0.00     0.049 A 
ATOM     39  N   UNL A   1      39.978  32.904  33.821  1.00  0.00    -0.248 NA
ATOM     40  C   UNL A   1      38.477  31.412  34.788  1.00  0.00     0.031 C 
ATOM     41  C   UNL A   1      37.345  31.612  30.103  1.00  0.00     0.029 A 
ATOM     42  N   UNL A   1      39.412  31.226  30.779  1.00  0.00    -0.354 N 
ATOM     43  C   UNL A   1      40.450  32.513  35.061  1.00  0.00     0.074 A 
ATOM     44  C   UNL A   1      39.388  31.771  35.691  1.00  0.00     0.031 C 
ATOM     45  C   UNL A   1      37.921  30.814  29.172  1.00  0.00     0.029 A 
ATOM     46  C   UNL A   1      39.282  30.528  29.585  1.00  0.00     0.049 A 
ATOM     47  H   UNL A   1      40.271  31.321  31.250  1.00  0.00     0.167 HD
ATOM     48  C   UNL A   1      41.772  32.597  35.351  1.00  0.00     0.037 A 
ATOM     49  C   UNL A   1      40.239  29.716  29.071  1.00  0.00     0.037 A 
ATOM     50  C   UNL A   1      42.458  33.481  34.442  1.00  0.00     0.049 A 
ATOM     51  C   UNL A   1      41.531  30.132  29.691  1.00  0.00     0.074 A 
ATOM     52  C   UNL A   1      42.347  34.828  34.147  1.00  0.00     0.029 A 
ATOM     53  N   UNL A   1      43.128  32.918  33.380  1.00  0.00    -0.354 N 
ATOM     54  N   UNL A   1      42.104  31.278  29.437  1.00  0.00    -0.248 NA
ATOM     55  C   UNL A   1      41.899  29.522  30.964  1.00  0.00     0.031 C 
ATOM     56  C   UNL A   1      42.525  34.917  32.736  1.00  0.00     0.029 A 
ATOM     57  C   UNL A   1      42.798  33.635  32.255  1.00  0.00     0.049 A 
ATOM     58  H   UNL A   1      43.734  32.144  33.419  1.00  0.00     0.167 HD
ATOM     59  C   UNL A   1      42.571  31.729  30.667  1.00  0.00     0.074 A 
ATOM     60  C   UNL A   1      42.466  30.577  31.561  1.00  0.00     0.031 C 
ATOM     61  C   UNL A   1      42.708  33.063  30.930  1.00  0.00     0.037 A 
BRANCH  48  62
ATOM     62  C   UNL A   1      42.476  31.591  36.212  1.00  0.00     0.057 A 
ATOM     63  C   UNL A   1      43.201  32.036  37.327  1.00  0.00     0.134 A 
ATOM     64  C   UNL A   1      42.690  30.245  35.846  1.00  0.00     0.134 A 
ATOM     65  F   UNL A   1      43.096  33.302  37.754  1.00  0.00    -0.206 F 
ATOM     66  C   UNL A   1      44.113  31.213  37.994  1.00  0.00     0.040 A 
ATOM     67  C   UNL A   1      43.554  29.400  36.539  1.00  0.00     0.040 A 
ATOM     68  F   UNL A   1      42.160  29.704  34.742  1.00  0.00    -0.206 F 
ATOM     69  C   UNL A   1      44.295  29.893  37.598  1.00  0.00     0.006 A 
ENDBRANCH  48  62
BRANCH  49  70
ATOM     70  C   UNL A   1      40.053  28.413  28.394  1.00  0.00     0.057 A 
ATOM     71  C   UNL A   1      40.579  28.173  27.118  1.00  0.00     0.134 A 
ATOM     72  C   UNL A   1      39.591  27.282  29.092  1.00  0.00     0.134 A 
ATOM     73  F   UNL A   1      41.084  29.181  26.391  1.00  0.00    -0.206 F 
ATOM     74  C   UNL A   1      40.660  26.883  26.574  1.00  0.00     0.040 A 
ATOM     75  C   UNL A   1      39.663  25.990  28.561  1.00  0.00     0.040 A 
ATOM     76  F   UNL A   1      39.136  27.382  30.350  1.00  0.00    -0.206 F 
ATOM     77  C   UNL A   1      40.212  25.784  27.302  1.00  0.00     0.006 A 
ENDBRANCH  49  70
BRANCH  61  78
ATOM     78  C   UNL A   1      42.502  34.027  29.792  1.00  0.00     0.057 A 
ATOM     79  C   UNL A   1      41.268  34.633  29.502  1.00  0.00     0.134 A 
ATOM     80  C   UNL A   1      43.612  34.491  29.081  1.00  0.00     0.134 A 
ATOM     81  F   UNL A   1      40.169  34.329  30.202  1.00  0.00    -0.206 F 
ATOM     82  C   UNL A   1      41.140  35.625  28.524  1.00  0.00     0.040 A 
ATOM     83  C   UNL A   1      43.504  35.503  28.124  1.00  0.00     0.040 A 
ATOM     84  F   UNL A   1      44.834  34.006  29.348  1.00  0.00    -0.206 F 
ATOM     85  C   UNL A   1      42.264  36.069  27.836  1.00  0.00     0.006 A 
ENDBRANCH  61  78
ENDBRANCH  35  36
ENDBRANCH  28  30
ENDBRANCH  27  28
ENDBRANCH  26  27
ENDBRANCH  25  26
ENDBRANCH  24  25
ENDBRANCH  23  24
ENDBRANCH   1  23
TORSDOF 20
ENDMDL
