MODEL 1
REMARK VINA RESULT:      -9.4      0.000      0.000
REMARK SMILES O=C(OCCOCCOCCOC(=O)c1ccccc1/C=C1/SC(=S)N(C2CCCCC2)C1=O)c1ccc(-c2c3nc(c(-c4c(F)cccc4F)c4ccc([nH]4)c(-c4c(F)cccc4F)c4nc(c(-c5c(F)cccc5F)c5ccc2[nH]5)C=C4)C=C3)cc1
REMARK SMILES IDX 7 1 6 2 5 3 4 4 3 5 2 6 1 7 35 8 36 9 88 10 37 11 87 12
REMARK SMILES IDX 38 13 39 14 40 15 81 16 41 17 86 18 80 19 82 20 42 21 85 22
REMARK SMILES IDX 79 23 78 24 43 26 69 27 52 28 68 29 53 30 56 31 67 32 83 33
REMARK SMILES IDX 54 34 55 35 66 37 84 38 57 39 44 40 45 41 50 42 46 43 47 44
REMARK SMILES IDX 49 45 51 46 48 47 70 48 71 49 76 50 72 51 73 52 75 53 77 54
REMARK SMILES IDX 74 55 58 56 59 57 64 58 60 59 61 60 63 61 65 62 62 63 8 64
REMARK SMILES IDX 9 65 10 66 11 67 12 68 13 69 14 70 15 71 16 72 20 73 17 74
REMARK SMILES IDX 19 75 18 76 21 77 22 78 23 79 33 80 24 81 26 82 34 83 25 84
REMARK SMILES IDX 27 85 28 86 32 87 29 88 31 89 30 90
REMARK H PARENT 82 25 56 36
REMARK Flexibility Score: inf
ROOT
ATOM      1  C   UNL A   1      33.841  34.758  33.022  1.00  0.00     0.188 C 
ENDROOT
BRANCH   1   2
ATOM      2  O   UNL A   1      32.833  35.131  32.070  1.00  0.00    -0.376 OA
BRANCH   2   3
ATOM      3  C   UNL A   1      33.108  36.361  31.400  1.00  0.00     0.202 C 
BRANCH   3   4
ATOM      4  C   UNL A   1      32.832  36.301  29.896  1.00  0.00     0.261 C 
BRANCH   4   5
ATOM      5  O   UNL A   1      32.435  34.981  29.486  1.00  0.00    -0.460 OA
BRANCH   5   6
ATOM      6  C   UNL A   1      33.156  34.089  28.762  1.00  0.00     0.338 C 
ATOM      7  O   UNL A   1      32.677  33.636  27.724  1.00  0.00    -0.246 OA
BRANCH   6   8
ATOM      8  C   UNL A   1      34.561  33.708  29.101  1.00  0.00     0.060 A 
ATOM      9  C   UNL A   1      35.703  34.248  28.508  1.00  0.00     0.016 A 
ATOM     10  C   UNL A   1      34.731  32.773  30.136  1.00  0.00     0.016 A 
ATOM     11  C   UNL A   1      36.972  33.766  28.825  1.00  0.00     0.010 A 
ATOM     12  C   UNL A   1      36.007  32.335  30.507  1.00  0.00     0.010 A 
ATOM     13  C   UNL A   1      37.133  32.793  29.814  1.00  0.00    -0.014 A 
BRANCH  13  14
ATOM     14  C   UNL A   1      38.471  32.202  30.039  1.00  0.00     0.031 A 
ATOM     15  C   UNL A   1      39.441  32.913  30.935  1.00  0.00     0.074 A 
ATOM     16  C   UNL A   1      38.778  30.998  29.526  1.00  0.00     0.049 A 
ATOM     17  N   UNL A   1      40.666  32.584  31.252  1.00  0.00    -0.248 NA
ATOM     18  C   UNL A   1      38.963  34.149  31.576  1.00  0.00     0.031 C 
ATOM     19  C   UNL A   1      37.878  30.175  28.719  1.00  0.00     0.029 A 
ATOM     20  N   UNL A   1      39.921  30.245  29.623  1.00  0.00    -0.354 N 
ATOM     21  C   UNL A   1      41.107  33.574  32.120  1.00  0.00     0.074 A 
ATOM     22  C   UNL A   1      40.029  34.528  32.264  1.00  0.00     0.031 C 
ATOM     23  C   UNL A   1      38.498  29.026  28.410  1.00  0.00     0.029 A 
ATOM     24  C   UNL A   1      39.853  29.055  28.939  1.00  0.00     0.049 A 
ATOM     25  H   UNL A   1      40.713  30.530  30.133  1.00  0.00     0.167 HD
ATOM     26  C   UNL A   1      42.302  33.674  32.745  1.00  0.00     0.037 A 
ATOM     27  C   UNL A   1      40.786  28.108  28.738  1.00  0.00     0.037 A 
ATOM     28  C   UNL A   1      43.369  32.723  32.599  1.00  0.00     0.049 A 
ATOM     29  C   UNL A   1      42.138  28.287  29.365  1.00  0.00     0.074 A 
ATOM     30  C   UNL A   1      44.638  32.753  33.147  1.00  0.00     0.029 A 
ATOM     31  N   UNL A   1      43.284  31.562  31.844  1.00  0.00    -0.354 N 
ATOM     32  N   UNL A   1      42.558  29.250  30.149  1.00  0.00    -0.248 NA
ATOM     33  C   UNL A   1      43.145  27.257  29.081  1.00  0.00     0.031 C 
ATOM     34  C   UNL A   1      45.331  31.621  32.702  1.00  0.00     0.029 A 
ATOM     35  C   UNL A   1      44.482  30.873  31.901  1.00  0.00     0.049 A 
ATOM     36  H   UNL A   1      42.488  31.272  31.341  1.00  0.00     0.167 HD
ATOM     37  C   UNL A   1      43.871  28.937  30.465  1.00  0.00     0.074 A 
ATOM     38  C   UNL A   1      44.173  27.685  29.800  1.00  0.00     0.031 C 
ATOM     39  C   UNL A   1      44.749  29.624  31.234  1.00  0.00     0.037 A 
BRANCH  26  40
ATOM     40  C   UNL A   1      42.512  34.878  33.610  1.00  0.00     0.057 A 
ATOM     41  C   UNL A   1      42.205  34.870  34.976  1.00  0.00     0.134 A 
ATOM     42  C   UNL A   1      43.004  36.070  33.062  1.00  0.00     0.134 A 
ATOM     43  F   UNL A   1      41.704  33.767  35.553  1.00  0.00    -0.206 F 
ATOM     44  C   UNL A   1      42.360  36.011  35.764  1.00  0.00     0.040 A 
ATOM     45  C   UNL A   1      43.179  37.212  33.844  1.00  0.00     0.040 A 
ATOM     46  F   UNL A   1      43.309  36.143  31.757  1.00  0.00    -0.206 F 
ATOM     47  C   UNL A   1      42.851  37.187  35.198  1.00  0.00     0.006 A 
ENDBRANCH  26  40
BRANCH  27  48
ATOM     48  C   UNL A   1      40.482  26.929  27.885  1.00  0.00     0.057 A 
ATOM     49  C   UNL A   1      40.977  26.823  26.582  1.00  0.00     0.134 A 
ATOM     50  C   UNL A   1      39.684  25.878  28.358  1.00  0.00     0.134 A 
ATOM     51  F   UNL A   1      41.734  27.802  26.066  1.00  0.00    -0.206 F 
ATOM     52  C   UNL A   1      40.680  25.723  25.773  1.00  0.00     0.040 A 
ATOM     53  C   UNL A   1      39.397  24.763  27.571  1.00  0.00     0.040 A 
ATOM     54  F   UNL A   1      39.184  25.913  29.603  1.00  0.00    -0.206 F 
ATOM     55  C   UNL A   1      39.891  24.686  26.271  1.00  0.00     0.006 A 
ENDBRANCH  27  48
BRANCH  39  56
ATOM     56  C   UNL A   1      46.106  29.020  31.409  1.00  0.00     0.057 A 
ATOM     57  C   UNL A   1      47.124  29.223  30.470  1.00  0.00     0.134 A 
ATOM     58  C   UNL A   1      46.406  28.261  32.546  1.00  0.00     0.134 A 
ATOM     59  F   UNL A   1      46.888  29.929  29.354  1.00  0.00    -0.206 F 
ATOM     60  C   UNL A   1      48.394  28.675  30.649  1.00  0.00     0.040 A 
ATOM     61  C   UNL A   1      47.677  27.724  32.745  1.00  0.00     0.040 A 
ATOM     62  F   UNL A   1      45.471  28.036  33.481  1.00  0.00    -0.206 F 
ATOM     63  C   UNL A   1      48.674  27.929  31.792  1.00  0.00     0.006 A 
ENDBRANCH  39  56
ENDBRANCH  13  14
ENDBRANCH   6   8
ENDBRANCH   5   6
ENDBRANCH   4   5
ENDBRANCH   3   4
ENDBRANCH   2   3
ENDBRANCH   1   2
BRANCH   1  64
ATOM     64  C   UNL A   1      35.153  35.462  32.676  1.00  0.00     0.188 C 
BRANCH  64  65
ATOM     65  O   UNL A   1      36.236  35.183  33.570  1.00  0.00    -0.376 OA
BRANCH  65  66
ATOM     66  C   UNL A   1      36.071  34.107  34.486  1.00  0.00     0.202 C 
BRANCH  66  67
ATOM     67  C   UNL A   1      36.614  32.737  34.066  1.00  0.00     0.261 C 
BRANCH  67  68
ATOM     68  O   UNL A   1      37.983  32.439  34.398  1.00  0.00    -0.460 OA
BRANCH  68  69
ATOM     69  C   UNL A   1      38.164  31.188  34.883  1.00  0.00     0.338 C 
ATOM     70  O   UNL A   1      38.164  30.850  36.054  1.00  0.00    -0.246 OA
BRANCH  69  71
ATOM     71  C   UNL A   1      38.471  30.236  33.803  1.00  0.00     0.067 A 
ATOM     72  C   UNL A   1      37.392  29.683  33.100  1.00  0.00     0.016 A 
ATOM     73  C   UNL A   1      39.788  29.767  33.599  1.00  0.00    -0.010 A 
ATOM     74  C   UNL A   1      37.619  28.659  32.183  1.00  0.00     0.001 A 
ATOM     75  C   UNL A   1      39.986  28.715  32.699  1.00  0.00     0.009 A 
ATOM     76  C   UNL A   1      38.910  28.167  31.994  1.00  0.00     0.001 A 
BRANCH  73  77
ATOM     77  C   UNL A   1      40.969  30.368  34.242  1.00  0.00     0.030 C 
ATOM     78  C   UNL A   1      42.056  29.701  34.651  1.00  0.00     0.081 C 
ATOM     79  S   UNL A   1      43.241  30.350  35.707  1.00  0.00    -0.054 SA
ATOM     80  C   UNL A   1      42.329  28.257  34.451  1.00  0.00     0.266 C 
ATOM     81  C   UNL A   1      43.716  28.737  36.268  1.00  0.00     0.148 C 
ATOM     82  N   UNL A   1      43.060  27.771  35.527  1.00  0.00    -0.290 N 
ATOM     83  O   UNL A   1      41.995  27.645  33.447  1.00  0.00    -0.268 OA
ATOM     84  S   UNL A   1      44.796  28.574  37.528  1.00  0.00    -0.052 S 
BRANCH  82  85
ATOM     85  C   UNL A   1      43.105  26.302  35.692  1.00  0.00     0.092 C 
ATOM     86  C   UNL A   1      41.741  25.644  35.461  1.00  0.00     0.025 C 
ATOM     87  C   UNL A   1      44.235  25.609  34.907  1.00  0.00     0.025 C 
ATOM     88  C   UNL A   1      41.806  24.140  35.726  1.00  0.00     0.002 C 
ATOM     89  C   UNL A   1      44.263  24.103  35.165  1.00  0.00     0.002 C 
ATOM     90  C   UNL A   1      42.901  23.469  34.903  1.00  0.00     0.000 C 
ENDBRANCH  82  85
ENDBRANCH  73  77
ENDBRANCH  69  71
ENDBRANCH  68  69
ENDBRANCH  67  68
ENDBRANCH  66  67
ENDBRANCH  65  66
ENDBRANCH  64  65
ENDBRANCH   1  64
TORSDOF 19
ENDMDL
MODEL 2
REMARK VINA RESULT:      -8.9      0.356      5.994
REMARK SMILES O=C(OCCOCCOCCOC(=O)c1ccccc1/C=C1/SC(=S)N(C2CCCCC2)C1=O)c1ccc(-c2c3nc(c(-c4c(F)cccc4F)c4ccc([nH]4)c(-c4c(F)cccc4F)c4nc(c(-c5c(F)cccc5F)c5ccc2[nH]5)C=C4)C=C3)cc1
REMARK SMILES IDX 7 1 6 2 5 3 4 4 3 5 2 6 1 7 35 8 36 9 88 10 37 11 87 12
REMARK SMILES IDX 38 13 39 14 40 15 81 16 41 17 86 18 80 19 82 20 42 21 85 22
REMARK SMILES IDX 79 23 78 24 43 26 69 27 52 28 68 29 53 30 56 31 67 32 83 33
REMARK SMILES IDX 54 34 55 35 66 37 84 38 57 39 44 40 45 41 50 42 46 43 47 44
REMARK SMILES IDX 49 45 51 46 48 47 70 48 71 49 76 50 72 51 73 52 75 53 77 54
REMARK SMILES IDX 74 55 58 56 59 57 64 58 60 59 61 60 63 61 65 62 62 63 8 64
REMARK SMILES IDX 9 65 10 66 11 67 12 68 13 69 14 70 15 71 16 72 20 73 17 74
REMARK SMILES IDX 19 75 18 76 21 77 22 78 23 79 33 80 24 81 26 82 34 83 25 84
REMARK SMILES IDX 27 85 28 86 32 87 29 88 31 89 30 90
REMARK H PARENT 82 25 56 36
REMARK Flexibility Score: inf
ROOT
ATOM      1  C   UNL A   1      33.784  34.703  32.855  1.00  0.00     0.188 C 
ENDROOT
BRANCH   1   2
ATOM      2  O   UNL A   1      32.897  35.007  31.769  1.00  0.00    -0.376 OA
BRANCH   2   3
ATOM      3  C   UNL A   1      33.326  36.113  30.975  1.00  0.00     0.202 C 
BRANCH   3   4
ATOM      4  C   UNL A   1      32.926  35.987  29.503  1.00  0.00     0.261 C 
BRANCH   4   5
ATOM      5  O   UNL A   1      32.549  34.639  29.174  1.00  0.00    -0.460 OA
BRANCH   5   6
ATOM      6  C   UNL A   1      33.310  33.694  28.566  1.00  0.00     0.338 C 
ATOM      7  O   UNL A   1      32.868  33.120  27.571  1.00  0.00    -0.246 OA
BRANCH   6   8
ATOM      8  C   UNL A   1      34.713  33.388  28.976  1.00  0.00     0.060 A 
ATOM      9  C   UNL A   1      35.856  33.960  28.413  1.00  0.00     0.016 A 
ATOM     10  C   UNL A   1      34.880  32.496  30.049  1.00  0.00     0.016 A 
ATOM     11  C   UNL A   1      37.129  33.546  28.798  1.00  0.00     0.010 A 
ATOM     12  C   UNL A   1      36.157  32.129  30.488  1.00  0.00     0.010 A 
ATOM     13  C   UNL A   1      37.290  32.614  29.827  1.00  0.00    -0.014 A 
BRANCH  13  14
ATOM     14  C   UNL A   1      38.642  32.092  30.127  1.00  0.00     0.031 A 
ATOM     15  C   UNL A   1      39.059  30.772  29.551  1.00  0.00     0.074 A 
ATOM     16  C   UNL A   1      39.519  32.834  30.827  1.00  0.00     0.049 A 
ATOM     17  N   UNL A   1      40.183  30.122  29.702  1.00  0.00    -0.248 NA
ATOM     18  C   UNL A   1      38.087  30.101  28.671  1.00  0.00     0.031 C 
ATOM     19  C   UNL A   1      39.253  34.171  31.354  1.00  0.00     0.029 A 
ATOM     20  N   UNL A   1      40.815  32.581  31.196  1.00  0.00    -0.354 N 
ATOM     21  C   UNL A   1      40.052  28.966  28.945  1.00  0.00     0.074 A 
ATOM     22  C   UNL A   1      38.732  28.989  28.353  1.00  0.00     0.031 C 
ATOM     23  C   UNL A   1      40.358  34.627  31.963  1.00  0.00     0.029 A 
ATOM     24  C   UNL A   1      41.385  33.596  31.926  1.00  0.00     0.049 A 
ATOM     25  H   UNL A   1      41.292  31.753  30.960  1.00  0.00     0.167 HD
ATOM     26  C   UNL A   1      40.955  27.976  28.757  1.00  0.00     0.037 A 
ATOM     27  C   UNL A   1      42.588  33.677  32.522  1.00  0.00     0.037 A 
ATOM     28  C   UNL A   1      42.264  27.959  29.347  1.00  0.00     0.049 A 
ATOM     29  C   UNL A   1      43.539  32.525  32.378  1.00  0.00     0.074 A 
ATOM     30  C   UNL A   1      43.240  26.983  29.263  1.00  0.00     0.029 A 
ATOM     31  N   UNL A   1      42.781  28.977  30.136  1.00  0.00    -0.354 N 
ATOM     32  N   UNL A   1      43.387  31.415  31.695  1.00  0.00    -0.248 NA
ATOM     33  C   UNL A   1      44.822  32.628  33.083  1.00  0.00     0.031 C 
ATOM     34  C   UNL A   1      44.339  27.400  30.022  1.00  0.00     0.029 A 
ATOM     35  C   UNL A   1      44.058  28.649  30.555  1.00  0.00     0.049 A 
ATOM     36  H   UNL A   1      42.308  29.811  30.363  1.00  0.00     0.167 HD
ATOM     37  C   UNL A   1      44.558  30.695  31.875  1.00  0.00     0.074 A 
ATOM     38  C   UNL A   1      45.418  31.501  32.719  1.00  0.00     0.031 C 
ATOM     39  C   UNL A   1      44.891  29.476  31.389  1.00  0.00     0.037 A 
BRANCH  26  40
ATOM     40  C   UNL A   1      40.524  26.823  27.905  1.00  0.00     0.057 A 
ATOM     41  C   UNL A   1      40.964  26.675  26.583  1.00  0.00     0.134 A 
ATOM     42  C   UNL A   1      39.636  25.862  28.405  1.00  0.00     0.134 A 
ATOM     43  F   UNL A   1      41.793  27.579  26.039  1.00  0.00    -0.206 F 
ATOM     44  C   UNL A   1      40.520  25.623  25.781  1.00  0.00     0.040 A 
ATOM     45  C   UNL A   1      39.199  24.796  27.617  1.00  0.00     0.040 A 
ATOM     46  F   UNL A   1      39.172  25.953  29.660  1.00  0.00    -0.206 F 
ATOM     47  C   UNL A   1      39.636  24.678  26.300  1.00  0.00     0.006 A 
ENDBRANCH  26  40
BRANCH  27  48
ATOM     48  C   UNL A   1      42.944  34.873  33.329  1.00  0.00     0.057 A 
ATOM     49  C   UNL A   1      43.509  36.009  32.741  1.00  0.00     0.134 A 
ATOM     50  C   UNL A   1      42.725  34.906  34.713  1.00  0.00     0.134 A 
ATOM     51  F   UNL A   1      43.757  36.034  31.424  1.00  0.00    -0.206 F 
ATOM     52  C   UNL A   1      43.858  37.129  33.499  1.00  0.00     0.040 A 
ATOM     53  C   UNL A   1      43.047  36.026  35.480  1.00  0.00     0.040 A 
ATOM     54  F   UNL A   1      42.177  33.853  35.338  1.00  0.00    -0.206 F 
ATOM     55  C   UNL A   1      43.621  37.140  34.874  1.00  0.00     0.006 A 
ENDBRANCH  27  48
BRANCH  39  56
ATOM     56  C   UNL A   1      46.249  28.958  31.744  1.00  0.00     0.057 A 
ATOM     57  C   UNL A   1      46.490  28.311  32.961  1.00  0.00     0.134 A 
ATOM     58  C   UNL A   1      47.313  29.076  30.843  1.00  0.00     0.134 A 
ATOM     59  F   UNL A   1      45.510  28.184  33.869  1.00  0.00    -0.206 F 
ATOM     60  C   UNL A   1      47.753  27.811  33.278  1.00  0.00     0.040 A 
ATOM     61  C   UNL A   1      48.576  28.564  31.140  1.00  0.00     0.040 A 
ATOM     62  F   UNL A   1      47.141  29.684  29.659  1.00  0.00    -0.206 F 
ATOM     63  C   UNL A   1      48.798  27.932  32.363  1.00  0.00     0.006 A 
ENDBRANCH  39  56
ENDBRANCH  13  14
ENDBRANCH   6   8
ENDBRANCH   5   6
ENDBRANCH   4   5
ENDBRANCH   3   4
ENDBRANCH   2   3
ENDBRANCH   1   2
BRANCH   1  64
ATOM     64  C   UNL A   1      35.205  35.132  32.488  1.00  0.00     0.188 C 
BRANCH  64  65
ATOM     65  O   UNL A   1      36.095  35.271  33.601  1.00  0.00    -0.376 OA
BRANCH  65  66
ATOM     66  C   UNL A   1      36.118  34.219  34.560  1.00  0.00     0.202 C 
BRANCH  66  67
ATOM     67  C   UNL A   1      36.384  32.802  34.042  1.00  0.00     0.261 C 
BRANCH  67  68
ATOM     68  O   UNL A   1      37.757  32.420  33.839  1.00  0.00    -0.460 OA
BRANCH  68  69
ATOM     69  C   UNL A   1      38.106  31.284  34.489  1.00  0.00     0.338 C 
ATOM     70  O   UNL A   1      38.211  31.134  35.693  1.00  0.00    -0.246 OA
BRANCH  69  71
ATOM     71  C   UNL A   1      38.457  30.213  33.541  1.00  0.00     0.067 A 
ATOM     72  C   UNL A   1      37.412  29.613  32.827  1.00  0.00     0.016 A 
ATOM     73  C   UNL A   1      39.770  29.695  33.483  1.00  0.00    -0.010 A 
ATOM     74  C   UNL A   1      37.669  28.490  32.043  1.00  0.00     0.001 A 
ATOM     75  C   UNL A   1      39.996  28.546  32.717  1.00  0.00     0.009 A 
ATOM     76  C   UNL A   1      38.954  27.950  32.000  1.00  0.00     0.001 A 
BRANCH  73  77
ATOM     77  C   UNL A   1      40.922  30.335  34.141  1.00  0.00     0.030 C 
ATOM     78  C   UNL A   1      42.006  29.698  34.602  1.00  0.00     0.081 C 
ATOM     79  S   UNL A   1      43.149  30.399  35.671  1.00  0.00    -0.054 SA
ATOM     80  C   UNL A   1      42.306  28.253  34.457  1.00  0.00     0.266 C 
ATOM     81  C   UNL A   1      43.631  28.813  36.297  1.00  0.00     0.148 C 
ATOM     82  N   UNL A   1      43.012  27.814  35.570  1.00  0.00    -0.290 N 
ATOM     83  O   UNL A   1      42.011  27.604  33.465  1.00  0.00    -0.268 OA
ATOM     84  S   UNL A   1      44.676  28.707  37.593  1.00  0.00    -0.052 S 
BRANCH  82  85
ATOM     85  C   UNL A   1      43.074  26.352  35.783  1.00  0.00     0.092 C 
ATOM     86  C   UNL A   1      41.743  25.658  35.479  1.00  0.00     0.025 C 
ATOM     87  C   UNL A   1      44.270  25.659  35.100  1.00  0.00     0.025 C 
ATOM     88  C   UNL A   1      41.818  24.164  35.796  1.00  0.00     0.002 C 
ATOM     89  C   UNL A   1      44.309  24.163  35.407  1.00  0.00     0.002 C 
ATOM     90  C   UNL A   1      42.981  23.493  35.072  1.00  0.00     0.000 C 
ENDBRANCH  82  85
ENDBRANCH  73  77
ENDBRANCH  69  71
ENDBRANCH  68  69
ENDBRANCH  67  68
ENDBRANCH  66  67
ENDBRANCH  65  66
ENDBRANCH  64  65
ENDBRANCH   1  64
TORSDOF 19
ENDMDL
MODEL 3
REMARK VINA RESULT:      -8.7      5.381      8.160
REMARK SMILES O=C(OCCOCCOCCOC(=O)c1ccccc1/C=C1/SC(=S)N(C2CCCCC2)C1=O)c1ccc(-c2c3nc(c(-c4c(F)cccc4F)c4ccc([nH]4)c(-c4c(F)cccc4F)c4nc(c(-c5c(F)cccc5F)c5ccc2[nH]5)C=C4)C=C3)cc1
REMARK SMILES IDX 7 1 6 2 5 3 4 4 3 5 2 6 1 7 35 8 36 9 88 10 37 11 87 12
REMARK SMILES IDX 38 13 39 14 40 15 81 16 41 17 86 18 80 19 82 20 42 21 85 22
REMARK SMILES IDX 79 23 78 24 43 26 69 27 52 28 68 29 53 30 56 31 67 32 83 33
REMARK SMILES IDX 54 34 55 35 66 37 84 38 57 39 44 40 45 41 50 42 46 43 47 44
REMARK SMILES IDX 49 45 51 46 48 47 70 48 71 49 76 50 72 51 73 52 75 53 77 54
REMARK SMILES IDX 74 55 58 56 59 57 64 58 60 59 61 60 63 61 65 62 62 63 8 64
REMARK SMILES IDX 9 65 10 66 11 67 12 68 13 69 14 70 15 71 16 72 20 73 17 74
REMARK SMILES IDX 19 75 18 76 21 77 22 78 23 79 33 80 24 81 26 82 34 83 25 84
REMARK SMILES IDX 27 85 28 86 32 87 29 88 31 89 30 90
REMARK H PARENT 82 25 56 36
REMARK Flexibility Score: inf
ROOT
ATOM      1  C   UNL A   1      34.056  33.910  29.391  1.00  0.00     0.188 C 
ENDROOT
BRANCH   1   2
ATOM      2  O   UNL A   1      34.957  34.547  30.309  1.00  0.00    -0.376 OA
BRANCH   2   3
ATOM      3  C   UNL A   1      34.434  34.664  31.633  1.00  0.00     0.202 C 
BRANCH   3   4
ATOM      4  C   UNL A   1      35.516  34.903  32.688  1.00  0.00     0.261 C 
BRANCH   4   5
ATOM      5  O   UNL A   1      36.107  33.667  33.126  1.00  0.00    -0.460 OA
BRANCH   5   6
ATOM      6  C   UNL A   1      35.970  32.442  32.560  1.00  0.00     0.338 C 
ATOM      7  O   UNL A   1      34.852  31.931  32.502  1.00  0.00    -0.246 OA
BRANCH   6   8
ATOM      8  C   UNL A   1      37.098  31.717  31.900  1.00  0.00     0.060 A 
ATOM      9  C   UNL A   1      38.086  30.992  32.569  1.00  0.00     0.016 A 
ATOM     10  C   UNL A   1      37.123  31.729  30.495  1.00  0.00     0.016 A 
ATOM     11  C   UNL A   1      39.153  30.424  31.876  1.00  0.00     0.010 A 
ATOM     12  C   UNL A   1      38.154  31.100  29.788  1.00  0.00     0.010 A 
ATOM     13  C   UNL A   1      39.205  30.488  30.481  1.00  0.00    -0.014 A 
BRANCH  13  14
ATOM     14  C   UNL A   1      40.410  29.995  29.777  1.00  0.00     0.031 A 
ATOM     15  C   UNL A   1      41.584  30.913  29.610  1.00  0.00     0.074 A 
ATOM     16  C   UNL A   1      40.489  28.713  29.379  1.00  0.00     0.049 A 
ATOM     17  N   UNL A   1      42.725  30.694  29.012  1.00  0.00    -0.248 NA
ATOM     18  C   UNL A   1      41.465  32.251  30.214  1.00  0.00     0.031 C 
ATOM     19  C   UNL A   1      39.446  27.708  29.575  1.00  0.00     0.029 A 
ATOM     20  N   UNL A   1      41.497  28.029  28.748  1.00  0.00    -0.354 N 
ATOM     21  C   UNL A   1      43.455  31.866  29.159  1.00  0.00     0.074 A 
ATOM     22  C   UNL A   1      42.623  32.801  29.882  1.00  0.00     0.031 C 
ATOM     23  C   UNL A   1      39.876  26.533  29.089  1.00  0.00     0.029 A 
ATOM     24  C   UNL A   1      41.192  26.714  28.494  1.00  0.00     0.049 A 
ATOM     25  H   UNL A   1      42.356  28.442  28.500  1.00  0.00     0.167 HD
ATOM     26  C   UNL A   1      44.711  32.133  28.733  1.00  0.00     0.037 A 
ATOM     27  C   UNL A   1      41.882  25.768  27.832  1.00  0.00     0.037 A 
ATOM     28  C   UNL A   1      45.534  31.200  28.015  1.00  0.00     0.049 A 
ATOM     29  C   UNL A   1      43.235  26.117  27.286  1.00  0.00     0.074 A 
ATOM     30  C   UNL A   1      46.801  31.384  27.494  1.00  0.00     0.029 A 
ATOM     31  N   UNL A   1      45.162  29.896  27.720  1.00  0.00    -0.354 N 
ATOM     32  N   UNL A   1      43.898  27.243  27.393  1.00  0.00    -0.248 NA
ATOM     33  C   UNL A   1      43.936  25.073  26.527  1.00  0.00     0.031 C 
ATOM     34  C   UNL A   1      47.187  30.197  26.860  1.00  0.00     0.029 A 
ATOM     35  C   UNL A   1      46.171  29.266  27.013  1.00  0.00     0.049 A 
ATOM     36  H   UNL A   1      44.307  29.480  27.976  1.00  0.00     0.167 HD
ATOM     37  C   UNL A   1      45.099  27.041  26.730  1.00  0.00     0.074 A 
ATOM     38  C   UNL A   1      45.079  25.678  26.236  1.00  0.00     0.031 C 
ATOM     39  C   UNL A   1      46.124  27.906  26.542  1.00  0.00     0.037 A 
BRANCH  26  40
ATOM     40  C   UNL A   1      45.238  33.508  29.009  1.00  0.00     0.057 A 
ATOM     41  C   UNL A   1      45.034  34.570  28.119  1.00  0.00     0.134 A 
ATOM     42  C   UNL A   1      45.981  33.765  30.167  1.00  0.00     0.134 A 
ATOM     43  F   UNL A   1      44.354  34.379  26.978  1.00  0.00    -0.206 F 
ATOM     44  C   UNL A   1      45.569  35.836  28.361  1.00  0.00     0.040 A 
ATOM     45  C   UNL A   1      46.506  35.031  30.428  1.00  0.00     0.040 A 
ATOM     46  F   UNL A   1      46.218  32.787  31.055  1.00  0.00    -0.206 F 
ATOM     47  C   UNL A   1      46.307  36.069  29.521  1.00  0.00     0.006 A 
ENDBRANCH  26  40
BRANCH  27  48
ATOM     48  C   UNL A   1      41.291  24.419  27.627  1.00  0.00     0.057 A 
ATOM     49  C   UNL A   1      41.743  23.308  28.344  1.00  0.00     0.134 A 
ATOM     50  C   UNL A   1      40.258  24.213  26.702  1.00  0.00     0.134 A 
ATOM     51  F   UNL A   1      42.738  23.436  29.233  1.00  0.00    -0.206 F 
ATOM     52  C   UNL A   1      41.199  22.036  28.143  1.00  0.00     0.040 A 
ATOM     53  C   UNL A   1      39.691  22.954  26.505  1.00  0.00     0.040 A 
ATOM     54  F   UNL A   1      39.773  25.239  25.987  1.00  0.00    -0.206 F 
ATOM     55  C   UNL A   1      40.166  21.859  27.223  1.00  0.00     0.006 A 
ENDBRANCH  27  48
BRANCH  39  56
ATOM     56  C   UNL A   1      47.311  27.390  25.792  1.00  0.00     0.057 A 
ATOM     57  C   UNL A   1      47.427  27.550  24.407  1.00  0.00     0.134 A 
ATOM     58  C   UNL A   1      48.362  26.760  26.469  1.00  0.00     0.134 A 
ATOM     59  F   UNL A   1      46.443  28.133  23.705  1.00  0.00    -0.206 F 
ATOM     60  C   UNL A   1      48.546  27.087  23.715  1.00  0.00     0.040 A 
ATOM     61  C   UNL A   1      49.494  26.309  25.791  1.00  0.00     0.040 A 
ATOM     62  F   UNL A   1      48.307  26.581  27.797  1.00  0.00    -0.206 F 
ATOM     63  C   UNL A   1      49.586  26.470  24.409  1.00  0.00     0.006 A 
ENDBRANCH  39  56
ENDBRANCH  13  14
ENDBRANCH   6   8
ENDBRANCH   5   6
ENDBRANCH   4   5
ENDBRANCH   3   4
ENDBRANCH   2   3
ENDBRANCH   1   2
BRANCH   1  64
ATOM     64  C   UNL A   1      34.747  33.733  28.039  1.00  0.00     0.188 C 
BRANCH  64  65
ATOM     65  O   UNL A   1      35.160  32.393  27.749  1.00  0.00    -0.376 OA
BRANCH  65  66
ATOM     66  C   UNL A   1      34.160  31.380  27.762  1.00  0.00     0.202 C 
BRANCH  66  67
ATOM     67  C   UNL A   1      34.487  30.061  27.054  1.00  0.00     0.261 C 
BRANCH  67  68
ATOM     68  O   UNL A   1      33.379  29.220  26.682  1.00  0.00    -0.460 OA
BRANCH  68  69
ATOM     69  C   UNL A   1      32.698  29.665  25.600  1.00  0.00     0.338 C 
ATOM     70  O   UNL A   1      31.904  30.587  25.565  1.00  0.00    -0.246 OA
BRANCH  69  71
ATOM     71  C   UNL A   1      32.955  28.819  24.422  1.00  0.00     0.067 A 
ATOM     72  C   UNL A   1      34.039  29.162  23.603  1.00  0.00     0.016 A 
ATOM     73  C   UNL A   1      32.044  27.810  24.038  1.00  0.00    -0.010 A 
ATOM     74  C   UNL A   1      34.226  28.496  22.393  1.00  0.00     0.001 A 
ATOM     75  C   UNL A   1      32.233  27.180  22.803  1.00  0.00     0.009 A 
ATOM     76  C   UNL A   1      33.318  27.518  21.989  1.00  0.00     0.001 A 
BRANCH  73  77
ATOM     77  C   UNL A   1      30.940  27.349  24.897  1.00  0.00     0.030 C 
ATOM     78  C   UNL A   1      30.970  26.267  25.687  1.00  0.00     0.081 C 
ATOM     79  S   UNL A   1      29.577  25.551  26.386  1.00  0.00    -0.054 SA
ATOM     80  C   UNL A   1      32.136  25.384  25.927  1.00  0.00     0.266 C 
ATOM     81  C   UNL A   1      30.368  23.969  26.496  1.00  0.00     0.148 C 
ATOM     82  N   UNL A   1      31.697  24.082  26.134  1.00  0.00    -0.290 N 
ATOM     83  O   UNL A   1      33.286  25.795  25.985  1.00  0.00    -0.268 OA
ATOM     84  S   UNL A   1      29.496  22.628  26.969  1.00  0.00    -0.052 S 
BRANCH  82  85
ATOM     85  C   UNL A   1      32.711  23.012  26.018  1.00  0.00     0.092 C 
ATOM     86  C   UNL A   1      33.044  22.371  27.368  1.00  0.00     0.025 C 
ATOM     87  C   UNL A   1      32.411  21.967  24.926  1.00  0.00     0.025 C 
ATOM     88  C   UNL A   1      34.157  21.334  27.224  1.00  0.00     0.002 C 
ATOM     89  C   UNL A   1      33.522  20.925  24.819  1.00  0.00     0.002 C 
ATOM     90  C   UNL A   1      33.816  20.284  26.170  1.00  0.00     0.000 C 
ENDBRANCH  82  85
ENDBRANCH  73  77
ENDBRANCH  69  71
ENDBRANCH  68  69
ENDBRANCH  67  68
ENDBRANCH  66  67
ENDBRANCH  65  66
ENDBRANCH  64  65
ENDBRANCH   1  64
TORSDOF 19
ENDMDL
