MODEL 1
REMARK VINA RESULT:     -11.1      0.000      0.000
REMARK SMILES O=C(OCCOCCOCCOC(=O)[C@@H](Cc1cccc(F)c1)[C@H]1CCOC2(CCC2)C1)c1ccc(-c2c3nc(c(-c4c(F)cccc4F)c4ccc([nH]4)c(-c4c(F)cccc4F)c4nc(c(-c5c(F)cccc5F)c5ccc2[nH]5)C=C4)C=C3)cc1
REMARK SMILES IDX 7 1 6 2 5 3 4 4 3 5 2 6 1 7 33 8 34 9 86 10 35 11 85 12
REMARK SMILES IDX 36 13 37 14 38 15 79 16 39 17 84 18 78 19 80 20 40 21 83 22
REMARK SMILES IDX 77 23 76 24 41 26 67 27 50 28 66 29 51 30 54 31 65 32 81 33
REMARK SMILES IDX 52 34 53 35 64 37 82 38 55 39 42 40 43 41 48 42 44 43 45 44
REMARK SMILES IDX 47 45 49 46 46 47 68 48 69 49 74 50 70 51 71 52 73 53 75 54
REMARK SMILES IDX 72 55 56 56 57 57 62 58 58 59 59 60 61 61 63 62 60 63 8 64
REMARK SMILES IDX 9 65 10 66 11 67 12 68 13 69 14 70 15 71 16 72 17 73 18 74
REMARK SMILES IDX 23 75 19 76 21 77 20 78 22 79 24 80 25 81 32 82 26 83 28 84
REMARK SMILES IDX 27 85 29 86 31 87 30 88
REMARK H PARENT 80 25 54 36
REMARK Flexibility Score: inf
ROOT
ATOM      1  C   UNL A   1      40.298  19.932  26.198  1.00  0.00     0.188 C 
ENDROOT
BRANCH   1   2
ATOM      2  O   UNL A   1      41.340  19.166  25.583  1.00  0.00    -0.376 OA
BRANCH   2   3
ATOM      3  C   UNL A   1      42.602  19.268  26.243  1.00  0.00     0.202 C 
BRANCH   3   4
ATOM      4  C   UNL A   1      43.669  18.280  25.751  1.00  0.00     0.261 C 
BRANCH   4   5
ATOM      5  O   UNL A   1      44.373  18.674  24.559  1.00  0.00    -0.460 OA
BRANCH   5   6
ATOM      6  C   UNL A   1      45.348  19.594  24.362  1.00  0.00     0.338 C 
ATOM      7  O   UNL A   1      46.404  19.202  23.866  1.00  0.00    -0.246 OA
BRANCH   6   8
ATOM      8  C   UNL A   1      45.250  21.056  24.697  1.00  0.00     0.060 A 
ATOM      9  C   UNL A   1      44.847  22.073  23.836  1.00  0.00     0.016 A 
ATOM     10  C   UNL A   1      45.615  21.428  26.011  1.00  0.00     0.016 A 
ATOM     11  C   UNL A   1      44.821  23.405  24.253  1.00  0.00     0.010 A 
ATOM     12  C   UNL A   1      45.612  22.765  26.433  1.00  0.00     0.010 A 
ATOM     13  C   UNL A   1      45.233  23.763  25.539  1.00  0.00    -0.014 A 
BRANCH  13  14
ATOM     14  C   UNL A   1      45.478  25.199  25.784  1.00  0.00     0.031 A 
ATOM     15  C   UNL A   1      44.418  25.949  26.529  1.00  0.00     0.074 A 
ATOM     16  C   UNL A   1      46.655  25.774  25.484  1.00  0.00     0.049 A 
ATOM     17  N   UNL A   1      44.448  27.161  27.012  1.00  0.00    -0.248 NA
ATOM     18  C   UNL A   1      43.139  25.245  26.734  1.00  0.00     0.031 C 
ATOM     19  C   UNL A   1      47.720  25.150  24.714  1.00  0.00     0.029 A 
ATOM     20  N   UNL A   1      47.183  26.983  25.864  1.00  0.00    -0.354 N 
ATOM     21  C   UNL A   1      43.174  27.389  27.511  1.00  0.00     0.074 A 
ATOM     22  C   UNL A   1      42.413  26.174  27.333  1.00  0.00     0.031 C 
ATOM     23  C   UNL A   1      48.830  25.904  24.809  1.00  0.00     0.029 A 
ATOM     24  C   UNL A   1      48.535  27.083  25.615  1.00  0.00     0.049 A 
ATOM     25  H   UNL A   1      46.652  27.705  26.271  1.00  0.00     0.167 HD
ATOM     26  C   UNL A   1      42.675  28.540  28.012  1.00  0.00     0.037 A 
ATOM     27  C   UNL A   1      49.420  28.010  26.034  1.00  0.00     0.037 A 
ATOM     28  C   UNL A   1      43.447  29.744  28.140  1.00  0.00     0.049 A 
ATOM     29  C   UNL A   1      48.873  29.243  26.704  1.00  0.00     0.074 A 
ATOM     30  C   UNL A   1      43.033  31.002  28.535  1.00  0.00     0.029 A 
ATOM     31  N   UNL A   1      44.805  29.832  27.866  1.00  0.00    -0.354 N 
ATOM     32  N   UNL A   1      47.652  29.485  27.116  1.00  0.00    -0.248 NA
ATOM     33  C   UNL A   1      49.804  30.366  26.882  1.00  0.00     0.031 C 
ATOM     34  C   UNL A   1      44.132  31.862  28.455  1.00  0.00     0.029 A 
ATOM     35  C   UNL A   1      45.245  31.126  28.076  1.00  0.00     0.049 A 
ATOM     36  H   UNL A   1      45.372  29.084  27.567  1.00  0.00     0.167 HD
ATOM     37  C   UNL A   1      47.651  30.807  27.535  1.00  0.00     0.074 A 
ATOM     38  C   UNL A   1      49.012  31.286  27.415  1.00  0.00     0.031 C 
ATOM     39  C   UNL A   1      46.607  31.574  27.930  1.00  0.00     0.037 A 
BRANCH  26  40
ATOM     40  C   UNL A   1      41.210  28.567  28.324  1.00  0.00     0.057 A 
ATOM     41  C   UNL A   1      40.766  28.272  29.619  1.00  0.00     0.134 A 
ATOM     42  C   UNL A   1      40.244  28.918  27.373  1.00  0.00     0.134 A 
ATOM     43  F   UNL A   1      41.641  27.942  30.581  1.00  0.00    -0.206 F 
ATOM     44  C   UNL A   1      39.414  28.317  29.957  1.00  0.00     0.040 A 
ATOM     45  C   UNL A   1      38.890  28.995  27.707  1.00  0.00     0.040 A 
ATOM     46  F   UNL A   1      40.607  29.251  26.125  1.00  0.00    -0.206 F 
ATOM     47  C   UNL A   1      38.472  28.687  29.000  1.00  0.00     0.006 A 
ENDBRANCH  26  40
BRANCH  27  48
ATOM     48  C   UNL A   1      50.887  27.862  25.829  1.00  0.00     0.057 A 
ATOM     49  C   UNL A   1      51.511  28.184  24.621  1.00  0.00     0.134 A 
ATOM     50  C   UNL A   1      51.715  27.451  26.886  1.00  0.00     0.134 A 
ATOM     51  F   UNL A   1      50.786  28.582  23.566  1.00  0.00    -0.206 F 
ATOM     52  C   UNL A   1      52.898  28.105  24.468  1.00  0.00     0.040 A 
ATOM     53  C   UNL A   1      53.104  27.389  26.754  1.00  0.00     0.040 A 
ATOM     54  F   UNL A   1      51.184  27.145  28.079  1.00  0.00    -0.206 F 
ATOM     55  C   UNL A   1      53.699  27.717  25.540  1.00  0.00     0.006 A 
ENDBRANCH  27  48
BRANCH  39  56
ATOM     56  C   UNL A   1      46.885  33.017  28.219  1.00  0.00     0.057 A 
ATOM     57  C   UNL A   1      46.826  33.975  27.201  1.00  0.00     0.134 A 
ATOM     58  C   UNL A   1      47.310  33.437  29.487  1.00  0.00     0.134 A 
ATOM     59  F   UNL A   1      46.435  33.630  25.964  1.00  0.00    -0.206 F 
ATOM     60  C   UNL A   1      47.199  35.298  27.428  1.00  0.00     0.040 A 
ATOM     61  C   UNL A   1      47.662  34.764  29.732  1.00  0.00     0.040 A 
ATOM     62  F   UNL A   1      47.379  32.566  30.505  1.00  0.00    -0.206 F 
ATOM     63  C   UNL A   1      47.619  35.695  28.696  1.00  0.00     0.006 A 
ENDBRANCH  39  56
ENDBRANCH  13  14
ENDBRANCH   6   8
ENDBRANCH   5   6
ENDBRANCH   4   5
ENDBRANCH   3   4
ENDBRANCH   2   3
ENDBRANCH   1   2
BRANCH   1  64
ATOM     64  C   UNL A   1      40.493  21.444  26.133  1.00  0.00     0.188 C 
BRANCH  64  65
ATOM     65  O   UNL A   1      39.253  22.143  26.099  1.00  0.00    -0.376 OA
BRANCH  65  66
ATOM     66  C   UNL A   1      38.214  21.409  25.453  1.00  0.00     0.202 C 
BRANCH  66  67
ATOM     67  C   UNL A   1      36.834  22.064  25.547  1.00  0.00     0.261 C 
BRANCH  67  68
ATOM     68  O   UNL A   1      35.756  21.417  24.853  1.00  0.00    -0.463 OA
BRANCH  68  69
ATOM     69  C   UNL A   1      34.551  21.321  25.447  1.00  0.00     0.309 C 
ATOM     70  O   UNL A   1      34.383  21.157  26.651  1.00  0.00    -0.252 OA
BRANCH  69  71
ATOM     71  C   UNL A   1      33.417  21.299  24.429  1.00  0.00     0.107 C 
BRANCH  71  72
ATOM     72  C   UNL A   1      32.376  20.170  24.642  1.00  0.00     0.051 C 
BRANCH  72  73
ATOM     73  C   UNL A   1      32.828  18.718  24.666  1.00  0.00    -0.044 A 
ATOM     74  C   UNL A   1      32.527  17.877  25.750  1.00  0.00     0.004 A 
ATOM     75  C   UNL A   1      33.482  18.146  23.571  1.00  0.00     0.043 A 
ATOM     76  C   UNL A   1      32.831  16.513  25.732  1.00  0.00     0.003 A 
ATOM     77  C   UNL A   1      33.800  16.790  23.561  1.00  0.00     0.123 A 
ATOM     78  C   UNL A   1      33.469  15.965  24.627  1.00  0.00     0.039 A 
ATOM     79  F   UNL A   1      34.403  16.270  22.485  1.00  0.00    -0.207 F 
ENDBRANCH  72  73
ENDBRANCH  71  72
BRANCH  71  80
ATOM     80  C   UNL A   1      32.751  22.687  24.280  1.00  0.00     0.009 C 
ATOM     81  C   UNL A   1      32.323  23.022  22.840  1.00  0.00     0.033 C 
ATOM     82  C   UNL A   1      31.569  22.909  25.240  1.00  0.00     0.040 C 
ATOM     83  C   UNL A   1      31.796  24.442  22.752  1.00  0.00     0.161 C 
ATOM     84  C   UNL A   1      31.123  24.368  25.099  1.00  0.00     0.069 C 
ATOM     85  O   UNL A   1      30.764  24.633  23.715  1.00  0.00    -0.375 OA
ATOM     86  C   UNL A   1      30.058  24.851  26.127  1.00  0.00     0.035 C 
ATOM     87  C   UNL A   1      32.067  25.428  25.759  1.00  0.00     0.035 C 
ATOM     88  C   UNL A   1      30.791  26.209  26.126  1.00  0.00     0.006 C 
ENDBRANCH  71  80
ENDBRANCH  69  71
ENDBRANCH  68  69
ENDBRANCH  67  68
ENDBRANCH  66  67
ENDBRANCH  65  66
ENDBRANCH  64  65
ENDBRANCH   1  64
TORSDOF 20
ENDMDL
MODEL 2
REMARK VINA RESULT:     -11.1      7.234     12.832
REMARK SMILES O=C(OCCOCCOCCOC(=O)[C@@H](Cc1cccc(F)c1)[C@H]1CCOC2(CCC2)C1)c1ccc(-c2c3nc(c(-c4c(F)cccc4F)c4ccc([nH]4)c(-c4c(F)cccc4F)c4nc(c(-c5c(F)cccc5F)c5ccc2[nH]5)C=C4)C=C3)cc1
REMARK SMILES IDX 7 1 6 2 5 3 4 4 3 5 2 6 1 7 33 8 34 9 86 10 35 11 85 12
REMARK SMILES IDX 36 13 37 14 38 15 79 16 39 17 84 18 78 19 80 20 40 21 83 22
REMARK SMILES IDX 77 23 76 24 41 26 67 27 50 28 66 29 51 30 54 31 65 32 81 33
REMARK SMILES IDX 52 34 53 35 64 37 82 38 55 39 42 40 43 41 48 42 44 43 45 44
REMARK SMILES IDX 47 45 49 46 46 47 68 48 69 49 74 50 70 51 71 52 73 53 75 54
REMARK SMILES IDX 72 55 56 56 57 57 62 58 58 59 59 60 61 61 63 62 60 63 8 64
REMARK SMILES IDX 9 65 10 66 11 67 12 68 13 69 14 70 15 71 16 72 17 73 18 74
REMARK SMILES IDX 23 75 19 76 21 77 20 78 22 79 24 80 25 81 32 82 26 83 28 84
REMARK SMILES IDX 27 85 29 86 31 87 30 88
REMARK H PARENT 80 25 54 36
REMARK Flexibility Score: inf
ROOT
ATOM      1  C   UNL A   1      34.641  33.354  29.250  1.00  0.00     0.188 C 
ENDROOT
BRANCH   1   2
ATOM      2  O   UNL A   1      34.442  34.756  29.039  1.00  0.00    -0.376 OA
BRANCH   2   3
ATOM      3  C   UNL A   1      33.069  35.150  29.023  1.00  0.00     0.202 C 
BRANCH   3   4
ATOM      4  C   UNL A   1      32.779  36.504  29.685  1.00  0.00     0.261 C 
BRANCH   4   5
ATOM      5  O   UNL A   1      32.203  36.437  31.002  1.00  0.00    -0.460 OA
BRANCH   5   6
ATOM      6  C   UNL A   1      32.762  36.176  32.208  1.00  0.00     0.338 C 
ATOM      7  O   UNL A   1      32.321  36.788  33.181  1.00  0.00    -0.246 OA
BRANCH   6   8
ATOM      8  C   UNL A   1      33.875  35.199  32.461  1.00  0.00     0.060 A 
ATOM      9  C   UNL A   1      33.734  33.882  32.891  1.00  0.00     0.016 A 
ATOM     10  C   UNL A   1      35.191  35.673  32.251  1.00  0.00     0.016 A 
ATOM     11  C   UNL A   1      34.848  33.073  33.119  1.00  0.00     0.010 A 
ATOM     12  C   UNL A   1      36.317  34.875  32.498  1.00  0.00     0.010 A 
ATOM     13  C   UNL A   1      36.144  33.572  32.957  1.00  0.00    -0.014 A 
BRANCH  13  14
ATOM     14  C   UNL A   1      37.244  32.764  33.521  1.00  0.00     0.031 A 
ATOM     15  C   UNL A   1      37.988  31.876  32.573  1.00  0.00     0.074 A 
ATOM     16  C   UNL A   1      37.656  32.924  34.791  1.00  0.00     0.049 A 
ATOM     17  N   UNL A   1      39.083  31.193  32.767  1.00  0.00    -0.248 NA
ATOM     18  C   UNL A   1      37.402  31.716  31.230  1.00  0.00     0.031 C 
ATOM     19  C   UNL A   1      36.968  33.715  35.801  1.00  0.00     0.029 A 
ATOM     20  N   UNL A   1      38.796  32.496  35.423  1.00  0.00    -0.354 N 
ATOM     21  C   UNL A   1      39.275  30.467  31.600  1.00  0.00     0.074 A 
ATOM     22  C   UNL A   1      38.225  30.839  30.680  1.00  0.00     0.031 C 
ATOM     23  C   UNL A   1      37.770  33.851  36.871  1.00  0.00     0.029 A 
ATOM     24  C   UNL A   1      39.009  33.121  36.632  1.00  0.00     0.049 A 
ATOM     25  H   UNL A   1      39.400  31.813  35.052  1.00  0.00     0.167 HD
ATOM     26  C   UNL A   1      40.212  29.527  31.355  1.00  0.00     0.037 A 
ATOM     27  C   UNL A   1      40.104  33.120  37.419  1.00  0.00     0.037 A 
ATOM     28  C   UNL A   1      41.220  29.153  32.308  1.00  0.00     0.049 A 
ATOM     29  C   UNL A   1      41.208  32.154  37.076  1.00  0.00     0.074 A 
ATOM     30  C   UNL A   1      42.162  28.145  32.222  1.00  0.00     0.029 A 
ATOM     31  N   UNL A   1      41.409  29.780  33.531  1.00  0.00    -0.354 N 
ATOM     32  N   UNL A   1      41.355  31.416  36.002  1.00  0.00    -0.248 NA
ATOM     33  C   UNL A   1      42.246  31.948  38.096  1.00  0.00     0.031 C 
ATOM     34  C   UNL A   1      42.891  28.133  33.415  1.00  0.00     0.029 A 
ATOM     35  C   UNL A   1      42.448  29.176  34.215  1.00  0.00     0.049 A 
ATOM     36  H   UNL A   1      40.882  30.543  33.863  1.00  0.00     0.167 HD
ATOM     37  C   UNL A   1      42.459  30.613  36.245  1.00  0.00     0.074 A 
ATOM     38  C   UNL A   1      42.997  31.016  37.527  1.00  0.00     0.031 C 
ATOM     39  C   UNL A   1      42.949  29.593  35.500  1.00  0.00     0.037 A 
BRANCH  26  40
ATOM     40  C   UNL A   1      40.093  28.767  30.070  1.00  0.00     0.057 A 
ATOM     41  C   UNL A   1      40.809  29.188  28.941  1.00  0.00     0.134 A 
ATOM     42  C   UNL A   1      39.317  27.609  29.949  1.00  0.00     0.134 A 
ATOM     43  F   UNL A   1      41.584  30.282  28.994  1.00  0.00    -0.206 F 
ATOM     44  C   UNL A   1      40.749  28.490  27.736  1.00  0.00     0.040 A 
ATOM     45  C   UNL A   1      39.272  26.885  28.755  1.00  0.00     0.040 A 
ATOM     46  F   UNL A   1      38.640  27.130  31.003  1.00  0.00    -0.206 F 
ATOM     47  C   UNL A   1      39.984  27.330  27.643  1.00  0.00     0.006 A 
ENDBRANCH  26  40
BRANCH  27  48
ATOM     48  C   UNL A   1      40.233  34.007  38.607  1.00  0.00     0.057 A 
ATOM     49  C   UNL A   1      39.781  33.633  39.875  1.00  0.00     0.134 A 
ATOM     50  C   UNL A   1      40.889  35.245  38.503  1.00  0.00     0.134 A 
ATOM     51  F   UNL A   1      39.145  32.467  40.053  1.00  0.00    -0.206 F 
ATOM     52  C   UNL A   1      39.973  34.450  40.992  1.00  0.00     0.040 A 
ATOM     53  C   UNL A   1      41.107  36.062  39.615  1.00  0.00     0.040 A 
ATOM     54  F   UNL A   1      41.365  35.658  37.319  1.00  0.00    -0.206 F 
ATOM     55  C   UNL A   1      40.647  35.663  40.866  1.00  0.00     0.006 A 
ENDBRANCH  27  48
BRANCH  39  56
ATOM     56  C   UNL A   1      44.095  28.816  36.071  1.00  0.00     0.057 A 
ATOM     57  C   UNL A   1      43.870  27.671  36.843  1.00  0.00     0.134 A 
ATOM     58  C   UNL A   1      45.417  29.264  35.937  1.00  0.00     0.134 A 
ATOM     59  F   UNL A   1      42.626  27.200  37.015  1.00  0.00    -0.206 F 
ATOM     60  C   UNL A   1      44.918  27.008  37.479  1.00  0.00     0.040 A 
ATOM     61  C   UNL A   1      46.476  28.594  36.548  1.00  0.00     0.040 A 
ATOM     62  F   UNL A   1      45.696  30.351  35.201  1.00  0.00    -0.206 F 
ATOM     63  C   UNL A   1      46.225  27.470  37.332  1.00  0.00     0.006 A 
ENDBRANCH  39  56
ENDBRANCH  13  14
ENDBRANCH   6   8
ENDBRANCH   5   6
ENDBRANCH   4   5
ENDBRANCH   3   4
ENDBRANCH   2   3
ENDBRANCH   1   2
BRANCH   1  64
ATOM     64  C   UNL A   1      34.637  32.510  27.978  1.00  0.00     0.188 C 
BRANCH  64  65
ATOM     65  O   UNL A   1      33.885  31.310  28.135  1.00  0.00    -0.376 OA
BRANCH  65  66
ATOM     66  C   UNL A   1      32.794  31.211  27.221  1.00  0.00     0.202 C 
BRANCH  66  67
ATOM     67  C   UNL A   1      32.419  29.774  26.848  1.00  0.00     0.261 C 
BRANCH  67  68
ATOM     68  O   UNL A   1      31.843  29.566  25.550  1.00  0.00    -0.463 OA
BRANCH  68  69
ATOM     69  C   UNL A   1      32.378  28.640  24.731  1.00  0.00     0.309 C 
ATOM     70  O   UNL A   1      33.444  28.771  24.139  1.00  0.00    -0.252 OA
BRANCH  69  71
ATOM     71  C   UNL A   1      31.434  27.464  24.513  1.00  0.00     0.107 C 
BRANCH  71  72
ATOM     72  C   UNL A   1      30.720  27.451  23.136  1.00  0.00     0.051 C 
BRANCH  72  73
ATOM     73  C   UNL A   1      29.612  28.452  22.849  1.00  0.00    -0.044 A 
ATOM     74  C   UNL A   1      28.282  28.195  23.220  1.00  0.00     0.004 A 
ATOM     75  C   UNL A   1      29.893  29.700  22.287  1.00  0.00     0.043 A 
ATOM     76  C   UNL A   1      27.276  29.154  23.072  1.00  0.00     0.003 A 
ATOM     77  C   UNL A   1      28.886  30.650  22.124  1.00  0.00     0.123 A 
ATOM     78  C   UNL A   1      27.582  30.392  22.523  1.00  0.00     0.039 A 
ATOM     79  F   UNL A   1      29.195  31.845  21.606  1.00  0.00    -0.207 F 
ENDBRANCH  72  73
ENDBRANCH  71  72
BRANCH  71  80
ATOM     80  C   UNL A   1      32.118  26.112  24.828  1.00  0.00     0.009 C 
ATOM     81  C   UNL A   1      31.273  25.178  25.712  1.00  0.00     0.033 C 
ATOM     82  C   UNL A   1      32.593  25.355  23.576  1.00  0.00     0.040 C 
ATOM     83  C   UNL A   1      32.057  23.932  26.081  1.00  0.00     0.161 C 
ATOM     84  C   UNL A   1      33.390  24.134  24.045  1.00  0.00     0.069 C 
ATOM     85  O   UNL A   1      32.553  23.308  24.900  1.00  0.00    -0.375 OA
ATOM     86  C   UNL A   1      34.124  23.335  22.927  1.00  0.00     0.035 C 
ATOM     87  C   UNL A   1      34.821  24.437  24.602  1.00  0.00     0.035 C 
ATOM     88  C   UNL A   1      35.263  23.116  23.944  1.00  0.00     0.006 C 
ENDBRANCH  71  80
ENDBRANCH  69  71
ENDBRANCH  68  69
ENDBRANCH  67  68
ENDBRANCH  66  67
ENDBRANCH  65  66
ENDBRANCH  64  65
ENDBRANCH   1  64
TORSDOF 20
ENDMDL
MODEL 3
REMARK VINA RESULT:     -11.0      5.181      9.250
REMARK SMILES O=C(OCCOCCOCCOC(=O)[C@@H](Cc1cccc(F)c1)[C@H]1CCOC2(CCC2)C1)c1ccc(-c2c3nc(c(-c4c(F)cccc4F)c4ccc([nH]4)c(-c4c(F)cccc4F)c4nc(c(-c5c(F)cccc5F)c5ccc2[nH]5)C=C4)C=C3)cc1
REMARK SMILES IDX 7 1 6 2 5 3 4 4 3 5 2 6 1 7 33 8 34 9 86 10 35 11 85 12
REMARK SMILES IDX 36 13 37 14 38 15 79 16 39 17 84 18 78 19 80 20 40 21 83 22
REMARK SMILES IDX 77 23 76 24 41 26 67 27 50 28 66 29 51 30 54 31 65 32 81 33
REMARK SMILES IDX 52 34 53 35 64 37 82 38 55 39 42 40 43 41 48 42 44 43 45 44
REMARK SMILES IDX 47 45 49 46 46 47 68 48 69 49 74 50 70 51 71 52 73 53 75 54
REMARK SMILES IDX 72 55 56 56 57 57 62 58 58 59 59 60 61 61 63 62 60 63 8 64
REMARK SMILES IDX 9 65 10 66 11 67 12 68 13 69 14 70 15 71 16 72 17 73 18 74
REMARK SMILES IDX 23 75 19 76 21 77 20 78 22 79 24 80 25 81 32 82 26 83 28 84
REMARK SMILES IDX 27 85 29 86 31 87 30 88
REMARK H PARENT 80 25 54 36
REMARK Flexibility Score: inf
ROOT
ATOM      1  C   UNL A   1      41.163  20.666  26.489  1.00  0.00     0.188 C 
ENDROOT
BRANCH   1   2
ATOM      2  O   UNL A   1      42.097  21.218  25.554  1.00  0.00    -0.376 OA
BRANCH   2   3
ATOM      3  C   UNL A   1      43.326  21.643  26.145  1.00  0.00     0.202 C 
BRANCH   3   4
ATOM      4  C   UNL A   1      43.556  23.161  26.133  1.00  0.00     0.261 C 
BRANCH   4   5
ATOM      5  O   UNL A   1      42.418  23.956  25.751  1.00  0.00    -0.460 OA
BRANCH   5   6
ATOM      6  C   UNL A   1      42.265  25.296  25.636  1.00  0.00     0.338 C 
ATOM      7  O   UNL A   1      42.648  25.821  24.590  1.00  0.00    -0.246 OA
BRANCH   6   8
ATOM      8  C   UNL A   1      41.666  26.201  26.676  1.00  0.00     0.060 A 
ATOM      9  C   UNL A   1      41.806  27.584  26.743  1.00  0.00     0.016 A 
ATOM     10  C   UNL A   1      40.895  25.579  27.685  1.00  0.00     0.016 A 
ATOM     11  C   UNL A   1      41.222  28.320  27.776  1.00  0.00     0.010 A 
ATOM     12  C   UNL A   1      40.323  26.306  28.738  1.00  0.00     0.010 A 
ATOM     13  C   UNL A   1      40.507  27.685  28.795  1.00  0.00    -0.014 A 
BRANCH  13  14
ATOM     14  C   UNL A   1      40.205  28.489  29.997  1.00  0.00     0.031 A 
ATOM     15  C   UNL A   1      41.258  28.539  31.060  1.00  0.00     0.074 A 
ATOM     16  C   UNL A   1      39.104  29.255  30.073  1.00  0.00     0.049 A 
ATOM     17  N   UNL A   1      41.319  29.286  32.128  1.00  0.00    -0.248 NA
ATOM     18  C   UNL A   1      42.384  27.599  30.911  1.00  0.00     0.031 C 
ATOM     19  C   UNL A   1      38.000  29.233  29.125  1.00  0.00     0.029 A 
ATOM     20  N   UNL A   1      38.772  30.261  30.947  1.00  0.00    -0.354 N 
ATOM     21  C   UNL A   1      42.446  28.856  32.813  1.00  0.00     0.074 A 
ATOM     22  C   UNL A   1      43.075  27.831  32.014  1.00  0.00     0.031 C 
ATOM     23  C   UNL A   1      37.192  30.280  29.368  1.00  0.00     0.029 A 
ATOM     24  C   UNL A   1      37.705  31.019  30.515  1.00  0.00     0.049 A 
ATOM     25  H   UNL A   1      39.246  30.424  31.794  1.00  0.00     0.167 HD
ATOM     26  C   UNL A   1      42.871  29.246  34.035  1.00  0.00     0.037 A 
ATOM     27  C   UNL A   1      37.240  32.194  30.986  1.00  0.00     0.037 A 
ATOM     28  C   UNL A   1      42.199  30.242  34.821  1.00  0.00     0.049 A 
ATOM     29  C   UNL A   1      37.801  32.693  32.292  1.00  0.00     0.074 A 
ATOM     30  C   UNL A   1      42.467  30.652  36.114  1.00  0.00     0.029 A 
ATOM     31  N   UNL A   1      41.113  30.984  34.379  1.00  0.00    -0.354 N 
ATOM     32  N   UNL A   1      38.827  32.244  32.975  1.00  0.00    -0.248 NA
ATOM     33  C   UNL A   1      37.084  33.801  32.939  1.00  0.00     0.031 C 
ATOM     34  C   UNL A   1      41.513  31.610  36.469  1.00  0.00     0.029 A 
ATOM     35  C   UNL A   1      40.693  31.845  35.376  1.00  0.00     0.049 A 
ATOM     36  H   UNL A   1      40.702  30.909  33.487  1.00  0.00     0.167 HD
ATOM     37  C   UNL A   1      38.835  32.965  34.159  1.00  0.00     0.074 A 
ATOM     38  C   UNL A   1      37.771  33.942  34.064  1.00  0.00     0.031 C 
ATOM     39  C   UNL A   1      39.616  32.796  35.253  1.00  0.00     0.037 A 
BRANCH  26  40
ATOM     40  C   UNL A   1      44.027  28.497  34.623  1.00  0.00     0.057 A 
ATOM     41  C   UNL A   1      45.326  29.007  34.498  1.00  0.00     0.134 A 
ATOM     42  C   UNL A   1      43.866  27.306  35.342  1.00  0.00     0.134 A 
ATOM     43  F   UNL A   1      45.548  30.152  33.835  1.00  0.00    -0.206 F 
ATOM     44  C   UNL A   1      46.424  28.356  35.059  1.00  0.00     0.040 A 
ATOM     45  C   UNL A   1      44.954  26.661  35.933  1.00  0.00     0.040 A 
ATOM     46  F   UNL A   1      42.644  26.786  35.532  1.00  0.00    -0.206 F 
ATOM     47  C   UNL A   1      46.238  27.182  35.785  1.00  0.00     0.006 A 
ENDBRANCH  26  40
BRANCH  27  48
ATOM     48  C   UNL A   1      36.188  32.976  30.281  1.00  0.00     0.057 A 
ATOM     49  C   UNL A   1      34.855  32.987  30.698  1.00  0.00     0.134 A 
ATOM     50  C   UNL A   1      36.523  33.797  29.192  1.00  0.00     0.134 A 
ATOM     51  F   UNL A   1      34.459  32.227  31.728  1.00  0.00    -0.206 F 
ATOM     52  C   UNL A   1      33.895  33.781  30.064  1.00  0.00     0.040 A 
ATOM     53  C   UNL A   1      35.579  34.613  28.563  1.00  0.00     0.040 A 
ATOM     54  F   UNL A   1      37.789  33.850  28.750  1.00  0.00    -0.206 F 
ATOM     55  C   UNL A   1      34.258  34.604  29.001  1.00  0.00     0.006 A 
ENDBRANCH  27  48
BRANCH  39  56
ATOM     56  C   UNL A   1      39.323  33.653  36.445  1.00  0.00     0.057 A 
ATOM     57  C   UNL A   1      39.912  34.914  36.583  1.00  0.00     0.134 A 
ATOM     58  C   UNL A   1      38.533  33.182  37.504  1.00  0.00     0.134 A 
ATOM     59  F   UNL A   1      40.686  35.413  35.607  1.00  0.00    -0.206 F 
ATOM     60  C   UNL A   1      39.744  35.671  37.741  1.00  0.00     0.040 A 
ATOM     61  C   UNL A   1      38.338  33.941  38.657  1.00  0.00     0.040 A 
ATOM     62  F   UNL A   1      37.934  31.984  37.426  1.00  0.00    -0.206 F 
ATOM     63  C   UNL A   1      38.955  35.184  38.782  1.00  0.00     0.006 A 
ENDBRANCH  39  56
ENDBRANCH  13  14
ENDBRANCH   6   8
ENDBRANCH   5   6
ENDBRANCH   4   5
ENDBRANCH   3   4
ENDBRANCH   2   3
ENDBRANCH   1   2
BRANCH   1  64
ATOM     64  C   UNL A   1      40.475  21.691  27.386  1.00  0.00     0.188 C 
BRANCH  64  65
ATOM     65  O   UNL A   1      39.479  22.431  26.687  1.00  0.00    -0.376 OA
BRANCH  65  66
ATOM     66  C   UNL A   1      38.687  21.623  25.819  1.00  0.00     0.202 C 
BRANCH  66  67
ATOM     67  C   UNL A   1      37.622  22.398  25.039  1.00  0.00     0.261 C 
BRANCH  67  68
ATOM     68  O   UNL A   1      36.470  21.664  24.601  1.00  0.00    -0.463 OA
BRANCH  68  69
ATOM     69  C   UNL A   1      35.295  21.835  25.237  1.00  0.00     0.309 C 
ATOM     70  O   UNL A   1      35.145  21.741  26.451  1.00  0.00    -0.252 OA
BRANCH  69  71
ATOM     71  C   UNL A   1      34.142  22.022  24.259  1.00  0.00     0.107 C 
BRANCH  71  72
ATOM     72  C   UNL A   1      32.955  21.046  24.462  1.00  0.00     0.051 C 
BRANCH  72  73
ATOM     73  C   UNL A   1      33.095  19.588  24.052  1.00  0.00    -0.044 A 
ATOM     74  C   UNL A   1      32.338  19.050  22.998  1.00  0.00     0.004 A 
ATOM     75  C   UNL A   1      34.046  18.757  24.649  1.00  0.00     0.043 A 
ATOM     76  C   UNL A   1      32.542  17.748  22.533  1.00  0.00     0.003 A 
ATOM     77  C   UNL A   1      34.238  17.454  24.196  1.00  0.00     0.123 A 
ATOM     78  C   UNL A   1      33.502  16.945  23.135  1.00  0.00     0.039 A 
ATOM     79  F   UNL A   1      35.175  16.694  24.775  1.00  0.00    -0.207 F 
ENDBRANCH  72  73
ENDBRANCH  71  72
BRANCH  71  80
ATOM     80  C   UNL A   1      33.680  23.497  24.190  1.00  0.00     0.009 C 
ATOM     81  C   UNL A   1      34.498  24.449  25.080  1.00  0.00     0.033 C 
ATOM     82  C   UNL A   1      33.611  24.054  22.758  1.00  0.00     0.040 C 
ATOM     83  C   UNL A   1      33.909  25.846  25.057  1.00  0.00     0.161 C 
ATOM     84  C   UNL A   1      32.984  25.451  22.831  1.00  0.00     0.069 C 
ATOM     85  O   UNL A   1      33.780  26.292  23.710  1.00  0.00    -0.375 OA
ATOM     86  C   UNL A   1      32.648  26.114  21.462  1.00  0.00     0.035 C 
ATOM     87  C   UNL A   1      31.441  25.484  23.091  1.00  0.00     0.035 C 
ATOM     88  C   UNL A   1      31.396  26.700  22.147  1.00  0.00     0.006 C 
ENDBRANCH  71  80
ENDBRANCH  69  71
ENDBRANCH  68  69
ENDBRANCH  67  68
ENDBRANCH  66  67
ENDBRANCH  65  66
ENDBRANCH  64  65
ENDBRANCH   1  64
TORSDOF 20
ENDMDL
