MODEL 1
REMARK VINA RESULT:      -9.3      0.000      0.000
REMARK SMILES Cc1sc2[nH]c(SCC(=O)OCCOCCOCCOC(=O)c3ccc(-c4c5nc(c(-c6c(F)cccc6F)c6ccc([nH]6)c(-c6c(F)cccc6F)c6nc(c(-c7c(F)cccc7F)c7ccc4[nH]7)C=C6)C=C5)cc3)nc(=O)c2c1C
REMARK SMILES IDX 15 1 14 2 13 3 12 4 11 5 9 6 10 7 8 8 7 9 6 10 1 11 2 12
REMARK SMILES IDX 3 13 81 14 4 15 80 16 82 17 5 18 78 19 77 21 79 22 16 23
REMARK SMILES IDX 17 24 18 25 19 26 20 27 21 28 22 29 23 30 24 31 76 32 25 33
REMARK SMILES IDX 75 34 26 35 27 36 28 37 69 38 29 39 74 40 68 41 70 42 30 43
REMARK SMILES IDX 73 44 67 45 66 46 31 48 57 49 40 50 56 51 41 52 44 53 55 54
REMARK SMILES IDX 71 55 42 56 43 57 54 59 72 60 45 61 32 62 33 63 38 64 34 65
REMARK SMILES IDX 35 66 37 67 39 68 36 69 58 70 59 71 64 72 60 73 61 74 63 75
REMARK SMILES IDX 65 76 62 77 46 78 47 79 52 80 48 81 49 82 51 83 53 84 50 85
REMARK H PARENT 5 20 70 47 44 58
REMARK Flexibility Score: inf
ROOT
ATOM      1  C   UNL A   1      45.905  31.844  26.534  1.00  0.00     0.188 C 
ENDROOT
BRANCH   1   2
ATOM      2  O   UNL A   1      46.352  30.727  25.773  1.00  0.00    -0.376 OA
BRANCH   2   3
ATOM      3  C   UNL A   1      46.333  29.438  26.386  1.00  0.00     0.202 C 
BRANCH   3   4
ATOM      4  C   UNL A   1      47.708  28.836  26.710  1.00  0.00     0.261 C 
BRANCH   4   5
ATOM      5  O   UNL A   1      48.518  28.667  25.525  1.00  0.00    -0.463 OA
BRANCH   5   6
ATOM      6  C   UNL A   1      48.170  27.679  24.657  1.00  0.00     0.316 C 
ATOM      7  O   UNL A   1      47.853  27.887  23.489  1.00  0.00    -0.251 OA
BRANCH   6   8
ATOM      8  C   UNL A   1      48.393  26.263  25.187  1.00  0.00     0.200 C 
BRANCH   8   9
ATOM      9  S   UNL A   1      47.950  24.906  24.051  1.00  0.00    -0.076 SA
BRANCH   9  10
ATOM     10  C   UNL A   1      46.398  24.330  24.669  1.00  0.00     0.170 A 
ATOM     11  C   UNL A   1      42.397  23.128  29.240  1.00  0.00     0.057 C 
ATOM     12  C   UNL A   1      43.316  23.368  28.083  1.00  0.00     0.007 A 
ATOM     13  S   UNL A   1      44.507  24.601  28.137  1.00  0.00    -0.122 S 
ATOM     14  C   UNL A   1      43.350  22.665  26.886  1.00  0.00    -0.022 A 
ATOM     15  C   UNL A   1      45.018  24.260  26.562  1.00  0.00     0.108 A 
ATOM     16  C   UNL A   1      44.250  23.302  25.950  1.00  0.00     0.080 A 
ATOM     17  C   UNL A   1      42.568  21.413  26.660  1.00  0.00     0.046 C 
ATOM     18  N   UNL A   1      46.053  24.821  25.903  1.00  0.00    -0.326 N 
ATOM     19  C   UNL A   1      44.460  23.097  24.516  1.00  0.00     0.282 A 
ATOM     20  H   UNL A   1      46.552  25.571  26.300  1.00  0.00     0.169 HD
ATOM     21  N   UNL A   1      45.694  23.478  23.994  1.00  0.00    -0.185 NA
ATOM     22  O   UNL A   1      43.566  22.685  23.795  1.00  0.00    -0.267 OA
ENDBRANCH   9  10
ENDBRANCH   8   9
ENDBRANCH   6   8
ENDBRANCH   5   6
ENDBRANCH   4   5
ENDBRANCH   3   4
ENDBRANCH   2   3
ENDBRANCH   1   2
BRANCH   1  23
ATOM     23  C   UNL A   1      44.535  32.443  26.187  1.00  0.00     0.188 C 
BRANCH  23  24
ATOM     24  O   UNL A   1      44.430  32.848  24.834  1.00  0.00    -0.376 OA
BRANCH  24  25
ATOM     25  C   UNL A   1      43.795  34.095  24.626  1.00  0.00     0.202 C 
BRANCH  25  26
ATOM     26  C   UNL A   1      43.848  35.002  25.864  1.00  0.00     0.261 C 
BRANCH  26  27
ATOM     27  O   UNL A   1      42.693  35.854  26.048  1.00  0.00    -0.460 OA
BRANCH  27  28
ATOM     28  C   UNL A   1      42.880  36.813  26.974  1.00  0.00     0.338 C 
ATOM     29  O   UNL A   1      43.232  37.960  26.745  1.00  0.00    -0.246 OA
BRANCH  28  30
ATOM     30  C   UNL A   1      42.625  36.367  28.354  1.00  0.00     0.060 A 
ATOM     31  C   UNL A   1      43.649  36.217  29.298  1.00  0.00     0.016 A 
ATOM     32  C   UNL A   1      41.427  35.688  28.509  1.00  0.00     0.016 A 
ATOM     33  C   UNL A   1      43.521  35.257  30.319  1.00  0.00     0.010 A 
ATOM     34  C   UNL A   1      41.325  34.716  29.497  1.00  0.00     0.010 A 
ATOM     35  C   UNL A   1      42.395  34.426  30.367  1.00  0.00    -0.014 A 
BRANCH  35  36
ATOM     36  C   UNL A   1      42.358  33.246  31.307  1.00  0.00     0.031 A 
ATOM     37  C   UNL A   1      40.935  32.977  31.749  1.00  0.00     0.074 A 
ATOM     38  C   UNL A   1      43.043  32.115  30.985  1.00  0.00     0.049 A 
ATOM     39  N   UNL A   1      40.031  32.313  31.083  1.00  0.00    -0.248 NA
ATOM     40  C   UNL A   1      40.395  33.791  32.839  1.00  0.00     0.031 C 
ATOM     41  C   UNL A   1      42.810  31.374  29.745  1.00  0.00     0.029 A 
ATOM     42  N   UNL A   1      43.648  31.177  31.817  1.00  0.00    -0.354 N 
ATOM     43  C   UNL A   1      38.802  32.728  31.569  1.00  0.00     0.074 A 
ATOM     44  C   UNL A   1      39.078  33.627  32.667  1.00  0.00     0.031 C 
ATOM     45  C   UNL A   1      43.192  30.097  29.899  1.00  0.00     0.029 A 
ATOM     46  C   UNL A   1      43.674  29.897  31.262  1.00  0.00     0.049 A 
ATOM     47  H   UNL A   1      44.018  31.394  32.703  1.00  0.00     0.167 HD
ATOM     48  C   UNL A   1      37.608  32.383  31.022  1.00  0.00     0.037 A 
ATOM     49  C   UNL A   1      43.520  28.734  31.958  1.00  0.00     0.037 A 
ATOM     50  C   UNL A   1      37.620  31.411  29.975  1.00  0.00     0.049 A 
ATOM     51  C   UNL A   1      42.054  28.431  31.789  1.00  0.00     0.074 A 
ATOM     52  C   UNL A   1      37.443  31.364  28.610  1.00  0.00     0.029 A 
ATOM     53  N   UNL A   1      37.782  30.100  30.351  1.00  0.00    -0.354 N 
ATOM     54  N   UNL A   1      41.468  27.826  30.788  1.00  0.00    -0.248 NA
ATOM     55  C   UNL A   1      41.150  29.191  32.654  1.00  0.00     0.031 C 
ATOM     56  C   UNL A   1      37.942  30.088  28.200  1.00  0.00     0.029 A 
ATOM     57  C   UNL A   1      38.442  29.460  29.339  1.00  0.00     0.049 A 
ATOM     58  H   UNL A   1      37.477  29.695  31.194  1.00  0.00     0.167 HD
ATOM     59  C   UNL A   1      40.191  28.398  30.725  1.00  0.00     0.074 A 
ATOM     60  C   UNL A   1      40.028  29.146  31.954  1.00  0.00     0.031 C 
ATOM     61  C   UNL A   1      39.443  28.444  29.582  1.00  0.00     0.037 A 
BRANCH  48  62
ATOM     62  C   UNL A   1      36.314  32.835  31.555  1.00  0.00     0.057 A 
ATOM     63  C   UNL A   1      35.825  32.422  32.795  1.00  0.00     0.134 A 
ATOM     64  C   UNL A   1      35.639  33.859  30.883  1.00  0.00     0.134 A 
ATOM     65  F   UNL A   1      36.442  31.451  33.485  1.00  0.00    -0.206 F 
ATOM     66  C   UNL A   1      34.710  33.039  33.365  1.00  0.00     0.040 A 
ATOM     67  C   UNL A   1      34.532  34.488  31.443  1.00  0.00     0.040 A 
ATOM     68  F   UNL A   1      36.082  34.287  29.689  1.00  0.00    -0.206 F 
ATOM     69  C   UNL A   1      34.071  34.085  32.695  1.00  0.00     0.006 A 
ENDBRANCH  48  62
BRANCH  49  70
ATOM     70  C   UNL A   1      44.284  28.535  33.218  1.00  0.00     0.057 A 
ATOM     71  C   UNL A   1      44.216  29.318  34.377  1.00  0.00     0.134 A 
ATOM     72  C   UNL A   1      45.164  27.438  33.272  1.00  0.00     0.134 A 
ATOM     73  F   UNL A   1      43.345  30.325  34.499  1.00  0.00    -0.206 F 
ATOM     74  C   UNL A   1      45.057  29.097  35.475  1.00  0.00     0.040 A 
ATOM     75  C   UNL A   1      45.990  27.188  34.372  1.00  0.00     0.040 A 
ATOM     76  F   UNL A   1      45.231  26.575  32.246  1.00  0.00    -0.206 F 
ATOM     77  C   UNL A   1      45.956  28.037  35.471  1.00  0.00     0.006 A 
ENDBRANCH  49  70
BRANCH  61  78
ATOM     78  C   UNL A   1      39.899  27.582  28.460  1.00  0.00     0.057 A 
ATOM     79  C   UNL A   1      39.607  26.214  28.404  1.00  0.00     0.134 A 
ATOM     80  C   UNL A   1      40.716  28.113  27.458  1.00  0.00     0.134 A 
ATOM     81  F   UNL A   1      38.818  25.637  29.325  1.00  0.00    -0.206 F 
ATOM     82  C   UNL A   1      40.149  25.393  27.414  1.00  0.00     0.040 A 
ATOM     83  C   UNL A   1      41.246  27.307  26.450  1.00  0.00     0.040 A 
ATOM     84  F   UNL A   1      41.046  29.414  27.466  1.00  0.00    -0.206 F 
ATOM     85  C   UNL A   1      40.974  25.940  26.435  1.00  0.00     0.006 A 
ENDBRANCH  61  78
ENDBRANCH  35  36
ENDBRANCH  28  30
ENDBRANCH  27  28
ENDBRANCH  26  27
ENDBRANCH  25  26
ENDBRANCH  24  25
ENDBRANCH  23  24
ENDBRANCH   1  23
TORSDOF 19
ENDMDL
MODEL 2
REMARK VINA RESULT:      -9.3      5.499     11.949
REMARK SMILES Cc1sc2[nH]c(SCC(=O)OCCOCCOCCOC(=O)c3ccc(-c4c5nc(c(-c6c(F)cccc6F)c6ccc([nH]6)c(-c6c(F)cccc6F)c6nc(c(-c7c(F)cccc7F)c7ccc4[nH]7)C=C6)C=C5)cc3)nc(=O)c2c1C
REMARK SMILES IDX 15 1 14 2 13 3 12 4 11 5 9 6 10 7 8 8 7 9 6 10 1 11 2 12
REMARK SMILES IDX 3 13 81 14 4 15 80 16 82 17 5 18 78 19 77 21 79 22 16 23
REMARK SMILES IDX 17 24 18 25 19 26 20 27 21 28 22 29 23 30 24 31 76 32 25 33
REMARK SMILES IDX 75 34 26 35 27 36 28 37 69 38 29 39 74 40 68 41 70 42 30 43
REMARK SMILES IDX 73 44 67 45 66 46 31 48 57 49 40 50 56 51 41 52 44 53 55 54
REMARK SMILES IDX 71 55 42 56 43 57 54 59 72 60 45 61 32 62 33 63 38 64 34 65
REMARK SMILES IDX 35 66 37 67 39 68 36 69 58 70 59 71 64 72 60 73 61 74 63 75
REMARK SMILES IDX 65 76 62 77 46 78 47 79 52 80 48 81 49 82 51 83 53 84 50 85
REMARK H PARENT 5 20 70 47 44 58
REMARK Flexibility Score: inf
ROOT
ATOM      1  C   UNL A   1      35.024  21.637  24.653  1.00  0.00     0.188 C 
ENDROOT
BRANCH   1   2
ATOM      2  O   UNL A   1      34.023  22.638  24.495  1.00  0.00    -0.376 OA
BRANCH   2   3
ATOM      3  C   UNL A   1      33.958  23.341  23.255  1.00  0.00     0.202 C 
BRANCH   3   4
ATOM      4  C   UNL A   1      32.546  23.621  22.722  1.00  0.00     0.261 C 
BRANCH   4   5
ATOM      5  O   UNL A   1      32.186  25.016  22.848  1.00  0.00    -0.463 OA
BRANCH   5   6
ATOM      6  C   UNL A   1      33.065  25.941  22.376  1.00  0.00     0.316 C 
ATOM      7  O   UNL A   1      33.469  25.958  21.217  1.00  0.00    -0.251 OA
BRANCH   6   8
ATOM      8  C   UNL A   1      33.362  27.084  23.346  1.00  0.00     0.200 C 
BRANCH   8   9
ATOM      9  S   UNL A   1      31.925  27.773  24.232  1.00  0.00    -0.076 SA
BRANCH   9  10
ATOM     10  C   UNL A   1      32.649  28.805  25.470  1.00  0.00     0.170 A 
ATOM     11  C   UNL A   1      33.296  34.191  28.457  1.00  0.00     0.057 C 
ATOM     12  C   UNL A   1      33.214  32.864  27.771  1.00  0.00     0.007 A 
ATOM     13  S   UNL A   1      31.768  32.346  27.009  1.00  0.00    -0.122 S 
ATOM     14  C   UNL A   1      34.232  31.928  27.643  1.00  0.00    -0.022 A 
ATOM     15  C   UNL A   1      32.456  30.864  26.574  1.00  0.00     0.108 A 
ATOM     16  C   UNL A   1      33.724  30.700  27.073  1.00  0.00     0.080 A 
ATOM     17  C   UNL A   1      35.647  32.213  28.028  1.00  0.00     0.046 C 
ATOM     18  N   UNL A   1      31.892  29.893  25.826  1.00  0.00    -0.326 N 
ATOM     19  C   UNL A   1      34.319  29.368  26.951  1.00  0.00     0.282 A 
ATOM     20  H   UNL A   1      30.952  29.963  25.540  1.00  0.00     0.169 HD
ATOM     21  N   UNL A   1      33.824  28.540  25.947  1.00  0.00    -0.185 NA
ATOM     22  O   UNL A   1      35.157  28.972  27.745  1.00  0.00    -0.267 OA
ENDBRANCH   9  10
ENDBRANCH   8   9
ENDBRANCH   6   8
ENDBRANCH   5   6
ENDBRANCH   4   5
ENDBRANCH   3   4
ENDBRANCH   2   3
ENDBRANCH   1   2
BRANCH   1  23
ATOM     23  C   UNL A   1      36.490  22.091  24.667  1.00  0.00     0.188 C 
BRANCH  23  24
ATOM     24  O   UNL A   1      37.407  21.013  24.700  1.00  0.00    -0.376 OA
BRANCH  24  25
ATOM     25  C   UNL A   1      38.563  21.228  25.488  1.00  0.00     0.202 C 
BRANCH  25  26
ATOM     26  C   UNL A   1      39.393  19.951  25.683  1.00  0.00     0.261 C 
BRANCH  26  27
ATOM     27  O   UNL A   1      40.457  20.056  26.657  1.00  0.00    -0.460 OA
BRANCH  27  28
ATOM     28  C   UNL A   1      41.641  19.599  26.207  1.00  0.00     0.338 C 
ATOM     29  O   UNL A   1      41.829  18.504  25.696  1.00  0.00    -0.246 OA
BRANCH  28  30
ATOM     30  C   UNL A   1      42.753  20.547  26.383  1.00  0.00     0.060 A 
ATOM     31  C   UNL A   1      42.656  21.677  27.205  1.00  0.00     0.016 A 
ATOM     32  C   UNL A   1      43.691  20.503  25.364  1.00  0.00     0.016 A 
ATOM     33  C   UNL A   1      43.402  22.828  26.898  1.00  0.00     0.010 A 
ATOM     34  C   UNL A   1      44.395  21.657  25.045  1.00  0.00     0.010 A 
ATOM     35  C   UNL A   1      44.207  22.863  25.752  1.00  0.00    -0.014 A 
BRANCH  35  36
ATOM     36  C   UNL A   1      44.821  24.160  25.288  1.00  0.00     0.031 A 
ATOM     37  C   UNL A   1      43.997  25.332  25.782  1.00  0.00     0.074 A 
ATOM     38  C   UNL A   1      46.160  24.352  25.425  1.00  0.00     0.049 A 
ATOM     39  N   UNL A   1      44.057  25.874  26.967  1.00  0.00    -0.248 NA
ATOM     40  C   UNL A   1      42.798  25.691  25.022  1.00  0.00     0.031 C 
ATOM     41  C   UNL A   1      46.844  24.272  26.716  1.00  0.00     0.029 A 
ATOM     42  N   UNL A   1      47.036  25.094  24.637  1.00  0.00    -0.354 N 
ATOM     43  C   UNL A   1      42.850  26.524  27.163  1.00  0.00     0.074 A 
ATOM     44  C   UNL A   1      42.112  26.400  25.926  1.00  0.00     0.031 C 
ATOM     45  C   UNL A   1      47.983  24.979  26.672  1.00  0.00     0.029 A 
ATOM     46  C   UNL A   1      48.116  25.601  25.358  1.00  0.00     0.049 A 
ATOM     47  H   UNL A   1      46.906  25.243  23.673  1.00  0.00     0.167 HD
ATOM     48  C   UNL A   1      42.463  27.080  28.340  1.00  0.00     0.037 A 
ATOM     49  C   UNL A   1      48.701  26.817  25.151  1.00  0.00     0.037 A 
ATOM     50  C   UNL A   1      43.426  27.126  29.393  1.00  0.00     0.049 A 
ATOM     51  C   UNL A   1      48.019  27.697  26.166  1.00  0.00     0.074 A 
ATOM     52  C   UNL A   1      43.669  26.501  30.596  1.00  0.00     0.029 A 
ATOM     53  N   UNL A   1      44.397  28.094  29.301  1.00  0.00    -0.354 N 
ATOM     54  N   UNL A   1      48.320  27.849  27.430  1.00  0.00    -0.248 NA
ATOM     55  C   UNL A   1      46.680  28.160  25.799  1.00  0.00     0.031 C 
ATOM     56  C   UNL A   1      45.017  26.835  30.939  1.00  0.00     0.029 A 
ATOM     57  C   UNL A   1      45.527  27.601  29.892  1.00  0.00     0.049 A 
ATOM     58  H   UNL A   1      44.297  28.981  28.886  1.00  0.00     0.167 HD
ATOM     59  C   UNL A   1      47.097  28.121  28.057  1.00  0.00     0.074 A 
ATOM     60  C   UNL A   1      46.157  28.399  26.991  1.00  0.00     0.031 C 
ATOM     61  C   UNL A   1      46.853  27.860  29.375  1.00  0.00     0.037 A 
BRANCH  48  62
ATOM     62  C   UNL A   1      41.176  27.767  28.525  1.00  0.00     0.057 A 
ATOM     63  C   UNL A   1      41.008  29.131  28.282  1.00  0.00     0.134 A 
ATOM     64  C   UNL A   1      40.037  26.992  28.771  1.00  0.00     0.134 A 
ATOM     65  F   UNL A   1      42.067  29.915  28.030  1.00  0.00    -0.206 F 
ATOM     66  C   UNL A   1      39.734  29.699  28.251  1.00  0.00     0.040 A 
ATOM     67  C   UNL A   1      38.763  27.544  28.735  1.00  0.00     0.040 A 
ATOM     68  F   UNL A   1      40.158  25.674  29.004  1.00  0.00    -0.206 F 
ATOM     69  C   UNL A   1      38.607  28.902  28.463  1.00  0.00     0.006 A 
ENDBRANCH  48  62
BRANCH  49  70
ATOM     70  C   UNL A   1      49.039  27.232  23.764  1.00  0.00     0.057 A 
ATOM     71  C   UNL A   1      48.160  27.741  22.799  1.00  0.00     0.134 A 
ATOM     72  C   UNL A   1      50.384  27.121  23.368  1.00  0.00     0.134 A 
ATOM     73  F   UNL A   1      46.877  27.998  23.077  1.00  0.00    -0.206 F 
ATOM     74  C   UNL A   1      48.570  28.009  21.487  1.00  0.00     0.040 A 
ATOM     75  C   UNL A   1      50.814  27.410  22.068  1.00  0.00     0.040 A 
ATOM     76  F   UNL A   1      51.318  26.731  24.249  1.00  0.00    -0.206 F 
ATOM     77  C   UNL A   1      49.897  27.832  21.114  1.00  0.00     0.006 A 
ENDBRANCH  49  70
BRANCH  61  78
ATOM     78  C   UNL A   1      48.040  27.559  30.220  1.00  0.00     0.057 A 
ATOM     79  C   UNL A   1      48.817  28.569  30.801  1.00  0.00     0.134 A 
ATOM     80  C   UNL A   1      48.462  26.237  30.385  1.00  0.00     0.134 A 
ATOM     81  F   UNL A   1      48.466  29.860  30.694  1.00  0.00    -0.206 F 
ATOM     82  C   UNL A   1      50.000  28.276  31.482  1.00  0.00     0.040 A 
ATOM     83  C   UNL A   1      49.631  25.931  31.083  1.00  0.00     0.040 A 
ATOM     84  F   UNL A   1      47.769  25.227  29.837  1.00  0.00    -0.206 F 
ATOM     85  C   UNL A   1      50.411  26.953  31.620  1.00  0.00     0.006 A 
ENDBRANCH  61  78
ENDBRANCH  35  36
ENDBRANCH  28  30
ENDBRANCH  27  28
ENDBRANCH  26  27
ENDBRANCH  25  26
ENDBRANCH  24  25
ENDBRANCH  23  24
ENDBRANCH   1  23
TORSDOF 19
ENDMDL
MODEL 3
REMARK VINA RESULT:      -8.6      4.685     11.393
REMARK SMILES Cc1sc2[nH]c(SCC(=O)OCCOCCOCCOC(=O)c3ccc(-c4c5nc(c(-c6c(F)cccc6F)c6ccc([nH]6)c(-c6c(F)cccc6F)c6nc(c(-c7c(F)cccc7F)c7ccc4[nH]7)C=C6)C=C5)cc3)nc(=O)c2c1C
REMARK SMILES IDX 15 1 14 2 13 3 12 4 11 5 9 6 10 7 8 8 7 9 6 10 1 11 2 12
REMARK SMILES IDX 3 13 81 14 4 15 80 16 82 17 5 18 78 19 77 21 79 22 16 23
REMARK SMILES IDX 17 24 18 25 19 26 20 27 21 28 22 29 23 30 24 31 76 32 25 33
REMARK SMILES IDX 75 34 26 35 27 36 28 37 69 38 29 39 74 40 68 41 70 42 30 43
REMARK SMILES IDX 73 44 67 45 66 46 31 48 57 49 40 50 56 51 41 52 44 53 55 54
REMARK SMILES IDX 71 55 42 56 43 57 54 59 72 60 45 61 32 62 33 63 38 64 34 65
REMARK SMILES IDX 35 66 37 67 39 68 36 69 58 70 59 71 64 72 60 73 61 74 63 75
REMARK SMILES IDX 65 76 62 77 46 78 47 79 52 80 48 81 49 82 51 83 53 84 50 85
REMARK H PARENT 5 20 70 47 44 58
REMARK Flexibility Score: inf
ROOT
ATOM      1  C   UNL A   1      33.507  23.463  24.153  1.00  0.00     0.188 C 
ENDROOT
BRANCH   1   2
ATOM      2  O   UNL A   1      33.174  24.681  24.811  1.00  0.00    -0.376 OA
BRANCH   2   3
ATOM      3  C   UNL A   1      33.965  25.837  24.538  1.00  0.00     0.202 C 
BRANCH   3   4
ATOM      4  C   UNL A   1      33.284  27.187  24.803  1.00  0.00     0.261 C 
BRANCH   4   5
ATOM      5  O   UNL A   1      33.511  27.653  26.153  1.00  0.00    -0.463 OA
BRANCH   5   6
ATOM      6  C   UNL A   1      33.862  28.957  26.320  1.00  0.00     0.316 C 
ATOM      7  O   UNL A   1      33.421  29.869  25.626  1.00  0.00    -0.251 OA
BRANCH   6   8
ATOM      8  C   UNL A   1      34.697  29.232  27.571  1.00  0.00     0.200 C 
BRANCH   8   9
ATOM      9  S   UNL A   1      35.232  30.959  27.809  1.00  0.00    -0.076 SA
BRANCH   9  10
ATOM     10  C   UNL A   1      35.483  31.085  29.554  1.00  0.00     0.170 A 
ATOM     11  C   UNL A   1      35.505  34.209  34.900  1.00  0.00     0.057 C 
ATOM     12  C   UNL A   1      35.547  33.393  33.647  1.00  0.00     0.007 A 
ATOM     13  S   UNL A   1      34.517  33.746  32.322  1.00  0.00    -0.122 S 
ATOM     14  C   UNL A   1      36.382  32.315  33.382  1.00  0.00    -0.022 A 
ATOM     15  C   UNL A   1      35.116  32.440  31.430  1.00  0.00     0.108 A 
ATOM     16  C   UNL A   1      36.007  31.677  32.140  1.00  0.00     0.080 A 
ATOM     17  C   UNL A   1      37.516  31.930  34.276  1.00  0.00     0.046 C 
ATOM     18  N   UNL A   1      34.803  32.111  30.159  1.00  0.00    -0.326 N 
ATOM     19  C   UNL A   1      36.409  30.400  31.547  1.00  0.00     0.282 A 
ATOM     20  H   UNL A   1      34.099  32.599  29.674  1.00  0.00     0.169 HD
ATOM     21  N   UNL A   1      36.288  30.275  30.165  1.00  0.00    -0.185 NA
ATOM     22  O   UNL A   1      36.758  29.459  32.241  1.00  0.00    -0.267 OA
ENDBRANCH   9  10
ENDBRANCH   8   9
ENDBRANCH   6   8
ENDBRANCH   5   6
ENDBRANCH   4   5
ENDBRANCH   3   4
ENDBRANCH   2   3
ENDBRANCH   1   2
BRANCH   1  23
ATOM     23  C   UNL A   1      34.906  23.347  23.532  1.00  0.00     0.188 C 
BRANCH  23  24
ATOM     24  O   UNL A   1      35.737  22.416  24.200  1.00  0.00    -0.376 OA
BRANCH  24  25
ATOM     25  C   UNL A   1      36.792  22.982  24.954  1.00  0.00     0.202 C 
BRANCH  25  26
ATOM     26  C   UNL A   1      37.811  21.934  25.426  1.00  0.00     0.261 C 
BRANCH  26  27
ATOM     27  O   UNL A   1      38.811  22.426  26.349  1.00  0.00    -0.460 OA
BRANCH  27  28
ATOM     28  C   UNL A   1      39.927  21.673  26.379  1.00  0.00     0.338 C 
ATOM     29  O   UNL A   1      39.970  20.465  26.199  1.00  0.00    -0.246 OA
BRANCH  28  30
ATOM     30  C   UNL A   1      41.153  22.435  26.663  1.00  0.00     0.060 A 
ATOM     31  C   UNL A   1      41.137  23.670  27.324  1.00  0.00     0.016 A 
ATOM     32  C   UNL A   1      42.225  22.091  25.855  1.00  0.00     0.016 A 
ATOM     33  C   UNL A   1      42.131  24.624  27.045  1.00  0.00     0.010 A 
ATOM     34  C   UNL A   1      43.181  23.053  25.555  1.00  0.00     0.010 A 
ATOM     35  C   UNL A   1      43.110  24.360  26.079  1.00  0.00    -0.014 A 
BRANCH  35  36
ATOM     36  C   UNL A   1      44.031  25.457  25.605  1.00  0.00     0.031 A 
ATOM     37  C   UNL A   1      43.667  26.767  26.273  1.00  0.00     0.074 A 
ATOM     38  C   UNL A   1      45.372  25.232  25.563  1.00  0.00     0.049 A 
ATOM     39  N   UNL A   1      44.028  27.153  27.466  1.00  0.00    -0.248 NA
ATOM     40  C   UNL A   1      42.554  27.533  25.710  1.00  0.00     0.031 C 
ATOM     41  C   UNL A   1      46.146  24.833  26.738  1.00  0.00     0.029 A 
ATOM     42  N   UNL A   1      46.332  25.754  24.701  1.00  0.00    -0.354 N 
ATOM     43  C   UNL A   1      43.108  28.108  27.865  1.00  0.00     0.074 A 
ATOM     44  C   UNL A   1      42.228  28.324  26.738  1.00  0.00     0.031 C 
ATOM     45  C   UNL A   1      47.432  25.174  26.574  1.00  0.00     0.029 A 
ATOM     46  C   UNL A   1      47.593  25.850  25.290  1.00  0.00     0.049 A 
ATOM     47  H   UNL A   1      46.142  26.026  23.775  1.00  0.00     0.167 HD
ATOM     48  C   UNL A   1      43.050  28.640  29.113  1.00  0.00     0.037 A 
ATOM     49  C   UNL A   1      48.492  26.853  25.070  1.00  0.00     0.037 A 
ATOM     50  C   UNL A   1      44.098  28.300  30.021  1.00  0.00     0.049 A 
ATOM     51  C   UNL A   1      48.234  27.795  26.217  1.00  0.00     0.074 A 
ATOM     52  C   UNL A   1      44.279  27.520  31.142  1.00  0.00     0.029 A 
ATOM     53  N   UNL A   1      45.299  28.943  29.847  1.00  0.00    -0.354 N 
ATOM     54  N   UNL A   1      48.713  27.732  27.432  1.00  0.00    -0.248 NA
ATOM     55  C   UNL A   1      47.066  28.665  26.068  1.00  0.00     0.031 C 
ATOM     56  C   UNL A   1      45.695  27.409  31.310  1.00  0.00     0.029 A 
ATOM     57  C   UNL A   1      46.288  28.086  30.246  1.00  0.00     0.049 A 
ATOM     58  H   UNL A   1      45.426  29.855  29.499  1.00  0.00     0.167 HD
ATOM     59  C   UNL A   1      47.714  28.292  28.239  1.00  0.00     0.074 A 
ATOM     60  C   UNL A   1      46.785  28.934  27.333  1.00  0.00     0.031 C 
ATOM     61  C   UNL A   1      47.559  27.991  29.562  1.00  0.00     0.037 A 
BRANCH  48  62
ATOM     62  C   UNL A   1      42.064  29.654  29.515  1.00  0.00     0.057 A 
ATOM     63  C   UNL A   1      40.861  29.327  30.143  1.00  0.00     0.134 A 
ATOM     64  C   UNL A   1      42.426  31.003  29.435  1.00  0.00     0.134 A 
ATOM     65  F   UNL A   1      40.474  28.048  30.256  1.00  0.00    -0.206 F 
ATOM     66  C   UNL A   1      40.059  30.320  30.708  1.00  0.00     0.040 A 
ATOM     67  C   UNL A   1      41.640  31.999  30.000  1.00  0.00     0.040 A 
ATOM     68  F   UNL A   1      43.578  31.356  28.841  1.00  0.00    -0.206 F 
ATOM     69  C   UNL A   1      40.455  31.657  30.650  1.00  0.00     0.006 A 
ENDBRANCH  48  62
BRANCH  49  70
ATOM     70  C   UNL A   1      48.774  27.280  23.674  1.00  0.00     0.057 A 
ATOM     71  C   UNL A   1      47.876  27.866  22.773  1.00  0.00     0.134 A 
ATOM     72  C   UNL A   1      50.085  27.095  23.196  1.00  0.00     0.134 A 
ATOM     73  F   UNL A   1      46.630  28.195  23.131  1.00  0.00    -0.206 F 
ATOM     74  C   UNL A   1      48.225  28.139  21.445  1.00  0.00     0.040 A 
ATOM     75  C   UNL A   1      50.456  27.388  21.880  1.00  0.00     0.040 A 
ATOM     76  F   UNL A   1      51.041  26.626  24.013  1.00  0.00    -0.206 F 
ATOM     77  C   UNL A   1      49.515  27.889  20.990  1.00  0.00     0.006 A 
ENDBRANCH  49  70
BRANCH  61  78
ATOM     78  C   UNL A   1      48.688  27.275  30.214  1.00  0.00     0.057 A 
ATOM     79  C   UNL A   1      48.714  25.880  30.338  1.00  0.00     0.134 A 
ATOM     80  C   UNL A   1      49.728  27.999  30.802  1.00  0.00     0.134 A 
ATOM     81  F   UNL A   1      47.755  25.118  29.788  1.00  0.00    -0.206 F 
ATOM     82  C   UNL A   1      49.714  25.232  31.065  1.00  0.00     0.040 A 
ATOM     83  C   UNL A   1      50.746  27.361  31.512  1.00  0.00     0.040 A 
ATOM     84  F   UNL A   1      49.750  29.339  30.731  1.00  0.00    -0.206 F 
ATOM     85  C   UNL A   1      50.732  25.975  31.657  1.00  0.00     0.006 A 
ENDBRANCH  61  78
ENDBRANCH  35  36
ENDBRANCH  28  30
ENDBRANCH  27  28
ENDBRANCH  26  27
ENDBRANCH  25  26
ENDBRANCH  24  25
ENDBRANCH  23  24
ENDBRANCH   1  23
TORSDOF 19
ENDMDL
