MODEL 1
REMARK VINA RESULT:     -10.9      0.000      0.000
REMARK SMILES C#Cc1ccc2c(c1)C=C(C(=O)OCCOCCOCCOC(=O)c1ccc(-c3c4nc(c(-c5c(F)cccc5F)c5ccc([nH]5)c(-c5c(F)cccc5F)c5nc(c(-c6c(F)cccc6F)c6ccc3[nH]6)C=C5)C=C4)cc1)[C@@H](C(F)(F)F)O2
REMARK SMILES IDX 18 1 17 2 16 3 15 4 14 5 13 6 11 7 12 8 10 9 3 10 4 11 8 12
REMARK SMILES IDX 5 13 7 14 6 15 9 16 84 17 79 18 2 19 1 20 80 21 81 22 82 23
REMARK SMILES IDX 83 24 19 25 20 26 21 27 22 28 23 29 24 30 25 31 26 32 78 33
REMARK SMILES IDX 27 34 77 35 28 36 29 37 30 38 71 39 31 40 76 41 70 42 72 43
REMARK SMILES IDX 32 44 75 45 69 46 68 47 33 49 59 50 42 51 58 52 43 53 46 54
REMARK SMILES IDX 57 55 73 56 44 57 45 58 56 60 74 61 47 62 34 63 35 64 40 65
REMARK SMILES IDX 36 66 37 67 39 68 41 69 38 70 60 71 61 72 66 73 62 74 63 75
REMARK SMILES IDX 65 76 67 77 64 78 48 79 49 80 54 81 50 82 51 83 53 84 55 85
REMARK SMILES IDX 52 86
REMARK H PARENT 72 48 46 59
REMARK Flexibility Score: inf
ROOT
ATOM      1  C   UNL A   1      42.437  20.350  26.583  1.00  0.00     0.188 C 
ENDROOT
BRANCH   1   2
ATOM      2  C   UNL A   1      40.945  20.741  26.617  1.00  0.00     0.188 C 
BRANCH   2   3
ATOM      3  O   UNL A   1      40.578  21.905  27.319  1.00  0.00    -0.376 OA
BRANCH   3   4
ATOM      4  C   UNL A   1      39.523  22.731  26.862  1.00  0.00     0.202 C 
BRANCH   4   5
ATOM      5  C   UNL A   1      38.449  22.331  25.828  1.00  0.00     0.261 C 
BRANCH   5   6
ATOM      6  O   UNL A   1      37.485  23.321  25.454  1.00  0.00    -0.460 OA
BRANCH   6   7
ATOM      7  C   UNL A   1      36.648  22.978  24.445  1.00  0.00     0.338 C 
ATOM      8  O   UNL A   1      36.924  22.303  23.467  1.00  0.00    -0.246 OA
BRANCH   7   9
ATOM      9  C   UNL A   1      35.271  23.394  24.788  1.00  0.00     0.087 C 
ATOM     10  C   UNL A   1      32.272  26.810  26.361  1.00  0.00     0.025 A 
ATOM     11  C   UNL A   1      31.272  25.851  26.515  1.00  0.00     0.021 A 
ATOM     12  C   UNL A   1      33.506  26.450  25.812  1.00  0.00     0.029 A 
ATOM     13  C   UNL A   1      31.495  24.537  26.101  1.00  0.00     0.048 A 
ATOM     14  C   UNL A   1      33.750  25.119  25.448  1.00  0.00     0.018 A 
ATOM     15  C   UNL A   1      32.732  24.171  25.568  1.00  0.00     0.128 A 
ATOM     16  C   UNL A   1      35.076  24.699  25.025  1.00  0.00     0.027 C 
ATOM     17  O   UNL A   1      32.864  22.863  25.203  1.00  0.00    -0.475 OA
ATOM     18  C   UNL A   1      34.177  22.360  24.831  1.00  0.00     0.316 C 
BRANCH  10  19
ATOM     19  C   UNL A   1      32.051  28.154  26.807  1.00  0.00    -0.070 C 
ATOM     20  C   UNL A   1      31.868  29.270  27.204  1.00  0.00     0.010 C 
ENDBRANCH  10  19
BRANCH  18  21
ATOM     21  C   UNL A   1      34.531  21.194  25.763  1.00  0.00     0.430 C 
ATOM     22  F   UNL A   1      33.420  20.539  26.178  1.00  0.00    -0.167 F 
ATOM     23  F   UNL A   1      35.314  20.279  25.144  1.00  0.00    -0.167 F 
ATOM     24  F   UNL A   1      35.193  21.614  26.865  1.00  0.00    -0.167 F 
ENDBRANCH  18  21
ENDBRANCH   7   9
ENDBRANCH   6   7
ENDBRANCH   5   6
ENDBRANCH   4   5
ENDBRANCH   3   4
ENDBRANCH   2   3
ENDBRANCH   1   2
BRANCH   1  25
ATOM     25  O   UNL A   1      43.118  20.389  25.351  1.00  0.00    -0.376 OA
BRANCH  25  26
ATOM     26  C   UNL A   1      44.175  21.317  25.164  1.00  0.00     0.202 C 
BRANCH  26  27
ATOM     27  C   UNL A   1      44.162  22.507  24.177  1.00  0.00     0.261 C 
BRANCH  27  28
ATOM     28  O   UNL A   1      43.630  23.760  24.623  1.00  0.00    -0.460 OA
BRANCH  28  29
ATOM     29  C   UNL A   1      44.527  24.663  25.098  1.00  0.00     0.338 C 
ATOM     30  O   UNL A   1      45.611  24.947  24.624  1.00  0.00    -0.246 OA
BRANCH  29  31
ATOM     31  C   UNL A   1      43.877  25.424  26.189  1.00  0.00     0.060 A 
ATOM     32  C   UNL A   1      42.870  24.832  26.949  1.00  0.00     0.016 A 
ATOM     33  C   UNL A   1      44.253  26.757  26.426  1.00  0.00     0.016 A 
ATOM     34  C   UNL A   1      42.246  25.573  27.955  1.00  0.00     0.010 A 
ATOM     35  C   UNL A   1      43.611  27.503  27.421  1.00  0.00     0.010 A 
ATOM     36  C   UNL A   1      42.617  26.909  28.209  1.00  0.00    -0.014 A 
BRANCH  36  37
ATOM     37  C   UNL A   1      42.068  27.604  29.402  1.00  0.00     0.031 A 
ATOM     38  C   UNL A   1      42.715  27.517  30.753  1.00  0.00     0.074 A 
ATOM     39  C   UNL A   1      40.961  28.355  29.240  1.00  0.00     0.049 A 
ATOM     40  N   UNL A   1      42.408  28.158  31.854  1.00  0.00    -0.248 NA
ATOM     41  C   UNL A   1      43.847  26.591  30.890  1.00  0.00     0.031 C 
ATOM     42  C   UNL A   1      40.222  28.493  27.984  1.00  0.00     0.029 A 
ATOM     43  N   UNL A   1      40.278  29.153  30.120  1.00  0.00    -0.354 N 
ATOM     44  C   UNL A   1      43.323  27.739  32.810  1.00  0.00     0.074 A 
ATOM     45  C   UNL A   1      44.160  26.742  32.172  1.00  0.00     0.031 C 
ATOM     46  C   UNL A   1      39.215  29.361  28.162  1.00  0.00     0.029 A 
ATOM     47  C   UNL A   1      39.212  29.807  29.552  1.00  0.00     0.049 A 
ATOM     48  H   UNL A   1      40.528  29.249  31.068  1.00  0.00     0.167 HD
ATOM     49  C   UNL A   1      43.464  28.162  34.093  1.00  0.00     0.037 A 
ATOM     50  C   UNL A   1      38.327  30.668  30.088  1.00  0.00     0.037 A 
ATOM     51  C   UNL A   1      42.606  29.129  34.736  1.00  0.00     0.049 A 
ATOM     52  C   UNL A   1      38.461  31.054  31.535  1.00  0.00     0.074 A 
ATOM     53  C   UNL A   1      42.685  29.633  36.024  1.00  0.00     0.029 A 
ATOM     54  N   UNL A   1      41.497  29.722  34.149  1.00  0.00    -0.354 N 
ATOM     55  N   UNL A   1      39.380  30.710  32.405  1.00  0.00    -0.248 NA
ATOM     56  C   UNL A   1      37.433  31.954  32.074  1.00  0.00     0.031 C 
ATOM     57  C   UNL A   1      41.588  30.475  36.238  1.00  0.00     0.029 A 
ATOM     58  C   UNL A   1      40.865  30.557  35.061  1.00  0.00     0.049 A 
ATOM     59  H   UNL A   1      41.202  29.574  33.222  1.00  0.00     0.167 HD
ATOM     60  C   UNL A   1      39.059  31.377  33.581  1.00  0.00     0.074 A 
ATOM     61  C   UNL A   1      37.876  32.166  33.303  1.00  0.00     0.031 C 
ATOM     62  C   UNL A   1      39.684  31.338  34.783  1.00  0.00     0.037 A 
BRANCH  49  63
ATOM     63  C   UNL A   1      44.588  27.570  34.899  1.00  0.00     0.057 A 
ATOM     64  C   UNL A   1      44.391  26.420  35.675  1.00  0.00     0.134 A 
ATOM     65  C   UNL A   1      45.856  28.166  34.945  1.00  0.00     0.134 A 
ATOM     66  F   UNL A   1      43.197  25.808  35.698  1.00  0.00    -0.206 F 
ATOM     67  C   UNL A   1      45.413  25.882  36.460  1.00  0.00     0.040 A 
ATOM     68  C   UNL A   1      46.895  27.619  35.701  1.00  0.00     0.040 A 
ATOM     69  F   UNL A   1      46.113  29.273  34.233  1.00  0.00    -0.206 F 
ATOM     70  C   UNL A   1      46.674  26.475  36.465  1.00  0.00     0.006 A 
ENDBRANCH  49  63
BRANCH  50  71
ATOM     71  C   UNL A   1      37.225  31.226  29.263  1.00  0.00     0.057 A 
ATOM     72  C   UNL A   1      36.066  30.486  29.000  1.00  0.00     0.134 A 
ATOM     73  C   UNL A   1      37.279  32.535  28.767  1.00  0.00     0.134 A 
ATOM     74  F   UNL A   1      35.954  29.223  29.437  1.00  0.00    -0.206 F 
ATOM     75  C   UNL A   1      34.998  31.029  28.286  1.00  0.00     0.040 A 
ATOM     76  C   UNL A   1      36.203  33.103  28.083  1.00  0.00     0.040 A 
ATOM     77  F   UNL A   1      38.356  33.301  28.997  1.00  0.00    -0.206 F 
ATOM     78  C   UNL A   1      35.058  32.347  27.841  1.00  0.00     0.006 A 
ENDBRANCH  50  71
BRANCH  62  79
ATOM     79  C   UNL A   1      39.123  32.206  35.877  1.00  0.00     0.057 A 
ATOM     80  C   UNL A   1      39.511  33.548  35.994  1.00  0.00     0.134 A 
ATOM     81  C   UNL A   1      38.198  31.722  36.814  1.00  0.00     0.134 A 
ATOM     82  F   UNL A   1      40.401  34.077  35.141  1.00  0.00    -0.206 F 
ATOM     83  C   UNL A   1      38.998  34.375  36.995  1.00  0.00     0.040 A 
ATOM     84  C   UNL A   1      37.649  32.550  37.795  1.00  0.00     0.040 A 
ATOM     85  F   UNL A   1      37.771  30.451  36.756  1.00  0.00    -0.206 F 
ATOM     86  C   UNL A   1      38.053  33.879  37.890  1.00  0.00     0.006 A 
ENDBRANCH  62  79
ENDBRANCH  36  37
ENDBRANCH  29  31
ENDBRANCH  28  29
ENDBRANCH  27  28
ENDBRANCH  26  27
ENDBRANCH  25  26
ENDBRANCH   1  25
TORSDOF 19
ENDMDL
MODEL 2
REMARK VINA RESULT:     -10.6      0.661      6.156
REMARK SMILES C#Cc1ccc2c(c1)C=C(C(=O)OCCOCCOCCOC(=O)c1ccc(-c3c4nc(c(-c5c(F)cccc5F)c5ccc([nH]5)c(-c5c(F)cccc5F)c5nc(c(-c6c(F)cccc6F)c6ccc3[nH]6)C=C5)C=C4)cc1)[C@@H](C(F)(F)F)O2
REMARK SMILES IDX 18 1 17 2 16 3 15 4 14 5 13 6 11 7 12 8 10 9 3 10 4 11 8 12
REMARK SMILES IDX 5 13 7 14 6 15 9 16 84 17 79 18 2 19 1 20 80 21 81 22 82 23
REMARK SMILES IDX 83 24 19 25 20 26 21 27 22 28 23 29 24 30 25 31 26 32 78 33
REMARK SMILES IDX 27 34 77 35 28 36 29 37 30 38 71 39 31 40 76 41 70 42 72 43
REMARK SMILES IDX 32 44 75 45 69 46 68 47 33 49 59 50 42 51 58 52 43 53 46 54
REMARK SMILES IDX 57 55 73 56 44 57 45 58 56 60 74 61 47 62 34 63 35 64 40 65
REMARK SMILES IDX 36 66 37 67 39 68 41 69 38 70 60 71 61 72 66 73 62 74 63 75
REMARK SMILES IDX 65 76 67 77 64 78 48 79 49 80 54 81 50 82 51 83 53 84 55 85
REMARK SMILES IDX 52 86
REMARK H PARENT 72 48 46 59
REMARK Flexibility Score: inf
ROOT
ATOM      1  C   UNL A   1      41.706  19.729  26.508  1.00  0.00     0.188 C 
ENDROOT
BRANCH   1   2
ATOM      2  C   UNL A   1      41.069  20.795  27.424  1.00  0.00     0.188 C 
BRANCH   2   3
ATOM      3  O   UNL A   1      40.214  21.749  26.840  1.00  0.00    -0.376 OA
BRANCH   3   4
ATOM      4  C   UNL A   1      39.367  21.404  25.759  1.00  0.00     0.202 C 
BRANCH   4   5
ATOM      5  C   UNL A   1      37.824  21.460  25.771  1.00  0.00     0.261 C 
BRANCH   5   6
ATOM      6  O   UNL A   1      37.202  22.708  25.447  1.00  0.00    -0.460 OA
BRANCH   6   7
ATOM      7  C   UNL A   1      36.521  22.740  24.276  1.00  0.00     0.338 C 
ATOM      8  O   UNL A   1      36.908  22.327  23.196  1.00  0.00    -0.246 OA
BRANCH   7   9
ATOM      9  C   UNL A   1      35.135  23.194  24.528  1.00  0.00     0.087 C 
ATOM     10  C   UNL A   1      32.149  26.584  26.180  1.00  0.00     0.025 A 
ATOM     11  C   UNL A   1      31.095  25.671  26.126  1.00  0.00     0.021 A 
ATOM     12  C   UNL A   1      33.415  26.215  25.717  1.00  0.00     0.029 A 
ATOM     13  C   UNL A   1      31.301  24.399  25.588  1.00  0.00     0.048 A 
ATOM     14  C   UNL A   1      33.635  24.921  25.229  1.00  0.00     0.018 A 
ATOM     15  C   UNL A   1      32.568  24.024  25.141  1.00  0.00     0.128 A 
ATOM     16  C   UNL A   1      34.977  24.475  24.892  1.00  0.00     0.027 C 
ATOM     17  O   UNL A   1      32.677  22.758  24.643  1.00  0.00    -0.475 OA
ATOM     18  C   UNL A   1      33.997  22.225  24.347  1.00  0.00     0.316 C 
BRANCH  10  19
ATOM     19  C   UNL A   1      31.944  27.881  26.753  1.00  0.00    -0.070 C 
ATOM     20  C   UNL A   1      31.778  28.957  27.254  1.00  0.00     0.010 C 
ENDBRANCH  10  19
BRANCH  18  21
ATOM     21  C   UNL A   1      34.199  20.947  25.170  1.00  0.00     0.430 C 
ATOM     22  F   UNL A   1      33.049  20.240  25.276  1.00  0.00    -0.167 F 
ATOM     23  F   UNL A   1      35.110  20.123  24.599  1.00  0.00    -0.167 F 
ATOM     24  F   UNL A   1      34.629  21.218  26.423  1.00  0.00    -0.167 F 
ENDBRANCH  18  21
ENDBRANCH   7   9
ENDBRANCH   6   7
ENDBRANCH   5   6
ENDBRANCH   4   5
ENDBRANCH   3   4
ENDBRANCH   2   3
ENDBRANCH   1   2
BRANCH   1  25
ATOM     25  O   UNL A   1      42.423  20.154  25.374  1.00  0.00    -0.376 OA
BRANCH  25  26
ATOM     26  C   UNL A   1      43.832  20.300  25.449  1.00  0.00     0.202 C 
BRANCH  26  27
ATOM     27  C   UNL A   1      44.586  21.626  25.703  1.00  0.00     0.261 C 
BRANCH  27  28
ATOM     28  O   UNL A   1      43.930  22.653  26.455  1.00  0.00    -0.460 OA
BRANCH  28  29
ATOM     29  C   UNL A   1      43.516  23.743  25.758  1.00  0.00     0.338 C 
ATOM     30  O   UNL A   1      43.398  23.846  24.551  1.00  0.00    -0.246 OA
BRANCH  29  31
ATOM     31  C   UNL A   1      43.011  24.743  26.725  1.00  0.00     0.060 A 
ATOM     32  C   UNL A   1      41.987  24.403  27.607  1.00  0.00     0.016 A 
ATOM     33  C   UNL A   1      43.539  26.044  26.720  1.00  0.00     0.016 A 
ATOM     34  C   UNL A   1      41.500  25.367  28.494  1.00  0.00     0.010 A 
ATOM     35  C   UNL A   1      43.035  27.012  27.594  1.00  0.00     0.010 A 
ATOM     36  C   UNL A   1      42.025  26.674  28.505  1.00  0.00    -0.014 A 
BRANCH  36  37
ATOM     37  C   UNL A   1      41.617  27.615  29.581  1.00  0.00     0.031 A 
ATOM     38  C   UNL A   1      40.460  28.557  29.432  1.00  0.00     0.074 A 
ATOM     39  C   UNL A   1      42.311  27.587  30.736  1.00  0.00     0.049 A 
ATOM     40  N   UNL A   1      39.927  29.352  30.326  1.00  0.00    -0.248 NA
ATOM     41  C   UNL A   1      39.821  28.622  28.110  1.00  0.00     0.031 C 
ATOM     42  C   UNL A   1      43.475  26.738  30.992  1.00  0.00     0.029 A 
ATOM     43  N   UNL A   1      42.130  28.271  31.911  1.00  0.00    -0.354 N 
ATOM     44  C   UNL A   1      38.871  29.992  29.691  1.00  0.00     0.074 A 
ATOM     45  C   UNL A   1      38.879  29.535  28.315  1.00  0.00     0.031 C 
ATOM     46  C   UNL A   1      43.878  26.918  32.260  1.00  0.00     0.029 A 
ATOM     47  C   UNL A   1      43.028  27.923  32.890  1.00  0.00     0.049 A 
ATOM     48  H   UNL A   1      41.424  28.945  32.040  1.00  0.00     0.167 HD
ATOM     49  C   UNL A   1      37.969  30.863  30.212  1.00  0.00     0.037 A 
ATOM     50  C   UNL A   1      43.157  28.364  34.155  1.00  0.00     0.037 A 
ATOM     51  C   UNL A   1      37.986  31.344  31.574  1.00  0.00     0.049 A 
ATOM     52  C   UNL A   1      42.191  29.391  34.677  1.00  0.00     0.074 A 
ATOM     53  C   UNL A   1      37.102  32.210  32.196  1.00  0.00     0.029 A 
ATOM     54  N   UNL A   1      38.949  31.019  32.519  1.00  0.00    -0.354 N 
ATOM     55  N   UNL A   1      41.150  29.927  34.089  1.00  0.00    -0.248 NA
ATOM     56  C   UNL A   1      42.418  29.871  36.048  1.00  0.00     0.031 C 
ATOM     57  C   UNL A   1      37.567  32.463  33.491  1.00  0.00     0.029 A 
ATOM     58  C   UNL A   1      38.699  31.697  33.705  1.00  0.00     0.049 A 
ATOM     59  H   UNL A   1      39.699  30.399  32.372  1.00  0.00     0.167 HD
ATOM     60  C   UNL A   1      40.581  30.781  35.027  1.00  0.00     0.074 A 
ATOM     61  C   UNL A   1      41.377  30.669  36.231  1.00  0.00     0.031 C 
ATOM     62  C   UNL A   1      39.498  31.587  34.902  1.00  0.00     0.037 A 
BRANCH  49  63
ATOM     63  C   UNL A   1      36.885  31.368  29.300  1.00  0.00     0.057 A 
ATOM     64  C   UNL A   1      36.921  32.671  28.787  1.00  0.00     0.134 A 
ATOM     65  C   UNL A   1      35.776  30.578  28.966  1.00  0.00     0.134 A 
ATOM     66  F   UNL A   1      37.941  33.492  29.081  1.00  0.00    -0.206 F 
ATOM     67  C   UNL A   1      35.902  33.167  27.971  1.00  0.00     0.040 A 
ATOM     68  C   UNL A   1      34.766  31.052  28.125  1.00  0.00     0.040 A 
ATOM     69  F   UNL A   1      35.671  29.323  29.427  1.00  0.00    -0.206 F 
ATOM     70  C   UNL A   1      34.826  32.352  27.628  1.00  0.00     0.006 A 
ENDBRANCH  49  63
BRANCH  50  71
ATOM     71  C   UNL A   1      44.245  27.848  35.024  1.00  0.00     0.057 A 
ATOM     72  C   UNL A   1      44.053  26.729  35.843  1.00  0.00     0.134 A 
ATOM     73  C   UNL A   1      45.522  28.425  35.012  1.00  0.00     0.134 A 
ATOM     74  F   UNL A   1      42.853  26.135  35.909  1.00  0.00    -0.206 F 
ATOM     75  C   UNL A   1      45.091  26.196  36.609  1.00  0.00     0.040 A 
ATOM     76  C   UNL A   1      46.577  27.880  35.745  1.00  0.00     0.040 A 
ATOM     77  F   UNL A   1      45.774  29.491  34.238  1.00  0.00    -0.206 F 
ATOM     78  C   UNL A   1      46.362  26.762  36.547  1.00  0.00     0.006 A 
ENDBRANCH  50  71
BRANCH  62  79
ATOM     79  C   UNL A   1      39.089  32.381  36.113  1.00  0.00     0.057 A 
ATOM     80  C   UNL A   1      38.238  31.823  37.078  1.00  0.00     0.134 A 
ATOM     81  C   UNL A   1      39.535  33.691  36.333  1.00  0.00     0.134 A 
ATOM     82  F   UNL A   1      37.761  30.578  36.929  1.00  0.00    -0.206 F 
ATOM     83  C   UNL A   1      37.852  32.536  38.215  1.00  0.00     0.040 A 
ATOM     84  C   UNL A   1      39.187  34.400  37.485  1.00  0.00     0.040 A 
ATOM     85  F   UNL A   1      40.363  34.285  35.459  1.00  0.00    -0.206 F 
ATOM     86  C   UNL A   1      38.339  33.824  38.427  1.00  0.00     0.006 A 
ENDBRANCH  62  79
ENDBRANCH  36  37
ENDBRANCH  29  31
ENDBRANCH  28  29
ENDBRANCH  27  28
ENDBRANCH  26  27
ENDBRANCH  25  26
ENDBRANCH   1  25
TORSDOF 19
ENDMDL
MODEL 3
REMARK VINA RESULT:     -10.6      1.769      6.833
REMARK SMILES C#Cc1ccc2c(c1)C=C(C(=O)OCCOCCOCCOC(=O)c1ccc(-c3c4nc(c(-c5c(F)cccc5F)c5ccc([nH]5)c(-c5c(F)cccc5F)c5nc(c(-c6c(F)cccc6F)c6ccc3[nH]6)C=C5)C=C4)cc1)[C@@H](C(F)(F)F)O2
REMARK SMILES IDX 18 1 17 2 16 3 15 4 14 5 13 6 11 7 12 8 10 9 3 10 4 11 8 12
REMARK SMILES IDX 5 13 7 14 6 15 9 16 84 17 79 18 2 19 1 20 80 21 81 22 82 23
REMARK SMILES IDX 83 24 19 25 20 26 21 27 22 28 23 29 24 30 25 31 26 32 78 33
REMARK SMILES IDX 27 34 77 35 28 36 29 37 30 38 71 39 31 40 76 41 70 42 72 43
REMARK SMILES IDX 32 44 75 45 69 46 68 47 33 49 59 50 42 51 58 52 43 53 46 54
REMARK SMILES IDX 57 55 73 56 44 57 45 58 56 60 74 61 47 62 34 63 35 64 40 65
REMARK SMILES IDX 36 66 37 67 39 68 41 69 38 70 60 71 61 72 66 73 62 74 63 75
REMARK SMILES IDX 65 76 67 77 64 78 48 79 49 80 54 81 50 82 51 83 53 84 55 85
REMARK SMILES IDX 52 86
REMARK H PARENT 72 48 46 59
REMARK Flexibility Score: inf
ROOT
ATOM      1  C   UNL A   1      40.480  21.380  27.054  1.00  0.00     0.188 C 
ENDROOT
BRANCH   1   2
ATOM      2  C   UNL A   1      39.398  22.331  26.501  1.00  0.00     0.188 C 
BRANCH   2   3
ATOM      3  O   UNL A   1      38.417  21.797  25.645  1.00  0.00    -0.376 OA
BRANCH   3   4
ATOM      4  C   UNL A   1      37.481  22.637  24.994  1.00  0.00     0.202 C 
BRANCH   4   5
ATOM      5  C   UNL A   1      36.536  23.640  25.689  1.00  0.00     0.261 C 
BRANCH   5   6
ATOM      6  O   UNL A   1      35.366  23.118  26.329  1.00  0.00    -0.460 OA
BRANCH   6   7
ATOM      7  C   UNL A   1      34.181  23.540  25.826  1.00  0.00     0.338 C 
ATOM      8  O   UNL A   1      33.743  24.679  25.851  1.00  0.00    -0.246 OA
BRANCH   7   9
ATOM      9  C   UNL A   1      33.552  22.440  25.064  1.00  0.00     0.087 C 
ATOM     10  C   UNL A   1      32.763  17.725  24.532  1.00  0.00     0.025 A 
ATOM     11  C   UNL A   1      32.260  17.961  23.252  1.00  0.00     0.021 A 
ATOM     12  C   UNL A   1      33.141  18.799  25.342  1.00  0.00     0.029 A 
ATOM     13  C   UNL A   1      32.114  19.270  22.791  1.00  0.00     0.048 A 
ATOM     14  C   UNL A   1      33.046  20.110  24.858  1.00  0.00     0.018 A 
ATOM     15  C   UNL A   1      32.506  20.344  23.592  1.00  0.00     0.128 A 
ATOM     16  C   UNL A   1      33.581  21.223  25.626  1.00  0.00     0.027 C 
ATOM     17  O   UNL A   1      32.339  21.586  23.053  1.00  0.00    -0.475 OA
ATOM     18  C   UNL A   1      32.906  22.737  23.737  1.00  0.00     0.316 C 
BRANCH  10  19
ATOM     19  C   UNL A   1      32.935  16.380  24.997  1.00  0.00    -0.070 C 
ATOM     20  C   UNL A   1      33.061  15.260  25.403  1.00  0.00     0.010 C 
ENDBRANCH  10  19
BRANCH  18  21
ATOM     21  C   UNL A   1      33.872  23.442  22.777  1.00  0.00     0.430 C 
ATOM     22  F   UNL A   1      35.142  23.000  22.941  1.00  0.00    -0.167 F 
ATOM     23  F   UNL A   1      33.546  23.217  21.483  1.00  0.00    -0.167 F 
ATOM     24  F   UNL A   1      33.879  24.782  22.965  1.00  0.00    -0.167 F 
ENDBRANCH  18  21
ENDBRANCH   7   9
ENDBRANCH   6   7
ENDBRANCH   5   6
ENDBRANCH   4   5
ENDBRANCH   3   4
ENDBRANCH   2   3
ENDBRANCH   1   2
BRANCH   1  25
ATOM     25  O   UNL A   1      41.229  20.609  26.144  1.00  0.00    -0.376 OA
BRANCH  25  26
ATOM     26  C   UNL A   1      42.641  20.745  26.107  1.00  0.00     0.202 C 
BRANCH  26  27
ATOM     27  C   UNL A   1      43.419  21.848  25.351  1.00  0.00     0.261 C 
BRANCH  27  28
ATOM     28  O   UNL A   1      42.817  23.141  25.220  1.00  0.00    -0.460 OA
BRANCH  28  29
ATOM     29  C   UNL A   1      43.655  24.207  25.291  1.00  0.00     0.338 C 
ATOM     30  O   UNL A   1      44.585  24.468  24.550  1.00  0.00    -0.246 OA
BRANCH  29  31
ATOM     31  C   UNL A   1      43.121  25.144  26.305  1.00  0.00     0.060 A 
ATOM     32  C   UNL A   1      42.150  24.714  27.208  1.00  0.00     0.016 A 
ATOM     33  C   UNL A   1      43.568  26.476  26.326  1.00  0.00     0.016 A 
ATOM     34  C   UNL A   1      41.634  25.618  28.140  1.00  0.00     0.010 A 
ATOM     35  C   UNL A   1      43.033  27.383  27.246  1.00  0.00     0.010 A 
ATOM     36  C   UNL A   1      42.077  26.955  28.176  1.00  0.00    -0.014 A 
BRANCH  36  37
ATOM     37  C   UNL A   1      41.648  27.835  29.295  1.00  0.00     0.031 A 
ATOM     38  C   UNL A   1      40.458  28.743  29.194  1.00  0.00     0.074 A 
ATOM     39  C   UNL A   1      42.352  27.782  30.443  1.00  0.00     0.049 A 
ATOM     40  N   UNL A   1      39.907  29.482  30.125  1.00  0.00    -0.248 NA
ATOM     41  C   UNL A   1      39.806  28.842  27.881  1.00  0.00     0.031 C 
ATOM     42  C   UNL A   1      43.546  26.963  30.653  1.00  0.00     0.029 A 
ATOM     43  N   UNL A   1      42.158  28.409  31.646  1.00  0.00    -0.354 N 
ATOM     44  C   UNL A   1      38.825  30.112  29.525  1.00  0.00     0.074 A 
ATOM     45  C   UNL A   1      38.836  29.714  28.131  1.00  0.00     0.031 C 
ATOM     46  C   UNL A   1      43.953  27.102  31.924  1.00  0.00     0.029 A 
ATOM     47  C   UNL A   1      43.076  28.051  32.603  1.00  0.00     0.049 A 
ATOM     48  H   UNL A   1      41.432  29.053  31.809  1.00  0.00     0.167 HD
ATOM     49  C   UNL A   1      37.899  30.930  30.089  1.00  0.00     0.037 A 
ATOM     50  C   UNL A   1      43.202  28.442  33.885  1.00  0.00     0.037 A 
ATOM     51  C   UNL A   1      37.912  31.352  31.470  1.00  0.00     0.049 A 
ATOM     52  C   UNL A   1      42.206  29.413  34.457  1.00  0.00     0.074 A 
ATOM     53  C   UNL A   1      37.005  32.161  32.135  1.00  0.00     0.029 A 
ATOM     54  N   UNL A   1      38.893  31.021  32.394  1.00  0.00    -0.354 N 
ATOM     55  N   UNL A   1      41.143  29.939  33.899  1.00  0.00    -0.248 NA
ATOM     56  C   UNL A   1      42.429  29.842  35.845  1.00  0.00     0.031 C 
ATOM     57  C   UNL A   1      37.473  32.376  33.436  1.00  0.00     0.029 A 
ATOM     58  C   UNL A   1      38.632  31.639  33.609  1.00  0.00     0.049 A 
ATOM     59  H   UNL A   1      39.662  30.433  32.215  1.00  0.00     0.167 HD
ATOM     60  C   UNL A   1      40.554  30.732  34.877  1.00  0.00     0.074 A 
ATOM     61  C   UNL A   1      41.364  30.596  36.069  1.00  0.00     0.031 C 
ATOM     62  C   UNL A   1      39.444  31.506  34.794  1.00  0.00     0.037 A 
BRANCH  49  63
ATOM     63  C   UNL A   1      36.791  31.435  29.207  1.00  0.00     0.057 A 
ATOM     64  C   UNL A   1      36.784  32.757  28.742  1.00  0.00     0.134 A 
ATOM     65  C   UNL A   1      35.701  30.626  28.855  1.00  0.00     0.134 A 
ATOM     66  F   UNL A   1      37.783  33.596  29.057  1.00  0.00    -0.206 F 
ATOM     67  C   UNL A   1      35.742  33.252  27.956  1.00  0.00     0.040 A 
ATOM     68  C   UNL A   1      34.669  31.101  28.043  1.00  0.00     0.040 A 
ATOM     69  F   UNL A   1      35.638  29.353  29.270  1.00  0.00    -0.206 F 
ATOM     70  C   UNL A   1      34.686  32.420  27.594  1.00  0.00     0.006 A 
ENDBRANCH  49  63
BRANCH  50  71
ATOM     71  C   UNL A   1      44.314  27.927  34.723  1.00  0.00     0.057 A 
ATOM     72  C   UNL A   1      44.177  26.751  35.471  1.00  0.00     0.134 A 
ATOM     73  C   UNL A   1      45.561  28.565  34.750  1.00  0.00     0.134 A 
ATOM     74  F   UNL A   1      43.007  26.097  35.497  1.00  0.00    -0.206 F 
ATOM     75  C   UNL A   1      45.239  26.223  36.205  1.00  0.00     0.040 A 
ATOM     76  C   UNL A   1      46.642  28.028  35.451  1.00  0.00     0.040 A 
ATOM     77  F   UNL A   1      45.761  29.687  34.044  1.00  0.00    -0.206 F 
ATOM     78  C   UNL A   1      46.481  26.852  36.182  1.00  0.00     0.006 A 
ENDBRANCH  50  71
BRANCH  62  79
ATOM     79  C   UNL A   1      39.020  32.234  36.041  1.00  0.00     0.057 A 
ATOM     80  C   UNL A   1      39.437  33.551  36.276  1.00  0.00     0.134 A 
ATOM     81  C   UNL A   1      38.199  31.639  37.010  1.00  0.00     0.134 A 
ATOM     82  F   UNL A   1      40.233  34.181  35.398  1.00  0.00    -0.206 F 
ATOM     83  C   UNL A   1      39.049  34.250  37.421  1.00  0.00     0.040 A 
ATOM     84  C   UNL A   1      37.774  32.342  38.140  1.00  0.00     0.040 A 
ATOM     85  F   UNL A   1      37.751  30.385  36.847  1.00  0.00    -0.206 F 
ATOM     86  C   UNL A   1      38.204  33.649  38.350  1.00  0.00     0.006 A 
ENDBRANCH  62  79
ENDBRANCH  36  37
ENDBRANCH  29  31
ENDBRANCH  28  29
ENDBRANCH  27  28
ENDBRANCH  26  27
ENDBRANCH  25  26
ENDBRANCH   1  25
TORSDOF 19
ENDMDL
