MODEL 1
REMARK VINA RESULT:     -12.0      0.000      0.000
REMARK SMILES O=C(NC1(C(=O)OCCOCCOCCOC(=O)c2ccc(-c3c4nc(c(-c5c(F)cccc5F)c5ccc([nH]5)c(-c5c(F)cccc5F)c5nc(c(-c6c(F)cccc6F)c6ccc3[nH]6)C=C5)C=C4)cc2)CC[NH2+]CC1)OCC1c2ccccc2-c2ccccc21
REMARK SMILES IDX 11 1 10 2 9 3 8 4 7 5 5 6 6 7 4 8 73 9 77 10 74 11 76 12
REMARK SMILES IDX 75 13 3 16 1 17 2 18 78 20 79 21 80 22 81 23 92 24 82 25
REMARK SMILES IDX 86 26 87 27 91 28 83 29 85 30 88 31 90 32 84 33 89 34 12 35
REMARK SMILES IDX 13 36 14 37 15 38 16 39 17 40 18 41 19 42 20 43 72 44 21 45
REMARK SMILES IDX 71 46 22 47 23 48 24 49 65 50 25 51 70 52 64 53 66 54 26 55
REMARK SMILES IDX 69 56 63 57 62 58 27 60 53 61 36 62 52 63 37 64 40 65 51 66
REMARK SMILES IDX 67 67 38 68 39 69 50 71 68 72 41 73 28 74 29 75 34 76 30 77
REMARK SMILES IDX 31 78 33 79 35 80 32 81 54 82 55 83 60 84 56 85 57 86 59 87
REMARK SMILES IDX 61 88 58 89 42 90 43 91 48 92 44 93 45 94 47 95 49 96 46 97
REMARK H PARENT 75 14 75 15 3 19 66 59 40 70
REMARK Flexibility Score: inf
ROOT
ATOM      1  C   UNL A   1      39.555  21.381  26.298  1.00  0.00     0.188 C 
ENDROOT
BRANCH   1   2
ATOM      2  O   UNL A   1      38.629  21.830  25.315  1.00  0.00    -0.376 OA
BRANCH   2   3
ATOM      3  C   UNL A   1      37.272  21.817  25.751  1.00  0.00     0.202 C 
BRANCH   3   4
ATOM      4  C   UNL A   1      36.707  23.201  26.121  1.00  0.00     0.261 C 
BRANCH   4   5
ATOM      5  O   UNL A   1      35.311  23.401  25.798  1.00  0.00    -0.461 OA
BRANCH   5   6
ATOM      6  C   UNL A   1      34.435  22.545  26.393  1.00  0.00     0.332 C 
ATOM      7  O   UNL A   1      34.533  22.164  27.558  1.00  0.00    -0.249 OA
BRANCH   6   8
ATOM      8  C   UNL A   1      33.275  22.075  25.478  1.00  0.00     0.151 C 
ATOM      9  C   UNL A   1      33.091  22.792  24.139  1.00  0.00     0.102 C 
ATOM     10  C   UNL A   1      33.582  20.611  25.083  1.00  0.00     0.102 C 
ATOM     11  C   UNL A   1      31.908  22.204  23.369  1.00  0.00     0.263 C 
ATOM     12  C   UNL A   1      32.524  20.005  24.150  1.00  0.00     0.263 C 
ATOM     13  N   UNL A   1      32.225  20.835  22.985  1.00  0.00    -0.346 N 
ATOM     14  H   UNL A   1      33.037  20.843  22.367  1.00  0.00     0.346 HD
ATOM     15  H   UNL A   1      31.412  20.440  22.512  1.00  0.00     0.346 HD
BRANCH   8  16
ATOM     16  N   UNL A   1      32.067  22.161  26.338  1.00  0.00    -0.305 N 
ATOM     17  O   UNL A   1      30.353  23.249  27.344  1.00  0.00    -0.225 OA
ATOM     18  C   UNL A   1      31.405  23.292  26.734  1.00  0.00     0.408 C 
ATOM     19  H   UNL A   1      31.701  21.306  26.662  1.00  0.00     0.168 HD
BRANCH  18  20
ATOM     20  O   UNL A   1      31.998  24.451  26.323  1.00  0.00    -0.449 OA
BRANCH  20  21
ATOM     21  C   UNL A   1      31.037  25.474  26.079  1.00  0.00     0.248 C 
BRANCH  21  22
ATOM     22  C   UNL A   1      31.172  26.269  24.745  1.00  0.00     0.088 C 
ATOM     23  C   UNL A   1      30.098  27.231  24.206  1.00  0.00    -0.029 A 
ATOM     24  C   UNL A   1      32.317  27.270  25.014  1.00  0.00    -0.029 A 
ATOM     25  C   UNL A   1      28.810  26.995  23.767  1.00  0.00     0.005 A 
ATOM     26  C   UNL A   1      30.607  28.535  24.092  1.00  0.00    -0.014 A 
ATOM     27  C   UNL A   1      31.873  28.582  24.768  1.00  0.00    -0.014 A 
ATOM     28  C   UNL A   1      33.507  27.025  25.684  1.00  0.00     0.005 A 
ATOM     29  C   UNL A   1      28.098  27.992  23.088  1.00  0.00     0.000 A 
ATOM     30  C   UNL A   1      29.928  29.532  23.400  1.00  0.00     0.009 A 
ATOM     31  C   UNL A   1      32.511  29.659  25.354  1.00  0.00     0.009 A 
ATOM     32  C   UNL A   1      34.155  28.111  26.268  1.00  0.00     0.000 A 
ATOM     33  C   UNL A   1      28.674  29.243  22.864  1.00  0.00     0.001 A 
ATOM     34  C   UNL A   1      33.638  29.410  26.139  1.00  0.00     0.001 A 
ENDBRANCH  21  22
ENDBRANCH  20  21
ENDBRANCH  18  20
ENDBRANCH   8  16
ENDBRANCH   6   8
ENDBRANCH   5   6
ENDBRANCH   4   5
ENDBRANCH   3   4
ENDBRANCH   2   3
ENDBRANCH   1   2
BRANCH   1  35
ATOM     35  C   UNL A   1      39.982  19.923  26.118  1.00  0.00     0.188 C 
BRANCH  35  36
ATOM     36  O   UNL A   1      41.312  19.780  25.630  1.00  0.00    -0.376 OA
BRANCH  36  37
ATOM     37  C   UNL A   1      42.327  20.423  26.394  1.00  0.00     0.202 C 
BRANCH  37  38
ATOM     38  C   UNL A   1      43.303  21.334  25.633  1.00  0.00     0.261 C 
BRANCH  38  39
ATOM     39  O   UNL A   1      42.672  22.526  25.131  1.00  0.00    -0.460 OA
BRANCH  39  40
ATOM     40  C   UNL A   1      43.432  23.647  25.217  1.00  0.00     0.338 C 
ATOM     41  O   UNL A   1      44.398  23.939  24.531  1.00  0.00    -0.246 OA
BRANCH  40  42
ATOM     42  C   UNL A   1      42.782  24.625  26.117  1.00  0.00     0.060 A 
ATOM     43  C   UNL A   1      43.201  25.956  26.001  1.00  0.00     0.016 A 
ATOM     44  C   UNL A   1      41.790  24.287  27.031  1.00  0.00     0.016 A 
ATOM     45  C   UNL A   1      42.680  26.954  26.814  1.00  0.00     0.010 A 
ATOM     46  C   UNL A   1      41.275  25.284  27.869  1.00  0.00     0.010 A 
ATOM     47  C   UNL A   1      41.744  26.613  27.787  1.00  0.00    -0.014 A 
BRANCH  47  48
ATOM     48  C   UNL A   1      41.431  27.580  28.864  1.00  0.00     0.031 A 
ATOM     49  C   UNL A   1      42.264  27.522  30.112  1.00  0.00     0.074 A 
ATOM     50  C   UNL A   1      40.473  28.513  28.734  1.00  0.00     0.049 A 
ATOM     51  N   UNL A   1      42.079  28.101  31.268  1.00  0.00    -0.248 NA
ATOM     52  C   UNL A   1      43.474  26.685  30.043  1.00  0.00     0.031 C 
ATOM     53  C   UNL A   1      39.689  28.767  27.528  1.00  0.00     0.029 A 
ATOM     54  N   UNL A   1      39.991  29.417  29.647  1.00  0.00    -0.354 N 
ATOM     55  C   UNL A   1      43.118  27.660  32.078  1.00  0.00     0.074 A 
ATOM     56  C   UNL A   1      43.926  26.761  31.285  1.00  0.00     0.031 C 
ATOM     57  C   UNL A   1      38.802  29.745  27.784  1.00  0.00     0.029 A 
ATOM     58  C   UNL A   1      38.918  30.140  29.186  1.00  0.00     0.049 A 
ATOM     59  H   UNL A   1      40.376  29.535  30.545  1.00  0.00     0.167 HD
ATOM     60  C   UNL A   1      43.367  27.973  33.370  1.00  0.00     0.037 A 
ATOM     61  C   UNL A   1      38.099  30.986  29.841  1.00  0.00     0.037 A 
ATOM     62  C   UNL A   1      42.570  28.892  34.137  1.00  0.00     0.049 A 
ATOM     63  C   UNL A   1      38.330  31.240  31.310  1.00  0.00     0.074 A 
ATOM     64  C   UNL A   1      42.731  29.282  35.454  1.00  0.00     0.029 A 
ATOM     65  N   UNL A   1      41.460  29.567  33.650  1.00  0.00    -0.354 N 
ATOM     66  N   UNL A   1      39.279  30.784  32.093  1.00  0.00    -0.248 NA
ATOM     67  C   UNL A   1      37.367  32.119  31.989  1.00  0.00     0.031 C 
ATOM     68  C   UNL A   1      41.681  30.146  35.782  1.00  0.00     0.029 A 
ATOM     69  C   UNL A   1      40.907  30.349  34.650  1.00  0.00     0.049 A 
ATOM     70  H   UNL A   1      41.115  29.500  32.730  1.00  0.00     0.167 HD
ATOM     71  C   UNL A   1      39.050  31.348  33.343  1.00  0.00     0.074 A 
ATOM     72  C   UNL A   1      37.876  32.186  33.211  1.00  0.00     0.031 C 
ATOM     73  C   UNL A   1      39.746  31.189  34.495  1.00  0.00     0.037 A 
BRANCH  60  74
ATOM     74  C   UNL A   1      44.507  27.269  34.043  1.00  0.00     0.057 A 
ATOM     75  C   UNL A   1      45.797  27.811  34.110  1.00  0.00     0.134 A 
ATOM     76  C   UNL A   1      44.304  26.018  34.644  1.00  0.00     0.134 A 
ATOM     77  F   UNL A   1      46.068  28.994  33.537  1.00  0.00    -0.206 F 
ATOM     78  C   UNL A   1      46.847  27.125  34.722  1.00  0.00     0.040 A 
ATOM     79  C   UNL A   1      45.337  25.337  35.285  1.00  0.00     0.040 A 
ATOM     80  F   UNL A   1      43.094  25.439  34.616  1.00  0.00    -0.206 F 
ATOM     81  C   UNL A   1      46.616  25.887  35.319  1.00  0.00     0.006 A 
ENDBRANCH  60  74
BRANCH  61  82
ATOM     82  C   UNL A   1      36.953  31.620  29.137  1.00  0.00     0.057 A 
ATOM     83  C   UNL A   1      37.029  32.934  28.664  1.00  0.00     0.134 A 
ATOM     84  C   UNL A   1      35.740  30.941  28.955  1.00  0.00     0.134 A 
ATOM     85  F   UNL A   1      38.150  33.650  28.835  1.00  0.00    -0.206 F 
ATOM     86  C   UNL A   1      35.938  33.559  28.054  1.00  0.00     0.040 A 
ATOM     87  C   UNL A   1      34.652  31.542  28.320  1.00  0.00     0.040 A 
ATOM     88  F   UNL A   1      35.595  29.681  29.391  1.00  0.00    -0.206 F 
ATOM     89  C   UNL A   1      34.746  32.858  27.875  1.00  0.00     0.006 A 
ENDBRANCH  61  82
BRANCH  73  90
ATOM     90  C   UNL A   1      39.298  31.981  35.691  1.00  0.00     0.057 A 
ATOM     91  C   UNL A   1      39.754  33.282  35.938  1.00  0.00     0.134 A 
ATOM     92  C   UNL A   1      38.357  31.447  36.582  1.00  0.00     0.134 A 
ATOM     93  F   UNL A   1      40.663  33.849  35.131  1.00  0.00    -0.206 F 
ATOM     94  C   UNL A   1      39.309  34.012  37.040  1.00  0.00     0.040 A 
ATOM     95  C   UNL A   1      37.880  32.179  37.669  1.00  0.00     0.040 A 
ATOM     96  F   UNL A   1      37.869  30.210  36.397  1.00  0.00    -0.206 F 
ATOM     97  C   UNL A   1      38.363  33.464  37.905  1.00  0.00     0.006 A 
ENDBRANCH  73  90
ENDBRANCH  47  48
ENDBRANCH  40  42
ENDBRANCH  39  40
ENDBRANCH  38  39
ENDBRANCH  37  38
ENDBRANCH  36  37
ENDBRANCH  35  36
ENDBRANCH   1  35
TORSDOF 21
ENDMDL
MODEL 2
REMARK VINA RESULT:     -11.9      0.896      1.640
REMARK SMILES O=C(NC1(C(=O)OCCOCCOCCOC(=O)c2ccc(-c3c4nc(c(-c5c(F)cccc5F)c5ccc([nH]5)c(-c5c(F)cccc5F)c5nc(c(-c6c(F)cccc6F)c6ccc3[nH]6)C=C5)C=C4)cc2)CC[NH2+]CC1)OCC1c2ccccc2-c2ccccc21
REMARK SMILES IDX 11 1 10 2 9 3 8 4 7 5 5 6 6 7 4 8 73 9 77 10 74 11 76 12
REMARK SMILES IDX 75 13 3 16 1 17 2 18 78 20 79 21 80 22 81 23 92 24 82 25
REMARK SMILES IDX 86 26 87 27 91 28 83 29 85 30 88 31 90 32 84 33 89 34 12 35
REMARK SMILES IDX 13 36 14 37 15 38 16 39 17 40 18 41 19 42 20 43 72 44 21 45
REMARK SMILES IDX 71 46 22 47 23 48 24 49 65 50 25 51 70 52 64 53 66 54 26 55
REMARK SMILES IDX 69 56 63 57 62 58 27 60 53 61 36 62 52 63 37 64 40 65 51 66
REMARK SMILES IDX 67 67 38 68 39 69 50 71 68 72 41 73 28 74 29 75 34 76 30 77
REMARK SMILES IDX 31 78 33 79 35 80 32 81 54 82 55 83 60 84 56 85 57 86 59 87
REMARK SMILES IDX 61 88 58 89 42 90 43 91 48 92 44 93 45 94 47 95 49 96 46 97
REMARK H PARENT 75 14 75 15 3 19 66 59 40 70
REMARK Flexibility Score: inf
ROOT
ATOM      1  C   UNL A   1      39.087  21.208  25.984  1.00  0.00     0.188 C 
ENDROOT
BRANCH   1   2
ATOM      2  O   UNL A   1      38.109  21.709  25.081  1.00  0.00    -0.376 OA
BRANCH   2   3
ATOM      3  C   UNL A   1      36.817  21.875  25.662  1.00  0.00     0.202 C 
BRANCH   3   4
ATOM      4  C   UNL A   1      36.457  23.331  26.011  1.00  0.00     0.261 C 
BRANCH   4   5
ATOM      5  O   UNL A   1      35.042  23.630  26.015  1.00  0.00    -0.461 OA
BRANCH   5   6
ATOM      6  C   UNL A   1      34.251  22.758  26.698  1.00  0.00     0.332 C 
ATOM      7  O   UNL A   1      34.357  22.536  27.903  1.00  0.00    -0.249 OA
BRANCH   6   8
ATOM      8  C   UNL A   1      33.180  22.047  25.832  1.00  0.00     0.151 C 
ATOM      9  C   UNL A   1      32.947  22.575  24.414  1.00  0.00     0.102 C 
ATOM     10  C   UNL A   1      33.669  20.595  25.617  1.00  0.00     0.102 C 
ATOM     11  C   UNL A   1      31.864  21.763  23.705  1.00  0.00     0.263 C 
ATOM     12  C   UNL A   1      32.717  19.761  24.750  1.00  0.00     0.263 C 
ATOM     13  N   UNL A   1      32.351  20.407  23.491  1.00  0.00    -0.346 N 
ATOM     14  H   UNL A   1      33.172  20.442  22.886  1.00  0.00     0.346 HD
ATOM     15  H   UNL A   1      31.604  19.864  23.058  1.00  0.00     0.346 HD
BRANCH   8  16
ATOM     16  N   UNL A   1      31.949  22.085  26.661  1.00  0.00    -0.305 N 
ATOM     17  O   UNL A   1      30.056  23.042  27.458  1.00  0.00    -0.225 OA
ATOM     18  C   UNL A   1      31.106  23.147  26.852  1.00  0.00     0.408 C 
ATOM     19  H   UNL A   1      31.712  21.251  27.127  1.00  0.00     0.168 HD
BRANCH  18  20
ATOM     20  O   UNL A   1      31.522  24.298  26.248  1.00  0.00    -0.449 OA
BRANCH  20  21
ATOM     21  C   UNL A   1      30.424  25.053  25.745  1.00  0.00     0.248 C 
BRANCH  21  22
ATOM     22  C   UNL A   1      30.721  26.509  25.275  1.00  0.00     0.088 C 
ATOM     23  C   UNL A   1      31.771  27.426  25.928  1.00  0.00    -0.029 A 
ATOM     24  C   UNL A   1      31.349  26.337  23.875  1.00  0.00    -0.029 A 
ATOM     25  C   UNL A   1      31.832  27.974  27.193  1.00  0.00     0.005 A 
ATOM     26  C   UNL A   1      32.762  27.789  25.001  1.00  0.00    -0.014 A 
ATOM     27  C   UNL A   1      32.605  26.968  23.833  1.00  0.00    -0.014 A 
ATOM     28  C   UNL A   1      30.948  25.459  22.877  1.00  0.00     0.005 A 
ATOM     29  C   UNL A   1      32.762  28.980  27.487  1.00  0.00     0.000 A 
ATOM     30  C   UNL A   1      33.678  28.802  25.262  1.00  0.00     0.009 A 
ATOM     31  C   UNL A   1      33.551  26.586  22.900  1.00  0.00     0.009 A 
ATOM     32  C   UNL A   1      31.898  25.080  21.932  1.00  0.00     0.000 A 
ATOM     33  C   UNL A   1      33.652  29.426  26.509  1.00  0.00     0.001 A 
ATOM     34  C   UNL A   1      33.199  25.607  21.969  1.00  0.00     0.001 A 
ENDBRANCH  21  22
ENDBRANCH  20  21
ENDBRANCH  18  20
ENDBRANCH   8  16
ENDBRANCH   6   8
ENDBRANCH   5   6
ENDBRANCH   4   5
ENDBRANCH   3   4
ENDBRANCH   2   3
ENDBRANCH   1   2
BRANCH   1  35
ATOM     35  C   UNL A   1      39.459  19.745  25.737  1.00  0.00     0.188 C 
BRANCH  35  36
ATOM     36  O   UNL A   1      40.865  19.525  25.659  1.00  0.00    -0.376 OA
BRANCH  36  37
ATOM     37  C   UNL A   1      41.665  20.305  26.541  1.00  0.00     0.202 C 
BRANCH  37  38
ATOM     38  C   UNL A   1      42.783  21.149  25.907  1.00  0.00     0.261 C 
BRANCH  38  39
ATOM     39  O   UNL A   1      42.285  22.335  25.263  1.00  0.00    -0.460 OA
BRANCH  39  40
ATOM     40  C   UNL A   1      43.118  23.404  25.326  1.00  0.00     0.338 C 
ATOM     41  O   UNL A   1      44.102  23.616  24.635  1.00  0.00    -0.246 OA
BRANCH  40  42
ATOM     42  C   UNL A   1      42.536  24.442  26.204  1.00  0.00     0.060 A 
ATOM     43  C   UNL A   1      43.096  25.723  26.116  1.00  0.00     0.016 A 
ATOM     44  C   UNL A   1      41.476  24.208  27.074  1.00  0.00     0.016 A 
ATOM     45  C   UNL A   1      42.647  26.767  26.912  1.00  0.00     0.010 A 
ATOM     46  C   UNL A   1      41.033  25.251  27.896  1.00  0.00     0.010 A 
ATOM     47  C   UNL A   1      41.640  26.524  27.843  1.00  0.00    -0.014 A 
BRANCH  47  48
ATOM     48  C   UNL A   1      41.384  27.516  28.912  1.00  0.00     0.031 A 
ATOM     49  C   UNL A   1      42.239  27.444  30.145  1.00  0.00     0.074 A 
ATOM     50  C   UNL A   1      40.458  28.482  28.787  1.00  0.00     0.049 A 
ATOM     51  N   UNL A   1      42.097  28.044  31.296  1.00  0.00    -0.248 NA
ATOM     52  C   UNL A   1      43.416  26.562  30.064  1.00  0.00     0.031 C 
ATOM     53  C   UNL A   1      39.660  28.748  27.593  1.00  0.00     0.029 A 
ATOM     54  N   UNL A   1      40.027  29.414  29.698  1.00  0.00    -0.354 N 
ATOM     55  C   UNL A   1      43.135  27.576  32.091  1.00  0.00     0.074 A 
ATOM     56  C   UNL A   1      43.895  26.638  31.295  1.00  0.00     0.031 C 
ATOM     57  C   UNL A   1      38.814  29.761  27.853  1.00  0.00     0.029 A 
ATOM     58  C   UNL A   1      38.972  30.170  29.247  1.00  0.00     0.049 A 
ATOM     59  H   UNL A   1      40.433  29.530  30.587  1.00  0.00     0.167 HD
ATOM     60  C   UNL A   1      43.421  27.897  33.374  1.00  0.00     0.037 A 
ATOM     61  C   UNL A   1      38.197  31.054  29.907  1.00  0.00     0.037 A 
ATOM     62  C   UNL A   1      42.674  28.854  34.144  1.00  0.00     0.049 A 
ATOM     63  C   UNL A   1      38.466  31.318  31.366  1.00  0.00     0.074 A 
ATOM     64  C   UNL A   1      42.874  29.255  35.452  1.00  0.00     0.029 A 
ATOM     65  N   UNL A   1      41.579  29.562  33.669  1.00  0.00    -0.354 N 
ATOM     66  N   UNL A   1      39.413  30.838  32.138  1.00  0.00    -0.248 NA
ATOM     67  C   UNL A   1      37.550  32.240  32.052  1.00  0.00     0.031 C 
ATOM     68  C   UNL A   1      41.863  30.161  35.788  1.00  0.00     0.029 A 
ATOM     69  C   UNL A   1      41.075  30.377  34.669  1.00  0.00     0.049 A 
ATOM     70  H   UNL A   1      41.214  29.496  32.757  1.00  0.00     0.167 HD
ATOM     71  C   UNL A   1      39.229  31.426  33.384  1.00  0.00     0.074 A 
ATOM     72  C   UNL A   1      38.085  32.305  33.263  1.00  0.00     0.031 C 
ATOM     73  C   UNL A   1      39.943  31.257  34.524  1.00  0.00     0.037 A 
BRANCH  60  74
ATOM     74  C   UNL A   1      44.548  27.160  34.035  1.00  0.00     0.057 A 
ATOM     75  C   UNL A   1      45.861  27.647  34.053  1.00  0.00     0.134 A 
ATOM     76  C   UNL A   1      44.308  25.935  34.672  1.00  0.00     0.134 A 
ATOM     77  F   UNL A   1      46.167  28.803  33.443  1.00  0.00    -0.206 F 
ATOM     78  C   UNL A   1      46.897  26.931  34.655  1.00  0.00     0.040 A 
ATOM     79  C   UNL A   1      45.329  25.225  35.304  1.00  0.00     0.040 A 
ATOM     80  F   UNL A   1      43.074  25.408  34.691  1.00  0.00    -0.206 F 
ATOM     81  C   UNL A   1      46.630  25.719  35.290  1.00  0.00     0.006 A 
ENDBRANCH  60  74
BRANCH  61  82
ATOM     82  C   UNL A   1      37.061  31.719  29.216  1.00  0.00     0.057 A 
ATOM     83  C   UNL A   1      37.183  33.015  28.701  1.00  0.00     0.134 A 
ATOM     84  C   UNL A   1      35.814  31.093  29.089  1.00  0.00     0.134 A 
ATOM     85  F   UNL A   1      38.341  33.681  28.818  1.00  0.00    -0.206 F 
ATOM     86  C   UNL A   1      36.105  33.671  28.103  1.00  0.00     0.040 A 
ATOM     87  C   UNL A   1      34.736  31.725  28.466  1.00  0.00     0.040 A 
ATOM     88  F   UNL A   1      35.624  29.855  29.567  1.00  0.00    -0.206 F 
ATOM     89  C   UNL A   1      34.877  33.023  27.979  1.00  0.00     0.006 A 
ENDBRANCH  61  82
BRANCH  73  90
ATOM     90  C   UNL A   1      39.547  32.080  35.718  1.00  0.00     0.057 A 
ATOM     91  C   UNL A   1      40.098  33.343  35.969  1.00  0.00     0.134 A 
ATOM     92  C   UNL A   1      38.562  31.618  36.602  1.00  0.00     0.134 A 
ATOM     93  F   UNL A   1      41.053  33.840  35.168  1.00  0.00    -0.206 F 
ATOM     94  C   UNL A   1      39.702  34.105  37.069  1.00  0.00     0.040 A 
ATOM     95  C   UNL A   1      38.134  32.384  37.686  1.00  0.00     0.040 A 
ATOM     96  F   UNL A   1      37.984  30.422  36.413  1.00  0.00    -0.206 F 
ATOM     97  C   UNL A   1      38.711  33.629  37.926  1.00  0.00     0.006 A 
ENDBRANCH  73  90
ENDBRANCH  47  48
ENDBRANCH  40  42
ENDBRANCH  39  40
ENDBRANCH  38  39
ENDBRANCH  37  38
ENDBRANCH  36  37
ENDBRANCH  35  36
ENDBRANCH   1  35
TORSDOF 21
ENDMDL
MODEL 3
REMARK VINA RESULT:     -11.8      1.683      6.473
REMARK SMILES O=C(NC1(C(=O)OCCOCCOCCOC(=O)c2ccc(-c3c4nc(c(-c5c(F)cccc5F)c5ccc([nH]5)c(-c5c(F)cccc5F)c5nc(c(-c6c(F)cccc6F)c6ccc3[nH]6)C=C5)C=C4)cc2)CC[NH2+]CC1)OCC1c2ccccc2-c2ccccc21
REMARK SMILES IDX 11 1 10 2 9 3 8 4 7 5 5 6 6 7 4 8 73 9 77 10 74 11 76 12
REMARK SMILES IDX 75 13 3 16 1 17 2 18 78 20 79 21 80 22 81 23 92 24 82 25
REMARK SMILES IDX 86 26 87 27 91 28 83 29 85 30 88 31 90 32 84 33 89 34 12 35
REMARK SMILES IDX 13 36 14 37 15 38 16 39 17 40 18 41 19 42 20 43 72 44 21 45
REMARK SMILES IDX 71 46 22 47 23 48 24 49 65 50 25 51 70 52 64 53 66 54 26 55
REMARK SMILES IDX 69 56 63 57 62 58 27 60 53 61 36 62 52 63 37 64 40 65 51 66
REMARK SMILES IDX 67 67 38 68 39 69 50 71 68 72 41 73 28 74 29 75 34 76 30 77
REMARK SMILES IDX 31 78 33 79 35 80 32 81 54 82 55 83 60 84 56 85 57 86 59 87
REMARK SMILES IDX 61 88 58 89 42 90 43 91 48 92 44 93 45 94 47 95 49 96 46 97
REMARK H PARENT 75 14 75 15 3 19 66 59 40 70
REMARK Flexibility Score: inf
ROOT
ATOM      1  C   UNL A   1      40.792  20.930  27.159  1.00  0.00     0.188 C 
ENDROOT
BRANCH   1   2
ATOM      2  O   UNL A   1      39.919  20.623  26.078  1.00  0.00    -0.376 OA
BRANCH   2   3
ATOM      3  C   UNL A   1      38.973  21.649  25.790  1.00  0.00     0.202 C 
BRANCH   3   4
ATOM      4  C   UNL A   1      37.712  21.165  25.050  1.00  0.00     0.261 C 
BRANCH   4   5
ATOM      5  O   UNL A   1      36.861  22.215  24.535  1.00  0.00    -0.461 OA
BRANCH   5   6
ATOM      6  C   UNL A   1      35.876  22.647  25.370  1.00  0.00     0.332 C 
ATOM      7  O   UNL A   1      36.080  23.308  26.386  1.00  0.00    -0.249 OA
BRANCH   6   8
ATOM      8  C   UNL A   1      34.444  22.240  24.938  1.00  0.00     0.151 C 
ATOM      9  C   UNL A   1      34.134  20.746  24.822  1.00  0.00     0.102 C 
ATOM     10  C   UNL A   1      33.485  22.740  26.044  1.00  0.00     0.102 C 
ATOM     11  C   UNL A   1      32.684  20.527  24.388  1.00  0.00     0.263 C 
ATOM     12  C   UNL A   1      32.015  22.391  25.769  1.00  0.00     0.263 C 
ATOM     13  N   UNL A   1      31.797  20.981  25.451  1.00  0.00    -0.346 N 
ATOM     14  H   UNL A   1      31.969  20.422  26.287  1.00  0.00     0.346 HD
ATOM     15  H   UNL A   1      30.835  20.870  25.132  1.00  0.00     0.346 HD
BRANCH   8  16
ATOM     16  N   UNL A   1      34.222  22.967  23.662  1.00  0.00    -0.305 N 
ATOM     17  O   UNL A   1      34.033  24.826  22.380  1.00  0.00    -0.225 OA
ATOM     18  C   UNL A   1      34.095  24.319  23.484  1.00  0.00     0.408 C 
ATOM     19  H   UNL A   1      34.158  22.413  22.851  1.00  0.00     0.168 HD
BRANCH  18  20
ATOM     20  O   UNL A   1      34.113  25.032  24.647  1.00  0.00    -0.449 OA
BRANCH  20  21
ATOM     21  C   UNL A   1      33.792  26.402  24.427  1.00  0.00     0.248 C 
BRANCH  21  22
ATOM     22  C   UNL A   1      32.980  27.129  25.541  1.00  0.00     0.088 C 
ATOM     23  C   UNL A   1      33.352  28.508  26.115  1.00  0.00    -0.029 A 
ATOM     24  C   UNL A   1      31.633  27.473  24.869  1.00  0.00    -0.029 A 
ATOM     25  C   UNL A   1      34.449  28.919  26.846  1.00  0.00     0.005 A 
ATOM     26  C   UNL A   1      32.322  29.436  25.889  1.00  0.00    -0.014 A 
ATOM     27  C   UNL A   1      31.388  28.854  24.967  1.00  0.00    -0.014 A 
ATOM     28  C   UNL A   1      30.889  26.666  24.020  1.00  0.00     0.005 A 
ATOM     29  C   UNL A   1      34.456  30.172  27.472  1.00  0.00     0.000 A 
ATOM     30  C   UNL A   1      32.298  30.676  26.521  1.00  0.00     0.009 A 
ATOM     31  C   UNL A   1      30.530  29.478  24.082  1.00  0.00     0.009 A 
ATOM     32  C   UNL A   1      30.018  27.293  23.133  1.00  0.00     0.000 A 
ATOM     33  C   UNL A   1      33.362  31.029  27.348  1.00  0.00     0.001 A 
ATOM     34  C   UNL A   1      29.872  28.690  23.136  1.00  0.00     0.001 A 
ENDBRANCH  21  22
ENDBRANCH  20  21
ENDBRANCH  18  20
ENDBRANCH   8  16
ENDBRANCH   6   8
ENDBRANCH   5   6
ENDBRANCH   4   5
ENDBRANCH   3   4
ENDBRANCH   2   3
ENDBRANCH   1   2
BRANCH   1  35
ATOM     35  C   UNL A   1      42.262  21.036  26.751  1.00  0.00     0.188 C 
BRANCH  35  36
ATOM     36  O   UNL A   1      42.444  21.426  25.392  1.00  0.00    -0.376 OA
BRANCH  36  37
ATOM     37  C   UNL A   1      43.201  22.613  25.183  1.00  0.00     0.202 C 
BRANCH  37  38
ATOM     38  C   UNL A   1      42.989  23.762  26.181  1.00  0.00     0.261 C 
BRANCH  38  39
ATOM     39  O   UNL A   1      41.777  24.496  25.931  1.00  0.00    -0.460 OA
BRANCH  39  40
ATOM     40  C   UNL A   1      41.959  25.817  25.679  1.00  0.00     0.338 C 
ATOM     41  O   UNL A   1      42.340  26.326  24.637  1.00  0.00    -0.246 OA
BRANCH  40  42
ATOM     42  C   UNL A   1      41.390  26.621  26.784  1.00  0.00     0.060 A 
ATOM     43  C   UNL A   1      41.864  27.932  26.912  1.00  0.00     0.016 A 
ATOM     44  C   UNL A   1      40.421  26.145  27.660  1.00  0.00     0.016 A 
ATOM     45  C   UNL A   1      41.421  28.768  27.928  1.00  0.00     0.010 A 
ATOM     46  C   UNL A   1      39.985  26.975  28.701  1.00  0.00     0.010 A 
ATOM     47  C   UNL A   1      40.510  28.276  28.859  1.00  0.00    -0.014 A 
BRANCH  47  48
ATOM     48  C   UNL A   1      40.284  29.021  30.119  1.00  0.00     0.031 A 
ATOM     49  C   UNL A   1      39.177  30.035  30.136  1.00  0.00     0.074 A 
ATOM     50  C   UNL A   1      41.001  28.784  31.231  1.00  0.00     0.049 A 
ATOM     51  N   UNL A   1      38.900  30.956  31.020  1.00  0.00    -0.248 NA
ATOM     52  C   UNL A   1      38.258  30.008  28.985  1.00  0.00     0.031 C 
ATOM     53  C   UNL A   1      42.006  27.736  31.390  1.00  0.00     0.029 A 
ATOM     54  N   UNL A   1      40.993  29.432  32.440  1.00  0.00    -0.354 N 
ATOM     55  C   UNL A   1      37.809  31.647  30.511  1.00  0.00     0.074 A 
ATOM     56  C   UNL A   1      37.478  31.047  29.238  1.00  0.00     0.031 C 
ATOM     57  C   UNL A   1      42.539  27.829  32.620  1.00  0.00     0.029 A 
ATOM     58  C   UNL A   1      41.955  28.978  33.309  1.00  0.00     0.049 A 
ATOM     59  H   UNL A   1      40.360  30.152  32.664  1.00  0.00     0.167 HD
ATOM     60  C   UNL A   1      37.150  32.695  31.056  1.00  0.00     0.037 A 
ATOM     61  C   UNL A   1      42.346  29.470  34.501  1.00  0.00     0.037 A 
ATOM     62  C   UNL A   1      37.472  33.263  32.336  1.00  0.00     0.049 A 
ATOM     63  C   UNL A   1      41.670  30.704  35.042  1.00  0.00     0.074 A 
ATOM     64  C   UNL A   1      36.872  34.327  32.985  1.00  0.00     0.029 A 
ATOM     65  N   UNL A   1      38.489  32.808  33.165  1.00  0.00    -0.354 N 
ATOM     66  N   UNL A   1      40.673  31.394  34.540  1.00  0.00    -0.248 NA
ATOM     67  C   UNL A   1      42.180  31.236  36.314  1.00  0.00     0.031 C 
ATOM     68  C   UNL A   1      37.564  34.555  34.179  1.00  0.00     0.029 A 
ATOM     69  C   UNL A   1      38.550  33.590  34.307  1.00  0.00     0.049 A 
ATOM     70  H   UNL A   1      39.078  32.045  32.971  1.00  0.00     0.167 HD
ATOM     71  C   UNL A   1      40.415  32.414  35.448  1.00  0.00     0.074 A 
ATOM     72  C   UNL A   1      41.354  32.248  36.537  1.00  0.00     0.031 C 
ATOM     73  C   UNL A   1      39.484  33.399  35.388  1.00  0.00     0.037 A 
BRANCH  60  74
ATOM     74  C   UNL A   1      36.061  33.327  30.238  1.00  0.00     0.057 A 
ATOM     75  C   UNL A   1      36.326  34.143  29.131  1.00  0.00     0.134 A 
ATOM     76  C   UNL A   1      34.717  33.105  30.568  1.00  0.00     0.134 A 
ATOM     77  F   UNL A   1      37.590  34.415  28.773  1.00  0.00    -0.206 F 
ATOM     78  C   UNL A   1      35.295  34.737  28.400  1.00  0.00     0.040 A 
ATOM     79  C   UNL A   1      33.679  33.668  29.827  1.00  0.00     0.040 A 
ATOM     80  F   UNL A   1      34.392  32.335  31.618  1.00  0.00    -0.206 F 
ATOM     81  C   UNL A   1      33.967  34.494  28.744  1.00  0.00     0.006 A 
ENDBRANCH  60  74
BRANCH  61  82
ATOM     82  C   UNL A   1      43.465  28.835  35.247  1.00  0.00     0.057 A 
ATOM     83  C   UNL A   1      44.781  29.288  35.105  1.00  0.00     0.134 A 
ATOM     84  C   UNL A   1      43.252  27.734  36.088  1.00  0.00     0.134 A 
ATOM     85  F   UNL A   1      45.058  30.317  34.291  1.00  0.00    -0.206 F 
ATOM     86  C   UNL A   1      45.847  28.660  35.755  1.00  0.00     0.040 A 
ATOM     87  C   UNL A   1      44.303  27.117  36.768  1.00  0.00     0.040 A 
ATOM     88  F   UNL A   1      42.016  27.243  36.264  1.00  0.00    -0.206 F 
ATOM     89  C   UNL A   1      45.607  27.574  36.595  1.00  0.00     0.006 A 
ENDBRANCH  61  82
BRANCH  73  90
ATOM     90  C   UNL A   1      39.393  34.338  36.558  1.00  0.00     0.057 A 
ATOM     91  C   UNL A   1      38.716  33.998  37.736  1.00  0.00     0.134 A 
ATOM     92  C   UNL A   1      40.035  35.583  36.518  1.00  0.00     0.134 A 
ATOM     93  F   UNL A   1      38.071  32.827  37.837  1.00  0.00    -0.206 F 
ATOM     94  C   UNL A   1      38.662  34.872  38.822  1.00  0.00     0.040 A 
ATOM     95  C   UNL A   1      40.016  36.452  37.609  1.00  0.00     0.040 A 
ATOM     96  F   UNL A   1      40.712  35.966  35.425  1.00  0.00    -0.206 F 
ATOM     97  C   UNL A   1      39.320  36.100  38.763  1.00  0.00     0.006 A 
ENDBRANCH  73  90
ENDBRANCH  47  48
ENDBRANCH  40  42
ENDBRANCH  39  40
ENDBRANCH  38  39
ENDBRANCH  37  38
ENDBRANCH  36  37
ENDBRANCH  35  36
ENDBRANCH   1  35
TORSDOF 21
ENDMDL
