MODEL 1
REMARK VINA RESULT:      -9.8      0.000      0.000
REMARK SMILES CC[C@H](C)[C@@H](NC(=O)/C=C/c1csc(C)n1)C(=O)OCCOCCOCCOC(=O)c1ccc(-c2c3nc(c(-c4c(F)cccc4F)c4ccc([nH]4)c(-c4c(F)cccc4F)c4nc(c(-c5c(F)cccc5F)c5ccc2[nH]5)C=C4)C=C3)cc1
REMARK SMILES IDX 23 1 22 2 21 3 20 4 19 5 17 6 18 7 5 8 3 9 4 10 2 11 1 12
REMARK SMILES IDX 6 13 7 14 8 16 9 17 10 18 11 19 12 20 16 21 13 22 14 23
REMARK SMILES IDX 15 24 24 25 25 26 26 27 27 28 28 29 29 30 30 31 31 32 32 33
REMARK SMILES IDX 84 34 33 35 83 36 34 37 35 38 36 39 77 40 37 41 82 42 76 43
REMARK SMILES IDX 78 44 38 45 81 46 75 47 74 48 39 50 65 51 48 52 64 53 49 54
REMARK SMILES IDX 52 55 63 56 79 57 50 58 51 59 62 61 80 62 53 63 40 64 41 65
REMARK SMILES IDX 46 66 42 67 43 68 45 69 47 70 44 71 66 72 67 73 72 74 68 75
REMARK SMILES IDX 69 76 71 77 73 78 70 79 54 80 55 81 60 82 56 83 57 84 59 85
REMARK SMILES IDX 61 86 58 87
REMARK H PARENT 6 15 78 49 52 60
REMARK Flexibility Score: inf
ROOT
ATOM      1  C   UNL A   1      33.914  31.520  27.528  1.00  0.00     0.188 C 
ENDROOT
BRANCH   1   2
ATOM      2  O   UNL A   1      32.520  31.701  27.363  1.00  0.00    -0.376 OA
BRANCH   2   3
ATOM      3  C   UNL A   1      31.974  30.857  26.372  1.00  0.00     0.202 C 
BRANCH   3   4
ATOM      4  C   UNL A   1      32.346  29.368  26.318  1.00  0.00     0.261 C 
BRANCH   4   5
ATOM      5  O   UNL A   1      31.914  28.445  25.302  1.00  0.00    -0.462 OA
BRANCH   5   6
ATOM      6  C   UNL A   1      32.415  28.485  24.049  1.00  0.00     0.329 C 
ATOM      7  O   UNL A   1      33.242  29.292  23.642  1.00  0.00    -0.250 OA
BRANCH   6   8
ATOM      8  C   UNL A   1      31.711  27.504  23.095  1.00  0.00     0.195 C 
BRANCH   8   9
ATOM      9  C   UNL A   1      30.295  28.014  22.639  1.00  0.00     0.019 C 
ATOM     10  C   UNL A   1      29.151  27.460  23.500  1.00  0.00     0.010 C 
BRANCH   9  11
ATOM     11  C   UNL A   1      30.267  29.569  22.608  1.00  0.00     0.002 C 
ATOM     12  C   UNL A   1      29.099  30.270  23.293  1.00  0.00     0.004 C 
ENDBRANCH   9  11
ENDBRANCH   8   9
BRANCH   8  13
ATOM     13  N   UNL A   1      32.600  27.112  21.970  1.00  0.00    -0.339 N 
ATOM     14  C   UNL A   1      32.899  25.841  21.539  1.00  0.00     0.244 C 
ATOM     15  H   UNL A   1      33.025  27.848  21.474  1.00  0.00     0.164 HD
ATOM     16  O   UNL A   1      32.906  25.578  20.342  1.00  0.00    -0.270 OA
BRANCH  14  17
ATOM     17  C   UNL A   1      33.437  24.877  22.522  1.00  0.00     0.073 C 
ATOM     18  C   UNL A   1      33.467  23.552  22.304  1.00  0.00     0.035 C 
BRANCH  18  19
ATOM     19  C   UNL A   1      33.798  22.577  23.302  1.00  0.00     0.074 A 
ATOM     20  C   UNL A   1      32.875  21.746  23.905  1.00  0.00     0.095 A 
ATOM     21  N   UNL A   1      35.076  22.525  23.836  1.00  0.00    -0.242 NA
ATOM     22  S   UNL A   1      33.633  20.828  25.141  1.00  0.00    -0.127 S 
ATOM     23  C   UNL A   1      35.110  21.659  24.831  1.00  0.00     0.090 A 
ATOM     24  C   UNL A   1      36.269  21.468  25.750  1.00  0.00     0.079 C 
ENDBRANCH  18  19
ENDBRANCH  14  17
ENDBRANCH   8  13
ENDBRANCH   6   8
ENDBRANCH   5   6
ENDBRANCH   4   5
ENDBRANCH   3   4
ENDBRANCH   2   3
ENDBRANCH   1   2
BRANCH   1  25
ATOM     25  C   UNL A   1      34.392  32.071  28.857  1.00  0.00     0.188 C 
BRANCH  25  26
ATOM     26  O   UNL A   1      34.062  33.413  29.189  1.00  0.00    -0.376 OA
BRANCH  26  27
ATOM     27  C   UNL A   1      34.632  34.040  30.338  1.00  0.00     0.202 C 
BRANCH  27  28
ATOM     28  C   UNL A   1      34.403  33.382  31.705  1.00  0.00     0.261 C 
BRANCH  28  29
ATOM     29  O   UNL A   1      35.566  32.800  32.315  1.00  0.00    -0.460 OA
BRANCH  29  30
ATOM     30  C   UNL A   1      36.739  33.474  32.186  1.00  0.00     0.338 C 
ATOM     31  O   UNL A   1      37.042  34.529  32.690  1.00  0.00    -0.246 OA
BRANCH  30  32
ATOM     32  C   UNL A   1      37.686  32.543  31.512  1.00  0.00     0.060 A 
ATOM     33  C   UNL A   1      38.528  31.760  32.316  1.00  0.00     0.016 A 
ATOM     34  C   UNL A   1      37.658  32.343  30.128  1.00  0.00     0.016 A 
ATOM     35  C   UNL A   1      39.396  30.835  31.735  1.00  0.00     0.010 A 
ATOM     36  C   UNL A   1      38.534  31.425  29.544  1.00  0.00     0.010 A 
ATOM     37  C   UNL A   1      39.445  30.707  30.340  1.00  0.00    -0.014 A 
BRANCH  37  38
ATOM     38  C   UNL A   1      40.630  30.083  29.700  1.00  0.00     0.031 A 
ATOM     39  C   UNL A   1      41.819  30.973  29.448  1.00  0.00     0.074 A 
ATOM     40  C   UNL A   1      40.685  28.780  29.370  1.00  0.00     0.049 A 
ATOM     41  N   UNL A   1      42.936  30.720  28.819  1.00  0.00    -0.248 NA
ATOM     42  C   UNL A   1      41.724  32.345  29.980  1.00  0.00     0.031 C 
ATOM     43  C   UNL A   1      39.638  27.792  29.613  1.00  0.00     0.029 A 
ATOM     44  N   UNL A   1      41.680  28.070  28.742  1.00  0.00    -0.354 N 
ATOM     45  C   UNL A   1      43.666  31.901  28.867  1.00  0.00     0.074 A 
ATOM     46  C   UNL A   1      42.856  32.880  29.557  1.00  0.00     0.031 C 
ATOM     47  C   UNL A   1      40.041  26.605  29.126  1.00  0.00     0.029 A 
ATOM     48  C   UNL A   1      41.356  26.757  28.503  1.00  0.00     0.049 A 
ATOM     49  H   UNL A   1      42.545  28.465  28.488  1.00  0.00     0.167 HD
ATOM     50  C   UNL A   1      44.907  32.152  28.390  1.00  0.00     0.037 A 
ATOM     51  C   UNL A   1      42.033  25.802  27.833  1.00  0.00     0.037 A 
ATOM     52  C   UNL A   1      45.719  31.184  27.709  1.00  0.00     0.049 A 
ATOM     53  C   UNL A   1      43.380  26.125  27.233  1.00  0.00     0.074 A 
ATOM     54  C   UNL A   1      46.988  31.341  27.183  1.00  0.00     0.029 A 
ATOM     55  N   UNL A   1      45.338  29.875  27.459  1.00  0.00    -0.354 N 
ATOM     56  N   UNL A   1      44.061  27.245  27.276  1.00  0.00    -0.248 NA
ATOM     57  C   UNL A   1      44.051  25.050  26.487  1.00  0.00     0.031 C 
ATOM     58  C   UNL A   1      47.358  30.139  26.572  1.00  0.00     0.029 A 
ATOM     59  C   UNL A   1      46.341  29.218  26.767  1.00  0.00     0.049 A 
ATOM     60  H   UNL A   1      44.483  29.472  27.732  1.00  0.00     0.167 HD
ATOM     61  C   UNL A   1      45.247  27.001  26.592  1.00  0.00     0.074 A 
ATOM     62  C   UNL A   1      45.200  25.623  26.154  1.00  0.00     0.031 C 
ATOM     63  C   UNL A   1      46.284  27.841  26.349  1.00  0.00     0.037 A 
BRANCH  50  64
ATOM     64  C   UNL A   1      45.440  33.543  28.565  1.00  0.00     0.057 A 
ATOM     65  C   UNL A   1      45.200  34.553  27.624  1.00  0.00     0.134 A 
ATOM     66  C   UNL A   1      46.199  33.875  29.693  1.00  0.00     0.134 A 
ATOM     67  F   UNL A   1      44.501  34.293  26.509  1.00  0.00    -0.206 F 
ATOM     68  C   UNL A   1      45.718  35.839  27.789  1.00  0.00     0.040 A 
ATOM     69  C   UNL A   1      46.698  35.164  29.883  1.00  0.00     0.040 A 
ATOM     70  F   UNL A   1      46.467  32.952  30.630  1.00  0.00    -0.206 F 
ATOM     71  C   UNL A   1      46.463  36.149  28.925  1.00  0.00     0.006 A 
ENDBRANCH  50  64
BRANCH  51  72
ATOM     72  C   UNL A   1      41.444  24.449  27.657  1.00  0.00     0.057 A 
ATOM     73  C   UNL A   1      41.903  23.350  28.393  1.00  0.00     0.134 A 
ATOM     74  C   UNL A   1      40.436  24.213  26.713  1.00  0.00     0.134 A 
ATOM     75  F   UNL A   1      42.889  23.504  29.290  1.00  0.00    -0.206 F 
ATOM     76  C   UNL A   1      41.397  22.065  28.186  1.00  0.00     0.040 A 
ATOM     77  C   UNL A   1      39.902  22.938  26.514  1.00  0.00     0.040 A 
ATOM     78  F   UNL A   1      39.955  25.219  25.969  1.00  0.00    -0.206 F 
ATOM     79  C   UNL A   1      40.390  21.858  27.246  1.00  0.00     0.006 A 
ENDBRANCH  51  72
BRANCH  63  80
ATOM     80  C   UNL A   1      47.471  27.287  25.614  1.00  0.00     0.057 A 
ATOM     81  C   UNL A   1      47.619  27.428  24.229  1.00  0.00     0.134 A 
ATOM     82  C   UNL A   1      48.507  26.655  26.313  1.00  0.00     0.134 A 
ATOM     83  F   UNL A   1      46.659  28.017  23.499  1.00  0.00    -0.206 F 
ATOM     84  C   UNL A   1      48.743  26.939  23.561  1.00  0.00     0.040 A 
ATOM     85  C   UNL A   1      49.650  26.187  25.661  1.00  0.00     0.040 A 
ATOM     86  F   UNL A   1      48.437  26.499  27.644  1.00  0.00    -0.206 F 
ATOM     87  C   UNL A   1      49.767  26.323  24.280  1.00  0.00     0.006 A 
ENDBRANCH  63  80
ENDBRANCH  37  38
ENDBRANCH  30  32
ENDBRANCH  29  30
ENDBRANCH  28  29
ENDBRANCH  27  28
ENDBRANCH  26  27
ENDBRANCH  25  26
ENDBRANCH   1  25
TORSDOF 22
ENDMDL
MODEL 2
REMARK VINA RESULT:      -9.8      4.134      8.008
REMARK SMILES CC[C@H](C)[C@@H](NC(=O)/C=C/c1csc(C)n1)C(=O)OCCOCCOCCOC(=O)c1ccc(-c2c3nc(c(-c4c(F)cccc4F)c4ccc([nH]4)c(-c4c(F)cccc4F)c4nc(c(-c5c(F)cccc5F)c5ccc2[nH]5)C=C4)C=C3)cc1
REMARK SMILES IDX 23 1 22 2 21 3 20 4 19 5 17 6 18 7 5 8 3 9 4 10 2 11 1 12
REMARK SMILES IDX 6 13 7 14 8 16 9 17 10 18 11 19 12 20 16 21 13 22 14 23
REMARK SMILES IDX 15 24 24 25 25 26 26 27 27 28 28 29 29 30 30 31 31 32 32 33
REMARK SMILES IDX 84 34 33 35 83 36 34 37 35 38 36 39 77 40 37 41 82 42 76 43
REMARK SMILES IDX 78 44 38 45 81 46 75 47 74 48 39 50 65 51 48 52 64 53 49 54
REMARK SMILES IDX 52 55 63 56 79 57 50 58 51 59 62 61 80 62 53 63 40 64 41 65
REMARK SMILES IDX 46 66 42 67 43 68 45 69 47 70 44 71 66 72 67 73 72 74 68 75
REMARK SMILES IDX 69 76 71 77 73 78 70 79 54 80 55 81 60 82 56 83 57 84 59 85
REMARK SMILES IDX 61 86 58 87
REMARK H PARENT 6 15 78 49 52 60
REMARK Flexibility Score: inf
ROOT
ATOM      1  C   UNL A   1      32.325  29.262  25.356  1.00  0.00     0.188 C 
ENDROOT
BRANCH   1   2
ATOM      2  O   UNL A   1      32.957  29.434  24.101  1.00  0.00    -0.376 OA
BRANCH   2   3
ATOM      3  C   UNL A   1      33.554  28.248  23.624  1.00  0.00     0.202 C 
BRANCH   3   4
ATOM      4  C   UNL A   1      32.878  27.417  22.522  1.00  0.00     0.261 C 
BRANCH   4   5
ATOM      5  O   UNL A   1      32.418  26.063  22.674  1.00  0.00    -0.462 OA
BRANCH   5   6
ATOM      6  C   UNL A   1      33.108  25.019  22.167  1.00  0.00     0.329 C 
ATOM      7  O   UNL A   1      33.289  24.800  20.976  1.00  0.00    -0.250 OA
BRANCH   6   8
ATOM      8  C   UNL A   1      33.522  24.001  23.244  1.00  0.00     0.195 C 
BRANCH   8   9
ATOM      9  C   UNL A   1      34.738  24.496  24.111  1.00  0.00     0.019 C 
ATOM     10  C   UNL A   1      34.310  25.113  25.450  1.00  0.00     0.010 C 
BRANCH   9  11
ATOM     11  C   UNL A   1      35.751  23.335  24.330  1.00  0.00     0.002 C 
ATOM     12  C   UNL A   1      36.151  23.006  25.763  1.00  0.00     0.004 C 
ENDBRANCH   9  11
ENDBRANCH   8   9
BRANCH   8  13
ATOM     13  N   UNL A   1      32.352  23.557  24.048  1.00  0.00    -0.339 N 
ATOM     14  C   UNL A   1      32.325  22.600  25.033  1.00  0.00     0.244 C 
ATOM     15  H   UNL A   1      31.496  24.001  23.851  1.00  0.00     0.164 HD
ATOM     16  O   UNL A   1      31.720  22.804  26.080  1.00  0.00    -0.270 OA
BRANCH  14  17
ATOM     17  C   UNL A   1      32.829  21.248  24.711  1.00  0.00     0.073 C 
ATOM     18  C   UNL A   1      32.353  20.134  25.292  1.00  0.00     0.035 C 
BRANCH  18  19
ATOM     19  C   UNL A   1      32.945  18.835  25.151  1.00  0.00     0.074 A 
ATOM     20  C   UNL A   1      34.047  18.570  24.364  1.00  0.00     0.095 A 
ATOM     21  N   UNL A   1      32.328  17.721  25.696  1.00  0.00    -0.242 NA
ATOM     22  S   UNL A   1      34.361  16.883  24.344  1.00  0.00    -0.127 S 
ATOM     23  C   UNL A   1      32.965  16.627  25.321  1.00  0.00     0.090 A 
ATOM     24  C   UNL A   1      32.486  15.238  25.571  1.00  0.00     0.079 C 
ENDBRANCH  18  19
ENDBRANCH  14  17
ENDBRANCH   8  13
ENDBRANCH   6   8
ENDBRANCH   5   6
ENDBRANCH   4   5
ENDBRANCH   3   4
ENDBRANCH   2   3
ENDBRANCH   1   2
BRANCH   1  25
ATOM     25  C   UNL A   1      31.543  30.497  25.758  1.00  0.00     0.188 C 
BRANCH  25  26
ATOM     26  O   UNL A   1      31.741  31.026  27.062  1.00  0.00    -0.376 OA
BRANCH  26  27
ATOM     27  C   UNL A   1      32.829  31.909  27.332  1.00  0.00     0.202 C 
BRANCH  27  28
ATOM     28  C   UNL A   1      32.541  33.415  27.373  1.00  0.00     0.261 C 
BRANCH  28  29
ATOM     29  O   UNL A   1      32.422  33.988  28.685  1.00  0.00    -0.460 OA
BRANCH  29  30
ATOM     30  C   UNL A   1      33.378  34.874  29.066  1.00  0.00     0.338 C 
ATOM     31  O   UNL A   1      33.248  36.058  29.266  1.00  0.00    -0.246 OA
BRANCH  30  32
ATOM     32  C   UNL A   1      34.571  34.067  29.448  1.00  0.00     0.060 A 
ATOM     33  C   UNL A   1      34.388  32.999  30.339  1.00  0.00     0.016 A 
ATOM     34  C   UNL A   1      35.816  34.268  28.843  1.00  0.00     0.016 A 
ATOM     35  C   UNL A   1      35.464  32.180  30.686  1.00  0.00     0.010 A 
ATOM     36  C   UNL A   1      36.896  33.455  29.197  1.00  0.00     0.010 A 
ATOM     37  C   UNL A   1      36.737  32.443  30.162  1.00  0.00    -0.014 A 
BRANCH  37  38
ATOM     38  C   UNL A   1      37.938  31.891  30.837  1.00  0.00     0.031 A 
ATOM     39  C   UNL A   1      38.684  30.799  30.116  1.00  0.00     0.074 A 
ATOM     40  C   UNL A   1      38.383  32.337  32.025  1.00  0.00     0.049 A 
ATOM     41  N   UNL A   1      39.696  30.073  30.513  1.00  0.00    -0.248 NA
ATOM     42  C   UNL A   1      38.212  30.481  28.756  1.00  0.00     0.031 C 
ATOM     43  C   UNL A   1      37.800  33.427  32.801  1.00  0.00     0.029 A 
ATOM     44  N   UNL A   1      39.442  31.906  32.788  1.00  0.00    -0.354 N 
ATOM     45  C   UNL A   1      39.970  29.208  29.461  1.00  0.00     0.074 A 
ATOM     46  C   UNL A   1      39.000  29.474  28.423  1.00  0.00     0.031 C 
ATOM     47  C   UNL A   1      38.500  33.571  33.941  1.00  0.00     0.029 A 
ATOM     48  C   UNL A   1      39.556  32.559  33.991  1.00  0.00     0.049 A 
ATOM     49  H   UNL A   1      40.060  31.197  32.501  1.00  0.00     0.167 HD
ATOM     50  C   UNL A   1      40.947  28.278  29.359  1.00  0.00     0.037 A 
ATOM     51  C   UNL A   1      40.398  32.341  35.022  1.00  0.00     0.037 A 
ATOM     52  C   UNL A   1      41.916  28.012  30.384  1.00  0.00     0.049 A 
ATOM     53  C   UNL A   1      41.428  31.242  34.924  1.00  0.00     0.074 A 
ATOM     54  C   UNL A   1      42.944  27.088  30.377  1.00  0.00     0.029 A 
ATOM     55  N   UNL A   1      41.976  28.674  31.600  1.00  0.00    -0.354 N 
ATOM     56  N   UNL A   1      41.676  30.423  33.930  1.00  0.00    -0.248 NA
ATOM     57  C   UNL A   1      42.293  31.034  36.096  1.00  0.00     0.031 C 
ATOM     58  C   UNL A   1      43.598  27.156  31.612  1.00  0.00     0.029 A 
ATOM     59  C   UNL A   1      43.011  28.163  32.362  1.00  0.00     0.049 A 
ATOM     60  H   UNL A   1      41.372  29.399  31.880  1.00  0.00     0.167 HD
ATOM     61  C   UNL A   1      42.740  29.628  34.343  1.00  0.00     0.074 A 
ATOM     62  C   UNL A   1      43.098  30.069  35.674  1.00  0.00     0.031 C 
ATOM     63  C   UNL A   1      43.365  28.622  33.681  1.00  0.00     0.037 A 
BRANCH  50  64
ATOM     64  C   UNL A   1      40.987  27.462  28.101  1.00  0.00     0.057 A 
ATOM     65  C   UNL A   1      41.723  27.866  26.979  1.00  0.00     0.134 A 
ATOM     66  C   UNL A   1      40.281  26.257  28.014  1.00  0.00     0.134 A 
ATOM     67  F   UNL A   1      42.401  29.023  26.989  1.00  0.00    -0.206 F 
ATOM     68  C   UNL A   1      41.737  27.107  25.807  1.00  0.00     0.040 A 
ATOM     69  C   UNL A   1      40.311  25.476  26.859  1.00  0.00     0.040 A 
ATOM     70  F   UNL A   1      39.554  25.817  29.052  1.00  0.00    -0.206 F 
ATOM     71  C   UNL A   1      41.035  25.904  25.748  1.00  0.00     0.006 A 
ENDBRANCH  50  64
BRANCH  51  72
ATOM     72  C   UNL A   1      40.293  33.155  36.262  1.00  0.00     0.057 A 
ATOM     73  C   UNL A   1      41.097  34.283  36.466  1.00  0.00     0.134 A 
ATOM     74  C   UNL A   1      39.415  32.798  37.293  1.00  0.00     0.134 A 
ATOM     75  F   UNL A   1      41.982  34.659  35.530  1.00  0.00    -0.206 F 
ATOM     76  C   UNL A   1      41.048  35.013  37.656  1.00  0.00     0.040 A 
ATOM     77  C   UNL A   1      39.336  33.534  38.477  1.00  0.00     0.040 A 
ATOM     78  F   UNL A   1      38.621  31.724  37.166  1.00  0.00    -0.206 F 
ATOM     79  C   UNL A   1      40.160  34.641  38.663  1.00  0.00     0.006 A 
ENDBRANCH  51  72
BRANCH  63  80
ATOM     80  C   UNL A   1      44.527  27.958  34.361  1.00  0.00     0.057 A 
ATOM     81  C   UNL A   1      44.373  26.802  35.136  1.00  0.00     0.134 A 
ATOM     82  C   UNL A   1      45.827  28.452  34.189  1.00  0.00     0.134 A 
ATOM     83  F   UNL A   1      43.154  26.282  35.346  1.00  0.00    -0.206 F 
ATOM     84  C   UNL A   1      45.467  26.173  35.734  1.00  0.00     0.040 A 
ATOM     85  C   UNL A   1      46.932  27.816  34.759  1.00  0.00     0.040 A 
ATOM     86  F   UNL A   1      46.048  29.547  33.448  1.00  0.00    -0.206 F 
ATOM     87  C   UNL A   1      46.752  26.677  35.540  1.00  0.00     0.006 A 
ENDBRANCH  63  80
ENDBRANCH  37  38
ENDBRANCH  30  32
ENDBRANCH  29  30
ENDBRANCH  28  29
ENDBRANCH  27  28
ENDBRANCH  26  27
ENDBRANCH  25  26
ENDBRANCH   1  25
TORSDOF 22
ENDMDL
MODEL 3
REMARK VINA RESULT:      -9.7      3.944      9.128
REMARK SMILES CC[C@H](C)[C@@H](NC(=O)/C=C/c1csc(C)n1)C(=O)OCCOCCOCCOC(=O)c1ccc(-c2c3nc(c(-c4c(F)cccc4F)c4ccc([nH]4)c(-c4c(F)cccc4F)c4nc(c(-c5c(F)cccc5F)c5ccc2[nH]5)C=C4)C=C3)cc1
REMARK SMILES IDX 23 1 22 2 21 3 20 4 19 5 17 6 18 7 5 8 3 9 4 10 2 11 1 12
REMARK SMILES IDX 6 13 7 14 8 16 9 17 10 18 11 19 12 20 16 21 13 22 14 23
REMARK SMILES IDX 15 24 24 25 25 26 26 27 27 28 28 29 29 30 30 31 31 32 32 33
REMARK SMILES IDX 84 34 33 35 83 36 34 37 35 38 36 39 77 40 37 41 82 42 76 43
REMARK SMILES IDX 78 44 38 45 81 46 75 47 74 48 39 50 65 51 48 52 64 53 49 54
REMARK SMILES IDX 52 55 63 56 79 57 50 58 51 59 62 61 80 62 53 63 40 64 41 65
REMARK SMILES IDX 46 66 42 67 43 68 45 69 47 70 44 71 66 72 67 73 72 74 68 75
REMARK SMILES IDX 69 76 71 77 73 78 70 79 54 80 55 81 60 82 56 83 57 84 59 85
REMARK SMILES IDX 61 86 58 87
REMARK H PARENT 6 15 78 49 52 60
REMARK Flexibility Score: inf
ROOT
ATOM      1  C   UNL A   1      39.168  21.217  26.000  1.00  0.00     0.188 C 
ENDROOT
BRANCH   1   2
ATOM      2  O   UNL A   1      38.159  21.881  25.262  1.00  0.00    -0.376 OA
BRANCH   2   3
ATOM      3  C   UNL A   1      37.782  23.113  25.840  1.00  0.00     0.202 C 
BRANCH   3   4
ATOM      4  C   UNL A   1      36.467  23.797  25.438  1.00  0.00     0.261 C 
BRANCH   4   5
ATOM      5  O   UNL A   1      35.279  23.112  25.002  1.00  0.00    -0.462 OA
BRANCH   5   6
ATOM      6  C   UNL A   1      34.342  22.692  25.879  1.00  0.00     0.329 C 
ATOM      7  O   UNL A   1      34.553  21.981  26.854  1.00  0.00    -0.250 OA
BRANCH   6   8
ATOM      8  C   UNL A   1      32.912  23.053  25.441  1.00  0.00     0.195 C 
BRANCH   8   9
ATOM      9  C   UNL A   1      32.286  21.982  24.474  1.00  0.00     0.019 C 
ATOM     10  C   UNL A   1      31.933  22.552  23.093  1.00  0.00     0.010 C 
BRANCH   9  11
ATOM     11  C   UNL A   1      33.233  20.754  24.345  1.00  0.00     0.002 C 
ATOM     12  C   UNL A   1      32.596  19.370  24.312  1.00  0.00     0.004 C 
ENDBRANCH   9  11
ENDBRANCH   8   9
BRANCH   8  13
ATOM     13  N   UNL A   1      32.054  23.382  26.609  1.00  0.00    -0.339 N 
ATOM     14  C   UNL A   1      30.828  24.003  26.603  1.00  0.00     0.244 C 
ATOM     15  H   UNL A   1      32.405  23.126  27.492  1.00  0.00     0.164 HD
ATOM     16  O   UNL A   1      29.914  23.576  27.299  1.00  0.00    -0.270 OA
BRANCH  14  17
ATOM     17  C   UNL A   1      30.711  25.315  25.934  1.00  0.00     0.073 C 
ATOM     18  C   UNL A   1      30.002  25.501  24.808  1.00  0.00     0.035 C 
BRANCH  18  19
ATOM     19  C   UNL A   1      30.023  26.704  24.029  1.00  0.00     0.074 A 
ATOM     20  C   UNL A   1      31.151  27.475  23.830  1.00  0.00     0.095 A 
ATOM     21  N   UNL A   1      28.844  27.251  23.549  1.00  0.00    -0.242 NA
ATOM     22  S   UNL A   1      30.742  28.901  22.969  1.00  0.00    -0.127 S 
ATOM     23  C   UNL A   1      29.087  28.422  22.992  1.00  0.00     0.090 A 
ATOM     24  C   UNL A   1      28.038  29.375  22.526  1.00  0.00     0.079 C 
ENDBRANCH  18  19
ENDBRANCH  14  17
ENDBRANCH   8  13
ENDBRANCH   6   8
ENDBRANCH   5   6
ENDBRANCH   4   5
ENDBRANCH   3   4
ENDBRANCH   2   3
ENDBRANCH   1   2
BRANCH   1  25
ATOM     25  C   UNL A   1      39.195  19.733  25.693  1.00  0.00     0.188 C 
BRANCH  25  26
ATOM     26  O   UNL A   1      40.457  19.095  25.556  1.00  0.00    -0.376 OA
BRANCH  26  27
ATOM     27  C   UNL A   1      41.607  19.601  26.233  1.00  0.00     0.202 C 
BRANCH  27  28
ATOM     28  C   UNL A   1      42.983  19.062  25.820  1.00  0.00     0.261 C 
BRANCH  28  29
ATOM     29  O   UNL A   1      43.414  19.415  24.496  1.00  0.00    -0.460 OA
BRANCH  29  30
ATOM     30  C   UNL A   1      44.750  19.562  24.297  1.00  0.00     0.338 C 
ATOM     31  O   UNL A   1      45.506  18.783  23.765  1.00  0.00    -0.246 OA
BRANCH  30  32
ATOM     32  C   UNL A   1      45.071  20.979  24.622  1.00  0.00     0.060 A 
ATOM     33  C   UNL A   1      45.651  21.256  25.869  1.00  0.00     0.016 A 
ATOM     34  C   UNL A   1      44.933  21.999  23.675  1.00  0.00     0.016 A 
ATOM     35  C   UNL A   1      46.019  22.561  26.201  1.00  0.00     0.010 A 
ATOM     36  C   UNL A   1      45.292  23.307  24.009  1.00  0.00     0.010 A 
ATOM     37  C   UNL A   1      45.785  23.602  25.293  1.00  0.00    -0.014 A 
BRANCH  37  38
ATOM     38  C   UNL A   1      45.751  25.005  25.777  1.00  0.00     0.031 A 
ATOM     39  C   UNL A   1      47.051  25.766  25.754  1.00  0.00     0.074 A 
ATOM     40  C   UNL A   1      44.627  25.610  26.200  1.00  0.00     0.049 A 
ATOM     41  N   UNL A   1      47.331  26.959  26.208  1.00  0.00    -0.248 NA
ATOM     42  C   UNL A   1      48.196  25.073  25.134  1.00  0.00     0.031 C 
ATOM     43  C   UNL A   1      43.293  25.017  26.216  1.00  0.00     0.029 A 
ATOM     44  N   UNL A   1      44.442  26.872  26.709  1.00  0.00    -0.354 N 
ATOM     45  C   UNL A   1      48.681  27.152  25.942  1.00  0.00     0.074 A 
ATOM     46  C   UNL A   1      49.173  25.944  25.318  1.00  0.00     0.031 C 
ATOM     47  C   UNL A   1      42.427  25.912  26.725  1.00  0.00     0.029 A 
ATOM     48  C   UNL A   1      43.152  27.125  27.106  1.00  0.00     0.049 A 
ATOM     49  H   UNL A   1      45.167  27.534  26.783  1.00  0.00     0.167 HD
ATOM     50  C   UNL A   1      49.447  28.240  26.184  1.00  0.00     0.037 A 
ATOM     51  C   UNL A   1      42.628  28.200  27.730  1.00  0.00     0.037 A 
ATOM     52  C   UNL A   1      48.964  29.444  26.798  1.00  0.00     0.049 A 
ATOM     53  C   UNL A   1      43.518  29.371  28.070  1.00  0.00     0.074 A 
ATOM     54  C   UNL A   1      49.663  30.602  27.090  1.00  0.00     0.029 A 
ATOM     55  N   UNL A   1      47.658  29.645  27.214  1.00  0.00    -0.354 N 
ATOM     56  N   UNL A   1      44.794  29.543  27.822  1.00  0.00    -0.248 NA
ATOM     57  C   UNL A   1      42.893  30.498  28.780  1.00  0.00     0.031 C 
ATOM     58  C   UNL A   1      48.789  31.487  27.729  1.00  0.00     0.029 A 
ATOM     59  C   UNL A   1      47.534  30.901  27.782  1.00  0.00     0.049 A 
ATOM     60  H   UNL A   1      46.927  28.992  27.121  1.00  0.00     0.167 HD
ATOM     61  C   UNL A   1      45.116  30.803  28.317  1.00  0.00     0.074 A 
ATOM     62  C   UNL A   1      43.899  31.357  28.869  1.00  0.00     0.031 C 
ATOM     63  C   UNL A   1      46.311  31.444  28.315  1.00  0.00     0.037 A 
BRANCH  50  64
ATOM     64  C   UNL A   1      50.897  28.154  25.809  1.00  0.00     0.057 A 
ATOM     65  C   UNL A   1      51.329  28.299  24.484  1.00  0.00     0.134 A 
ATOM     66  C   UNL A   1      51.871  27.926  26.787  1.00  0.00     0.134 A 
ATOM     67  F   UNL A   1      50.444  28.494  23.496  1.00  0.00    -0.206 F 
ATOM     68  C   UNL A   1      52.680  28.198  24.145  1.00  0.00     0.040 A 
ATOM     69  C   UNL A   1      53.226  27.852  26.465  1.00  0.00     0.040 A 
ATOM     70  F   UNL A   1      51.522  27.775  28.074  1.00  0.00    -0.206 F 
ATOM     71  C   UNL A   1      53.633  27.982  25.138  1.00  0.00     0.006 A 
ENDBRANCH  50  64
BRANCH  51  72
ATOM     72  C   UNL A   1      41.192  28.220  28.113  1.00  0.00     0.057 A 
ATOM     73  C   UNL A   1      40.221  28.782  27.276  1.00  0.00     0.134 A 
ATOM     74  C   UNL A   1      40.762  27.715  29.347  1.00  0.00     0.134 A 
ATOM     75  F   UNL A   1      40.572  29.311  26.094  1.00  0.00    -0.206 F 
ATOM     76  C   UNL A   1      38.879  28.860  27.659  1.00  0.00     0.040 A 
ATOM     77  C   UNL A   1      39.421  27.763  29.731  1.00  0.00     0.040 A 
ATOM     78  F   UNL A   1      41.642  27.169  30.199  1.00  0.00    -0.206 F 
ATOM     79  C   UNL A   1      38.476  28.345  28.888  1.00  0.00     0.006 A 
ENDBRANCH  51  72
BRANCH  63  80
ATOM     80  C   UNL A   1      46.357  32.833  28.886  1.00  0.00     0.057 A 
ATOM     81  C   UNL A   1      46.679  33.075  30.227  1.00  0.00     0.134 A 
ATOM     82  C   UNL A   1      46.130  33.946  28.065  1.00  0.00     0.134 A 
ATOM     83  F   UNL A   1      46.900  32.052  31.068  1.00  0.00    -0.206 F 
ATOM     84  C   UNL A   1      46.753  34.372  30.737  1.00  0.00     0.040 A 
ATOM     85  C   UNL A   1      46.229  35.249  28.557  1.00  0.00     0.040 A 
ATOM     86  F   UNL A   1      45.831  33.786  26.767  1.00  0.00    -0.206 F 
ATOM     87  C   UNL A   1      46.534  35.464  29.898  1.00  0.00     0.006 A 
ENDBRANCH  63  80
ENDBRANCH  37  38
ENDBRANCH  30  32
ENDBRANCH  29  30
ENDBRANCH  28  29
ENDBRANCH  27  28
ENDBRANCH  26  27
ENDBRANCH  25  26
ENDBRANCH   1  25
TORSDOF 22
ENDMDL
