MODEL 1
REMARK VINA RESULT:     -10.6      0.000      0.000
REMARK SMILES Cc1ccc(CNC(=O)c2csc(/C=C/C(=O)OCCOCCOCCOC(=O)c3ccc(-c4c5nc(c(-c6c(F)cccc6F)c6ccc([nH]6)c(-c6c(F)cccc6F)c6nc(c(-c7c(F)cccc7F)c7ccc4[nH]7)C=C6)C=C5)cc3)c2)s1
REMARK SMILES IDX 22 1 21 2 20 3 19 4 18 5 16 6 17 7 15 8 14 9 13 10 10 11
REMARK SMILES IDX 11 12 84 13 12 14 8 15 7 16 9 18 6 19 5 20 1 21 2 22 3 23
REMARK SMILES IDX 85 24 4 25 23 26 24 27 25 28 26 29 27 30 28 31 29 32 30 33
REMARK SMILES IDX 31 34 83 35 32 36 82 37 33 38 34 39 35 40 76 41 36 42 81 43
REMARK SMILES IDX 75 44 77 45 37 46 80 47 74 48 73 49 38 51 64 52 47 53 63 54
REMARK SMILES IDX 48 55 51 56 62 57 78 58 49 59 50 60 61 62 79 63 52 64 39 65
REMARK SMILES IDX 40 66 45 67 41 68 42 69 44 70 46 71 43 72 65 73 66 74 71 75
REMARK SMILES IDX 67 76 68 77 70 78 72 79 69 80 53 81 54 82 59 83 55 84 56 85
REMARK SMILES IDX 58 86 60 87 57 88
REMARK H PARENT 7 17 77 50 51 61
REMARK Flexibility Score: inf
ROOT
ATOM      1  C   UNL A   1      42.756  18.627  25.799  1.00  0.00     0.188 C 
ENDROOT
BRANCH   1   2
ATOM      2  O   UNL A   1      42.486  19.000  27.149  1.00  0.00    -0.376 OA
BRANCH   2   3
ATOM      3  C   UNL A   1      41.596  20.078  27.418  1.00  0.00     0.202 C 
BRANCH   3   4
ATOM      4  C   UNL A   1      41.172  20.996  26.264  1.00  0.00     0.261 C 
BRANCH   4   5
ATOM      5  O   UNL A   1      39.777  21.345  26.266  1.00  0.00    -0.460 OA
BRANCH   5   6
ATOM      6  C   UNL A   1      38.971  20.521  25.555  1.00  0.00     0.330 C 
ATOM      7  O   UNL A   1      39.151  19.330  25.346  1.00  0.00    -0.247 OA
BRANCH   6   8
ATOM      8  C   UNL A   1      37.727  21.186  25.120  1.00  0.00     0.095 C 
ATOM      9  C   UNL A   1      37.534  22.512  25.036  1.00  0.00     0.026 C 
BRANCH   9  10
ATOM     10  C   UNL A   1      36.302  23.070  24.579  1.00  0.00     0.028 A 
ATOM     11  C   UNL A   1      34.358  23.371  23.276  1.00  0.00     0.051 A 
ATOM     12  C   UNL A   1      34.072  24.138  24.388  1.00  0.00     0.079 A 
ATOM     13  C   UNL A   1      35.715  22.904  23.335  1.00  0.00     0.033 A 
ATOM     14  S   UNL A   1      35.331  24.122  25.539  1.00  0.00    -0.144 S 
BRANCH  11  15
ATOM     15  C   UNL A   1      33.371  23.143  22.225  1.00  0.00     0.252 C 
ATOM     16  N   UNL A   1      32.252  22.400  22.512  1.00  0.00    -0.347 N 
ATOM     17  H   UNL A   1      31.668  22.203  21.745  1.00  0.00     0.164 HD
ATOM     18  O   UNL A   1      33.488  23.637  21.106  1.00  0.00    -0.269 OA
BRANCH  16  19
ATOM     19  C   UNL A   1      31.814  21.864  23.782  1.00  0.00     0.163 C 
BRANCH  19  20
ATOM     20  C   UNL A   1      32.438  20.534  24.049  1.00  0.00     0.024 A 
ATOM     21  C   UNL A   1      33.383  16.781  23.413  1.00  0.00     0.056 C 
ATOM     22  C   UNL A   1      33.124  18.166  23.897  1.00  0.00     0.002 A 
ATOM     23  C   UNL A   1      33.331  18.690  25.156  1.00  0.00     0.015 A 
ATOM     24  S   UNL A   1      32.471  19.330  22.830  1.00  0.00    -0.144 S 
ATOM     25  C   UNL A   1      32.941  20.057  25.243  1.00  0.00     0.017 A 
ENDBRANCH  19  20
ENDBRANCH  16  19
ENDBRANCH  11  15
ENDBRANCH   9  10
ENDBRANCH   6   8
ENDBRANCH   5   6
ENDBRANCH   4   5
ENDBRANCH   3   4
ENDBRANCH   2   3
ENDBRANCH   1   2
BRANCH   1  26
ATOM     26  C   UNL A   1      44.137  18.928  25.181  1.00  0.00     0.188 C 
BRANCH  26  27
ATOM     27  O   UNL A   1      44.317  20.281  24.821  1.00  0.00    -0.376 OA
BRANCH  27  28
ATOM     28  C   UNL A   1      45.415  20.978  25.384  1.00  0.00     0.202 C 
BRANCH  28  29
ATOM     29  C   UNL A   1      45.766  22.401  24.908  1.00  0.00     0.261 C 
BRANCH  29  30
ATOM     30  O   UNL A   1      45.068  23.489  25.527  1.00  0.00    -0.460 OA
BRANCH  30  31
ATOM     31  C   UNL A   1      43.834  23.779  25.057  1.00  0.00     0.338 C 
ATOM     32  O   UNL A   1      43.267  23.272  24.110  1.00  0.00    -0.246 OA
BRANCH  31  33
ATOM     33  C   UNL A   1      43.206  24.728  26.003  1.00  0.00     0.060 A 
ATOM     34  C   UNL A   1      43.635  26.061  26.014  1.00  0.00     0.016 A 
ATOM     35  C   UNL A   1      42.206  24.298  26.879  1.00  0.00     0.016 A 
ATOM     36  C   UNL A   1      43.076  26.965  26.920  1.00  0.00     0.010 A 
ATOM     37  C   UNL A   1      41.661  25.200  27.797  1.00  0.00     0.010 A 
ATOM     38  C   UNL A   1      42.111  26.531  27.841  1.00  0.00    -0.014 A 
BRANCH  38  39
ATOM     39  C   UNL A   1      41.692  27.420  28.952  1.00  0.00     0.031 A 
ATOM     40  C   UNL A   1      42.451  27.359  30.249  1.00  0.00     0.074 A 
ATOM     41  C   UNL A   1      40.661  28.271  28.816  1.00  0.00     0.049 A 
ATOM     42  N   UNL A   1      42.240  28.002  31.368  1.00  0.00    -0.248 NA
ATOM     43  C   UNL A   1      43.605  26.446  30.285  1.00  0.00     0.031 C 
ATOM     44  C   UNL A   1      39.868  28.453  27.602  1.00  0.00     0.029 A 
ATOM     45  N   UNL A   1      40.100  29.139  29.720  1.00  0.00    -0.354 N 
ATOM     46  C   UNL A   1      43.232  27.574  32.241  1.00  0.00     0.074 A 
ATOM     47  C   UNL A   1      44.024  26.592  31.533  1.00  0.00     0.031 C 
ATOM     48  C   UNL A   1      38.914  29.371  27.841  1.00  0.00     0.029 A 
ATOM     49  C   UNL A   1      39.010  29.816  29.231  1.00  0.00     0.049 A 
ATOM     50  H   UNL A   1      40.445  29.263  30.634  1.00  0.00     0.167 HD
ATOM     51  C   UNL A   1      43.470  27.969  33.515  1.00  0.00     0.037 A 
ATOM     52  C   UNL A   1      38.177  30.680  29.841  1.00  0.00     0.037 A 
ATOM     53  C   UNL A   1      42.675  28.935  34.224  1.00  0.00     0.049 A 
ATOM     54  C   UNL A   1      38.406  31.038  31.287  1.00  0.00     0.074 A 
ATOM     55  C   UNL A   1      42.841  29.409  35.514  1.00  0.00     0.029 A 
ATOM     56  N   UNL A   1      41.556  29.569  33.707  1.00  0.00    -0.354 N 
ATOM     57  N   UNL A   1      39.361  30.646  32.096  1.00  0.00    -0.248 NA
ATOM     58  C   UNL A   1      37.439  31.957  31.904  1.00  0.00     0.031 C 
ATOM     59  C   UNL A   1      41.794  30.293  35.793  1.00  0.00     0.029 A 
ATOM     60  C   UNL A   1      41.004  30.409  34.661  1.00  0.00     0.049 A 
ATOM     61  H   UNL A   1      41.204  29.440  32.797  1.00  0.00     0.167 HD
ATOM     62  C   UNL A   1      39.126  31.293  33.305  1.00  0.00     0.074 A 
ATOM     63  C   UNL A   1      37.945  32.108  33.121  1.00  0.00     0.031 C 
ATOM     64  C   UNL A   1      39.829  31.220  34.462  1.00  0.00     0.037 A 
BRANCH  51  65
ATOM     65  C   UNL A   1      44.623  27.326  34.226  1.00  0.00     0.057 A 
ATOM     66  C   UNL A   1      44.465  26.158  34.985  1.00  0.00     0.134 A 
ATOM     67  C   UNL A   1      45.909  27.876  34.144  1.00  0.00     0.134 A 
ATOM     68  F   UNL A   1      43.256  25.592  35.117  1.00  0.00    -0.206 F 
ATOM     69  C   UNL A   1      45.539  25.576  35.659  1.00  0.00     0.040 A 
ATOM     70  C   UNL A   1      46.995  27.288  34.793  1.00  0.00     0.040 A 
ATOM     71  F   UNL A   1      46.129  28.991  33.433  1.00  0.00    -0.206 F 
ATOM     72  C   UNL A   1      46.811  26.138  35.559  1.00  0.00     0.006 A 
ENDBRANCH  51  65
BRANCH  52  73
ATOM     73  C   UNL A   1      37.035  31.268  29.096  1.00  0.00     0.057 A 
ATOM     74  C   UNL A   1      37.083  32.582  28.618  1.00  0.00     0.134 A 
ATOM     75  C   UNL A   1      35.862  30.539  28.865  1.00  0.00     0.134 A 
ATOM     76  F   UNL A   1      38.168  33.340  28.832  1.00  0.00    -0.206 F 
ATOM     77  C   UNL A   1      35.999  33.156  27.948  1.00  0.00     0.040 A 
ATOM     78  C   UNL A   1      34.781  31.092  28.177  1.00  0.00     0.040 A 
ATOM     79  F   UNL A   1      35.752  29.275  29.303  1.00  0.00    -0.206 F 
ATOM     80  C   UNL A   1      34.847  32.407  27.722  1.00  0.00     0.006 A 
ENDBRANCH  52  73
BRANCH  64  81
ATOM     81  C   UNL A   1      39.363  32.069  35.609  1.00  0.00     0.057 A 
ATOM     82  C   UNL A   1      38.472  31.585  36.575  1.00  0.00     0.134 A 
ATOM     83  C   UNL A   1      39.846  33.373  35.772  1.00  0.00     0.134 A 
ATOM     84  F   UNL A   1      37.963  30.348  36.471  1.00  0.00    -0.206 F 
ATOM     85  C   UNL A   1      38.061  32.375  37.651  1.00  0.00     0.040 A 
ATOM     86  C   UNL A   1      39.464  34.164  36.857  1.00  0.00     0.040 A 
ATOM     87  F   UNL A   1      40.710  33.896  34.889  1.00  0.00    -0.206 F 
ATOM     88  C   UNL A   1      38.564  33.667  37.797  1.00  0.00     0.006 A 
ENDBRANCH  64  81
ENDBRANCH  38  39
ENDBRANCH  31  33
ENDBRANCH  30  31
ENDBRANCH  29  30
ENDBRANCH  28  29
ENDBRANCH  27  28
ENDBRANCH  26  27
ENDBRANCH   1  26
TORSDOF 21
ENDMDL
MODEL 2
REMARK VINA RESULT:     -10.5      5.198     10.338
REMARK SMILES Cc1ccc(CNC(=O)c2csc(/C=C/C(=O)OCCOCCOCCOC(=O)c3ccc(-c4c5nc(c(-c6c(F)cccc6F)c6ccc([nH]6)c(-c6c(F)cccc6F)c6nc(c(-c7c(F)cccc7F)c7ccc4[nH]7)C=C6)C=C5)cc3)c2)s1
REMARK SMILES IDX 22 1 21 2 20 3 19 4 18 5 16 6 17 7 15 8 14 9 13 10 10 11
REMARK SMILES IDX 11 12 84 13 12 14 8 15 7 16 9 18 6 19 5 20 1 21 2 22 3 23
REMARK SMILES IDX 85 24 4 25 23 26 24 27 25 28 26 29 27 30 28 31 29 32 30 33
REMARK SMILES IDX 31 34 83 35 32 36 82 37 33 38 34 39 35 40 76 41 36 42 81 43
REMARK SMILES IDX 75 44 77 45 37 46 80 47 74 48 73 49 38 51 64 52 47 53 63 54
REMARK SMILES IDX 48 55 51 56 62 57 78 58 49 59 50 60 61 62 79 63 52 64 39 65
REMARK SMILES IDX 40 66 45 67 41 68 42 69 44 70 46 71 43 72 65 73 66 74 71 75
REMARK SMILES IDX 67 76 68 77 70 78 72 79 69 80 53 81 54 82 59 83 55 84 56 85
REMARK SMILES IDX 58 86 60 87 57 88
REMARK H PARENT 7 17 77 50 51 61
REMARK Flexibility Score: inf
ROOT
ATOM      1  C   UNL A   1      34.333  34.414  29.663  1.00  0.00     0.188 C 
ENDROOT
BRANCH   1   2
ATOM      2  O   UNL A   1      34.053  33.961  28.341  1.00  0.00    -0.376 OA
BRANCH   2   3
ATOM      3  C   UNL A   1      34.814  32.894  27.785  1.00  0.00     0.202 C 
BRANCH   3   4
ATOM      4  C   UNL A   1      34.476  31.453  28.187  1.00  0.00     0.261 C 
BRANCH   4   5
ATOM      5  O   UNL A   1      33.917  30.658  27.128  1.00  0.00    -0.460 OA
BRANCH   5   6
ATOM      6  C   UNL A   1      34.501  29.450  26.939  1.00  0.00     0.330 C 
ATOM      7  O   UNL A   1      35.343  28.929  27.655  1.00  0.00    -0.247 OA
BRANCH   6   8
ATOM      8  C   UNL A   1      33.925  28.717  25.793  1.00  0.00     0.095 C 
ATOM      9  C   UNL A   1      32.784  29.028  25.157  1.00  0.00     0.026 C 
BRANCH   9  10
ATOM     10  C   UNL A   1      32.313  28.277  24.038  1.00  0.00     0.028 A 
ATOM     11  C   UNL A   1      32.272  26.667  22.314  1.00  0.00     0.051 A 
ATOM     12  C   UNL A   1      30.947  27.053  22.369  1.00  0.00     0.079 A 
ATOM     13  C   UNL A   1      33.066  27.506  23.168  1.00  0.00     0.033 A 
ATOM     14  S   UNL A   1      30.660  28.247  23.553  1.00  0.00    -0.144 S 
BRANCH  11  15
ATOM     15  C   UNL A   1      32.717  25.570  21.460  1.00  0.00     0.252 C 
ATOM     16  N   UNL A   1      32.567  24.279  21.903  1.00  0.00    -0.347 N 
ATOM     17  H   UNL A   1      32.965  23.586  21.328  1.00  0.00     0.164 HD
ATOM     18  O   UNL A   1      33.178  25.766  20.338  1.00  0.00    -0.269 OA
BRANCH  16  19
ATOM     19  C   UNL A   1      31.906  23.794  23.095  1.00  0.00     0.163 C 
BRANCH  19  20
ATOM     20  C   UNL A   1      32.769  22.821  23.830  1.00  0.00     0.024 A 
ATOM     21  C   UNL A   1      36.077  21.033  24.944  1.00  0.00     0.056 C 
ATOM     22  C   UNL A   1      34.699  21.515  24.649  1.00  0.00     0.002 A 
ATOM     23  C   UNL A   1      33.494  20.917  24.957  1.00  0.00     0.015 A 
ATOM     24  S   UNL A   1      34.475  22.986  23.809  1.00  0.00    -0.144 S 
ATOM     25  C   UNL A   1      32.381  21.673  24.490  1.00  0.00     0.017 A 
ENDBRANCH  19  20
ENDBRANCH  16  19
ENDBRANCH  11  15
ENDBRANCH   9  10
ENDBRANCH   6   8
ENDBRANCH   5   6
ENDBRANCH   4   5
ENDBRANCH   3   4
ENDBRANCH   2   3
ENDBRANCH   1   2
BRANCH   1  26
ATOM     26  C   UNL A   1      33.390  35.428  30.344  1.00  0.00     0.188 C 
BRANCH  26  27
ATOM     27  O   UNL A   1      32.939  35.019  31.617  1.00  0.00    -0.376 OA
BRANCH  27  28
ATOM     28  C   UNL A   1      33.910  34.626  32.573  1.00  0.00     0.202 C 
BRANCH  28  29
ATOM     29  C   UNL A   1      34.038  33.152  32.998  1.00  0.00     0.261 C 
BRANCH  29  30
ATOM     30  O   UNL A   1      35.128  32.402  32.445  1.00  0.00    -0.460 OA
BRANCH  30  31
ATOM     31  C   UNL A   1      36.264  32.333  33.175  1.00  0.00     0.338 C 
ATOM     32  O   UNL A   1      36.418  32.665  34.334  1.00  0.00    -0.246 OA
BRANCH  31  33
ATOM     33  C   UNL A   1      37.275  31.622  32.363  1.00  0.00     0.060 A 
ATOM     34  C   UNL A   1      38.176  30.760  33.000  1.00  0.00     0.016 A 
ATOM     35  C   UNL A   1      37.336  31.813  30.980  1.00  0.00     0.016 A 
ATOM     36  C   UNL A   1      39.158  30.103  32.255  1.00  0.00     0.010 A 
ATOM     37  C   UNL A   1      38.331  31.169  30.239  1.00  0.00     0.010 A 
ATOM     38  C   UNL A   1      39.263  30.331  30.875  1.00  0.00    -0.014 A 
BRANCH  38  39
ATOM     39  C   UNL A   1      40.440  29.828  30.126  1.00  0.00     0.031 A 
ATOM     40  C   UNL A   1      41.595  30.761  29.888  1.00  0.00     0.074 A 
ATOM     41  C   UNL A   1      40.490  28.565  29.669  1.00  0.00     0.049 A 
ATOM     42  N   UNL A   1      42.704  30.560  29.223  1.00  0.00    -0.248 NA
ATOM     43  C   UNL A   1      41.481  32.103  30.480  1.00  0.00     0.031 C 
ATOM     44  C   UNL A   1      39.456  27.552  29.865  1.00  0.00     0.029 A 
ATOM     45  N   UNL A   1      41.457  27.924  28.934  1.00  0.00    -0.354 N 
ATOM     46  C   UNL A   1      43.419  31.747  29.317  1.00  0.00     0.074 A 
ATOM     47  C   UNL A   1      42.605  32.673  30.074  1.00  0.00     0.031 C 
ATOM     48  C   UNL A   1      39.839  26.416  29.255  1.00  0.00     0.029 A 
ATOM     49  C   UNL A   1      41.130  26.632  28.602  1.00  0.00     0.049 A 
ATOM     50  H   UNL A   1      42.304  28.350  28.670  1.00  0.00     0.167 HD
ATOM     51  C   UNL A   1      44.647  32.039  28.826  1.00  0.00     0.037 A 
ATOM     52  C   UNL A   1      41.789  25.736  27.842  1.00  0.00     0.037 A 
ATOM     53  C   UNL A   1      45.452  31.124  28.062  1.00  0.00     0.049 A 
ATOM     54  C   UNL A   1      43.113  26.113  27.230  1.00  0.00     0.074 A 
ATOM     55  C   UNL A   1      46.714  31.322  27.529  1.00  0.00     0.029 A 
ATOM     56  N   UNL A   1      45.068  29.838  27.712  1.00  0.00    -0.354 N 
ATOM     57  N   UNL A   1      43.792  27.229  27.344  1.00  0.00    -0.248 NA
ATOM     58  C   UNL A   1      43.762  25.102  26.380  1.00  0.00     0.031 C 
ATOM     59  C   UNL A   1      47.073  30.173  26.816  1.00  0.00     0.029 A 
ATOM     60  C   UNL A   1      46.056  29.241  26.947  1.00  0.00     0.049 A 
ATOM     61  H   UNL A   1      44.218  29.413  27.968  1.00  0.00     0.167 HD
ATOM     62  C   UNL A   1      44.958  27.044  26.608  1.00  0.00     0.074 A 
ATOM     63  C   UNL A   1      44.898  25.707  26.059  1.00  0.00     0.031 C 
ATOM     64  C   UNL A   1      45.986  27.905  26.409  1.00  0.00     0.037 A 
BRANCH  51  65
ATOM     65  C   UNL A   1      45.176  33.419  29.080  1.00  0.00     0.057 A 
ATOM     66  C   UNL A   1      45.959  33.715  30.204  1.00  0.00     0.134 A 
ATOM     67  C   UNL A   1      44.907  34.463  28.186  1.00  0.00     0.134 A 
ATOM     68  F   UNL A   1      46.239  32.763  31.108  1.00  0.00    -0.206 F 
ATOM     69  C   UNL A   1      46.433  35.006  30.443  1.00  0.00     0.040 A 
ATOM     70  C   UNL A   1      45.396  35.752  28.402  1.00  0.00     0.040 A 
ATOM     71  F   UNL A   1      44.165  34.247  27.090  1.00  0.00    -0.206 F 
ATOM     72  C   UNL A   1      46.156  36.028  29.537  1.00  0.00     0.006 A 
ENDBRANCH  51  65
BRANCH  52  73
ATOM     73  C   UNL A   1      41.207  24.392  27.602  1.00  0.00     0.057 A 
ATOM     74  C   UNL A   1      40.147  24.212  26.706  1.00  0.00     0.134 A 
ATOM     75  C   UNL A   1      41.679  23.261  28.279  1.00  0.00     0.134 A 
ATOM     76  F   UNL A   1      39.633  25.260  26.048  1.00  0.00    -0.206 F 
ATOM     77  C   UNL A   1      39.568  22.957  26.501  1.00  0.00     0.040 A 
ATOM     78  C   UNL A   1      41.125  21.998  28.067  1.00  0.00     0.040 A 
ATOM     79  F   UNL A   1      42.689  23.369  29.156  1.00  0.00    -0.206 F 
ATOM     80  C   UNL A   1      40.062  21.845  27.180  1.00  0.00     0.006 A 
ENDBRANCH  52  73
BRANCH  64  81
ATOM     81  C   UNL A   1      47.147  27.417  25.592  1.00  0.00     0.057 A 
ATOM     82  C   UNL A   1      47.241  27.663  24.217  1.00  0.00     0.134 A 
ATOM     83  C   UNL A   1      48.207  26.731  26.200  1.00  0.00     0.134 A 
ATOM     84  F   UNL A   1      46.255  28.305  23.572  1.00  0.00    -0.206 F 
ATOM     85  C   UNL A   1      48.337  27.224  23.470  1.00  0.00     0.040 A 
ATOM     86  C   UNL A   1      49.319  26.310  25.469  1.00  0.00     0.040 A 
ATOM     87  F   UNL A   1      48.186  26.472  27.516  1.00  0.00    -0.206 F 
ATOM     88  C   UNL A   1      49.384  26.552  24.099  1.00  0.00     0.006 A 
ENDBRANCH  64  81
ENDBRANCH  38  39
ENDBRANCH  31  33
ENDBRANCH  30  31
ENDBRANCH  29  30
ENDBRANCH  28  29
ENDBRANCH  27  28
ENDBRANCH  26  27
ENDBRANCH   1  26
TORSDOF 21
ENDMDL
MODEL 3
REMARK VINA RESULT:     -10.2      1.174      2.144
REMARK SMILES Cc1ccc(CNC(=O)c2csc(/C=C/C(=O)OCCOCCOCCOC(=O)c3ccc(-c4c5nc(c(-c6c(F)cccc6F)c6ccc([nH]6)c(-c6c(F)cccc6F)c6nc(c(-c7c(F)cccc7F)c7ccc4[nH]7)C=C6)C=C5)cc3)c2)s1
REMARK SMILES IDX 22 1 21 2 20 3 19 4 18 5 16 6 17 7 15 8 14 9 13 10 10 11
REMARK SMILES IDX 11 12 84 13 12 14 8 15 7 16 9 18 6 19 5 20 1 21 2 22 3 23
REMARK SMILES IDX 85 24 4 25 23 26 24 27 25 28 26 29 27 30 28 31 29 32 30 33
REMARK SMILES IDX 31 34 83 35 32 36 82 37 33 38 34 39 35 40 76 41 36 42 81 43
REMARK SMILES IDX 75 44 77 45 37 46 80 47 74 48 73 49 38 51 64 52 47 53 63 54
REMARK SMILES IDX 48 55 51 56 62 57 78 58 49 59 50 60 61 62 79 63 52 64 39 65
REMARK SMILES IDX 40 66 45 67 41 68 42 69 44 70 46 71 43 72 65 73 66 74 71 75
REMARK SMILES IDX 67 76 68 77 70 78 72 79 69 80 53 81 54 82 59 83 55 84 56 85
REMARK SMILES IDX 58 86 60 87 57 88
REMARK H PARENT 7 17 77 50 51 61
REMARK Flexibility Score: inf
ROOT
ATOM      1  C   UNL A   1      44.438  18.557  25.288  1.00  0.00     0.188 C 
ENDROOT
BRANCH   1   2
ATOM      2  O   UNL A   1      43.297  18.785  26.113  1.00  0.00    -0.376 OA
BRANCH   2   3
ATOM      3  C   UNL A   1      42.315  19.735  25.713  1.00  0.00     0.202 C 
BRANCH   3   4
ATOM      4  C   UNL A   1      40.864  19.537  26.168  1.00  0.00     0.261 C 
BRANCH   4   5
ATOM      5  O   UNL A   1      40.452  20.411  27.233  1.00  0.00    -0.460 OA
BRANCH   5   6
ATOM      6  C   UNL A   1      40.308  21.714  26.893  1.00  0.00     0.330 C 
ATOM      7  O   UNL A   1      41.093  22.619  27.132  1.00  0.00    -0.247 OA
BRANCH   6   8
ATOM      8  C   UNL A   1      39.110  21.952  26.063  1.00  0.00     0.095 C 
ATOM      9  C   UNL A   1      38.187  22.904  26.272  1.00  0.00     0.026 C 
BRANCH   9  10
ATOM     10  C   UNL A   1      37.069  23.079  25.401  1.00  0.00     0.028 A 
ATOM     11  C   UNL A   1      35.093  23.997  24.496  1.00  0.00     0.051 A 
ATOM     12  C   UNL A   1      35.530  23.194  23.460  1.00  0.00     0.079 A 
ATOM     13  C   UNL A   1      35.905  23.783  25.662  1.00  0.00     0.033 A 
ATOM     14  S   UNL A   1      36.978  22.373  23.832  1.00  0.00    -0.144 S 
BRANCH  11  15
ATOM     15  C   UNL A   1      33.944  24.885  24.348  1.00  0.00     0.252 C 
ATOM     16  N   UNL A   1      32.702  24.435  24.723  1.00  0.00    -0.347 N 
ATOM     17  H   UNL A   1      31.954  25.040  24.518  1.00  0.00     0.164 HD
ATOM     18  O   UNL A   1      34.063  26.039  23.943  1.00  0.00    -0.269 OA
BRANCH  16  19
ATOM     19  C   UNL A   1      32.340  23.196  25.376  1.00  0.00     0.163 C 
BRANCH  19  20
ATOM     20  C   UNL A   1      32.189  22.089  24.385  1.00  0.00     0.024 A 
ATOM     21  C   UNL A   1      32.416  18.440  22.965  1.00  0.00     0.056 C 
ATOM     22  C   UNL A   1      32.269  19.894  23.255  1.00  0.00     0.002 A 
ATOM     23  C   UNL A   1      32.019  20.925  22.375  1.00  0.00     0.015 A 
ATOM     24  S   UNL A   1      32.430  20.460  24.860  1.00  0.00    -0.144 S 
ATOM     25  C   UNL A   1      31.966  22.191  23.026  1.00  0.00     0.017 A 
ENDBRANCH  19  20
ENDBRANCH  16  19
ENDBRANCH  11  15
ENDBRANCH   9  10
ENDBRANCH   6   8
ENDBRANCH   5   6
ENDBRANCH   4   5
ENDBRANCH   3   4
ENDBRANCH   2   3
ENDBRANCH   1   2
BRANCH   1  26
ATOM     26  C   UNL A   1      45.066  19.729  24.505  1.00  0.00     0.188 C 
BRANCH  26  27
ATOM     27  O   UNL A   1      45.952  20.516  25.272  1.00  0.00    -0.376 OA
BRANCH  27  28
ATOM     28  C   UNL A   1      45.652  21.892  25.431  1.00  0.00     0.202 C 
BRANCH  28  29
ATOM     29  C   UNL A   1      44.696  22.603  24.456  1.00  0.00     0.261 C 
BRANCH  29  30
ATOM     30  O   UNL A   1      44.001  23.758  24.944  1.00  0.00    -0.460 OA
BRANCH  30  31
ATOM     31  C   UNL A   1      44.737  24.866  25.188  1.00  0.00     0.338 C 
ATOM     32  O   UNL A   1      45.767  25.203  24.639  1.00  0.00    -0.246 OA
BRANCH  31  33
ATOM     33  C   UNL A   1      43.983  25.702  26.148  1.00  0.00     0.060 A 
ATOM     34  C   UNL A   1      44.272  27.070  26.231  1.00  0.00     0.016 A 
ATOM     35  C   UNL A   1      43.002  25.135  26.964  1.00  0.00     0.016 A 
ATOM     36  C   UNL A   1      43.593  27.871  27.152  1.00  0.00     0.010 A 
ATOM     37  C   UNL A   1      42.336  25.934  27.898  1.00  0.00     0.010 A 
ATOM     38  C   UNL A   1      42.646  27.301  28.015  1.00  0.00    -0.014 A 
BRANCH  38  39
ATOM     39  C   UNL A   1      42.099  28.091  29.145  1.00  0.00     0.031 A 
ATOM     40  C   UNL A   1      42.821  28.056  30.464  1.00  0.00     0.074 A 
ATOM     41  C   UNL A   1      40.987  28.831  29.007  1.00  0.00     0.049 A 
ATOM     42  N   UNL A   1      42.508  28.625  31.600  1.00  0.00    -0.248 NA
ATOM     43  C   UNL A   1      44.065  27.271  30.504  1.00  0.00     0.031 C 
ATOM     44  C   UNL A   1      40.215  28.980  27.775  1.00  0.00     0.029 A 
ATOM     45  N   UNL A   1      40.308  29.595  29.925  1.00  0.00    -0.354 N 
ATOM     46  C   UNL A   1      43.514  28.268  32.488  1.00  0.00     0.074 A 
ATOM     47  C   UNL A   1      44.429  27.407  31.770  1.00  0.00     0.031 C 
ATOM     48  C   UNL A   1      39.161  29.779  28.016  1.00  0.00     0.029 A 
ATOM     49  C   UNL A   1      39.166  30.172  29.425  1.00  0.00     0.049 A 
ATOM     50  H   UNL A   1      40.611  29.716  30.853  1.00  0.00     0.167 HD
ATOM     51  C   UNL A   1      43.669  28.631  33.784  1.00  0.00     0.037 A 
ATOM     52  C   UNL A   1      38.226  30.915  30.040  1.00  0.00     0.037 A 
ATOM     53  C   UNL A   1      42.753  29.475  34.504  1.00  0.00     0.049 A 
ATOM     54  C   UNL A   1      38.372  31.232  31.506  1.00  0.00     0.074 A 
ATOM     55  C   UNL A   1      42.828  29.909  35.816  1.00  0.00     0.029 A 
ATOM     56  N   UNL A   1      41.588  30.007  33.973  1.00  0.00    -0.354 N 
ATOM     57  N   UNL A   1      39.339  30.911  32.331  1.00  0.00    -0.248 NA
ATOM     58  C   UNL A   1      37.292  32.016  32.124  1.00  0.00     0.031 C 
ATOM     59  C   UNL A   1      41.683  30.662  36.093  1.00  0.00     0.029 A 
ATOM     60  C   UNL A   1      40.920  30.742  34.939  1.00  0.00     0.049 A 
ATOM     61  H   UNL A   1      41.280  29.881  33.047  1.00  0.00     0.167 HD
ATOM     62  C   UNL A   1      38.999  31.477  33.556  1.00  0.00     0.074 A 
ATOM     63  C   UNL A   1      37.743  32.168  33.363  1.00  0.00     0.031 C 
ATOM     64  C   UNL A   1      39.671  31.429  34.733  1.00  0.00     0.037 A 
BRANCH  51  65
ATOM     65  C   UNL A   1      44.863  28.086  34.510  1.00  0.00     0.057 A 
ATOM     66  C   UNL A   1      46.090  28.764  34.528  1.00  0.00     0.134 A 
ATOM     67  C   UNL A   1      44.784  26.873  35.206  1.00  0.00     0.134 A 
ATOM     68  F   UNL A   1      46.236  29.922  33.867  1.00  0.00    -0.206 F 
ATOM     69  C   UNL A   1      47.201  28.242  35.191  1.00  0.00     0.040 A 
ATOM     70  C   UNL A   1      45.882  26.354  35.893  1.00  0.00     0.040 A 
ATOM     71  F   UNL A   1      43.639  26.175  35.230  1.00  0.00    -0.206 F 
ATOM     72  C   UNL A   1      47.098  27.035  35.881  1.00  0.00     0.006 A 
ENDBRANCH  51  65
BRANCH  52  73
ATOM     73  C   UNL A   1      37.051  31.408  29.278  1.00  0.00     0.057 A 
ATOM     74  C   UNL A   1      35.942  30.586  29.048  1.00  0.00     0.134 A 
ATOM     75  C   UNL A   1      37.018  32.702  28.744  1.00  0.00     0.134 A 
ATOM     76  F   UNL A   1      35.927  29.328  29.509  1.00  0.00    -0.206 F 
ATOM     77  C   UNL A   1      34.848  31.028  28.300  1.00  0.00     0.040 A 
ATOM     78  C   UNL A   1      35.921  33.164  28.016  1.00  0.00     0.040 A 
ATOM     79  F   UNL A   1      38.053  33.537  28.927  1.00  0.00    -0.206 F 
ATOM     80  C   UNL A   1      34.834  32.324  27.788  1.00  0.00     0.006 A 
ENDBRANCH  52  73
BRANCH  64  81
ATOM     81  C   UNL A   1      39.080  32.174  35.895  1.00  0.00     0.057 A 
ATOM     82  C   UNL A   1      39.327  33.536  36.106  1.00  0.00     0.134 A 
ATOM     83  C   UNL A   1      38.218  31.528  36.790  1.00  0.00     0.134 A 
ATOM     84  F   UNL A   1      40.153  34.211  35.291  1.00  0.00    -0.206 F 
ATOM     85  C   UNL A   1      38.755  34.225  37.177  1.00  0.00     0.040 A 
ATOM     86  C   UNL A   1      37.619  32.211  37.851  1.00  0.00     0.040 A 
ATOM     87  F   UNL A   1      37.931  30.226  36.641  1.00  0.00    -0.206 F 
ATOM     88  C   UNL A   1      37.892  33.563  38.049  1.00  0.00     0.006 A 
ENDBRANCH  64  81
ENDBRANCH  38  39
ENDBRANCH  31  33
ENDBRANCH  30  31
ENDBRANCH  29  30
ENDBRANCH  28  29
ENDBRANCH  27  28
ENDBRANCH  26  27
ENDBRANCH   1  26
TORSDOF 21
ENDMDL
