MODEL 1
REMARK VINA RESULT:     -12.2      0.000      0.000
REMARK SMILES CS(=O)(=O)c1ccc(/C=C(/C(=O)OCCOCCOCCOC(=O)c2ccc(-c3c4nc(c(-c5c(F)cccc5F)c5ccc([nH]5)c(-c5c(F)cccc5F)c5nc(c(-c6c(F)cccc6F)c6ccc3[nH]6)C=C5)C=C4)cc2)c2ccc(-c3ccc(F)cc3F)cc2)cc1
REMARK SMILES IDX 17 1 16 2 15 3 14 4 13 5 11 6 12 7 10 8 9 9 8 10 5 11 6 12
REMARK SMILES IDX 94 13 7 14 93 15 2 16 1 17 3 18 4 19 79 20 80 21 92 22 81 23
REMARK SMILES IDX 91 24 82 25 83 26 84 27 89 28 85 29 88 30 90 31 86 32 87 33
REMARK SMILES IDX 18 34 19 35 20 36 21 37 22 38 23 39 24 40 25 41 26 42 78 43
REMARK SMILES IDX 27 44 77 45 28 46 29 47 30 48 71 49 31 50 76 51 70 52 72 53
REMARK SMILES IDX 32 54 75 55 69 56 68 57 33 59 59 60 42 61 58 62 43 63 46 64
REMARK SMILES IDX 57 65 73 66 44 67 45 68 56 70 74 71 47 72 34 73 35 74 40 75
REMARK SMILES IDX 36 76 37 77 39 78 41 79 38 80 60 81 61 82 66 83 62 84 63 85
REMARK SMILES IDX 65 86 67 87 64 88 48 89 49 90 54 91 50 92 51 93 53 94 55 95
REMARK SMILES IDX 52 96
REMARK H PARENT 72 58 46 69
REMARK Flexibility Score: inf
ROOT
ATOM      1  C   UNL A   1      33.964  21.961  24.120  1.00  0.00     0.188 C 
ENDROOT
BRANCH   1   2
ATOM      2  O   UNL A   1      32.582  21.676  24.110  1.00  0.00    -0.376 OA
BRANCH   2   3
ATOM      3  C   UNL A   1      31.985  21.317  25.344  1.00  0.00     0.202 C 
BRANCH   3   4
ATOM      4  C   UNL A   1      30.738  22.071  25.851  1.00  0.00     0.261 C 
BRANCH   4   5
ATOM      5  O   UNL A   1      30.559  23.421  25.394  1.00  0.00    -0.460 OA
BRANCH   5   6
ATOM      6  C   UNL A   1      31.018  24.417  26.190  1.00  0.00     0.338 C 
ATOM      7  O   UNL A   1      31.559  24.253  27.274  1.00  0.00    -0.246 OA
BRANCH   6   8
ATOM      8  C   UNL A   1      30.902  25.756  25.510  1.00  0.00     0.067 C 
ATOM      9  C   UNL A   1      30.038  25.926  24.477  1.00  0.00     0.024 C 
BRANCH   9  10
ATOM     10  C   UNL A   1      29.646  27.195  23.810  1.00  0.00    -0.025 A 
ATOM     11  C   UNL A   1      28.647  29.718  23.086  1.00  0.00     0.067 A 
ATOM     12  C   UNL A   1      30.019  29.535  23.256  1.00  0.00     0.021 A 
ATOM     13  C   UNL A   1      27.784  28.623  23.129  1.00  0.00     0.021 A 
ATOM     14  C   UNL A   1      30.515  28.268  23.578  1.00  0.00     0.009 A 
ATOM     15  C   UNL A   1      28.290  27.367  23.488  1.00  0.00     0.009 A 
BRANCH  11  16
ATOM     16  S   UNL A   1      28.030  31.378  22.938  1.00  0.00     0.175 S 
ATOM     17  C   UNL A   1      29.277  32.453  23.584  1.00  0.00     0.163 C 
ATOM     18  O   UNL A   1      26.881  31.485  23.819  1.00  0.00    -0.224 OA
ATOM     19  O   UNL A   1      27.911  31.639  21.517  1.00  0.00    -0.224 OA
ENDBRANCH  11  16
ENDBRANCH   9  10
BRANCH   8  20
ATOM     20  C   UNL A   1      31.742  26.849  26.038  1.00  0.00    -0.011 A 
ATOM     21  C   UNL A   1      33.027  27.054  25.515  1.00  0.00     0.009 A 
ATOM     22  C   UNL A   1      31.252  27.741  26.992  1.00  0.00     0.009 A 
ATOM     23  C   UNL A   1      33.811  28.129  25.939  1.00  0.00     0.009 A 
ATOM     24  C   UNL A   1      32.033  28.825  27.397  1.00  0.00     0.009 A 
ATOM     25  C   UNL A   1      33.332  29.032  26.894  1.00  0.00    -0.015 A 
BRANCH  25  26
ATOM     26  C   UNL A   1      34.146  30.166  27.364  1.00  0.00     0.018 A 
ATOM     27  C   UNL A   1      35.498  30.009  27.723  1.00  0.00     0.015 A 
ATOM     28  C   UNL A   1      33.599  31.460  27.440  1.00  0.00     0.133 A 
ATOM     29  C   UNL A   1      36.273  31.115  28.085  1.00  0.00     0.040 A 
ATOM     30  C   UNL A   1      34.362  32.564  27.793  1.00  0.00     0.079 A 
ATOM     31  F   UNL A   1      32.302  31.665  27.159  1.00  0.00    -0.206 F 
ATOM     32  C   UNL A   1      35.702  32.382  28.084  1.00  0.00     0.126 A 
ATOM     33  F   UNL A   1      36.455  33.452  28.362  1.00  0.00    -0.207 F 
ENDBRANCH  25  26
ENDBRANCH   8  20
ENDBRANCH   6   8
ENDBRANCH   5   6
ENDBRANCH   4   5
ENDBRANCH   3   4
ENDBRANCH   2   3
ENDBRANCH   1   2
BRANCH   1  34
ATOM     34  C   UNL A   1      34.503  22.294  25.529  1.00  0.00     0.188 C 
BRANCH  34  35
ATOM     35  O   UNL A   1      35.567  21.543  26.095  1.00  0.00    -0.376 OA
BRANCH  35  36
ATOM     36  C   UNL A   1      36.189  20.526  25.324  1.00  0.00     0.202 C 
BRANCH  36  37
ATOM     37  C   UNL A   1      37.594  20.760  24.741  1.00  0.00     0.261 C 
BRANCH  37  38
ATOM     38  O   UNL A   1      38.310  21.901  25.244  1.00  0.00    -0.460 OA
BRANCH  38  39
ATOM     39  C   UNL A   1      39.336  21.611  26.083  1.00  0.00     0.338 C 
ATOM     40  O   UNL A   1      39.959  20.569  26.154  1.00  0.00    -0.246 OA
BRANCH  39  41
ATOM     41  C   UNL A   1      39.741  22.825  26.828  1.00  0.00     0.060 A 
ATOM     42  C   UNL A   1      39.169  24.049  26.451  1.00  0.00     0.016 A 
ATOM     43  C   UNL A   1      40.737  22.783  27.805  1.00  0.00     0.016 A 
ATOM     44  C   UNL A   1      39.630  25.241  27.007  1.00  0.00     0.010 A 
ATOM     45  C   UNL A   1      41.218  23.984  28.345  1.00  0.00     0.010 A 
ATOM     46  C   UNL A   1      40.701  25.219  27.911  1.00  0.00    -0.014 A 
BRANCH  46  47
ATOM     47  C   UNL A   1      41.425  26.486  28.186  1.00  0.00     0.031 A 
ATOM     48  C   UNL A   1      42.812  26.648  27.620  1.00  0.00     0.074 A 
ATOM     49  C   UNL A   1      40.856  27.494  28.871  1.00  0.00     0.049 A 
ATOM     50  N   UNL A   1      43.620  27.675  27.677  1.00  0.00    -0.248 NA
ATOM     51  C   UNL A   1      43.360  25.492  26.892  1.00  0.00     0.031 C 
ATOM     52  C   UNL A   1      39.518  27.468  29.452  1.00  0.00     0.029 A 
ATOM     53  N   UNL A   1      41.340  28.739  29.189  1.00  0.00    -0.354 N 
ATOM     54  C   UNL A   1      44.771  27.288  27.000  1.00  0.00     0.074 A 
ATOM     55  C   UNL A   1      44.569  25.922  26.570  1.00  0.00     0.031 C 
ATOM     56  C   UNL A   1      39.282  28.649  30.051  1.00  0.00     0.029 A 
ATOM     57  C   UNL A   1      40.466  29.499  29.928  1.00  0.00     0.049 A 
ATOM     58  H   UNL A   1      42.230  29.057  28.913  1.00  0.00     0.167 HD
ATOM     59  C   UNL A   1      45.892  28.005  26.750  1.00  0.00     0.037 A 
ATOM     60  C   UNL A   1      40.615  30.734  30.449  1.00  0.00     0.037 A 
ATOM     61  C   UNL A   1      46.100  29.361  27.184  1.00  0.00     0.049 A 
ATOM     62  C   UNL A   1      41.896  31.494  30.190  1.00  0.00     0.074 A 
ATOM     63  C   UNL A   1      47.199  30.176  26.973  1.00  0.00     0.029 A 
ATOM     64  N   UNL A   1      45.191  30.099  27.927  1.00  0.00    -0.354 N 
ATOM     65  N   UNL A   1      42.939  31.147  29.476  1.00  0.00    -0.248 NA
ATOM     66  C   UNL A   1      42.008  32.830  30.795  1.00  0.00     0.031 C 
ATOM     67  C   UNL A   1      46.975  31.390  27.631  1.00  0.00     0.029 A 
ATOM     68  C   UNL A   1      45.714  31.352  28.202  1.00  0.00     0.049 A 
ATOM     69  H   UNL A   1      44.306  29.778  28.217  1.00  0.00     0.167 HD
ATOM     70  C   UNL A   1      43.803  32.238  29.504  1.00  0.00     0.074 A 
ATOM     71  C   UNL A   1      43.147  33.268  30.280  1.00  0.00     0.031 C 
ATOM     72  C   UNL A   1      45.032  32.379  28.947  1.00  0.00     0.037 A 
BRANCH  59  73
ATOM     73  C   UNL A   1      46.992  27.319  25.995  1.00  0.00     0.057 A 
ATOM     74  C   UNL A   1      47.966  26.545  26.642  1.00  0.00     0.134 A 
ATOM     75  C   UNL A   1      47.070  27.421  24.601  1.00  0.00     0.134 A 
ATOM     76  F   UNL A   1      47.960  26.422  27.978  1.00  0.00    -0.206 F 
ATOM     77  C   UNL A   1      48.992  25.920  25.931  1.00  0.00     0.040 A 
ATOM     78  C   UNL A   1      48.074  26.777  23.876  1.00  0.00     0.040 A 
ATOM     79  F   UNL A   1      46.169  28.145  23.919  1.00  0.00    -0.206 F 
ATOM     80  C   UNL A   1      49.043  26.029  24.542  1.00  0.00     0.006 A 
ENDBRANCH  59  73
BRANCH  60  81
ATOM     81  C   UNL A   1      39.517  31.362  31.236  1.00  0.00     0.057 A 
ATOM     82  C   UNL A   1      38.670  32.314  30.657  1.00  0.00     0.134 A 
ATOM     83  C   UNL A   1      39.302  31.063  32.587  1.00  0.00     0.134 A 
ATOM     84  F   UNL A   1      38.861  32.691  29.384  1.00  0.00    -0.206 F 
ATOM     85  C   UNL A   1      37.651  32.939  31.379  1.00  0.00     0.040 A 
ATOM     86  C   UNL A   1      38.273  31.661  33.318  1.00  0.00     0.040 A 
ATOM     87  F   UNL A   1      40.089  30.178  33.218  1.00  0.00    -0.206 F 
ATOM     88  C   UNL A   1      37.445  32.606  32.714  1.00  0.00     0.006 A 
ENDBRANCH  60  81
BRANCH  72  89
ATOM     89  C   UNL A   1      45.710  33.713  29.098  1.00  0.00     0.057 A 
ATOM     90  C   UNL A   1      45.537  34.750  28.171  1.00  0.00     0.134 A 
ATOM     91  C   UNL A   1      46.545  33.965  30.195  1.00  0.00     0.134 A 
ATOM     92  F   UNL A   1      44.757  34.576  27.093  1.00  0.00    -0.206 F 
ATOM     93  C   UNL A   1      46.206  35.968  28.303  1.00  0.00     0.040 A 
ATOM     94  C   UNL A   1      47.192  35.191  30.356  1.00  0.00     0.040 A 
ATOM     95  F   UNL A   1      46.743  33.025  31.132  1.00  0.00    -0.206 F 
ATOM     96  C   UNL A   1      47.034  36.192  29.401  1.00  0.00     0.006 A 
ENDBRANCH  72  89
ENDBRANCH  46  47
ENDBRANCH  39  41
ENDBRANCH  38  39
ENDBRANCH  37  38
ENDBRANCH  36  37
ENDBRANCH  35  36
ENDBRANCH  34  35
ENDBRANCH   1  34
TORSDOF 21
ENDMDL
MODEL 2
REMARK VINA RESULT:     -11.7      1.746      2.648
REMARK SMILES CS(=O)(=O)c1ccc(/C=C(/C(=O)OCCOCCOCCOC(=O)c2ccc(-c3c4nc(c(-c5c(F)cccc5F)c5ccc([nH]5)c(-c5c(F)cccc5F)c5nc(c(-c6c(F)cccc6F)c6ccc3[nH]6)C=C5)C=C4)cc2)c2ccc(-c3ccc(F)cc3F)cc2)cc1
REMARK SMILES IDX 17 1 16 2 15 3 14 4 13 5 11 6 12 7 10 8 9 9 8 10 5 11 6 12
REMARK SMILES IDX 94 13 7 14 93 15 2 16 1 17 3 18 4 19 79 20 80 21 92 22 81 23
REMARK SMILES IDX 91 24 82 25 83 26 84 27 89 28 85 29 88 30 90 31 86 32 87 33
REMARK SMILES IDX 18 34 19 35 20 36 21 37 22 38 23 39 24 40 25 41 26 42 78 43
REMARK SMILES IDX 27 44 77 45 28 46 29 47 30 48 71 49 31 50 76 51 70 52 72 53
REMARK SMILES IDX 32 54 75 55 69 56 68 57 33 59 59 60 42 61 58 62 43 63 46 64
REMARK SMILES IDX 57 65 73 66 44 67 45 68 56 70 74 71 47 72 34 73 35 74 40 75
REMARK SMILES IDX 36 76 37 77 39 78 41 79 38 80 60 81 61 82 66 83 62 84 63 85
REMARK SMILES IDX 65 86 67 87 64 88 48 89 49 90 54 91 50 92 51 93 53 94 55 95
REMARK SMILES IDX 52 96
REMARK H PARENT 72 58 46 69
REMARK Flexibility Score: inf
ROOT
ATOM      1  C   UNL A   1      35.958  21.317  24.612  1.00  0.00     0.188 C 
ENDROOT
BRANCH   1   2
ATOM      2  O   UNL A   1      34.702  21.728  25.108  1.00  0.00    -0.376 OA
BRANCH   2   3
ATOM      3  C   UNL A   1      34.551  21.794  26.515  1.00  0.00     0.202 C 
BRANCH   3   4
ATOM      4  C   UNL A   1      33.891  23.027  27.167  1.00  0.00     0.261 C 
BRANCH   4   5
ATOM      5  O   UNL A   1      33.258  23.972  26.289  1.00  0.00    -0.460 OA
BRANCH   5   6
ATOM      6  C   UNL A   1      31.972  24.307  26.553  1.00  0.00     0.338 C 
ATOM      7  O   UNL A   1      31.283  23.802  27.428  1.00  0.00    -0.246 OA
BRANCH   6   8
ATOM      8  C   UNL A   1      31.532  25.482  25.719  1.00  0.00     0.067 C 
ATOM      9  C   UNL A   1      30.762  25.289  24.619  1.00  0.00     0.024 C 
BRANCH   9  10
ATOM     10  C   UNL A   1      30.080  26.316  23.788  1.00  0.00    -0.025 A 
ATOM     11  C   UNL A   1      28.778  28.572  22.736  1.00  0.00     0.067 A 
ATOM     12  C   UNL A   1      30.100  28.303  22.382  1.00  0.00     0.021 A 
ATOM     13  C   UNL A   1      28.054  27.648  23.490  1.00  0.00     0.021 A 
ATOM     14  C   UNL A   1      30.732  27.157  22.877  1.00  0.00     0.009 A 
ATOM     15  C   UNL A   1      28.709  26.523  24.008  1.00  0.00     0.009 A 
BRANCH  11  16
ATOM     16  S   UNL A   1      28.097  30.155  22.307  1.00  0.00     0.175 S 
ATOM     17  C   UNL A   1      29.401  31.339  22.462  1.00  0.00     0.163 C 
ATOM     18  O   UNL A   1      27.106  30.480  23.317  1.00  0.00    -0.224 OA
ATOM     19  O   UNL A   1      27.736  30.072  20.905  1.00  0.00    -0.224 OA
ENDBRANCH  11  16
ENDBRANCH   9  10
BRANCH   8  20
ATOM     20  C   UNL A   1      31.957  26.820  26.175  1.00  0.00    -0.011 A 
ATOM     21  C   UNL A   1      32.864  27.563  25.402  1.00  0.00     0.009 A 
ATOM     22  C   UNL A   1      31.411  27.402  27.317  1.00  0.00     0.009 A 
ATOM     23  C   UNL A   1      33.220  28.863  25.768  1.00  0.00     0.009 A 
ATOM     24  C   UNL A   1      31.755  28.709  27.667  1.00  0.00     0.009 A 
ATOM     25  C   UNL A   1      32.678  29.459  26.912  1.00  0.00    -0.015 A 
BRANCH  25  26
ATOM     26  C   UNL A   1      33.047  30.824  27.322  1.00  0.00     0.018 A 
ATOM     27  C   UNL A   1      34.254  31.094  27.996  1.00  0.00     0.015 A 
ATOM     28  C   UNL A   1      32.212  31.916  27.023  1.00  0.00     0.133 A 
ATOM     29  C   UNL A   1      34.623  32.408  28.300  1.00  0.00     0.040 A 
ATOM     30  C   UNL A   1      32.572  33.223  27.316  1.00  0.00     0.079 A 
ATOM     31  F   UNL A   1      31.025  31.717  26.427  1.00  0.00    -0.206 F 
ATOM     32  C   UNL A   1      33.790  33.457  27.927  1.00  0.00     0.126 A 
ATOM     33  F   UNL A   1      34.169  34.720  28.153  1.00  0.00    -0.207 F 
ENDBRANCH  25  26
ENDBRANCH   8  20
ENDBRANCH   6   8
ENDBRANCH   5   6
ENDBRANCH   4   5
ENDBRANCH   3   4
ENDBRANCH   2   3
ENDBRANCH   1   2
BRANCH   1  34
ATOM     34  C   UNL A   1      37.054  22.393  24.770  1.00  0.00     0.188 C 
BRANCH  34  35
ATOM     35  O   UNL A   1      37.818  22.480  25.964  1.00  0.00    -0.376 OA
BRANCH  35  36
ATOM     36  C   UNL A   1      39.127  21.932  25.994  1.00  0.00     0.202 C 
BRANCH  36  37
ATOM     37  C   UNL A   1      39.335  20.430  25.738  1.00  0.00     0.261 C 
BRANCH  37  38
ATOM     38  O   UNL A   1      40.126  19.722  26.709  1.00  0.00    -0.460 OA
BRANCH  38  39
ATOM     39  C   UNL A   1      41.408  19.477  26.338  1.00  0.00     0.338 C 
ATOM     40  O   UNL A   1      41.832  18.497  25.754  1.00  0.00    -0.246 OA
BRANCH  39  41
ATOM     41  C   UNL A   1      42.246  20.670  26.590  1.00  0.00     0.060 A 
ATOM     42  C   UNL A   1      42.374  21.117  27.913  1.00  0.00     0.016 A 
ATOM     43  C   UNL A   1      42.810  21.400  25.542  1.00  0.00     0.016 A 
ATOM     44  C   UNL A   1      43.016  22.322  28.190  1.00  0.00     0.010 A 
ATOM     45  C   UNL A   1      43.433  22.626  25.818  1.00  0.00     0.010 A 
ATOM     46  C   UNL A   1      43.494  23.114  27.137  1.00  0.00    -0.014 A 
BRANCH  46  47
ATOM     47  C   UNL A   1      43.812  24.539  27.406  1.00  0.00     0.031 A 
ATOM     48  C   UNL A   1      45.238  24.993  27.235  1.00  0.00     0.074 A 
ATOM     49  C   UNL A   1      42.859  25.428  27.738  1.00  0.00     0.049 A 
ATOM     50  N   UNL A   1      45.753  26.189  27.357  1.00  0.00    -0.248 NA
ATOM     51  C   UNL A   1      46.217  23.951  26.878  1.00  0.00     0.031 C 
ATOM     52  C   UNL A   1      41.444  25.120  27.916  1.00  0.00     0.029 A 
ATOM     53  N   UNL A   1      42.946  26.776  27.983  1.00  0.00    -0.354 N 
ATOM     54  C   UNL A   1      47.111  26.044  27.100  1.00  0.00     0.074 A 
ATOM     55  C   UNL A   1      47.346  24.639  26.846  1.00  0.00     0.031 C 
ATOM     56  C   UNL A   1      40.790  26.252  28.234  1.00  0.00     0.029 A 
ATOM     57  C   UNL A   1      41.746  27.356  28.320  1.00  0.00     0.049 A 
ATOM     58  H   UNL A   1      43.789  27.282  27.923  1.00  0.00     0.167 HD
ATOM     59  C   UNL A   1      48.076  26.993  27.068  1.00  0.00     0.037 A 
ATOM     60  C   UNL A   1      41.461  28.628  28.664  1.00  0.00     0.037 A 
ATOM     61  C   UNL A   1      47.848  28.390  27.327  1.00  0.00     0.049 A 
ATOM     62  C   UNL A   1      42.569  29.658  28.662  1.00  0.00     0.074 A 
ATOM     63  C   UNL A   1      48.760  29.431  27.311  1.00  0.00     0.029 A 
ATOM     64  N   UNL A   1      46.620  28.938  27.662  1.00  0.00    -0.354 N 
ATOM     65  N   UNL A   1      43.831  29.521  28.333  1.00  0.00    -0.248 NA
ATOM     66  C   UNL A   1      42.203  31.025  29.060  1.00  0.00     0.031 C 
ATOM     67  C   UNL A   1      48.092  30.603  27.684  1.00  0.00     0.029 A 
ATOM     68  C   UNL A   1      46.754  30.301  27.875  1.00  0.00     0.049 A 
ATOM     69  H   UNL A   1      45.777  28.434  27.736  1.00  0.00     0.167 HD
ATOM     70  C   UNL A   1      44.392  30.791  28.433  1.00  0.00     0.074 A 
ATOM     71  C   UNL A   1      43.326  31.687  28.825  1.00  0.00     0.031 C 
ATOM     72  C   UNL A   1      45.674  31.186  28.230  1.00  0.00     0.037 A 
BRANCH  59  73
ATOM     73  C   UNL A   1      49.475  26.541  26.768  1.00  0.00     0.057 A 
ATOM     74  C   UNL A   1      50.384  26.214  27.785  1.00  0.00     0.134 A 
ATOM     75  C   UNL A   1      49.915  26.415  25.444  1.00  0.00     0.134 A 
ATOM     76  F   UNL A   1      50.032  26.330  29.074  1.00  0.00    -0.206 F 
ATOM     77  C   UNL A   1      51.686  25.805  27.495  1.00  0.00     0.040 A 
ATOM     78  C   UNL A   1      51.206  25.980  25.142  1.00  0.00     0.040 A 
ATOM     79  F   UNL A   1      49.096  26.711  24.424  1.00  0.00    -0.206 F 
ATOM     80  C   UNL A   1      52.098  25.679  26.169  1.00  0.00     0.006 A 
ENDBRANCH  59  73
BRANCH  60  81
ATOM     81  C   UNL A   1      40.067  29.028  29.004  1.00  0.00     0.057 A 
ATOM     82  C   UNL A   1      39.158  29.388  28.003  1.00  0.00     0.134 A 
ATOM     83  C   UNL A   1      39.613  29.097  30.326  1.00  0.00     0.134 A 
ATOM     84  F   UNL A   1      39.549  29.401  26.719  1.00  0.00    -0.206 F 
ATOM     85  C   UNL A   1      37.854  29.793  28.294  1.00  0.00     0.040 A 
ATOM     86  C   UNL A   1      38.304  29.479  30.635  1.00  0.00     0.040 A 
ATOM     87  F   UNL A   1      40.433  28.791  31.342  1.00  0.00    -0.206 F 
ATOM     88  C   UNL A   1      37.421  29.831  29.616  1.00  0.00     0.006 A 
ENDBRANCH  60  81
BRANCH  72  89
ATOM     89  C   UNL A   1      45.973  32.654  28.358  1.00  0.00     0.057 A 
ATOM     90  C   UNL A   1      46.537  33.204  29.517  1.00  0.00     0.134 A 
ATOM     91  C   UNL A   1      45.697  33.530  27.300  1.00  0.00     0.134 A 
ATOM     92  F   UNL A   1      46.821  32.423  30.572  1.00  0.00    -0.206 F 
ATOM     93  C   UNL A   1      46.770  34.575  29.638  1.00  0.00     0.040 A 
ATOM     94  C   UNL A   1      45.958  34.898  27.395  1.00  0.00     0.040 A 
ATOM     95  F   UNL A   1      45.173  33.072  26.153  1.00  0.00    -0.206 F 
ATOM     96  C   UNL A   1      46.483  35.426  28.572  1.00  0.00     0.006 A 
ENDBRANCH  72  89
ENDBRANCH  46  47
ENDBRANCH  39  41
ENDBRANCH  38  39
ENDBRANCH  37  38
ENDBRANCH  36  37
ENDBRANCH  35  36
ENDBRANCH  34  35
ENDBRANCH   1  34
TORSDOF 21
ENDMDL
MODEL 3
REMARK VINA RESULT:     -11.7      1.787      6.134
REMARK SMILES CS(=O)(=O)c1ccc(/C=C(/C(=O)OCCOCCOCCOC(=O)c2ccc(-c3c4nc(c(-c5c(F)cccc5F)c5ccc([nH]5)c(-c5c(F)cccc5F)c5nc(c(-c6c(F)cccc6F)c6ccc3[nH]6)C=C5)C=C4)cc2)c2ccc(-c3ccc(F)cc3F)cc2)cc1
REMARK SMILES IDX 17 1 16 2 15 3 14 4 13 5 11 6 12 7 10 8 9 9 8 10 5 11 6 12
REMARK SMILES IDX 94 13 7 14 93 15 2 16 1 17 3 18 4 19 79 20 80 21 92 22 81 23
REMARK SMILES IDX 91 24 82 25 83 26 84 27 89 28 85 29 88 30 90 31 86 32 87 33
REMARK SMILES IDX 18 34 19 35 20 36 21 37 22 38 23 39 24 40 25 41 26 42 78 43
REMARK SMILES IDX 27 44 77 45 28 46 29 47 30 48 71 49 31 50 76 51 70 52 72 53
REMARK SMILES IDX 32 54 75 55 69 56 68 57 33 59 59 60 42 61 58 62 43 63 46 64
REMARK SMILES IDX 57 65 73 66 44 67 45 68 56 70 74 71 47 72 34 73 35 74 40 75
REMARK SMILES IDX 36 76 37 77 39 78 41 79 38 80 60 81 61 82 66 83 62 84 63 85
REMARK SMILES IDX 65 86 67 87 64 88 48 89 49 90 54 91 50 92 51 93 53 94 55 95
REMARK SMILES IDX 52 96
REMARK H PARENT 72 58 46 69
REMARK Flexibility Score: inf
ROOT
ATOM      1  C   UNL A   1      36.653  22.941  24.217  1.00  0.00     0.188 C 
ENDROOT
BRANCH   1   2
ATOM      2  O   UNL A   1      35.250  22.931  24.068  1.00  0.00    -0.376 OA
BRANCH   2   3
ATOM      3  C   UNL A   1      34.525  21.976  24.823  1.00  0.00     0.202 C 
BRANCH   3   4
ATOM      4  C   UNL A   1      33.643  22.429  26.005  1.00  0.00     0.261 C 
BRANCH   4   5
ATOM      5  O   UNL A   1      33.432  23.842  26.160  1.00  0.00    -0.460 OA
BRANCH   5   6
ATOM      6  C   UNL A   1      32.199  24.253  26.544  1.00  0.00     0.338 C 
ATOM      7  O   UNL A   1      31.589  23.822  27.511  1.00  0.00    -0.246 OA
BRANCH   6   8
ATOM      8  C   UNL A   1      31.723  25.410  25.704  1.00  0.00     0.067 C 
ATOM      9  C   UNL A   1      30.870  25.199  24.671  1.00  0.00     0.024 C 
BRANCH   9  10
ATOM     10  C   UNL A   1      30.150  26.213  23.857  1.00  0.00    -0.025 A 
ATOM     11  C   UNL A   1      28.786  28.448  22.838  1.00  0.00     0.067 A 
ATOM     12  C   UNL A   1      30.101  28.196  22.447  1.00  0.00     0.021 A 
ATOM     13  C   UNL A   1      28.097  27.516  23.615  1.00  0.00     0.021 A 
ATOM     14  C   UNL A   1      30.763  27.062  22.926  1.00  0.00     0.009 A 
ATOM     15  C   UNL A   1      28.782  26.402  24.117  1.00  0.00     0.009 A 
BRANCH  11  16
ATOM     16  S   UNL A   1      28.070  30.020  22.425  1.00  0.00     0.175 S 
ATOM     17  C   UNL A   1      29.214  31.263  22.947  1.00  0.00     0.163 C 
ATOM     18  O   UNL A   1      26.878  30.172  23.239  1.00  0.00    -0.224 OA
ATOM     19  O   UNL A   1      27.998  30.062  20.977  1.00  0.00    -0.224 OA
ENDBRANCH  11  16
ENDBRANCH   9  10
BRANCH   8  20
ATOM     20  C   UNL A   1      32.208  26.752  26.082  1.00  0.00    -0.011 A 
ATOM     21  C   UNL A   1      31.408  27.581  26.883  1.00  0.00     0.009 A 
ATOM     22  C   UNL A   1      33.486  27.184  25.730  1.00  0.00     0.009 A 
ATOM     23  C   UNL A   1      31.876  28.822  27.321  1.00  0.00     0.009 A 
ATOM     24  C   UNL A   1      33.955  28.417  26.187  1.00  0.00     0.009 A 
ATOM     25  C   UNL A   1      33.156  29.267  26.976  1.00  0.00    -0.015 A 
BRANCH  25  26
ATOM     26  C   UNL A   1      33.666  30.577  27.418  1.00  0.00     0.018 A 
ATOM     27  C   UNL A   1      34.988  30.742  27.872  1.00  0.00     0.015 A 
ATOM     28  C   UNL A   1      32.847  31.720  27.372  1.00  0.00     0.133 A 
ATOM     29  C   UNL A   1      35.474  32.009  28.206  1.00  0.00     0.040 A 
ATOM     30  C   UNL A   1      33.322  32.982  27.696  1.00  0.00     0.079 A 
ATOM     31  F   UNL A   1      31.561  31.616  26.996  1.00  0.00    -0.206 F 
ATOM     32  C   UNL A   1      34.643  33.117  28.084  1.00  0.00     0.126 A 
ATOM     33  F   UNL A   1      35.121  34.340  28.335  1.00  0.00    -0.207 F 
ENDBRANCH  25  26
ENDBRANCH   8  20
ENDBRANCH   6   8
ENDBRANCH   5   6
ENDBRANCH   4   5
ENDBRANCH   3   4
ENDBRANCH   2   3
ENDBRANCH   1   2
BRANCH   1  34
ATOM     34  C   UNL A   1      37.112  23.504  25.580  1.00  0.00     0.188 C 
BRANCH  34  35
ATOM     35  O   UNL A   1      38.029  22.784  26.391  1.00  0.00    -0.376 OA
BRANCH  35  36
ATOM     36  C   UNL A   1      39.150  22.156  25.786  1.00  0.00     0.202 C 
BRANCH  36  37
ATOM     37  C   UNL A   1      39.252  20.621  25.772  1.00  0.00     0.261 C 
BRANCH  37  38
ATOM     38  O   UNL A   1      40.090  20.030  26.781  1.00  0.00    -0.460 OA
BRANCH  38  39
ATOM     39  C   UNL A   1      41.335  19.687  26.366  1.00  0.00     0.338 C 
ATOM     40  O   UNL A   1      41.662  18.676  25.771  1.00  0.00    -0.246 OA
BRANCH  39  41
ATOM     41  C   UNL A   1      42.271  20.812  26.583  1.00  0.00     0.060 A 
ATOM     42  C   UNL A   1      42.384  21.332  27.880  1.00  0.00     0.016 A 
ATOM     43  C   UNL A   1      42.946  21.415  25.520  1.00  0.00     0.016 A 
ATOM     44  C   UNL A   1      43.126  22.489  28.111  1.00  0.00     0.010 A 
ATOM     45  C   UNL A   1      43.670  22.594  25.749  1.00  0.00     0.010 A 
ATOM     46  C   UNL A   1      43.721  23.162  27.035  1.00  0.00    -0.014 A 
BRANCH  46  47
ATOM     47  C   UNL A   1      44.161  24.566  27.230  1.00  0.00     0.031 A 
ATOM     48  C   UNL A   1      43.148  25.566  27.725  1.00  0.00     0.074 A 
ATOM     49  C   UNL A   1      45.436  24.945  27.029  1.00  0.00     0.049 A 
ATOM     50  N   UNL A   1      43.302  26.830  28.022  1.00  0.00    -0.248 NA
ATOM     51  C   UNL A   1      41.775  25.067  27.910  1.00  0.00     0.031 C 
ATOM     52  C   UNL A   1      46.512  24.073  26.570  1.00  0.00     0.029 A 
ATOM     53  N   UNL A   1      46.037  26.169  27.191  1.00  0.00    -0.354 N 
ATOM     54  C   UNL A   1      42.048  27.279  28.421  1.00  0.00     0.074 A 
ATOM     55  C   UNL A   1      41.139  26.161  28.297  1.00  0.00     0.031 C 
ATOM     56  C   UNL A   1      47.648  24.788  26.495  1.00  0.00     0.029 A 
ATOM     57  C   UNL A   1      47.372  26.176  26.864  1.00  0.00     0.049 A 
ATOM     58  H   UNL A   1      45.558  26.966  27.513  1.00  0.00     0.167 HD
ATOM     59  C   UNL A   1      41.684  28.508  28.859  1.00  0.00     0.037 A 
ATOM     60  C   UNL A   1      48.260  27.192  26.857  1.00  0.00     0.037 A 
ATOM     61  C   UNL A   1      42.583  29.625  28.975  1.00  0.00     0.049 A 
ATOM     62  C   UNL A   1      47.814  28.563  27.309  1.00  0.00     0.074 A 
ATOM     63  C   UNL A   1      42.312  30.908  29.417  1.00  0.00     0.029 A 
ATOM     64  N   UNL A   1      43.927  29.593  28.637  1.00  0.00    -0.354 N 
ATOM     65  N   UNL A   1      46.646  28.950  27.765  1.00  0.00    -0.248 NA
ATOM     66  C   UNL A   1      48.820  29.634  27.267  1.00  0.00     0.031 C 
ATOM     67  C   UNL A   1      43.482  31.667  29.300  1.00  0.00     0.029 A 
ATOM     68  C   UNL A   1      44.494  30.841  28.840  1.00  0.00     0.049 A 
ATOM     69  H   UNL A   1      44.407  28.801  28.303  1.00  0.00     0.167 HD
ATOM     70  C   UNL A   1      46.796  30.291  28.110  1.00  0.00     0.074 A 
ATOM     71  C   UNL A   1      48.173  30.639  27.839  1.00  0.00     0.031 C 
ATOM     72  C   UNL A   1      45.878  31.162  28.599  1.00  0.00     0.037 A 
BRANCH  59  73
ATOM     73  C   UNL A   1      40.241  28.711  29.216  1.00  0.00     0.057 A 
ATOM     74  C   UNL A   1      39.286  29.089  28.262  1.00  0.00     0.134 A 
ATOM     75  C   UNL A   1      39.797  28.511  30.529  1.00  0.00     0.134 A 
ATOM     76  F   UNL A   1      39.648  29.315  26.990  1.00  0.00    -0.206 F 
ATOM     77  C   UNL A   1      37.948  29.286  28.607  1.00  0.00     0.040 A 
ATOM     78  C   UNL A   1      38.457  28.676  30.880  1.00  0.00     0.040 A 
ATOM     79  F   UNL A   1      40.659  28.147  31.491  1.00  0.00    -0.206 F 
ATOM     80  C   UNL A   1      37.529  29.072  29.919  1.00  0.00     0.006 A 
ENDBRANCH  59  73
BRANCH  60  81
ATOM     81  C   UNL A   1      49.673  26.960  26.447  1.00  0.00     0.057 A 
ATOM     82  C   UNL A   1      50.059  27.058  25.105  1.00  0.00     0.134 A 
ATOM     83  C   UNL A   1      50.666  26.602  27.366  1.00  0.00     0.134 A 
ATOM     84  F   UNL A   1      49.143  27.338  24.166  1.00  0.00    -0.206 F 
ATOM     85  C   UNL A   1      51.370  26.819  24.690  1.00  0.00     0.040 A 
ATOM     86  C   UNL A   1      51.988  26.380  26.971  1.00  0.00     0.040 A 
ATOM     87  F   UNL A   1      50.368  26.464  28.667  1.00  0.00    -0.206 F 
ATOM     88  C   UNL A   1      52.343  26.486  25.628  1.00  0.00     0.006 A 
ENDBRANCH  60  81
BRANCH  72  89
ATOM     89  C   UNL A   1      46.353  32.548  28.937  1.00  0.00     0.057 A 
ATOM     90  C   UNL A   1      46.963  32.853  30.161  1.00  0.00     0.134 A 
ATOM     91  C   UNL A   1      46.202  33.594  28.016  1.00  0.00     0.134 A 
ATOM     92  F   UNL A   1      47.132  31.901  31.092  1.00  0.00    -0.206 F 
ATOM     93  C   UNL A   1      47.360  34.153  30.477  1.00  0.00     0.040 A 
ATOM     94  C   UNL A   1      46.628  34.891  28.306  1.00  0.00     0.040 A 
ATOM     95  F   UNL A   1      45.644  33.373  26.817  1.00  0.00    -0.206 F 
ATOM     96  C   UNL A   1      47.196  35.177  29.546  1.00  0.00     0.006 A 
ENDBRANCH  72  89
ENDBRANCH  46  47
ENDBRANCH  39  41
ENDBRANCH  38  39
ENDBRANCH  37  38
ENDBRANCH  36  37
ENDBRANCH  35  36
ENDBRANCH  34  35
ENDBRANCH   1  34
TORSDOF 21
ENDMDL
