MODEL 1
REMARK VINA RESULT:     -10.3      0.000      0.000
REMARK SMILES CC(C)Nc1cc2ccccc2cc1C(=O)OCCOCCOCCOC(=O)c1ccc(-c2c3nc(c(-c4c(F)cccc4F)c4ccc([nH]4)c(-c4c(F)cccc4F)c4nc(c(-c5c(F)cccc5F)c5ccc2[nH]5)C=C4)C=C3)cc1
REMARK SMILES IDX 21 1 20 2 19 3 18 4 17 5 15 6 16 7 14 8 5 9 6 10 7 11 13 12
REMARK SMILES IDX 8 13 12 14 9 15 11 16 10 17 4 18 2 20 1 21 3 22 22 23 23 24
REMARK SMILES IDX 24 25 25 26 26 27 27 28 28 29 29 30 30 31 82 32 31 33 81 34
REMARK SMILES IDX 32 35 33 36 34 37 75 38 35 39 80 40 74 41 76 42 36 43 79 44
REMARK SMILES IDX 73 45 72 46 37 48 63 49 46 50 62 51 47 52 50 53 61 54 77 55
REMARK SMILES IDX 48 56 49 57 60 59 78 60 51 61 38 62 39 63 44 64 40 65 41 66
REMARK SMILES IDX 43 67 45 68 42 69 64 70 65 71 70 72 66 73 67 74 69 75 71 76
REMARK SMILES IDX 68 77 52 78 53 79 58 80 54 81 55 82 57 83 59 84 56 85
REMARK H PARENT 4 19 76 47 50 58
REMARK Flexibility Score: inf
ROOT
ATOM      1  C   UNL A   1      34.389  32.593  28.816  1.00  0.00     0.188 C 
ENDROOT
BRANCH   1   2
ATOM      2  O   UNL A   1      35.143  32.247  27.661  1.00  0.00    -0.376 OA
BRANCH   2   3
ATOM      3  C   UNL A   1      35.238  30.867  27.312  1.00  0.00     0.202 C 
BRANCH   3   4
ATOM      4  C   UNL A   1      33.917  30.110  27.308  1.00  0.00     0.261 C 
BRANCH   4   5
ATOM      5  O   UNL A   1      34.139  28.824  26.713  1.00  0.00    -0.460 OA
BRANCH   5   6
ATOM      6  C   UNL A   1      33.044  28.048  26.575  1.00  0.00     0.340 C 
ATOM      7  O   UNL A   1      31.940  28.269  27.046  1.00  0.00    -0.246 OA
BRANCH   6   8
ATOM      8  C   UNL A   1      33.316  26.995  25.576  1.00  0.00     0.083 A 
ATOM      9  C   UNL A   1      32.717  26.881  24.310  1.00  0.00     0.050 A 
ATOM     10  C   UNL A   1      33.176  25.812  23.503  1.00  0.00     0.035 A 
ATOM     11  C   UNL A   1      34.139  24.874  23.923  1.00  0.00    -0.016 A 
ATOM     12  C   UNL A   1      34.248  26.034  26.033  1.00  0.00     0.026 A 
ATOM     13  C   UNL A   1      34.601  23.854  23.074  1.00  0.00     0.009 A 
ATOM     14  C   UNL A   1      34.659  24.969  25.225  1.00  0.00    -0.017 A 
ATOM     15  C   UNL A   1      35.547  22.929  23.517  1.00  0.00     0.001 A 
ATOM     16  C   UNL A   1      35.588  24.013  25.671  1.00  0.00     0.009 A 
ATOM     17  C   UNL A   1      36.029  23.000  24.820  1.00  0.00     0.001 A 
BRANCH   9  18
ATOM     18  N   UNL A   1      31.786  27.707  23.708  1.00  0.00    -0.382 N 
ATOM     19  H   UNL A   1      32.142  28.283  22.995  1.00  0.00     0.160 HD
BRANCH  18  20
ATOM     20  C   UNL A   1      30.364  27.860  23.966  1.00  0.00     0.073 C 
ATOM     21  C   UNL A   1      29.712  28.429  22.705  1.00  0.00     0.030 C 
ATOM     22  C   UNL A   1      29.762  26.493  24.293  1.00  0.00     0.030 C 
ENDBRANCH  18  20
ENDBRANCH   9  18
ENDBRANCH   6   8
ENDBRANCH   5   6
ENDBRANCH   4   5
ENDBRANCH   3   4
ENDBRANCH   2   3
ENDBRANCH   1   2
BRANCH   1  23
ATOM     23  C   UNL A   1      33.606  33.923  28.847  1.00  0.00     0.188 C 
BRANCH  23  24
ATOM     24  O   UNL A   1      33.450  34.648  30.058  1.00  0.00    -0.376 OA
BRANCH  24  25
ATOM     25  C   UNL A   1      34.477  34.602  31.040  1.00  0.00     0.202 C 
BRANCH  25  26
ATOM     26  C   UNL A   1      34.246  33.722  32.267  1.00  0.00     0.261 C 
BRANCH  26  27
ATOM     27  O   UNL A   1      34.877  32.439  32.136  1.00  0.00    -0.460 OA
BRANCH  27  28
ATOM     28  C   UNL A   1      35.957  32.244  32.929  1.00  0.00     0.338 C 
ATOM     29  O   UNL A   1      36.069  32.501  34.114  1.00  0.00    -0.246 OA
BRANCH  28  30
ATOM     30  C   UNL A   1      36.976  31.490  32.175  1.00  0.00     0.060 A 
ATOM     31  C   UNL A   1      37.942  30.785  32.904  1.00  0.00     0.016 A 
ATOM     32  C   UNL A   1      37.002  31.504  30.780  1.00  0.00     0.016 A 
ATOM     33  C   UNL A   1      38.966  30.117  32.235  1.00  0.00     0.010 A 
ATOM     34  C   UNL A   1      38.040  30.850  30.111  1.00  0.00     0.010 A 
ATOM     35  C   UNL A   1      39.040  30.180  30.837  1.00  0.00    -0.014 A 
BRANCH  35  36
ATOM     36  C   UNL A   1      40.248  29.684  30.142  1.00  0.00     0.031 A 
ATOM     37  C   UNL A   1      41.398  30.629  29.932  1.00  0.00     0.074 A 
ATOM     38  C   UNL A   1      40.321  28.416  29.703  1.00  0.00     0.049 A 
ATOM     39  N   UNL A   1      42.530  30.431  29.309  1.00  0.00    -0.248 NA
ATOM     40  C   UNL A   1      41.246  31.978  30.500  1.00  0.00     0.031 C 
ATOM     41  C   UNL A   1      39.284  27.401  29.871  1.00  0.00     0.029 A 
ATOM     42  N   UNL A   1      41.315  27.775  29.007  1.00  0.00    -0.354 N 
ATOM     43  C   UNL A   1      43.226  31.628  29.409  1.00  0.00     0.074 A 
ATOM     44  C   UNL A   1      42.381  32.555  30.132  1.00  0.00     0.031 C 
ATOM     45  C   UNL A   1      39.686  26.266  29.271  1.00  0.00     0.029 A 
ATOM     46  C   UNL A   1      40.995  26.486  28.659  1.00  0.00     0.049 A 
ATOM     47  H   UNL A   1      42.173  28.199  28.779  1.00  0.00     0.167 HD
ATOM     48  C   UNL A   1      44.462  31.927  28.945  1.00  0.00     0.037 A 
ATOM     49  C   UNL A   1      41.676  25.598  27.909  1.00  0.00     0.037 A 
ATOM     50  C   UNL A   1      45.297  31.012  28.216  1.00  0.00     0.049 A 
ATOM     51  C   UNL A   1      43.017  25.980  27.341  1.00  0.00     0.074 A 
ATOM     52  C   UNL A   1      46.574  31.215  27.725  1.00  0.00     0.029 A 
ATOM     53  N   UNL A   1      44.931  29.723  27.863  1.00  0.00    -0.354 N 
ATOM     54  N   UNL A   1      43.685  27.099  27.476  1.00  0.00    -0.248 NA
ATOM     55  C   UNL A   1      43.698  24.971  26.515  1.00  0.00     0.031 C 
ATOM     56  C   UNL A   1      46.966  30.062  27.036  1.00  0.00     0.029 A 
ATOM     57  C   UNL A   1      45.948  29.127  27.137  1.00  0.00     0.049 A 
ATOM     58  H   UNL A   1      44.076  29.295  28.095  1.00  0.00     0.167 HD
ATOM     59  C   UNL A   1      44.872  26.923  26.774  1.00  0.00     0.074 A 
ATOM     60  C   UNL A   1      44.838  25.585  26.224  1.00  0.00     0.031 C 
ATOM     61  C   UNL A   1      45.899  27.791  26.601  1.00  0.00     0.037 A 
BRANCH  48  62
ATOM     62  C   UNL A   1      44.972  33.314  29.196  1.00  0.00     0.057 A 
ATOM     63  C   UNL A   1      45.728  33.625  30.333  1.00  0.00     0.134 A 
ATOM     64  C   UNL A   1      44.729  34.341  28.276  1.00  0.00     0.134 A 
ATOM     65  F   UNL A   1      45.982  32.688  31.258  1.00  0.00    -0.206 F 
ATOM     66  C   UNL A   1      46.211  34.916  30.554  1.00  0.00     0.040 A 
ATOM     67  C   UNL A   1      45.223  35.630  28.476  1.00  0.00     0.040 A 
ATOM     68  F   UNL A   1      44.011  34.106  27.167  1.00  0.00    -0.206 F 
ATOM     69  C   UNL A   1      45.964  35.921  29.621  1.00  0.00     0.006 A 
ENDBRANCH  48  62
BRANCH  49  70
ATOM     70  C   UNL A   1      41.095  24.261  27.628  1.00  0.00     0.057 A 
ATOM     71  C   UNL A   1      41.563  23.116  28.280  1.00  0.00     0.134 A 
ATOM     72  C   UNL A   1      40.081  24.097  26.677  1.00  0.00     0.134 A 
ATOM     73  F   UNL A   1      42.552  23.209  29.181  1.00  0.00    -0.206 F 
ATOM     74  C   UNL A   1      41.057  21.850  27.983  1.00  0.00     0.040 A 
ATOM     75  C   UNL A   1      39.549  22.839  26.388  1.00  0.00     0.040 A 
ATOM     76  F   UNL A   1      39.592  25.157  26.017  1.00  0.00    -0.206 F 
ATOM     77  C   UNL A   1      40.044  21.710  27.037  1.00  0.00     0.006 A 
ENDBRANCH  49  70
BRANCH  61  78
ATOM     78  C   UNL A   1      47.079  27.312  25.810  1.00  0.00     0.057 A 
ATOM     79  C   UNL A   1      48.112  26.574  26.399  1.00  0.00     0.134 A 
ATOM     80  C   UNL A   1      47.157  27.552  24.432  1.00  0.00     0.134 A 
ATOM     81  F   UNL A   1      48.101  26.321  27.717  1.00  0.00    -0.206 F 
ATOM     82  C   UNL A   1      49.193  26.107  25.649  1.00  0.00     0.040 A 
ATOM     83  C   UNL A   1      48.222  27.071  23.668  1.00  0.00     0.040 A 
ATOM     84  F   UNL A   1      46.196  28.246  23.805  1.00  0.00    -0.206 F 
ATOM     85  C   UNL A   1      49.246  26.350  24.278  1.00  0.00     0.006 A 
ENDBRANCH  61  78
ENDBRANCH  35  36
ENDBRANCH  28  30
ENDBRANCH  27  28
ENDBRANCH  26  27
ENDBRANCH  25  26
ENDBRANCH  24  25
ENDBRANCH  23  24
ENDBRANCH   1  23
TORSDOF 19
ENDMDL
MODEL 2
REMARK VINA RESULT:     -10.2      4.851      9.863
REMARK SMILES CC(C)Nc1cc2ccccc2cc1C(=O)OCCOCCOCCOC(=O)c1ccc(-c2c3nc(c(-c4c(F)cccc4F)c4ccc([nH]4)c(-c4c(F)cccc4F)c4nc(c(-c5c(F)cccc5F)c5ccc2[nH]5)C=C4)C=C3)cc1
REMARK SMILES IDX 21 1 20 2 19 3 18 4 17 5 15 6 16 7 14 8 5 9 6 10 7 11 13 12
REMARK SMILES IDX 8 13 12 14 9 15 11 16 10 17 4 18 2 20 1 21 3 22 22 23 23 24
REMARK SMILES IDX 24 25 25 26 26 27 27 28 28 29 29 30 30 31 82 32 31 33 81 34
REMARK SMILES IDX 32 35 33 36 34 37 75 38 35 39 80 40 74 41 76 42 36 43 79 44
REMARK SMILES IDX 73 45 72 46 37 48 63 49 46 50 62 51 47 52 50 53 61 54 77 55
REMARK SMILES IDX 48 56 49 57 60 59 78 60 51 61 38 62 39 63 44 64 40 65 41 66
REMARK SMILES IDX 43 67 45 68 42 69 64 70 65 71 70 72 66 73 67 74 69 75 71 76
REMARK SMILES IDX 68 77 52 78 53 79 58 80 54 81 55 82 57 83 59 84 56 85
REMARK H PARENT 4 19 76 47 50 58
REMARK Flexibility Score: inf
ROOT
ATOM      1  C   UNL A   1      40.236  22.255  27.150  1.00  0.00     0.188 C 
ENDROOT
BRANCH   1   2
ATOM      2  O   UNL A   1      39.056  22.975  26.816  1.00  0.00    -0.376 OA
BRANCH   2   3
ATOM      3  C   UNL A   1      38.203  22.432  25.810  1.00  0.00     0.202 C 
BRANCH   3   4
ATOM      4  C   UNL A   1      37.413  23.459  25.010  1.00  0.00     0.261 C 
BRANCH   4   5
ATOM      5  O   UNL A   1      36.261  22.808  24.457  1.00  0.00    -0.460 OA
BRANCH   5   6
ATOM      6  C   UNL A   1      35.205  22.686  25.287  1.00  0.00     0.340 C 
ATOM      7  O   UNL A   1      34.861  23.488  26.140  1.00  0.00    -0.246 OA
BRANCH   6   8
ATOM      8  C   UNL A   1      34.383  21.536  24.861  1.00  0.00     0.083 A 
ATOM      9  C   UNL A   1      33.039  21.585  24.452  1.00  0.00     0.050 A 
ATOM     10  C   UNL A   1      32.472  20.355  24.039  1.00  0.00     0.035 A 
ATOM     11  C   UNL A   1      33.164  19.129  24.065  1.00  0.00    -0.016 A 
ATOM     12  C   UNL A   1      35.077  20.306  24.939  1.00  0.00     0.026 A 
ATOM     13  C   UNL A   1      32.580  17.937  23.603  1.00  0.00     0.009 A 
ATOM     14  C   UNL A   1      34.480  19.101  24.555  1.00  0.00    -0.017 A 
ATOM     15  C   UNL A   1      33.282  16.732  23.649  1.00  0.00     0.001 A 
ATOM     16  C   UNL A   1      35.167  17.876  24.626  1.00  0.00     0.009 A 
ATOM     17  C   UNL A   1      34.570  16.700  24.175  1.00  0.00     0.001 A 
BRANCH   9  18
ATOM     18  N   UNL A   1      32.205  22.681  24.329  1.00  0.00    -0.382 N 
ATOM     19  H   UNL A   1      31.774  22.970  25.165  1.00  0.00     0.160 HD
BRANCH  18  20
ATOM     20  C   UNL A   1      31.863  23.472  23.159  1.00  0.00     0.073 C 
ATOM     21  C   UNL A   1      30.694  24.386  23.529  1.00  0.00     0.030 C 
ATOM     22  C   UNL A   1      33.072  24.312  22.748  1.00  0.00     0.030 C 
ENDBRANCH  18  20
ENDBRANCH   9  18
ENDBRANCH   6   8
ENDBRANCH   5   6
ENDBRANCH   4   5
ENDBRANCH   3   4
ENDBRANCH   2   3
ENDBRANCH   1   2
BRANCH   1  23
ATOM     23  C   UNL A   1      40.573  20.949  26.399  1.00  0.00     0.188 C 
BRANCH  23  24
ATOM     24  O   UNL A   1      41.867  20.733  25.858  1.00  0.00    -0.376 OA
BRANCH  24  25
ATOM     25  C   UNL A   1      42.617  21.838  25.372  1.00  0.00     0.202 C 
BRANCH  25  26
ATOM     26  C   UNL A   1      44.126  21.832  25.613  1.00  0.00     0.261 C 
BRANCH  26  27
ATOM     27  O   UNL A   1      44.552  22.963  26.388  1.00  0.00    -0.460 OA
BRANCH  27  28
ATOM     28  C   UNL A   1      44.437  24.162  25.769  1.00  0.00     0.338 C 
ATOM     29  O   UNL A   1      44.753  24.446  24.627  1.00  0.00    -0.246 OA
BRANCH  28  30
ATOM     30  C   UNL A   1      43.689  25.084  26.643  1.00  0.00     0.060 A 
ATOM     31  C   UNL A   1      44.075  26.431  26.659  1.00  0.00     0.016 A 
ATOM     32  C   UNL A   1      42.653  24.628  27.459  1.00  0.00     0.016 A 
ATOM     33  C   UNL A   1      43.444  27.324  27.522  1.00  0.00     0.010 A 
ATOM     34  C   UNL A   1      42.035  25.521  28.339  1.00  0.00     0.010 A 
ATOM     35  C   UNL A   1      42.448  26.864  28.393  1.00  0.00    -0.014 A 
BRANCH  35  36
ATOM     36  C   UNL A   1      41.951  27.745  29.472  1.00  0.00     0.031 A 
ATOM     37  C   UNL A   1      42.640  27.710  30.806  1.00  0.00     0.074 A 
ATOM     38  C   UNL A   1      40.901  28.559  29.270  1.00  0.00     0.049 A 
ATOM     39  N   UNL A   1      42.349  28.353  31.908  1.00  0.00    -0.248 NA
ATOM     40  C   UNL A   1      43.815  26.829  30.912  1.00  0.00     0.031 C 
ATOM     41  C   UNL A   1      40.168  28.701  28.014  1.00  0.00     0.029 A 
ATOM     42  N   UNL A   1      40.261  29.412  30.134  1.00  0.00    -0.354 N 
ATOM     43  C   UNL A   1      43.303  27.956  32.835  1.00  0.00     0.074 A 
ATOM     44  C   UNL A   1      44.167  27.000  32.178  1.00  0.00     0.031 C 
ATOM     45  C   UNL A   1      39.160  29.572  28.196  1.00  0.00     0.029 A 
ATOM     46  C   UNL A   1      39.165  30.029  29.584  1.00  0.00     0.049 A 
ATOM     47  H   UNL A   1      40.560  29.565  31.060  1.00  0.00     0.167 HD
ATOM     48  C   UNL A   1      43.448  28.358  34.120  1.00  0.00     0.037 A 
ATOM     49  C   UNL A   1      38.258  30.847  30.150  1.00  0.00     0.037 A 
ATOM     50  C   UNL A   1      42.583  29.298  34.778  1.00  0.00     0.049 A 
ATOM     51  C   UNL A   1      38.399  31.221  31.602  1.00  0.00     0.074 A 
ATOM     52  C   UNL A   1      42.663  29.785  36.071  1.00  0.00     0.029 A 
ATOM     53  N   UNL A   1      41.470  29.885  34.196  1.00  0.00    -0.354 N 
ATOM     54  N   UNL A   1      39.327  30.874  32.460  1.00  0.00    -0.248 NA
ATOM     55  C   UNL A   1      37.364  32.103  32.163  1.00  0.00     0.031 C 
ATOM     56  C   UNL A   1      41.573  30.635  36.285  1.00  0.00     0.029 A 
ATOM     57  C   UNL A   1      40.839  30.709  35.112  1.00  0.00     0.049 A 
ATOM     58  H   UNL A   1      41.174  29.737  33.270  1.00  0.00     0.167 HD
ATOM     59  C   UNL A   1      39.002  31.510  33.653  1.00  0.00     0.074 A 
ATOM     60  C   UNL A   1      37.798  32.274  33.404  1.00  0.00     0.031 C 
ATOM     61  C   UNL A   1      39.643  31.467  34.846  1.00  0.00     0.037 A 
BRANCH  48  62
ATOM     62  C   UNL A   1      44.577  27.758  34.903  1.00  0.00     0.057 A 
ATOM     63  C   UNL A   1      45.836  28.367  34.961  1.00  0.00     0.134 A 
ATOM     64  C   UNL A   1      44.392  26.575  35.628  1.00  0.00     0.134 A 
ATOM     65  F   UNL A   1      46.079  29.494  34.276  1.00  0.00    -0.206 F 
ATOM     66  C   UNL A   1      46.879  27.810  35.703  1.00  0.00     0.040 A 
ATOM     67  C   UNL A   1      45.421  26.019  36.389  1.00  0.00     0.040 A 
ATOM     68  F   UNL A   1      43.209  25.944  35.612  1.00  0.00    -0.206 F 
ATOM     69  C   UNL A   1      46.671  26.636  36.423  1.00  0.00     0.006 A 
ENDBRANCH  48  62
BRANCH  49  70
ATOM     70  C   UNL A   1      37.116  31.358  29.351  1.00  0.00     0.057 A 
ATOM     71  C   UNL A   1      35.985  30.569  29.117  1.00  0.00     0.134 A 
ATOM     72  C   UNL A   1      37.145  32.634  28.777  1.00  0.00     0.134 A 
ATOM     73  F   UNL A   1      35.913  29.327  29.619  1.00  0.00    -0.206 F 
ATOM     74  C   UNL A   1      34.930  31.023  28.325  1.00  0.00     0.040 A 
ATOM     75  C   UNL A   1      36.087  33.110  28.002  1.00  0.00     0.040 A 
ATOM     76  F   UNL A   1      38.203  33.438  28.964  1.00  0.00    -0.206 F 
ATOM     77  C   UNL A   1      34.978  32.299  27.768  1.00  0.00     0.006 A 
ENDBRANCH  49  70
BRANCH  61  78
ATOM     78  C   UNL A   1      39.073  32.287  35.964  1.00  0.00     0.057 A 
ATOM     79  C   UNL A   1      39.401  33.639  36.128  1.00  0.00     0.134 A 
ATOM     80  C   UNL A   1      38.150  31.730  36.857  1.00  0.00     0.134 A 
ATOM     81  F   UNL A   1      40.288  34.228  35.312  1.00  0.00    -0.206 F 
ATOM     82  C   UNL A   1      38.843  34.403  37.155  1.00  0.00     0.040 A 
ATOM     83  C   UNL A   1      37.569  32.491  37.874  1.00  0.00     0.040 A 
ATOM     84  F   UNL A   1      37.788  30.444  36.749  1.00  0.00    -0.206 F 
ATOM     85  C   UNL A   1      37.919  33.830  38.027  1.00  0.00     0.006 A 
ENDBRANCH  61  78
ENDBRANCH  35  36
ENDBRANCH  28  30
ENDBRANCH  27  28
ENDBRANCH  26  27
ENDBRANCH  25  26
ENDBRANCH  24  25
ENDBRANCH  23  24
ENDBRANCH   1  23
TORSDOF 19
ENDMDL
MODEL 3
REMARK VINA RESULT:     -10.1      4.991     10.227
REMARK SMILES CC(C)Nc1cc2ccccc2cc1C(=O)OCCOCCOCCOC(=O)c1ccc(-c2c3nc(c(-c4c(F)cccc4F)c4ccc([nH]4)c(-c4c(F)cccc4F)c4nc(c(-c5c(F)cccc5F)c5ccc2[nH]5)C=C4)C=C3)cc1
REMARK SMILES IDX 21 1 20 2 19 3 18 4 17 5 15 6 16 7 14 8 5 9 6 10 7 11 13 12
REMARK SMILES IDX 8 13 12 14 9 15 11 16 10 17 4 18 2 20 1 21 3 22 22 23 23 24
REMARK SMILES IDX 24 25 25 26 26 27 27 28 28 29 29 30 30 31 82 32 31 33 81 34
REMARK SMILES IDX 32 35 33 36 34 37 75 38 35 39 80 40 74 41 76 42 36 43 79 44
REMARK SMILES IDX 73 45 72 46 37 48 63 49 46 50 62 51 47 52 50 53 61 54 77 55
REMARK SMILES IDX 48 56 49 57 60 59 78 60 51 61 38 62 39 63 44 64 40 65 41 66
REMARK SMILES IDX 43 67 45 68 42 69 64 70 65 71 70 72 66 73 67 74 69 75 71 76
REMARK SMILES IDX 68 77 52 78 53 79 58 80 54 81 55 82 57 83 59 84 56 85
REMARK H PARENT 4 19 76 47 50 58
REMARK Flexibility Score: inf
ROOT
ATOM      1  C   UNL A   1      40.415  20.028  26.146  1.00  0.00     0.188 C 
ENDROOT
BRANCH   1   2
ATOM      2  O   UNL A   1      39.237  20.773  25.865  1.00  0.00    -0.376 OA
BRANCH   2   3
ATOM      3  C   UNL A   1      39.211  22.149  26.239  1.00  0.00     0.202 C 
BRANCH   3   4
ATOM      4  C   UNL A   1      37.944  22.900  25.850  1.00  0.00     0.261 C 
BRANCH   4   5
ATOM      5  O   UNL A   1      36.917  21.936  25.579  1.00  0.00    -0.460 OA
BRANCH   5   6
ATOM      6  C   UNL A   1      35.673  22.286  25.967  1.00  0.00     0.340 C 
ATOM      7  O   UNL A   1      35.371  23.272  26.620  1.00  0.00    -0.246 OA
BRANCH   6   8
ATOM      8  C   UNL A   1      34.691  21.414  25.292  1.00  0.00     0.083 A 
ATOM      9  C   UNL A   1      33.396  21.784  24.889  1.00  0.00     0.050 A 
ATOM     10  C   UNL A   1      32.651  20.788  24.212  1.00  0.00     0.035 A 
ATOM     11  C   UNL A   1      33.125  19.483  23.979  1.00  0.00    -0.016 A 
ATOM     12  C   UNL A   1      35.163  20.094  25.110  1.00  0.00     0.026 A 
ATOM     13  C   UNL A   1      32.371  18.537  23.263  1.00  0.00     0.009 A 
ATOM     14  C   UNL A   1      34.391  19.121  24.466  1.00  0.00    -0.017 A 
ATOM     15  C   UNL A   1      32.857  17.246  23.054  1.00  0.00     0.001 A 
ATOM     16  C   UNL A   1      34.857  17.809  24.277  1.00  0.00     0.009 A 
ATOM     17  C   UNL A   1      34.094  16.877  23.574  1.00  0.00     0.001 A 
BRANCH   9  18
ATOM     18  N   UNL A   1      32.766  23.010  24.998  1.00  0.00    -0.382 N 
ATOM     19  H   UNL A   1      32.319  23.171  25.859  1.00  0.00     0.160 HD
BRANCH  18  20
ATOM     20  C   UNL A   1      32.658  24.096  24.039  1.00  0.00     0.073 C 
ATOM     21  C   UNL A   1      32.701  25.416  24.811  1.00  0.00     0.030 C 
ATOM     22  C   UNL A   1      33.832  24.024  23.062  1.00  0.00     0.030 C 
ENDBRANCH  18  20
ENDBRANCH   9  18
ENDBRANCH   6   8
ENDBRANCH   5   6
ENDBRANCH   4   5
ENDBRANCH   3   4
ENDBRANCH   2   3
ENDBRANCH   1   2
BRANCH   1  23
ATOM     23  C   UNL A   1      41.635  20.734  26.777  1.00  0.00     0.188 C 
BRANCH  23  24
ATOM     24  O   UNL A   1      42.807  20.982  26.016  1.00  0.00    -0.376 OA
BRANCH  24  25
ATOM     25  C   UNL A   1      43.024  22.273  25.464  1.00  0.00     0.202 C 
BRANCH  25  26
ATOM     26  C   UNL A   1      43.005  23.466  26.418  1.00  0.00     0.261 C 
BRANCH  26  27
ATOM     27  O   UNL A   1      41.822  24.264  26.259  1.00  0.00    -0.460 OA
BRANCH  27  28
ATOM     28  C   UNL A   1      42.039  25.545  25.876  1.00  0.00     0.338 C 
ATOM     29  O   UNL A   1      42.437  25.943  24.796  1.00  0.00    -0.246 OA
BRANCH  28  30
ATOM     30  C   UNL A   1      41.549  26.451  26.930  1.00  0.00     0.060 A 
ATOM     31  C   UNL A   1      42.099  27.737  26.998  1.00  0.00     0.016 A 
ATOM     32  C   UNL A   1      40.592  26.033  27.857  1.00  0.00     0.016 A 
ATOM     33  C   UNL A   1      41.718  28.603  28.020  1.00  0.00     0.010 A 
ATOM     34  C   UNL A   1      40.226  26.896  28.893  1.00  0.00     0.010 A 
ATOM     35  C   UNL A   1      40.809  28.171  28.995  1.00  0.00    -0.014 A 
BRANCH  35  36
ATOM     36  C   UNL A   1      40.588  28.988  30.208  1.00  0.00     0.031 A 
ATOM     37  C   UNL A   1      39.504  30.027  30.191  1.00  0.00     0.074 A 
ATOM     38  C   UNL A   1      41.342  28.810  31.307  1.00  0.00     0.049 A 
ATOM     39  N   UNL A   1      39.165  30.888  31.115  1.00  0.00    -0.248 NA
ATOM     40  C   UNL A   1      38.696  30.107  28.963  1.00  0.00     0.031 C 
ATOM     41  C   UNL A   1      42.404  27.817  31.454  1.00  0.00     0.029 A 
ATOM     42  N   UNL A   1      41.334  29.478  32.505  1.00  0.00    -0.354 N 
ATOM     43  C   UNL A   1      38.106  31.611  30.583  1.00  0.00     0.074 A 
ATOM     44  C   UNL A   1      37.872  31.106  29.247  1.00  0.00     0.031 C 
ATOM     45  C   UNL A   1      42.964  27.957  32.669  1.00  0.00     0.029 A 
ATOM     46  C   UNL A   1      42.315  29.062  33.371  1.00  0.00     0.049 A 
ATOM     47  H   UNL A   1      40.687  30.188  32.722  1.00  0.00     0.167 HD
ATOM     48  C   UNL A   1      37.388  32.604  31.158  1.00  0.00     0.037 A 
ATOM     49  C   UNL A   1      42.662  29.542  34.580  1.00  0.00     0.037 A 
ATOM     50  C   UNL A   1      37.628  33.116  32.480  1.00  0.00     0.049 A 
ATOM     51  C   UNL A   1      41.896  30.697  35.169  1.00  0.00     0.074 A 
ATOM     52  C   UNL A   1      36.939  34.104  33.160  1.00  0.00     0.029 A 
ATOM     53  N   UNL A   1      38.644  32.685  33.318  1.00  0.00    -0.354 N 
ATOM     54  N   UNL A   1      40.869  31.346  34.676  1.00  0.00    -0.248 NA
ATOM     55  C   UNL A   1      42.338  31.184  36.484  1.00  0.00     0.031 C 
ATOM     56  C   UNL A   1      37.566  34.303  34.395  1.00  0.00     0.029 A 
ATOM     57  C   UNL A   1      38.618  33.408  34.499  1.00  0.00     0.049 A 
ATOM     58  H   UNL A   1      39.288  31.973  33.106  1.00  0.00     0.167 HD
ATOM     59  C   UNL A   1      40.529  32.301  35.627  1.00  0.00     0.074 A 
ATOM     60  C   UNL A   1      41.451  32.139  36.731  1.00  0.00     0.031 C 
ATOM     61  C   UNL A   1      39.541  33.229  35.591  1.00  0.00     0.037 A 
BRANCH  48  62
ATOM     62  C   UNL A   1      36.289  33.216  30.345  1.00  0.00     0.057 A 
ATOM     63  C   UNL A   1      36.555  34.137  29.324  1.00  0.00     0.134 A 
ATOM     64  C   UNL A   1      34.953  32.860  30.568  1.00  0.00     0.134 A 
ATOM     65  F   UNL A   1      37.812  34.529  29.073  1.00  0.00    -0.206 F 
ATOM     66  C   UNL A   1      35.526  34.693  28.562  1.00  0.00     0.040 A 
ATOM     67  C   UNL A   1      33.919  33.394  29.799  1.00  0.00     0.040 A 
ATOM     68  F   UNL A   1      34.634  31.983  31.532  1.00  0.00    -0.206 F 
ATOM     69  C   UNL A   1      34.205  34.318  28.795  1.00  0.00     0.006 A 
ENDBRANCH  48  62
BRANCH  49  70
ATOM     70  C   UNL A   1      43.806  28.949  35.316  1.00  0.00     0.057 A 
ATOM     71  C   UNL A   1      43.613  27.940  36.265  1.00  0.00     0.134 A 
ATOM     72  C   UNL A   1      45.115  29.401  35.110  1.00  0.00     0.134 A 
ATOM     73  F   UNL A   1      42.379  27.485  36.525  1.00  0.00    -0.206 F 
ATOM     74  C   UNL A   1      44.678  27.413  36.998  1.00  0.00     0.040 A 
ATOM     75  C   UNL A   1      46.192  28.867  35.818  1.00  0.00     0.040 A 
ATOM     76  F   UNL A   1      45.364  30.368  34.214  1.00  0.00    -0.206 F 
ATOM     77  C   UNL A   1      45.973  27.875  36.771  1.00  0.00     0.006 A 
ENDBRANCH  49  70
BRANCH  61  78
ATOM     78  C   UNL A   1      39.389  34.119  36.787  1.00  0.00     0.057 A 
ATOM     79  C   UNL A   1      38.671  33.717  37.920  1.00  0.00     0.134 A 
ATOM     80  C   UNL A   1      40.007  35.376  36.824  1.00  0.00     0.134 A 
ATOM     81  F   UNL A   1      38.046  32.529  37.943  1.00  0.00    -0.206 F 
ATOM     82  C   UNL A   1      38.558  34.541  39.041  1.00  0.00     0.040 A 
ATOM     83  C   UNL A   1      39.920  36.199  37.948  1.00  0.00     0.040 A 
ATOM     84  F   UNL A   1      40.716  35.817  35.774  1.00  0.00    -0.206 F 
ATOM     85  C   UNL A   1      39.189  35.783  39.059  1.00  0.00     0.006 A 
ENDBRANCH  61  78
ENDBRANCH  35  36
ENDBRANCH  28  30
ENDBRANCH  27  28
ENDBRANCH  26  27
ENDBRANCH  25  26
ENDBRANCH  24  25
ENDBRANCH  23  24
ENDBRANCH   1  23
TORSDOF 19
ENDMDL
