MODEL 1
REMARK VINA RESULT:     -11.6      0.000      0.000
REMARK SMILES O=C(OCCOCCOCCOC(=O)[C@@H]1[C@@H](C(=O)Nc2ccc(F)c(F)c2)[C@H]2C=C[C@@H]1O2)c1ccc(-c2c3nc(c(-c4c(F)cccc4F)c4ccc([nH]4)c(-c4c(F)cccc4F)c4nc(c(-c5c(F)cccc5F)c5ccc2[nH]5)C=C4)C=C3)cc1
REMARK SMILES IDX 7 1 6 2 5 3 4 4 3 5 2 6 1 7 33 8 34 9 86 10 35 11 85 12
REMARK SMILES IDX 36 13 37 14 38 15 79 16 39 17 84 18 78 19 80 20 40 21 83 22
REMARK SMILES IDX 77 23 76 24 41 26 67 27 50 28 66 29 51 30 54 31 65 32 81 33
REMARK SMILES IDX 52 34 53 35 64 37 82 38 55 39 42 40 43 41 48 42 44 43 45 44
REMARK SMILES IDX 47 45 49 46 46 47 68 48 69 49 74 50 70 51 71 52 73 53 75 54
REMARK SMILES IDX 72 55 56 56 57 57 62 58 58 59 59 60 61 61 63 62 60 63 8 64
REMARK SMILES IDX 9 65 10 66 11 67 12 68 13 69 14 70 15 71 16 72 31 73 28 74
REMARK SMILES IDX 30 75 32 76 29 77 17 78 18 79 19 80 20 82 21 83 27 84 22 85
REMARK SMILES IDX 25 86 23 87 26 88 24 89
REMARK H PARENT 80 25 54 36 19 81
REMARK Flexibility Score: inf
ROOT
ATOM      1  C   UNL A   1      31.920  29.192  24.905  1.00  0.00     0.188 C 
ENDROOT
BRANCH   1   2
ATOM      2  O   UNL A   1      31.243  30.390  25.313  1.00  0.00    -0.376 OA
BRANCH   2   3
ATOM      3  C   UNL A   1      31.815  31.012  26.472  1.00  0.00     0.202 C 
BRANCH   3   4
ATOM      4  C   UNL A   1      31.263  32.388  26.896  1.00  0.00     0.261 C 
BRANCH   4   5
ATOM      5  O   UNL A   1      32.238  33.436  26.979  1.00  0.00    -0.460 OA
BRANCH   5   6
ATOM      6  C   UNL A   1      33.051  33.790  28.001  1.00  0.00     0.338 C 
ATOM      7  O   UNL A   1      32.787  34.831  28.604  1.00  0.00    -0.246 OA
BRANCH   6   8
ATOM      8  C   UNL A   1      34.267  33.022  28.434  1.00  0.00     0.060 A 
ATOM      9  C   UNL A   1      34.291  31.715  28.934  1.00  0.00     0.016 A 
ATOM     10  C   UNL A   1      35.499  33.693  28.314  1.00  0.00     0.016 A 
ATOM     11  C   UNL A   1      35.469  31.121  29.378  1.00  0.00     0.010 A 
ATOM     12  C   UNL A   1      36.690  33.103  28.743  1.00  0.00     0.010 A 
ATOM     13  C   UNL A   1      36.664  31.828  29.319  1.00  0.00    -0.014 A 
BRANCH  13  14
ATOM     14  C   UNL A   1      37.835  31.328  30.059  1.00  0.00     0.031 A 
ATOM     15  C   UNL A   1      38.702  30.343  29.367  1.00  0.00     0.074 A 
ATOM     16  C   UNL A   1      38.130  31.765  31.292  1.00  0.00     0.049 A 
ATOM     17  N   UNL A   1      39.743  29.710  29.824  1.00  0.00    -0.248 NA
ATOM     18  C   UNL A   1      38.371  30.055  27.962  1.00  0.00     0.031 C 
ATOM     19  C   UNL A   1      37.418  32.837  31.951  1.00  0.00     0.029 A 
ATOM     20  N   UNL A   1      39.062  31.384  32.215  1.00  0.00    -0.354 N 
ATOM     21  C   UNL A   1      40.190  28.939  28.768  1.00  0.00     0.074 A 
ATOM     22  C   UNL A   1      39.299  29.166  27.652  1.00  0.00     0.031 C 
ATOM     23  C   UNL A   1      37.850  32.975  33.209  1.00  0.00     0.029 A 
ATOM     24  C   UNL A   1      38.905  32.008  33.432  1.00  0.00     0.049 A 
ATOM     25  H   UNL A   1      39.774  30.730  32.029  1.00  0.00     0.167 HD
ATOM     26  C   UNL A   1      41.256  28.111  28.754  1.00  0.00     0.037 A 
ATOM     27  C   UNL A   1      39.534  31.817  34.605  1.00  0.00     0.037 A 
ATOM     28  C   UNL A   1      42.070  27.878  29.913  1.00  0.00     0.049 A 
ATOM     29  C   UNL A   1      40.644  30.819  34.604  1.00  0.00     0.074 A 
ATOM     30  C   UNL A   1      43.137  27.016  30.062  1.00  0.00     0.029 A 
ATOM     31  N   UNL A   1      41.881  28.506  31.143  1.00  0.00    -0.354 N 
ATOM     32  N   UNL A   1      41.059  30.074  33.606  1.00  0.00    -0.248 NA
ATOM     33  C   UNL A   1      41.388  30.640  35.851  1.00  0.00     0.031 C 
ATOM     34  C   UNL A   1      43.551  27.076  31.398  1.00  0.00     0.029 A 
ATOM     35  C   UNL A   1      42.792  28.027  32.067  1.00  0.00     0.049 A 
ATOM     36  H   UNL A   1      41.198  29.191  31.328  1.00  0.00     0.167 HD
ATOM     37  C   UNL A   1      42.135  29.356  34.088  1.00  0.00     0.074 A 
ATOM     38  C   UNL A   1      42.308  29.759  35.475  1.00  0.00     0.031 C 
ATOM     39  C   UNL A   1      42.916  28.457  33.442  1.00  0.00     0.037 A 
BRANCH  26  40
ATOM     40  C   UNL A   1      41.473  27.350  27.481  1.00  0.00     0.057 A 
ATOM     41  C   UNL A   1      40.962  26.058  27.285  1.00  0.00     0.134 A 
ATOM     42  C   UNL A   1      42.325  27.864  26.497  1.00  0.00     0.134 A 
ATOM     43  F   UNL A   1      40.177  25.488  28.214  1.00  0.00    -0.206 F 
ATOM     44  C   UNL A   1      41.335  25.286  26.183  1.00  0.00     0.040 A 
ATOM     45  C   UNL A   1      42.679  27.113  25.376  1.00  0.00     0.040 A 
ATOM     46  F   UNL A   1      42.862  29.086  26.632  1.00  0.00    -0.206 F 
ATOM     47  C   UNL A   1      42.200  25.814  25.226  1.00  0.00     0.006 A 
ENDBRANCH  26  40
BRANCH  27  48
ATOM     48  C   UNL A   1      39.138  32.606  35.799  1.00  0.00     0.057 A 
ATOM     49  C   UNL A   1      38.284  32.080  36.774  1.00  0.00     0.134 A 
ATOM     50  C   UNL A   1      39.681  33.877  36.045  1.00  0.00     0.134 A 
ATOM     51  F   UNL A   1      37.740  30.865  36.610  1.00  0.00    -0.206 F 
ATOM     52  C   UNL A   1      37.976  32.786  37.941  1.00  0.00     0.040 A 
ATOM     53  C   UNL A   1      39.402  34.584  37.216  1.00  0.00     0.040 A 
ATOM     54  F   UNL A   1      40.528  34.431  35.165  1.00  0.00    -0.206 F 
ATOM     55  C   UNL A   1      38.542  34.040  38.168  1.00  0.00     0.006 A 
ENDBRANCH  27  48
BRANCH  39  56
ATOM     56  C   UNL A   1      44.044  27.872  34.228  1.00  0.00     0.057 A 
ATOM     57  C   UNL A   1      43.914  26.660  34.914  1.00  0.00     0.134 A 
ATOM     58  C   UNL A   1      45.296  28.497  34.227  1.00  0.00     0.134 A 
ATOM     59  F   UNL A   1      42.730  26.029  34.965  1.00  0.00    -0.206 F 
ATOM     60  C   UNL A   1      44.996  26.089  35.579  1.00  0.00     0.040 A 
ATOM     61  C   UNL A   1      46.393  27.921  34.862  1.00  0.00     0.040 A 
ATOM     62  F   UNL A   1      45.476  29.660  33.582  1.00  0.00    -0.206 F 
ATOM     63  C   UNL A   1      46.242  26.712  35.541  1.00  0.00     0.006 A 
ENDBRANCH  39  56
ENDBRANCH  13  14
ENDBRANCH   6   8
ENDBRANCH   5   6
ENDBRANCH   4   5
ENDBRANCH   3   4
ENDBRANCH   2   3
ENDBRANCH   1   2
BRANCH   1  64
ATOM     64  C   UNL A   1      31.020  27.997  24.592  1.00  0.00     0.188 C 
BRANCH  64  65
ATOM     65  O   UNL A   1      31.405  26.738  25.134  1.00  0.00    -0.376 OA
BRANCH  65  66
ATOM     66  C   UNL A   1      30.409  26.002  25.826  1.00  0.00     0.202 C 
BRANCH  66  67
ATOM     67  C   UNL A   1      30.662  24.511  26.064  1.00  0.00     0.261 C 
BRANCH  67  68
ATOM     68  O   UNL A   1      31.348  24.194  27.284  1.00  0.00    -0.463 OA
BRANCH  68  69
ATOM     69  C   UNL A   1      32.312  23.242  27.207  1.00  0.00     0.312 C 
ATOM     70  O   UNL A   1      32.662  22.529  28.146  1.00  0.00    -0.252 OA
BRANCH  69  71
ATOM     71  C   UNL A   1      32.957  23.125  25.852  1.00  0.00     0.147 C 
ATOM     72  C   UNL A   1      33.202  21.688  25.323  1.00  0.00     0.129 C 
ATOM     73  C   UNL A   1      34.379  23.707  25.918  1.00  0.00     0.157 C 
ATOM     74  C   UNL A   1      34.724  21.755  25.042  1.00  0.00     0.155 C 
ATOM     75  C   UNL A   1      34.900  23.957  24.533  1.00  0.00     0.004 C 
ATOM     76  O   UNL A   1      35.139  22.504  26.218  1.00  0.00    -0.365 OA
ATOM     77  C   UNL A   1      35.112  22.751  23.991  1.00  0.00     0.004 C 
BRANCH  72  78
ATOM     78  C   UNL A   1      32.339  21.401  24.096  1.00  0.00     0.231 C 
ATOM     79  O   UNL A   1      31.633  22.269  23.577  1.00  0.00    -0.274 OA
ATOM     80  N   UNL A   1      32.428  20.187  23.461  1.00  0.00    -0.326 N 
ATOM     81  H   UNL A   1      32.213  20.205  22.501  1.00  0.00     0.169 HD
BRANCH  80  82
ATOM     82  C   UNL A   1      32.773  18.925  23.962  1.00  0.00     0.044 A 
ATOM     83  C   UNL A   1      32.410  18.529  25.251  1.00  0.00     0.029 A 
ATOM     84  C   UNL A   1      33.397  18.010  23.111  1.00  0.00     0.068 A 
ATOM     85  C   UNL A   1      32.742  17.259  25.725  1.00  0.00     0.044 A 
ATOM     86  C   UNL A   1      33.740  16.748  23.596  1.00  0.00     0.160 A 
ATOM     87  C   UNL A   1      33.424  16.380  24.898  1.00  0.00     0.158 A 
ATOM     88  F   UNL A   1      34.385  15.889  22.795  1.00  0.00    -0.204 F 
ATOM     89  F   UNL A   1      33.761  15.170  25.365  1.00  0.00    -0.204 F 
ENDBRANCH  80  82
ENDBRANCH  72  78
ENDBRANCH  69  71
ENDBRANCH  68  69
ENDBRANCH  67  68
ENDBRANCH  66  67
ENDBRANCH  65  66
ENDBRANCH  64  65
ENDBRANCH   1  64
TORSDOF 19
ENDMDL
MODEL 2
REMARK VINA RESULT:     -11.4      2.655      8.016
REMARK SMILES O=C(OCCOCCOCCOC(=O)[C@@H]1[C@@H](C(=O)Nc2ccc(F)c(F)c2)[C@H]2C=C[C@@H]1O2)c1ccc(-c2c3nc(c(-c4c(F)cccc4F)c4ccc([nH]4)c(-c4c(F)cccc4F)c4nc(c(-c5c(F)cccc5F)c5ccc2[nH]5)C=C4)C=C3)cc1
REMARK SMILES IDX 7 1 6 2 5 3 4 4 3 5 2 6 1 7 33 8 34 9 86 10 35 11 85 12
REMARK SMILES IDX 36 13 37 14 38 15 79 16 39 17 84 18 78 19 80 20 40 21 83 22
REMARK SMILES IDX 77 23 76 24 41 26 67 27 50 28 66 29 51 30 54 31 65 32 81 33
REMARK SMILES IDX 52 34 53 35 64 37 82 38 55 39 42 40 43 41 48 42 44 43 45 44
REMARK SMILES IDX 47 45 49 46 46 47 68 48 69 49 74 50 70 51 71 52 73 53 75 54
REMARK SMILES IDX 72 55 56 56 57 57 62 58 58 59 59 60 61 61 63 62 60 63 8 64
REMARK SMILES IDX 9 65 10 66 11 67 12 68 13 69 14 70 15 71 16 72 31 73 28 74
REMARK SMILES IDX 30 75 32 76 29 77 17 78 18 79 19 80 20 82 21 83 27 84 22 85
REMARK SMILES IDX 25 86 23 87 26 88 24 89
REMARK H PARENT 80 25 54 36 19 81
REMARK Flexibility Score: inf
ROOT
ATOM      1  C   UNL A   1      41.585  19.997  26.325  1.00  0.00     0.188 C 
ENDROOT
BRANCH   1   2
ATOM      2  O   UNL A   1      42.453  20.756  25.469  1.00  0.00    -0.376 OA
BRANCH   2   3
ATOM      3  C   UNL A   1      43.824  20.337  25.515  1.00  0.00     0.202 C 
BRANCH   3   4
ATOM      4  C   UNL A   1      44.907  21.429  25.625  1.00  0.00     0.261 C 
BRANCH   4   5
ATOM      5  O   UNL A   1      44.492  22.636  26.277  1.00  0.00    -0.460 OA
BRANCH   5   6
ATOM      6  C   UNL A   1      44.011  23.787  25.754  1.00  0.00     0.338 C 
ATOM      7  O   UNL A   1      44.122  23.951  24.538  1.00  0.00    -0.246 OA
BRANCH   6   8
ATOM      8  C   UNL A   1      43.380  24.893  26.552  1.00  0.00     0.060 A 
ATOM      9  C   UNL A   1      43.722  26.248  26.511  1.00  0.00     0.016 A 
ATOM     10  C   UNL A   1      42.337  24.514  27.419  1.00  0.00     0.016 A 
ATOM     11  C   UNL A   1      43.122  27.183  27.350  1.00  0.00     0.010 A 
ATOM     12  C   UNL A   1      41.717  25.444  28.256  1.00  0.00     0.010 A 
ATOM     13  C   UNL A   1      42.146  26.776  28.251  1.00  0.00    -0.014 A 
BRANCH  13  14
ATOM     14  C   UNL A   1      41.738  27.688  29.333  1.00  0.00     0.031 A 
ATOM     15  C   UNL A   1      42.500  27.613  30.605  1.00  0.00     0.074 A 
ATOM     16  C   UNL A   1      40.745  28.574  29.171  1.00  0.00     0.049 A 
ATOM     17  N   UNL A   1      42.294  28.256  31.717  1.00  0.00    -0.248 NA
ATOM     18  C   UNL A   1      43.667  26.715  30.615  1.00  0.00     0.031 C 
ATOM     19  C   UNL A   1      40.077  28.804  27.910  1.00  0.00     0.029 A 
ATOM     20  N   UNL A   1      40.110  29.425  30.031  1.00  0.00    -0.354 N 
ATOM     21  C   UNL A   1      43.300  27.837  32.567  1.00  0.00     0.074 A 
ATOM     22  C   UNL A   1      44.104  26.870  31.853  1.00  0.00     0.031 C 
ATOM     23  C   UNL A   1      39.055  29.651  28.075  1.00  0.00     0.029 A 
ATOM     24  C   UNL A   1      39.021  30.050  29.467  1.00  0.00     0.049 A 
ATOM     25  H   UNL A   1      40.402  29.576  30.959  1.00  0.00     0.167 HD
ATOM     26  C   UNL A   1      43.513  28.234  33.840  1.00  0.00     0.037 A 
ATOM     27  C   UNL A   1      38.088  30.850  30.011  1.00  0.00     0.037 A 
ATOM     28  C   UNL A   1      42.644  29.153  34.519  1.00  0.00     0.049 A 
ATOM     29  C   UNL A   1      38.275  31.198  31.451  1.00  0.00     0.074 A 
ATOM     30  C   UNL A   1      42.698  29.590  35.827  1.00  0.00     0.029 A 
ATOM     31  N   UNL A   1      41.533  29.759  33.935  1.00  0.00    -0.354 N 
ATOM     32  N   UNL A   1      39.220  30.789  32.264  1.00  0.00    -0.248 NA
ATOM     33  C   UNL A   1      37.310  32.121  32.050  1.00  0.00     0.031 C 
ATOM     34  C   UNL A   1      41.586  30.409  36.050  1.00  0.00     0.029 A 
ATOM     35  C   UNL A   1      40.874  30.543  34.865  1.00  0.00     0.049 A 
ATOM     36  H   UNL A   1      41.257  29.646  32.997  1.00  0.00     0.167 HD
ATOM     37  C   UNL A   1      38.989  31.424  33.468  1.00  0.00     0.074 A 
ATOM     38  C   UNL A   1      37.808  32.251  33.274  1.00  0.00     0.031 C 
ATOM     39  C   UNL A   1      39.694  31.342  34.622  1.00  0.00     0.037 A 
BRANCH  26  40
ATOM     40  C   UNL A   1      44.651  27.566  34.549  1.00  0.00     0.057 A 
ATOM     41  C   UNL A   1      44.488  26.370  35.265  1.00  0.00     0.134 A 
ATOM     42  C   UNL A   1      45.893  28.205  34.633  1.00  0.00     0.134 A 
ATOM     43  F   UNL A   1      43.307  25.732  35.264  1.00  0.00    -0.206 F 
ATOM     44  C   UNL A   1      45.502  25.865  36.081  1.00  0.00     0.040 A 
ATOM     45  C   UNL A   1      46.924  27.692  35.421  1.00  0.00     0.040 A 
ATOM     46  F   UNL A   1      46.109  29.361  33.988  1.00  0.00    -0.206 F 
ATOM     47  C   UNL A   1      46.724  26.530  36.162  1.00  0.00     0.006 A 
ENDBRANCH  26  40
BRANCH  27  48
ATOM     48  C   UNL A   1      36.972  31.367  29.178  1.00  0.00     0.057 A 
ATOM     49  C   UNL A   1      35.832  30.597  28.922  1.00  0.00     0.134 A 
ATOM     50  C   UNL A   1      36.973  32.684  28.694  1.00  0.00     0.134 A 
ATOM     51  F   UNL A   1      35.758  29.334  29.366  1.00  0.00    -0.206 F 
ATOM     52  C   UNL A   1      34.743  31.109  28.209  1.00  0.00     0.040 A 
ATOM     53  C   UNL A   1      35.884  33.217  28.002  1.00  0.00     0.040 A 
ATOM     54  F   UNL A   1      38.022  33.488  28.927  1.00  0.00    -0.206 F 
ATOM     55  C   UNL A   1      34.764  32.426  27.754  1.00  0.00     0.006 A 
ENDBRANCH  27  48
BRANCH  39  56
ATOM     56  C   UNL A   1      39.216  32.193  35.754  1.00  0.00     0.057 A 
ATOM     57  C   UNL A   1      39.635  33.518  35.908  1.00  0.00     0.134 A 
ATOM     58  C   UNL A   1      38.263  31.694  36.649  1.00  0.00     0.134 A 
ATOM     59  F   UNL A   1      40.562  34.040  35.089  1.00  0.00    -0.206 F 
ATOM     60  C   UNL A   1      39.121  34.322  36.922  1.00  0.00     0.040 A 
ATOM     61  C   UNL A   1      37.720  32.497  37.649  1.00  0.00     0.040 A 
ATOM     62  F   UNL A   1      37.826  30.430  36.545  1.00  0.00    -0.206 F 
ATOM     63  C   UNL A   1      38.151  33.816  37.786  1.00  0.00     0.006 A 
ENDBRANCH  39  56
ENDBRANCH  13  14
ENDBRANCH   6   8
ENDBRANCH   5   6
ENDBRANCH   4   5
ENDBRANCH   3   4
ENDBRANCH   2   3
ENDBRANCH   1   2
BRANCH   1  64
ATOM     64  C   UNL A   1      40.088  20.221  26.116  1.00  0.00     0.188 C 
BRANCH  64  65
ATOM     65  O   UNL A   1      39.583  21.522  26.400  1.00  0.00    -0.376 OA
BRANCH  65  66
ATOM     66  C   UNL A   1      38.358  21.887  25.782  1.00  0.00     0.202 C 
BRANCH  66  67
ATOM     67  C   UNL A   1      38.037  23.379  25.667  1.00  0.00     0.261 C 
BRANCH  67  68
ATOM     68  O   UNL A   1      36.643  23.697  25.537  1.00  0.00    -0.463 OA
BRANCH  68  69
ATOM     69  C   UNL A   1      36.048  23.340  24.371  1.00  0.00     0.312 C 
ATOM     70  O   UNL A   1      36.643  22.873  23.402  1.00  0.00    -0.252 OA
BRANCH  69  71
ATOM     71  C   UNL A   1      34.562  23.577  24.339  1.00  0.00     0.147 C 
ATOM     72  C   UNL A   1      33.681  22.389  23.874  1.00  0.00     0.129 C 
ATOM     73  C   UNL A   1      34.247  24.659  23.291  1.00  0.00     0.157 C 
ATOM     74  C   UNL A   1      32.903  23.060  22.716  1.00  0.00     0.155 C 
ATOM     75  C   UNL A   1      32.858  25.187  23.497  1.00  0.00     0.004 C 
ATOM     76  O   UNL A   1      33.990  23.828  22.127  1.00  0.00    -0.365 OA
ATOM     77  C   UNL A   1      32.026  24.199  23.142  1.00  0.00     0.004 C 
BRANCH  72  78
ATOM     78  C   UNL A   1      32.807  21.875  25.016  1.00  0.00     0.231 C 
ATOM     79  O   UNL A   1      32.434  22.610  25.933  1.00  0.00    -0.274 OA
ATOM     80  N   UNL A   1      32.308  20.596  24.980  1.00  0.00    -0.326 N 
ATOM     81  H   UNL A   1      31.460  20.469  25.462  1.00  0.00     0.169 HD
BRANCH  80  82
ATOM     82  C   UNL A   1      32.814  19.443  24.367  1.00  0.00     0.044 A 
ATOM     83  C   UNL A   1      32.264  18.945  23.185  1.00  0.00     0.029 A 
ATOM     84  C   UNL A   1      33.961  18.847  24.897  1.00  0.00     0.068 A 
ATOM     85  C   UNL A   1      32.796  17.808  22.575  1.00  0.00     0.044 A 
ATOM     86  C   UNL A   1      34.478  17.701  24.292  1.00  0.00     0.160 A 
ATOM     87  C   UNL A   1      33.892  17.180  23.145  1.00  0.00     0.158 A 
ATOM     88  F   UNL A   1      35.548  17.100  24.830  1.00  0.00    -0.204 F 
ATOM     89  F   UNL A   1      34.386  16.075  22.571  1.00  0.00    -0.204 F 
ENDBRANCH  80  82
ENDBRANCH  72  78
ENDBRANCH  69  71
ENDBRANCH  68  69
ENDBRANCH  67  68
ENDBRANCH  66  67
ENDBRANCH  65  66
ENDBRANCH  64  65
ENDBRANCH   1  64
TORSDOF 19
ENDMDL
MODEL 3
REMARK VINA RESULT:     -11.1      5.202     10.586
REMARK SMILES O=C(OCCOCCOCCOC(=O)[C@@H]1[C@@H](C(=O)Nc2ccc(F)c(F)c2)[C@H]2C=C[C@@H]1O2)c1ccc(-c2c3nc(c(-c4c(F)cccc4F)c4ccc([nH]4)c(-c4c(F)cccc4F)c4nc(c(-c5c(F)cccc5F)c5ccc2[nH]5)C=C4)C=C3)cc1
REMARK SMILES IDX 7 1 6 2 5 3 4 4 3 5 2 6 1 7 33 8 34 9 86 10 35 11 85 12
REMARK SMILES IDX 36 13 37 14 38 15 79 16 39 17 84 18 78 19 80 20 40 21 83 22
REMARK SMILES IDX 77 23 76 24 41 26 67 27 50 28 66 29 51 30 54 31 65 32 81 33
REMARK SMILES IDX 52 34 53 35 64 37 82 38 55 39 42 40 43 41 48 42 44 43 45 44
REMARK SMILES IDX 47 45 49 46 46 47 68 48 69 49 74 50 70 51 71 52 73 53 75 54
REMARK SMILES IDX 72 55 56 56 57 57 62 58 58 59 59 60 61 61 63 62 60 63 8 64
REMARK SMILES IDX 9 65 10 66 11 67 12 68 13 69 14 70 15 71 16 72 31 73 28 74
REMARK SMILES IDX 30 75 32 76 29 77 17 78 18 79 19 80 20 82 21 83 27 84 22 85
REMARK SMILES IDX 25 86 23 87 26 88 24 89
REMARK H PARENT 80 25 54 36 19 81
REMARK Flexibility Score: inf
ROOT
ATOM      1  C   UNL A   1      36.889  23.528  24.969  1.00  0.00     0.188 C 
ENDROOT
BRANCH   1   2
ATOM      2  O   UNL A   1      37.271  22.202  24.573  1.00  0.00    -0.376 OA
BRANCH   2   3
ATOM      3  C   UNL A   1      38.295  21.625  25.394  1.00  0.00     0.202 C 
BRANCH   3   4
ATOM      4  C   UNL A   1      38.682  20.155  25.134  1.00  0.00     0.261 C 
BRANCH   4   5
ATOM      5  O   UNL A   1      39.622  19.599  26.063  1.00  0.00    -0.460 OA
BRANCH   5   6
ATOM      6  C   UNL A   1      40.974  19.657  26.073  1.00  0.00     0.338 C 
ATOM      7  O   UNL A   1      41.590  18.667  25.677  1.00  0.00    -0.246 OA
BRANCH   6   8
ATOM      8  C   UNL A   1      41.776  20.829  26.561  1.00  0.00     0.060 A 
ATOM      9  C   UNL A   1      42.059  21.146  27.894  1.00  0.00     0.016 A 
ATOM     10  C   UNL A   1      42.295  21.682  25.568  1.00  0.00     0.016 A 
ATOM     11  C   UNL A   1      42.752  22.303  28.243  1.00  0.00     0.010 A 
ATOM     12  C   UNL A   1      43.004  22.838  25.903  1.00  0.00     0.010 A 
ATOM     13  C   UNL A   1      43.191  23.170  27.250  1.00  0.00    -0.014 A 
BRANCH  13  14
ATOM     14  C   UNL A   1      43.644  24.521  27.621  1.00  0.00     0.031 A 
ATOM     15  C   UNL A   1      42.604  25.491  28.043  1.00  0.00     0.074 A 
ATOM     16  C   UNL A   1      44.943  24.856  27.615  1.00  0.00     0.049 A 
ATOM     17  N   UNL A   1      42.738  26.748  28.351  1.00  0.00    -0.248 NA
ATOM     18  C   UNL A   1      41.233  24.968  28.163  1.00  0.00     0.031 C 
ATOM     19  C   UNL A   1      46.011  23.912  27.370  1.00  0.00     0.029 A 
ATOM     20  N   UNL A   1      45.597  26.042  27.795  1.00  0.00    -0.354 N 
ATOM     21  C   UNL A   1      41.469  27.174  28.694  1.00  0.00     0.074 A 
ATOM     22  C   UNL A   1      40.573  26.050  28.537  1.00  0.00     0.031 C 
ATOM     23  C   UNL A   1      47.185  24.549  27.306  1.00  0.00     0.029 A 
ATOM     24  C   UNL A   1      46.948  25.958  27.541  1.00  0.00     0.049 A 
ATOM     25  H   UNL A   1      45.149  26.871  28.078  1.00  0.00     0.167 HD
ATOM     26  C   UNL A   1      41.101  28.409  29.096  1.00  0.00     0.037 A 
ATOM     27  C   UNL A   1      47.893  26.912  27.491  1.00  0.00     0.037 A 
ATOM     28  C   UNL A   1      42.027  29.504  29.174  1.00  0.00     0.049 A 
ATOM     29  C   UNL A   1      47.452  28.297  27.836  1.00  0.00     0.074 A 
ATOM     30  C   UNL A   1      41.781  30.823  29.499  1.00  0.00     0.029 A 
ATOM     31  N   UNL A   1      43.388  29.402  28.892  1.00  0.00    -0.354 N 
ATOM     32  N   UNL A   1      46.244  28.705  28.146  1.00  0.00    -0.248 NA
ATOM     33  C   UNL A   1      48.475  29.343  27.854  1.00  0.00     0.031 C 
ATOM     34  C   UNL A   1      42.981  31.529  29.352  1.00  0.00     0.029 A 
ATOM     35  C   UNL A   1      43.991  30.642  29.005  1.00  0.00     0.049 A 
ATOM     36  H   UNL A   1      43.852  28.570  28.648  1.00  0.00     0.167 HD
ATOM     37  C   UNL A   1      46.358  30.052  28.428  1.00  0.00     0.074 A 
ATOM     38  C   UNL A   1      47.762  30.390  28.251  1.00  0.00     0.031 C 
ATOM     39  C   UNL A   1      45.395  30.926  28.810  1.00  0.00     0.037 A 
BRANCH  26  40
ATOM     40  C   UNL A   1      39.637  28.604  29.347  1.00  0.00     0.057 A 
ATOM     41  C   UNL A   1      38.771  29.111  28.367  1.00  0.00     0.134 A 
ATOM     42  C   UNL A   1      39.118  28.414  30.632  1.00  0.00     0.134 A 
ATOM     43  F   UNL A   1      39.219  29.361  27.126  1.00  0.00    -0.206 F 
ATOM     44  C   UNL A   1      37.457  29.473  28.671  1.00  0.00     0.040 A 
ATOM     45  C   UNL A   1      37.797  28.743  30.940  1.00  0.00     0.040 A 
ATOM     46  F   UNL A   1      39.897  27.949  31.620  1.00  0.00    -0.206 F 
ATOM     47  C   UNL A   1      36.969  29.291  29.964  1.00  0.00     0.006 A 
ENDBRANCH  26  40
BRANCH  27  48
ATOM     48  C   UNL A   1      49.293  26.557  27.146  1.00  0.00     0.057 A 
ATOM     49  C   UNL A   1      50.211  26.161  28.125  1.00  0.00     0.134 A 
ATOM     50  C   UNL A   1      49.725  26.513  25.812  1.00  0.00     0.134 A 
ATOM     51  F   UNL A   1      49.860  26.167  29.419  1.00  0.00    -0.206 F 
ATOM     52  C   UNL A   1      51.505  25.745  27.796  1.00  0.00     0.040 A 
ATOM     53  C   UNL A   1      51.006  26.077  25.465  1.00  0.00     0.040 A 
ATOM     54  F   UNL A   1      48.889  26.853  24.819  1.00  0.00    -0.206 F 
ATOM     55  C   UNL A   1      51.903  25.695  26.461  1.00  0.00     0.006 A 
ENDBRANCH  27  48
BRANCH  39  56
ATOM     56  C   UNL A   1      45.841  32.325  29.087  1.00  0.00     0.057 A 
ATOM     57  C   UNL A   1      46.366  32.699  30.328  1.00  0.00     0.134 A 
ATOM     58  C   UNL A   1      45.814  33.283  28.068  1.00  0.00     0.134 A 
ATOM     59  F   UNL A   1      46.397  31.825  31.347  1.00  0.00    -0.206 F 
ATOM     60  C   UNL A   1      46.849  33.986  30.548  1.00  0.00     0.040 A 
ATOM     61  C   UNL A   1      46.321  34.564  28.266  1.00  0.00     0.040 A 
ATOM     62  F   UNL A   1      45.322  32.977  26.858  1.00  0.00    -0.206 F 
ATOM     63  C   UNL A   1      46.840  34.918  29.511  1.00  0.00     0.006 A 
ENDBRANCH  39  56
ENDBRANCH  13  14
ENDBRANCH   6   8
ENDBRANCH   5   6
ENDBRANCH   4   5
ENDBRANCH   3   4
ENDBRANCH   2   3
ENDBRANCH   1   2
BRANCH   1  64
ATOM     64  C   UNL A   1      35.457  23.935  24.626  1.00  0.00     0.188 C 
BRANCH  64  65
ATOM     65  O   UNL A   1      35.039  23.755  23.277  1.00  0.00    -0.376 OA
BRANCH  65  66
ATOM     66  C   UNL A   1      33.667  23.461  23.060  1.00  0.00     0.202 C 
BRANCH  66  67
ATOM     67  C   UNL A   1      33.044  23.914  21.738  1.00  0.00     0.261 C 
BRANCH  67  68
ATOM     68  O   UNL A   1      32.220  25.087  21.819  1.00  0.00    -0.463 OA
BRANCH  68  69
ATOM     69  C   UNL A   1      32.864  26.266  22.011  1.00  0.00     0.312 C 
ATOM     70  O   UNL A   1      33.709  26.728  21.247  1.00  0.00    -0.252 OA
BRANCH  69  71
ATOM     71  C   UNL A   1      32.471  26.986  23.273  1.00  0.00     0.147 C 
ATOM     72  C   UNL A   1      31.455  28.147  23.121  1.00  0.00     0.129 C 
ATOM     73  C   UNL A   1      33.706  27.695  23.855  1.00  0.00     0.157 C 
ATOM     74  C   UNL A   1      32.250  29.298  23.785  1.00  0.00     0.155 C 
ATOM     75  C   UNL A   1      33.452  28.090  25.279  1.00  0.00     0.004 C 
ATOM     76  O   UNL A   1      33.568  29.005  23.241  1.00  0.00    -0.365 OA
ATOM     77  C   UNL A   1      32.551  29.080  25.237  1.00  0.00     0.004 C 
BRANCH  72  78
ATOM     78  C   UNL A   1      30.131  27.810  23.804  1.00  0.00     0.231 C 
ATOM     79  O   UNL A   1      29.948  26.733  24.377  1.00  0.00    -0.274 OA
ATOM     80  N   UNL A   1      29.146  28.762  23.905  1.00  0.00    -0.326 N 
ATOM     81  H   UNL A   1      28.547  28.656  24.677  1.00  0.00     0.169 HD
BRANCH  80  82
ATOM     82  C   UNL A   1      28.858  29.857  23.082  1.00  0.00     0.044 A 
ATOM     83  C   UNL A   1      28.324  29.688  21.803  1.00  0.00     0.029 A 
ATOM     84  C   UNL A   1      29.008  31.146  23.599  1.00  0.00     0.068 A 
ATOM     85  C   UNL A   1      28.020  30.792  21.007  1.00  0.00     0.044 A 
ATOM     86  C   UNL A   1      28.717  32.246  22.792  1.00  0.00     0.160 A 
ATOM     87  C   UNL A   1      28.237  32.069  21.500  1.00  0.00     0.158 A 
ATOM     88  F   UNL A   1      28.911  33.482  23.271  1.00  0.00    -0.204 F 
ATOM     89  F   UNL A   1      27.966  33.126  20.724  1.00  0.00    -0.204 F 
ENDBRANCH  80  82
ENDBRANCH  72  78
ENDBRANCH  69  71
ENDBRANCH  68  69
ENDBRANCH  67  68
ENDBRANCH  66  67
ENDBRANCH  65  66
ENDBRANCH  64  65
ENDBRANCH   1  64
TORSDOF 19
ENDMDL
