MODEL 1
REMARK VINA RESULT:     -10.8      0.000      0.000
REMARK SMILES O=C(C[C@H]1CN(S(=O)(=O)c2cc(F)cc(F)c2)CCO1)OCCOCCOCCOC(=O)c1ccc(-c2c3nc(c(-c4c(F)cccc4F)c4ccc([nH]4)c(-c4c(F)cccc4F)c4nc(c(-c5c(F)cccc5F)c5ccc2[nH]5)C=C4)C=C3)cc1
REMARK SMILES IDX 25 1 24 2 23 3 22 4 21 5 2 6 1 7 3 8 4 9 5 10 20 11 6 12
REMARK SMILES IDX 19 13 18 14 7 15 8 16 9 17 10 18 11 19 17 20 12 21 15 22
REMARK SMILES IDX 13 23 14 24 16 25 26 26 27 27 28 28 29 29 30 30 31 31 32 32
REMARK SMILES IDX 33 33 34 34 86 35 35 36 85 37 36 38 37 39 38 40 79 41 39 42
REMARK SMILES IDX 84 43 78 44 80 45 40 46 83 47 77 48 76 49 41 51 67 52 50 53
REMARK SMILES IDX 66 54 51 55 54 56 65 57 81 58 52 59 53 60 64 62 82 63 55 64
REMARK SMILES IDX 42 65 43 66 48 67 44 68 45 69 47 70 49 71 46 72 68 73 69 74
REMARK SMILES IDX 74 75 70 76 71 77 73 78 75 79 72 80 56 81 57 82 62 83 58 84
REMARK SMILES IDX 59 85 61 86 63 87 60 88
REMARK H PARENT 80 50 54 61
REMARK Flexibility Score: inf
ROOT
ATOM      1  C   UNL A   1      41.204  20.408  27.227  1.00  0.00     0.188 C 
ENDROOT
BRANCH   1   2
ATOM      2  O   UNL A   1      39.995  20.328  26.440  1.00  0.00    -0.376 OA
BRANCH   2   3
ATOM      3  C   UNL A   1      39.483  21.568  25.941  1.00  0.00     0.202 C 
BRANCH   3   4
ATOM      4  C   UNL A   1      38.053  21.488  25.410  1.00  0.00     0.261 C 
BRANCH   4   5
ATOM      5  O   UNL A   1      37.576  22.680  24.792  1.00  0.00    -0.463 OA
BRANCH   5   6
ATOM      6  C   UNL A   1      36.828  23.616  25.398  1.00  0.00     0.308 C 
ATOM      7  O   UNL A   1      37.251  24.090  26.456  1.00  0.00    -0.252 OA
BRANCH   6   8
ATOM      8  C   UNL A   1      35.499  24.111  24.845  1.00  0.00     0.156 C 
BRANCH   8   9
ATOM      9  C   UNL A   1      34.467  23.194  24.173  1.00  0.00     0.144 C 
ATOM     10  C   UNL A   1      33.048  22.983  24.817  1.00  0.00     0.135 C 
ATOM     11  O   UNL A   1      34.317  23.627  22.799  1.00  0.00    -0.375 OA
ATOM     12  N   UNL A   1      31.955  23.965  24.503  1.00  0.00    -0.193 NA
ATOM     13  C   UNL A   1      33.524  24.818  22.724  1.00  0.00     0.177 C 
ATOM     14  C   UNL A   1      32.082  24.494  23.097  1.00  0.00     0.131 C 
BRANCH  12  15
ATOM     15  S   UNL A   1      31.412  25.132  25.617  1.00  0.00     0.243 S 
ATOM     16  O   UNL A   1      29.986  25.210  25.445  1.00  0.00    -0.207 OA
ATOM     17  O   UNL A   1      31.947  24.745  26.913  1.00  0.00    -0.207 OA
BRANCH  15  18
ATOM     18  C   UNL A   1      32.120  26.768  25.308  1.00  0.00     0.088 A 
ATOM     19  C   UNL A   1      31.301  27.828  24.947  1.00  0.00     0.061 A 
ATOM     20  C   UNL A   1      33.376  27.105  25.820  1.00  0.00     0.061 A 
ATOM     21  C   UNL A   1      31.704  29.166  25.005  1.00  0.00     0.127 A 
ATOM     22  C   UNL A   1      33.757  28.456  25.935  1.00  0.00     0.127 A 
ATOM     23  F   UNL A   1      30.820  30.132  24.718  1.00  0.00    -0.207 F 
ATOM     24  C   UNL A   1      32.936  29.497  25.517  1.00  0.00     0.078 A 
ATOM     25  F   UNL A   1      34.910  28.760  26.542  1.00  0.00    -0.207 F 
ENDBRANCH  15  18
ENDBRANCH  12  15
ENDBRANCH   8   9
ENDBRANCH   6   8
ENDBRANCH   5   6
ENDBRANCH   4   5
ENDBRANCH   3   4
ENDBRANCH   2   3
ENDBRANCH   1   2
BRANCH   1  26
ATOM     26  C   UNL A   1      42.236  21.452  26.714  1.00  0.00     0.188 C 
BRANCH  26  27
ATOM     27  O   UNL A   1      42.882  21.052  25.495  1.00  0.00    -0.376 OA
BRANCH  27  28
ATOM     28  C   UNL A   1      44.239  21.476  25.321  1.00  0.00     0.202 C 
BRANCH  28  29
ATOM     29  C   UNL A   1      44.559  22.604  24.339  1.00  0.00     0.261 C 
BRANCH  29  30
ATOM     30  O   UNL A   1      43.616  23.672  24.501  1.00  0.00    -0.460 OA
BRANCH  30  31
ATOM     31  C   UNL A   1      44.174  24.797  24.981  1.00  0.00     0.338 C 
ATOM     32  O   UNL A   1      45.315  25.193  24.785  1.00  0.00    -0.246 OA
BRANCH  31  33
ATOM     33  C   UNL A   1      43.183  25.606  25.704  1.00  0.00     0.060 A 
ATOM     34  C   UNL A   1      43.536  26.941  25.918  1.00  0.00     0.016 A 
ATOM     35  C   UNL A   1      42.027  25.063  26.275  1.00  0.00     0.016 A 
ATOM     36  C   UNL A   1      42.819  27.703  26.820  1.00  0.00     0.010 A 
ATOM     37  C   UNL A   1      41.295  25.837  27.178  1.00  0.00     0.010 A 
ATOM     38  C   UNL A   1      41.744  27.126  27.508  1.00  0.00    -0.014 A 
BRANCH  38  39
ATOM     39  C   UNL A   1      41.276  27.808  28.730  1.00  0.00     0.031 A 
ATOM     40  C   UNL A   1      42.089  27.657  29.987  1.00  0.00     0.074 A 
ATOM     41  C   UNL A   1      40.232  28.652  28.667  1.00  0.00     0.049 A 
ATOM     42  N   UNL A   1      41.910  28.204  31.161  1.00  0.00    -0.248 NA
ATOM     43  C   UNL A   1      43.272  26.781  29.912  1.00  0.00     0.031 C 
ATOM     44  C   UNL A   1      39.442  28.921  27.466  1.00  0.00     0.029 A 
ATOM     45  N   UNL A   1      39.680  29.456  29.625  1.00  0.00    -0.354 N 
ATOM     46  C   UNL A   1      42.953  27.741  31.955  1.00  0.00     0.074 A 
ATOM     47  C   UNL A   1      43.739  26.836  31.149  1.00  0.00     0.031 C 
ATOM     48  C   UNL A   1      38.509  29.842  27.758  1.00  0.00     0.029 A 
ATOM     49  C   UNL A   1      38.618  30.196  29.170  1.00  0.00     0.049 A 
ATOM     50  H   UNL A   1      40.012  29.499  30.551  1.00  0.00     0.167 HD
ATOM     51  C   UNL A   1      43.237  28.064  33.238  1.00  0.00     0.037 A 
ATOM     52  C   UNL A   1      37.823  31.057  29.833  1.00  0.00     0.037 A 
ATOM     53  C   UNL A   1      42.449  28.978  34.019  1.00  0.00     0.049 A 
ATOM     54  C   UNL A   1      38.110  31.326  31.286  1.00  0.00     0.074 A 
ATOM     55  C   UNL A   1      42.627  29.364  35.334  1.00  0.00     0.029 A 
ATOM     56  N   UNL A   1      41.334  29.655  33.546  1.00  0.00    -0.354 N 
ATOM     57  N   UNL A   1      39.087  30.870  32.035  1.00  0.00    -0.248 NA
ATOM     58  C   UNL A   1      37.189  32.231  31.985  1.00  0.00     0.031 C 
ATOM     59  C   UNL A   1      41.591  30.238  35.672  1.00  0.00     0.029 A 
ATOM     60  C   UNL A   1      40.800  30.442  34.551  1.00  0.00     0.049 A 
ATOM     61  H   UNL A   1      40.975  29.586  32.631  1.00  0.00     0.167 HD
ATOM     62  C   UNL A   1      38.913  31.453  33.284  1.00  0.00     0.074 A 
ATOM     63  C   UNL A   1      37.750  32.310  33.184  1.00  0.00     0.031 C 
ATOM     64  C   UNL A   1      39.646  31.293  34.414  1.00  0.00     0.037 A 
BRANCH  51  65
ATOM     65  C   UNL A   1      44.437  27.428  33.878  1.00  0.00     0.057 A 
ATOM     66  C   UNL A   1      44.310  26.240  34.611  1.00  0.00     0.134 A 
ATOM     67  C   UNL A   1      45.704  28.023  33.833  1.00  0.00     0.134 A 
ATOM     68  F   UNL A   1      43.125  25.615  34.696  1.00  0.00    -0.206 F 
ATOM     69  C   UNL A   1      45.392  25.681  35.292  1.00  0.00     0.040 A 
ATOM     70  C   UNL A   1      46.800  27.461  34.488  1.00  0.00     0.040 A 
ATOM     71  F   UNL A   1      45.899  29.151  33.134  1.00  0.00    -0.206 F 
ATOM     72  C   UNL A   1      46.643  26.292  35.232  1.00  0.00     0.006 A 
ENDBRANCH  51  65
BRANCH  52  73
ATOM     73  C   UNL A   1      36.693  31.716  29.132  1.00  0.00     0.057 A 
ATOM     74  C   UNL A   1      36.757  33.064  28.752  1.00  0.00     0.134 A 
ATOM     75  C   UNL A   1      35.519  31.017  28.825  1.00  0.00     0.134 A 
ATOM     76  F   UNL A   1      37.850  33.792  29.020  1.00  0.00    -0.206 F 
ATOM     77  C   UNL A   1      35.693  33.694  28.105  1.00  0.00     0.040 A 
ATOM     78  C   UNL A   1      34.459  31.629  28.154  1.00  0.00     0.040 A 
ATOM     79  F   UNL A   1      35.402  29.721  29.148  1.00  0.00    -0.206 F 
ATOM     80  C   UNL A   1      34.542  32.973  27.798  1.00  0.00     0.006 A 
ENDBRANCH  52  73
BRANCH  64  81
ATOM     81  C   UNL A   1      39.227  32.081  35.620  1.00  0.00     0.057 A 
ATOM     82  C   UNL A   1      38.337  31.536  36.555  1.00  0.00     0.134 A 
ATOM     83  C   UNL A   1      39.654  33.399  35.823  1.00  0.00     0.134 A 
ATOM     84  F   UNL A   1      37.878  30.284  36.410  1.00  0.00    -0.206 F 
ATOM     85  C   UNL A   1      37.879  32.278  37.643  1.00  0.00     0.040 A 
ATOM     86  C   UNL A   1      39.227  34.141  36.925  1.00  0.00     0.040 A 
ATOM     87  F   UNL A   1      40.512  33.975  34.968  1.00  0.00    -0.206 F 
ATOM     88  C   UNL A   1      38.330  33.581  37.834  1.00  0.00     0.006 A 
ENDBRANCH  64  81
ENDBRANCH  38  39
ENDBRANCH  31  33
ENDBRANCH  30  31
ENDBRANCH  29  30
ENDBRANCH  28  29
ENDBRANCH  27  28
ENDBRANCH  26  27
ENDBRANCH   1  26
TORSDOF 20
ENDMDL
MODEL 2
REMARK VINA RESULT:     -10.5      0.922      6.226
REMARK SMILES O=C(C[C@H]1CN(S(=O)(=O)c2cc(F)cc(F)c2)CCO1)OCCOCCOCCOC(=O)c1ccc(-c2c3nc(c(-c4c(F)cccc4F)c4ccc([nH]4)c(-c4c(F)cccc4F)c4nc(c(-c5c(F)cccc5F)c5ccc2[nH]5)C=C4)C=C3)cc1
REMARK SMILES IDX 25 1 24 2 23 3 22 4 21 5 2 6 1 7 3 8 4 9 5 10 20 11 6 12
REMARK SMILES IDX 19 13 18 14 7 15 8 16 9 17 10 18 11 19 17 20 12 21 15 22
REMARK SMILES IDX 13 23 14 24 16 25 26 26 27 27 28 28 29 29 30 30 31 31 32 32
REMARK SMILES IDX 33 33 34 34 86 35 35 36 85 37 36 38 37 39 38 40 79 41 39 42
REMARK SMILES IDX 84 43 78 44 80 45 40 46 83 47 77 48 76 49 41 51 67 52 50 53
REMARK SMILES IDX 66 54 51 55 54 56 65 57 81 58 52 59 53 60 64 62 82 63 55 64
REMARK SMILES IDX 42 65 43 66 48 67 44 68 45 69 47 70 49 71 46 72 68 73 69 74
REMARK SMILES IDX 74 75 70 76 71 77 73 78 75 79 72 80 56 81 57 82 62 83 58 84
REMARK SMILES IDX 59 85 61 86 63 87 60 88
REMARK H PARENT 80 50 54 61
REMARK Flexibility Score: inf
ROOT
ATOM      1  C   UNL A   1      40.057  22.024  26.881  1.00  0.00     0.188 C 
ENDROOT
BRANCH   1   2
ATOM      2  O   UNL A   1      38.789  22.134  26.198  1.00  0.00    -0.376 OA
BRANCH   2   3
ATOM      3  C   UNL A   1      38.212  23.443  26.147  1.00  0.00     0.202 C 
BRANCH   3   4
ATOM      4  C   UNL A   1      36.749  23.467  25.705  1.00  0.00     0.261 C 
BRANCH   4   5
ATOM      5  O   UNL A   1      36.275  22.247  25.141  1.00  0.00    -0.463 OA
BRANCH   5   6
ATOM      6  C   UNL A   1      35.173  22.127  24.381  1.00  0.00     0.308 C 
ATOM      7  O   UNL A   1      34.473  21.124  24.543  1.00  0.00    -0.252 OA
BRANCH   6   8
ATOM      8  C   UNL A   1      34.757  23.160  23.343  1.00  0.00     0.156 C 
BRANCH   8   9
ATOM      9  C   UNL A   1      33.362  23.203  22.703  1.00  0.00     0.144 C 
ATOM     10  C   UNL A   1      32.072  23.200  23.602  1.00  0.00     0.135 C 
ATOM     11  O   UNL A   1      33.323  24.334  21.800  1.00  0.00    -0.375 OA
ATOM     12  N   UNL A   1      31.554  24.507  24.132  1.00  0.00    -0.193 NA
ATOM     13  C   UNL A   1      33.187  25.561  22.526  1.00  0.00     0.177 C 
ATOM     14  C   UNL A   1      31.800  25.629  23.156  1.00  0.00     0.131 C 
BRANCH  12  15
ATOM     15  S   UNL A   1      31.724  24.977  25.759  1.00  0.00     0.243 S 
ATOM     16  O   UNL A   1      30.470  24.670  26.393  1.00  0.00    -0.207 OA
ATOM     17  O   UNL A   1      32.938  24.341  26.248  1.00  0.00    -0.207 OA
BRANCH  15  18
ATOM     18  C   UNL A   1      32.041  26.750  25.939  1.00  0.00     0.088 A 
ATOM     19  C   UNL A   1      33.327  27.211  26.176  1.00  0.00     0.061 A 
ATOM     20  C   UNL A   1      31.133  27.686  25.437  1.00  0.00     0.061 A 
ATOM     21  C   UNL A   1      33.710  28.545  26.009  1.00  0.00     0.127 A 
ATOM     22  C   UNL A   1      31.537  29.017  25.211  1.00  0.00     0.127 A 
ATOM     23  F   UNL A   1      34.995  28.888  26.180  1.00  0.00    -0.207 F 
ATOM     24  C   UNL A   1      32.818  29.464  25.506  1.00  0.00     0.078 A 
ATOM     25  F   UNL A   1      30.690  29.864  24.613  1.00  0.00    -0.207 F 
ENDBRANCH  15  18
ENDBRANCH  12  15
ENDBRANCH   8   9
ENDBRANCH   6   8
ENDBRANCH   5   6
ENDBRANCH   4   5
ENDBRANCH   3   4
ENDBRANCH   2   3
ENDBRANCH   1   2
BRANCH   1  26
ATOM     26  C   UNL A   1      41.055  21.026  26.226  1.00  0.00     0.188 C 
BRANCH  26  27
ATOM     27  O   UNL A   1      42.125  21.680  25.526  1.00  0.00    -0.376 OA
BRANCH  27  28
ATOM     28  C   UNL A   1      43.448  21.196  25.783  1.00  0.00     0.202 C 
BRANCH  28  29
ATOM     29  C   UNL A   1      44.644  22.134  25.610  1.00  0.00     0.261 C 
BRANCH  29  30
ATOM     30  O   UNL A   1      44.503  23.267  26.478  1.00  0.00    -0.460 OA
BRANCH  30  31
ATOM     31  C   UNL A   1      44.356  24.425  25.811  1.00  0.00     0.338 C 
ATOM     32  O   UNL A   1      44.822  24.705  24.715  1.00  0.00    -0.246 OA
BRANCH  31  33
ATOM     33  C   UNL A   1      43.430  25.322  26.515  1.00  0.00     0.060 A 
ATOM     34  C   UNL A   1      43.792  26.672  26.527  1.00  0.00     0.016 A 
ATOM     35  C   UNL A   1      42.336  24.860  27.254  1.00  0.00     0.016 A 
ATOM     36  C   UNL A   1      43.156  27.544  27.390  1.00  0.00     0.010 A 
ATOM     37  C   UNL A   1      41.685  25.744  28.117  1.00  0.00     0.010 A 
ATOM     38  C   UNL A   1      42.153  27.062  28.241  1.00  0.00    -0.014 A 
BRANCH  38  39
ATOM     39  C   UNL A   1      41.795  27.894  29.407  1.00  0.00     0.031 A 
ATOM     40  C   UNL A   1      40.592  28.792  29.298  1.00  0.00     0.074 A 
ATOM     41  C   UNL A   1      42.447  27.732  30.569  1.00  0.00     0.049 A 
ATOM     42  N   UNL A   1      40.053  29.567  30.202  1.00  0.00    -0.248 NA
ATOM     43  C   UNL A   1      39.895  28.815  28.000  1.00  0.00     0.031 C 
ATOM     44  C   UNL A   1      43.570  26.818  30.783  1.00  0.00     0.029 A 
ATOM     45  N   UNL A   1      42.240  28.308  31.792  1.00  0.00    -0.354 N 
ATOM     46  C   UNL A   1      38.958  30.161  29.584  1.00  0.00     0.074 A 
ATOM     47  C   UNL A   1      38.930  29.695  28.218  1.00  0.00     0.031 C 
ATOM     48  C   UNL A   1      43.947  26.887  32.070  1.00  0.00     0.029 A 
ATOM     49  C   UNL A   1      43.115  27.872  32.755  1.00  0.00     0.049 A 
ATOM     50  H   UNL A   1      41.533  28.972  31.964  1.00  0.00     0.167 HD
ATOM     51  C   UNL A   1      38.047  31.004  30.122  1.00  0.00     0.037 A 
ATOM     52  C   UNL A   1      43.228  28.242  34.045  1.00  0.00     0.037 A 
ATOM     53  C   UNL A   1      38.085  31.445  31.490  1.00  0.00     0.049 A 
ATOM     54  C   UNL A   1      42.254  29.252  34.591  1.00  0.00     0.074 A 
ATOM     55  C   UNL A   1      37.230  32.316  32.139  1.00  0.00     0.029 A 
ATOM     56  N   UNL A   1      39.032  31.039  32.420  1.00  0.00    -0.354 N 
ATOM     57  N   UNL A   1      41.234  29.824  33.995  1.00  0.00    -0.248 NA
ATOM     58  C   UNL A   1      42.444  29.666  35.986  1.00  0.00     0.031 C 
ATOM     59  C   UNL A   1      37.687  32.473  33.450  1.00  0.00     0.029 A 
ATOM     60  C   UNL A   1      38.793  31.657  33.634  1.00  0.00     0.049 A 
ATOM     61  H   UNL A   1      39.764  30.405  32.242  1.00  0.00     0.167 HD
ATOM     62  C   UNL A   1      40.645  30.643  34.949  1.00  0.00     0.074 A 
ATOM     63  C   UNL A   1      41.411  30.477  36.168  1.00  0.00     0.031 C 
ATOM     64  C   UNL A   1      39.570  31.462  34.832  1.00  0.00     0.037 A 
BRANCH  51  65
ATOM     65  C   UNL A   1      36.942  31.508  29.240  1.00  0.00     0.057 A 
ATOM     66  C   UNL A   1      36.965  32.819  28.744  1.00  0.00     0.134 A 
ATOM     67  C   UNL A   1      35.821  30.725  28.937  1.00  0.00     0.134 A 
ATOM     68  F   UNL A   1      38.009  33.624  28.995  1.00  0.00    -0.206 F 
ATOM     69  C   UNL A   1      35.905  33.338  27.999  1.00  0.00     0.040 A 
ATOM     70  C   UNL A   1      34.765  31.224  28.172  1.00  0.00     0.040 A 
ATOM     71  F   UNL A   1      35.743  29.456  29.364  1.00  0.00    -0.206 F 
ATOM     72  C   UNL A   1      34.800  32.540  27.712  1.00  0.00     0.006 A 
ENDBRANCH  51  65
BRANCH  52  73
ATOM     73  C   UNL A   1      44.295  27.657  34.895  1.00  0.00     0.057 A 
ATOM     74  C   UNL A   1      44.074  26.494  35.646  1.00  0.00     0.134 A 
ATOM     75  C   UNL A   1      45.562  28.246  34.982  1.00  0.00     0.134 A 
ATOM     76  F   UNL A   1      42.881  25.882  35.612  1.00  0.00    -0.206 F 
ATOM     77  C   UNL A   1      45.067  25.946  36.458  1.00  0.00     0.040 A 
ATOM     78  C   UNL A   1      46.573  27.693  35.769  1.00  0.00     0.040 A 
ATOM     79  F   UNL A   1      45.842  29.351  34.276  1.00  0.00    -0.206 F 
ATOM     80  C   UNL A   1      46.325  26.542  36.516  1.00  0.00     0.006 A 
ENDBRANCH  52  73
BRANCH  64  81
ATOM     81  C   UNL A   1      39.145  32.216  36.057  1.00  0.00     0.057 A 
ATOM     82  C   UNL A   1      38.242  31.649  36.965  1.00  0.00     0.134 A 
ATOM     83  C   UNL A   1      39.578  33.524  36.303  1.00  0.00     0.134 A 
ATOM     84  F   UNL A   1      37.776  30.405  36.778  1.00  0.00    -0.206 F 
ATOM     85  C   UNL A   1      37.777  32.361  38.071  1.00  0.00     0.040 A 
ATOM     86  C   UNL A   1      39.145  34.236  37.423  1.00  0.00     0.040 A 
ATOM     87  F   UNL A   1      40.449  34.120  35.474  1.00  0.00    -0.206 F 
ATOM     88  C   UNL A   1      38.235  33.656  38.306  1.00  0.00     0.006 A 
ENDBRANCH  64  81
ENDBRANCH  38  39
ENDBRANCH  31  33
ENDBRANCH  30  31
ENDBRANCH  29  30
ENDBRANCH  28  29
ENDBRANCH  27  28
ENDBRANCH  26  27
ENDBRANCH   1  26
TORSDOF 20
ENDMDL
MODEL 3
REMARK VINA RESULT:     -10.4      0.850      2.050
REMARK SMILES O=C(C[C@H]1CN(S(=O)(=O)c2cc(F)cc(F)c2)CCO1)OCCOCCOCCOC(=O)c1ccc(-c2c3nc(c(-c4c(F)cccc4F)c4ccc([nH]4)c(-c4c(F)cccc4F)c4nc(c(-c5c(F)cccc5F)c5ccc2[nH]5)C=C4)C=C3)cc1
REMARK SMILES IDX 25 1 24 2 23 3 22 4 21 5 2 6 1 7 3 8 4 9 5 10 20 11 6 12
REMARK SMILES IDX 19 13 18 14 7 15 8 16 9 17 10 18 11 19 17 20 12 21 15 22
REMARK SMILES IDX 13 23 14 24 16 25 26 26 27 27 28 28 29 29 30 30 31 31 32 32
REMARK SMILES IDX 33 33 34 34 86 35 35 36 85 37 36 38 37 39 38 40 79 41 39 42
REMARK SMILES IDX 84 43 78 44 80 45 40 46 83 47 77 48 76 49 41 51 67 52 50 53
REMARK SMILES IDX 66 54 51 55 54 56 65 57 81 58 52 59 53 60 64 62 82 63 55 64
REMARK SMILES IDX 42 65 43 66 48 67 44 68 45 69 47 70 49 71 46 72 68 73 69 74
REMARK SMILES IDX 74 75 70 76 71 77 73 78 75 79 72 80 56 81 57 82 62 83 58 84
REMARK SMILES IDX 59 85 61 86 63 87 60 88
REMARK H PARENT 80 50 54 61
REMARK Flexibility Score: inf
ROOT
ATOM      1  C   UNL A   1      40.751  20.203  26.652  1.00  0.00     0.188 C 
ENDROOT
BRANCH   1   2
ATOM      2  O   UNL A   1      40.320  21.523  27.049  1.00  0.00    -0.376 OA
BRANCH   2   3
ATOM      3  C   UNL A   1      39.312  22.130  26.232  1.00  0.00     0.202 C 
BRANCH   3   4
ATOM      4  C   UNL A   1      38.461  21.134  25.445  1.00  0.00     0.261 C 
BRANCH   4   5
ATOM      5  O   UNL A   1      37.087  21.490  25.320  1.00  0.00    -0.463 OA
BRANCH   5   6
ATOM      6  C   UNL A   1      36.635  22.711  24.987  1.00  0.00     0.308 C 
ATOM      7  O   UNL A   1      36.998  23.179  23.904  1.00  0.00    -0.252 OA
BRANCH   6   8
ATOM      8  C   UNL A   1      35.707  23.529  25.874  1.00  0.00     0.156 C 
BRANCH   8   9
ATOM      9  C   UNL A   1      34.393  22.987  26.454  1.00  0.00     0.144 C 
ATOM     10  C   UNL A   1      33.091  23.868  26.437  1.00  0.00     0.135 C 
ATOM     11  O   UNL A   1      34.123  21.711  25.824  1.00  0.00    -0.375 OA
ATOM     12  N   UNL A   1      32.222  23.856  25.212  1.00  0.00    -0.193 NA
ATOM     13  C   UNL A   1      33.630  21.894  24.491  1.00  0.00     0.177 C 
ATOM     14  C   UNL A   1      32.235  22.505  24.545  1.00  0.00     0.131 C 
BRANCH  12  15
ATOM     15  S   UNL A   1      32.159  25.153  24.110  1.00  0.00     0.243 S 
ATOM     16  O   UNL A   1      33.308  25.004  23.258  1.00  0.00    -0.207 OA
ATOM     17  O   UNL A   1      30.831  25.126  23.517  1.00  0.00    -0.207 OA
BRANCH  15  18
ATOM     18  C   UNL A   1      32.255  26.764  24.929  1.00  0.00     0.088 A 
ATOM     19  C   UNL A   1      33.443  27.185  25.508  1.00  0.00     0.061 A 
ATOM     20  C   UNL A   1      31.322  27.763  24.639  1.00  0.00     0.061 A 
ATOM     21  C   UNL A   1      33.696  28.513  25.866  1.00  0.00     0.127 A 
ATOM     22  C   UNL A   1      31.604  29.108  24.944  1.00  0.00     0.127 A 
ATOM     23  F   UNL A   1      34.904  28.847  26.342  1.00  0.00    -0.207 F 
ATOM     24  C   UNL A   1      32.781  29.496  25.572  1.00  0.00     0.078 A 
ATOM     25  F   UNL A   1      30.753  30.061  24.545  1.00  0.00    -0.207 F 
ENDBRANCH  15  18
ENDBRANCH  12  15
ENDBRANCH   8   9
ENDBRANCH   6   8
ENDBRANCH   5   6
ENDBRANCH   4   5
ENDBRANCH   3   4
ENDBRANCH   2   3
ENDBRANCH   1   2
BRANCH   1  26
ATOM     26  C   UNL A   1      42.201  20.141  26.092  1.00  0.00     0.188 C 
BRANCH  26  27
ATOM     27  O   UNL A   1      42.692  21.421  25.662  1.00  0.00    -0.376 OA
BRANCH  27  28
ATOM     28  C   UNL A   1      44.056  21.470  25.229  1.00  0.00     0.202 C 
BRANCH  28  29
ATOM     29  C   UNL A   1      44.499  22.552  24.244  1.00  0.00     0.261 C 
BRANCH  29  30
ATOM     30  O   UNL A   1      43.614  23.677  24.326  1.00  0.00    -0.460 OA
BRANCH  30  31
ATOM     31  C   UNL A   1      44.172  24.742  24.930  1.00  0.00     0.338 C 
ATOM     32  O   UNL A   1      45.330  25.121  24.825  1.00  0.00    -0.246 OA
BRANCH  31  33
ATOM     33  C   UNL A   1      43.164  25.513  25.669  1.00  0.00     0.060 A 
ATOM     34  C   UNL A   1      43.435  26.876  25.813  1.00  0.00     0.016 A 
ATOM     35  C   UNL A   1      42.075  24.920  26.317  1.00  0.00     0.016 A 
ATOM     36  C   UNL A   1      42.711  27.627  26.720  1.00  0.00     0.010 A 
ATOM     37  C   UNL A   1      41.335  25.681  27.225  1.00  0.00     0.010 A 
ATOM     38  C   UNL A   1      41.712  27.009  27.482  1.00  0.00    -0.014 A 
BRANCH  38  39
ATOM     39  C   UNL A   1      41.256  27.710  28.699  1.00  0.00     0.031 A 
ATOM     40  C   UNL A   1      42.076  27.568  29.953  1.00  0.00     0.074 A 
ATOM     41  C   UNL A   1      40.219  28.561  28.632  1.00  0.00     0.049 A 
ATOM     42  N   UNL A   1      41.908  28.129  31.121  1.00  0.00    -0.248 NA
ATOM     43  C   UNL A   1      43.251  26.681  29.881  1.00  0.00     0.031 C 
ATOM     44  C   UNL A   1      39.423  28.822  27.432  1.00  0.00     0.029 A 
ATOM     45  N   UNL A   1      39.679  29.381  29.584  1.00  0.00    -0.354 N 
ATOM     46  C   UNL A   1      42.952  27.668  31.914  1.00  0.00     0.074 A 
ATOM     47  C   UNL A   1      43.726  26.747  31.115  1.00  0.00     0.031 C 
ATOM     48  C   UNL A   1      38.499  29.754  27.719  1.00  0.00     0.029 A 
ATOM     49  C   UNL A   1      38.620  30.124  29.126  1.00  0.00     0.049 A 
ATOM     50  H   UNL A   1      40.016  29.432  30.507  1.00  0.00     0.167 HD
ATOM     51  C   UNL A   1      43.247  28.004  33.192  1.00  0.00     0.037 A 
ATOM     52  C   UNL A   1      37.835  30.999  29.783  1.00  0.00     0.037 A 
ATOM     53  C   UNL A   1      42.470  28.933  33.966  1.00  0.00     0.049 A 
ATOM     54  C   UNL A   1      38.134  31.283  31.231  1.00  0.00     0.074 A 
ATOM     55  C   UNL A   1      42.659  29.333  35.276  1.00  0.00     0.029 A 
ATOM     56  N   UNL A   1      41.358  29.614  33.492  1.00  0.00    -0.354 N 
ATOM     57  N   UNL A   1      39.111  30.829  31.980  1.00  0.00    -0.248 NA
ATOM     58  C   UNL A   1      37.224  32.204  31.925  1.00  0.00     0.031 C 
ATOM     59  C   UNL A   1      41.632  30.220  35.609  1.00  0.00     0.029 A 
ATOM     60  C   UNL A   1      40.837  30.417  34.490  1.00  0.00     0.049 A 
ATOM     61  H   UNL A   1      40.993  29.536  32.580  1.00  0.00     0.167 HD
ATOM     62  C   UNL A   1      38.950  31.427  33.223  1.00  0.00     0.074 A 
ATOM     63  C   UNL A   1      37.793  32.293  33.120  1.00  0.00     0.031 C 
ATOM     64  C   UNL A   1      39.688  31.275  34.351  1.00  0.00     0.037 A 
BRANCH  51  65
ATOM     65  C   UNL A   1      44.445  27.366  33.832  1.00  0.00     0.057 A 
ATOM     66  C   UNL A   1      45.709  27.966  33.741  1.00  0.00     0.134 A 
ATOM     67  C   UNL A   1      44.367  26.124  34.477  1.00  0.00     0.134 A 
ATOM     68  F   UNL A   1      45.856  29.155  33.138  1.00  0.00    -0.206 F 
ATOM     69  C   UNL A   1      46.851  27.345  34.248  1.00  0.00     0.040 A 
ATOM     70  C   UNL A   1      45.499  25.505  35.010  1.00  0.00     0.040 A 
ATOM     71  F   UNL A   1      43.186  25.504  34.615  1.00  0.00    -0.206 F 
ATOM     72  C   UNL A   1      46.748  26.110  34.885  1.00  0.00     0.006 A 
ENDBRANCH  51  65
BRANCH  52  73
ATOM     73  C   UNL A   1      36.706  31.659  29.081  1.00  0.00     0.057 A 
ATOM     74  C   UNL A   1      35.528  30.962  28.780  1.00  0.00     0.134 A 
ATOM     75  C   UNL A   1      36.776  33.001  28.691  1.00  0.00     0.134 A 
ATOM     76  F   UNL A   1      35.397  29.672  29.121  1.00  0.00    -0.206 F 
ATOM     77  C   UNL A   1      34.468  31.572  28.107  1.00  0.00     0.040 A 
ATOM     78  C   UNL A   1      35.713  33.630  28.042  1.00  0.00     0.040 A 
ATOM     79  F   UNL A   1      37.871  33.727  28.964  1.00  0.00    -0.206 F 
ATOM     80  C   UNL A   1      34.556  32.913  27.743  1.00  0.00     0.006 A 
ENDBRANCH  52  73
BRANCH  64  81
ATOM     81  C   UNL A   1      39.283  32.081  35.550  1.00  0.00     0.057 A 
ATOM     82  C   UNL A   1      39.785  33.374  35.742  1.00  0.00     0.134 A 
ATOM     83  C   UNL A   1      38.449  31.553  36.544  1.00  0.00     0.134 A 
ATOM     84  F   UNL A   1      40.601  33.931  34.836  1.00  0.00    -0.206 F 
ATOM     85  C   UNL A   1      39.479  34.111  36.886  1.00  0.00     0.040 A 
ATOM     86  C   UNL A   1      38.110  32.293  37.677  1.00  0.00     0.040 A 
ATOM     87  F   UNL A   1      37.931  30.322  36.414  1.00  0.00    -0.206 F 
ATOM     88  C   UNL A   1      38.634  33.573  37.854  1.00  0.00     0.006 A 
ENDBRANCH  64  81
ENDBRANCH  38  39
ENDBRANCH  31  33
ENDBRANCH  30  31
ENDBRANCH  29  30
ENDBRANCH  28  29
ENDBRANCH  27  28
ENDBRANCH  26  27
ENDBRANCH   1  26
TORSDOF 20
ENDMDL
