MODEL 1
REMARK VINA RESULT:     -11.8      0.000      0.000
REMARK SMILES Cc1cccc(-c2cccnc2C(=O)OCCOCCOCCOC(=O)c2ccc(-c3c4nc(c(-c5c(F)cccc5F)c5ccc([nH]5)c(-c5c(F)cccc5F)c5nc(c(-c6c(F)cccc6F)c6ccc3[nH]6)C=C5)C=C4)cc2)c1
REMARK SMILES IDX 20 1 19 2 18 3 17 4 16 5 15 6 13 7 14 8 12 9 7 10 8 11 9 12
REMARK SMILES IDX 11 13 10 14 6 15 1 16 2 17 3 18 81 19 4 20 5 21 21 22 22 23
REMARK SMILES IDX 23 24 24 25 25 26 26 27 27 28 28 29 80 30 29 31 79 32 30 33
REMARK SMILES IDX 31 34 32 35 73 36 33 37 78 38 72 39 74 40 34 41 77 42 71 43
REMARK SMILES IDX 70 44 35 46 61 47 44 48 60 49 45 50 48 51 59 52 75 53 46 54
REMARK SMILES IDX 47 55 58 57 76 58 49 59 36 60 37 61 42 62 38 63 39 64 41 65
REMARK SMILES IDX 43 66 40 67 62 68 63 69 68 70 64 71 65 72 67 73 69 74 66 75
REMARK SMILES IDX 50 76 51 77 56 78 52 79 53 80 55 81 57 82 54 83
REMARK H PARENT 74 45 48 56
REMARK Flexibility Score: inf
ROOT
ATOM      1  C   UNL A   1      40.703  19.600  26.039  1.00  0.00     0.188 C 
ENDROOT
BRANCH   1   2
ATOM      2  C   UNL A   1      41.280  20.913  26.531  1.00  0.00     0.188 C 
BRANCH   2   3
ATOM      3  O   UNL A   1      40.596  22.183  26.568  1.00  0.00    -0.376 OA
BRANCH   3   4
ATOM      4  C   UNL A   1      39.177  22.456  26.672  1.00  0.00     0.202 C 
BRANCH   4   5
ATOM      5  C   UNL A   1      38.238  23.761  26.056  1.00  0.00     0.261 C 
BRANCH   5   6
ATOM      6  O   UNL A   1      37.187  23.861  24.816  1.00  0.00    -0.458 OA
BRANCH   6   7
ATOM      7  C   UNL A   1      36.384  23.034  24.017  1.00  0.00     0.357 C 
ATOM      8  O   UNL A   1      36.462  22.832  22.814  1.00  0.00    -0.244 OA
BRANCH   7   9
ATOM      9  C   UNL A   1      35.277  22.138  24.452  1.00  0.00     0.156 A 
ATOM     10  C   UNL A   1      33.959  22.491  24.294  1.00  0.00     0.015 A 
ATOM     11  C   UNL A   1      33.020  21.465  24.477  1.00  0.00     0.013 A 
ATOM     12  C   UNL A   1      33.416  20.144  24.732  1.00  0.00     0.021 A 
ATOM     13  N   UNL A   1      35.679  20.837  24.736  1.00  0.00    -0.249 NA
ATOM     14  C   UNL A   1      34.759  19.872  24.843  1.00  0.00     0.112 A 
BRANCH  10  15
ATOM     15  C   UNL A   1      33.615  23.875  24.033  1.00  0.00    -0.016 A 
ATOM     16  C   UNL A   1      33.831  27.111  25.965  1.00  0.00     0.044 C 
ATOM     17  C   UNL A   1      33.772  26.154  24.822  1.00  0.00    -0.051 A 
ATOM     18  C   UNL A   1      33.722  26.616  23.502  1.00  0.00     0.003 A 
ATOM     19  C   UNL A   1      33.741  24.785  25.077  1.00  0.00     0.012 A 
ATOM     20  C   UNL A   1      33.558  25.718  22.454  1.00  0.00     0.001 A 
ATOM     21  C   UNL A   1      33.453  24.355  22.724  1.00  0.00     0.009 A 
ENDBRANCH  10  15
ENDBRANCH   7   9
ENDBRANCH   6   7
ENDBRANCH   5   6
ENDBRANCH   4   5
ENDBRANCH   3   4
ENDBRANCH   2   3
ENDBRANCH   1   2
BRANCH   1  22
ATOM     22  O   UNL A   1      41.719  18.709  25.653  1.00  0.00    -0.376 OA
BRANCH  22  23
ATOM     23  C   UNL A   1      43.030  19.157  25.946  1.00  0.00     0.202 C 
BRANCH  23  24
ATOM     24  C   UNL A   1      44.087  18.789  24.879  1.00  0.00     0.261 C 
BRANCH  24  25
ATOM     25  O   UNL A   1      44.490  19.957  24.112  1.00  0.00    -0.460 OA
BRANCH  25  26
ATOM     26  C   UNL A   1      45.608  20.656  24.512  1.00  0.00     0.338 C 
ATOM     27  O   UNL A   1      46.633  20.134  24.939  1.00  0.00    -0.246 OA
BRANCH  26  28
ATOM     28  C   UNL A   1      45.306  22.129  24.618  1.00  0.00     0.060 A 
ATOM     29  C   UNL A   1      46.164  23.229  24.429  1.00  0.00     0.016 A 
ATOM     30  C   UNL A   1      44.189  22.411  25.314  1.00  0.00     0.016 A 
ATOM     31  C   UNL A   1      45.961  24.520  25.121  1.00  0.00     0.010 A 
ATOM     32  C   UNL A   1      44.276  23.506  26.171  1.00  0.00     0.010 A 
ATOM     33  C   UNL A   1      45.055  24.675  26.166  1.00  0.00    -0.014 A 
BRANCH  33  34
ATOM     34  C   UNL A   1      44.742  25.909  27.235  1.00  0.00     0.031 A 
ATOM     35  C   UNL A   1      43.513  27.004  27.325  1.00  0.00     0.074 A 
ATOM     36  C   UNL A   1      45.360  25.809  28.433  1.00  0.00     0.049 A 
ATOM     37  N   UNL A   1      42.708  27.114  28.360  1.00  0.00    -0.248 NA
ATOM     38  C   UNL A   1      43.043  27.987  26.290  1.00  0.00     0.031 C 
ATOM     39  C   UNL A   1      45.060  26.420  29.732  1.00  0.00     0.029 A 
ATOM     40  N   UNL A   1      46.623  25.268  28.671  1.00  0.00    -0.354 N 
ATOM     41  C   UNL A   1      41.578  27.857  28.031  1.00  0.00     0.074 A 
ATOM     42  C   UNL A   1      41.797  28.313  26.680  1.00  0.00     0.031 C 
ATOM     43  C   UNL A   1      46.225  26.629  30.377  1.00  0.00     0.029 A 
ATOM     44  C   UNL A   1      47.271  26.260  29.440  1.00  0.00     0.049 A 
ATOM     45  H   UNL A   1      46.978  24.400  28.374  1.00  0.00     0.167 HD
ATOM     46  C   UNL A   1      40.821  28.497  28.975  1.00  0.00     0.037 A 
ATOM     47  C   UNL A   1      48.083  27.092  28.721  1.00  0.00     0.037 A 
ATOM     48  C   UNL A   1      41.728  29.071  29.942  1.00  0.00     0.049 A 
ATOM     49  C   UNL A   1      47.435  28.474  28.561  1.00  0.00     0.074 A 
ATOM     50  C   UNL A   1      42.390  28.653  31.076  1.00  0.00     0.029 A 
ATOM     51  N   UNL A   1      42.448  30.148  29.467  1.00  0.00    -0.354 N 
ATOM     52  N   UNL A   1      46.314  28.852  29.133  1.00  0.00    -0.248 NA
ATOM     53  C   UNL A   1      47.982  29.533  27.718  1.00  0.00     0.031 C 
ATOM     54  C   UNL A   1      43.700  29.262  31.007  1.00  0.00     0.029 A 
ATOM     55  C   UNL A   1      43.769  30.064  29.871  1.00  0.00     0.049 A 
ATOM     56  H   UNL A   1      42.075  30.874  28.918  1.00  0.00     0.167 HD
ATOM     57  C   UNL A   1      45.945  30.092  28.704  1.00  0.00     0.074 A 
ATOM     58  C   UNL A   1      47.040  30.486  27.825  1.00  0.00     0.031 C 
ATOM     59  C   UNL A   1      44.787  30.736  29.054  1.00  0.00     0.037 A 
BRANCH  46  60
ATOM     60  C   UNL A   1      39.326  28.760  28.922  1.00  0.00     0.057 A 
ATOM     61  C   UNL A   1      38.729  29.370  27.801  1.00  0.00     0.134 A 
ATOM     62  C   UNL A   1      38.460  28.612  30.019  1.00  0.00     0.134 A 
ATOM     63  F   UNL A   1      39.422  29.557  26.668  1.00  0.00    -0.206 F 
ATOM     64  C   UNL A   1      37.401  29.843  27.796  1.00  0.00     0.040 A 
ATOM     65  C   UNL A   1      37.136  29.094  30.039  1.00  0.00     0.040 A 
ATOM     66  F   UNL A   1      38.872  27.993  31.128  1.00  0.00    -0.206 F 
ATOM     67  C   UNL A   1      36.604  29.727  28.926  1.00  0.00     0.006 A 
ENDBRANCH  46  60
BRANCH  47  68
ATOM     68  C   UNL A   1      48.865  26.262  27.708  1.00  0.00     0.057 A 
ATOM     69  C   UNL A   1      48.601  26.498  26.327  1.00  0.00     0.134 A 
ATOM     70  C   UNL A   1      50.076  25.622  27.976  1.00  0.00     0.134 A 
ATOM     71  F   UNL A   1      47.454  27.093  25.952  1.00  0.00    -0.206 F 
ATOM     72  C   UNL A   1      49.560  26.312  25.321  1.00  0.00     0.040 A 
ATOM     73  C   UNL A   1      51.003  25.331  26.949  1.00  0.00     0.040 A 
ATOM     74  F   UNL A   1      50.465  25.380  29.234  1.00  0.00    -0.206 F 
ATOM     75  C   UNL A   1      50.785  25.753  25.638  1.00  0.00     0.006 A 
ENDBRANCH  47  68
BRANCH  59  76
ATOM     76  C   UNL A   1      44.575  32.142  28.568  1.00  0.00     0.057 A 
ATOM     77  C   UNL A   1      44.690  33.211  29.466  1.00  0.00     0.134 A 
ATOM     78  C   UNL A   1      44.181  32.476  27.261  1.00  0.00     0.134 A 
ATOM     79  F   UNL A   1      45.029  32.994  30.746  1.00  0.00    -0.206 F 
ATOM     80  C   UNL A   1      44.475  34.533  29.077  1.00  0.00     0.040 A 
ATOM     81  C   UNL A   1      43.880  33.783  26.879  1.00  0.00     0.040 A 
ATOM     82  F   UNL A   1      44.080  31.546  26.296  1.00  0.00    -0.206 F 
ATOM     83  C   UNL A   1      44.048  34.821  27.784  1.00  0.00     0.006 A 
ENDBRANCH  59  76
ENDBRANCH  33  34
ENDBRANCH  26  28
ENDBRANCH  25  26
ENDBRANCH  24  25
ENDBRANCH  23  24
ENDBRANCH  22  23
ENDBRANCH   1  22
TORSDOF 18
ENDMDL
MODEL 2
REMARK VINA RESULT:     -11.7      1.351      2.550
REMARK SMILES Cc1cccc(-c2cccnc2C(=O)OCCOCCOCCOC(=O)c2ccc(-c3c4nc(c(-c5c(F)cccc5F)c5ccc([nH]5)c(-c5c(F)cccc5F)c5nc(c(-c6c(F)cccc6F)c6ccc3[nH]6)C=C5)C=C4)cc2)c1
REMARK SMILES IDX 20 1 19 2 18 3 17 4 16 5 15 6 13 7 14 8 12 9 7 10 8 11 9 12
REMARK SMILES IDX 11 13 10 14 6 15 1 16 2 17 3 18 81 19 4 20 5 21 21 22 22 23
REMARK SMILES IDX 23 24 24 25 25 26 26 27 27 28 28 29 80 30 29 31 79 32 30 33
REMARK SMILES IDX 31 34 32 35 73 36 33 37 78 38 72 39 74 40 34 41 77 42 71 43
REMARK SMILES IDX 70 44 35 46 61 47 44 48 60 49 45 50 48 51 59 52 75 53 46 54
REMARK SMILES IDX 47 55 58 57 76 58 49 59 36 60 37 61 42 62 38 63 39 64 41 65
REMARK SMILES IDX 43 66 40 67 62 68 63 69 68 70 64 71 65 72 67 73 69 74 66 75
REMARK SMILES IDX 50 76 51 77 56 78 52 79 53 80 55 81 57 82 54 83
REMARK H PARENT 74 45 48 56
REMARK Flexibility Score: inf
ROOT
ATOM      1  C   UNL A   1      41.352  20.345  26.386  1.00  0.00     0.188 C 
ENDROOT
BRANCH   1   2
ATOM      2  C   UNL A   1      39.861  20.596  26.262  1.00  0.00     0.188 C 
BRANCH   2   3
ATOM      3  O   UNL A   1      39.239  21.791  25.746  1.00  0.00    -0.376 OA
BRANCH   3   4
ATOM      4  C   UNL A   1      37.836  22.155  25.722  1.00  0.00     0.202 C 
BRANCH   4   5
ATOM      5  C   UNL A   1      36.581  21.711  24.630  1.00  0.00     0.261 C 
BRANCH   5   6
ATOM      6  O   UNL A   1      35.684  22.579  23.584  1.00  0.00    -0.458 OA
BRANCH   6   7
ATOM      7  C   UNL A   1      34.341  22.830  23.270  1.00  0.00     0.357 C 
ATOM      8  O   UNL A   1      33.851  23.083  22.180  1.00  0.00    -0.244 OA
BRANCH   7   9
ATOM      9  C   UNL A   1      33.164  22.778  24.180  1.00  0.00     0.156 A 
ATOM     10  C   UNL A   1      32.627  21.584  24.597  1.00  0.00     0.015 A 
ATOM     11  C   UNL A   1      31.714  21.656  25.660  1.00  0.00     0.013 A 
ATOM     12  C   UNL A   1      31.430  22.870  26.302  1.00  0.00     0.021 A 
ATOM     13  N   UNL A   1      32.864  23.992  24.791  1.00  0.00    -0.249 NA
ATOM     14  C   UNL A   1      32.037  24.014  25.841  1.00  0.00     0.112 A 
BRANCH  10  15
ATOM     15  C   UNL A   1      32.960  20.363  23.889  1.00  0.00    -0.016 A 
ATOM     16  C   UNL A   1      34.862  17.209  24.715  1.00  0.00     0.044 C 
ATOM     17  C   UNL A   1      33.890  18.140  24.072  1.00  0.00    -0.051 A 
ATOM     18  C   UNL A   1      33.081  17.713  23.014  1.00  0.00     0.003 A 
ATOM     19  C   UNL A   1      33.808  19.457  24.518  1.00  0.00     0.012 A 
ATOM     20  C   UNL A   1      32.258  18.619  22.354  1.00  0.00     0.001 A 
ATOM     21  C   UNL A   1      32.237  19.952  22.759  1.00  0.00     0.009 A 
ENDBRANCH  10  15
ENDBRANCH   7   9
ENDBRANCH   6   7
ENDBRANCH   5   6
ENDBRANCH   4   5
ENDBRANCH   3   4
ENDBRANCH   2   3
ENDBRANCH   1   2
BRANCH   1  22
ATOM     22  O   UNL A   1      41.804  19.457  25.396  1.00  0.00    -0.376 OA
BRANCH  22  23
ATOM     23  C   UNL A   1      42.894  18.645  25.794  1.00  0.00     0.202 C 
BRANCH  23  24
ATOM     24  C   UNL A   1      44.204  18.904  25.013  1.00  0.00     0.261 C 
BRANCH  24  25
ATOM     25  O   UNL A   1      44.273  20.277  24.541  1.00  0.00    -0.460 OA
BRANCH  25  26
ATOM     26  C   UNL A   1      45.374  21.035  24.874  1.00  0.00     0.338 C 
ATOM     27  O   UNL A   1      46.423  20.574  25.313  1.00  0.00    -0.246 OA
BRANCH  26  28
ATOM     28  C   UNL A   1      45.026  22.502  24.891  1.00  0.00     0.060 A 
ATOM     29  C   UNL A   1      45.803  23.605  24.487  1.00  0.00     0.016 A 
ATOM     30  C   UNL A   1      44.005  22.814  25.709  1.00  0.00     0.016 A 
ATOM     31  C   UNL A   1      45.641  24.949  25.084  1.00  0.00     0.010 A 
ATOM     32  C   UNL A   1      44.161  23.986  26.446  1.00  0.00     0.010 A 
ATOM     33  C   UNL A   1      44.881  25.173  26.227  1.00  0.00    -0.014 A 
BRANCH  33  34
ATOM     34  C   UNL A   1      44.664  26.491  27.217  1.00  0.00     0.031 A 
ATOM     35  C   UNL A   1      43.485  27.642  27.278  1.00  0.00     0.074 A 
ATOM     36  C   UNL A   1      45.330  26.448  28.393  1.00  0.00     0.049 A 
ATOM     37  N   UNL A   1      42.732  27.859  28.335  1.00  0.00    -0.248 NA
ATOM     38  C   UNL A   1      43.010  28.569  26.195  1.00  0.00     0.031 C 
ATOM     39  C   UNL A   1      45.112  27.162  29.656  1.00  0.00     0.029 A 
ATOM     40  N   UNL A   1      46.579  25.872  28.618  1.00  0.00    -0.354 N 
ATOM     41  C   UNL A   1      41.619  28.624  27.999  1.00  0.00     0.074 A 
ATOM     42  C   UNL A   1      41.796  28.975  26.611  1.00  0.00     0.031 C 
ATOM     43  C   UNL A   1      46.311  27.365  30.236  1.00  0.00     0.029 A 
ATOM     44  C   UNL A   1      47.300  26.886  29.286  1.00  0.00     0.049 A 
ATOM     45  H   UNL A   1      46.886  24.970  28.370  1.00  0.00     0.167 HD
ATOM     46  C   UNL A   1      40.930  29.361  28.924  1.00  0.00     0.037 A 
ATOM     47  C   UNL A   1      48.112  27.630  28.476  1.00  0.00     0.037 A 
ATOM     48  C   UNL A   1      41.901  29.962  29.810  1.00  0.00     0.049 A 
ATOM     49  C   UNL A   1      47.513  29.024  28.244  1.00  0.00     0.074 A 
ATOM     50  C   UNL A   1      42.594  29.597  30.943  1.00  0.00     0.029 A 
ATOM     51  N   UNL A   1      42.642  30.971  29.230  1.00  0.00    -0.354 N 
ATOM     52  N   UNL A   1      46.434  29.489  28.832  1.00  0.00    -0.248 NA
ATOM     53  C   UNL A   1      48.065  29.997  27.306  1.00  0.00     0.031 C 
ATOM     54  C   UNL A   1      43.924  30.142  30.778  1.00  0.00     0.029 A 
ATOM     55  C   UNL A   1      43.975  30.858  29.585  1.00  0.00     0.049 A 
ATOM     56  H   UNL A   1      42.275  31.672  28.646  1.00  0.00     0.167 HD
ATOM     57  C   UNL A   1      46.098  30.711  28.331  1.00  0.00     0.074 A 
ATOM     58  C   UNL A   1      47.167  30.994  27.382  1.00  0.00     0.031 C 
ATOM     59  C   UNL A   1      44.983  31.427  28.681  1.00  0.00     0.037 A 
BRANCH  46  60
ATOM     60  C   UNL A   1      39.447  29.684  28.914  1.00  0.00     0.057 A 
ATOM     61  C   UNL A   1      38.509  28.799  28.345  1.00  0.00     0.134 A 
ATOM     62  C   UNL A   1      38.908  30.932  29.272  1.00  0.00     0.134 A 
ATOM     63  F   UNL A   1      38.867  27.561  27.975  1.00  0.00    -0.206 F 
ATOM     64  C   UNL A   1      37.165  29.150  28.101  1.00  0.00     0.040 A 
ATOM     65  C   UNL A   1      37.572  31.307  29.021  1.00  0.00     0.040 A 
ATOM     66  F   UNL A   1      39.666  31.848  29.880  1.00  0.00    -0.206 F 
ATOM     67  C   UNL A   1      36.696  30.417  28.419  1.00  0.00     0.006 A 
ENDBRANCH  46  60
BRANCH  47  68
ATOM     68  C   UNL A   1      48.815  26.698  27.495  1.00  0.00     0.057 A 
ATOM     69  C   UNL A   1      48.514  26.860  26.111  1.00  0.00     0.134 A 
ATOM     70  C   UNL A   1      50.001  26.013  27.764  1.00  0.00     0.134 A 
ATOM     71  F   UNL A   1      47.386  27.489  25.735  1.00  0.00    -0.206 F 
ATOM     72  C   UNL A   1      49.427  26.561  25.088  1.00  0.00     0.040 A 
ATOM     73  C   UNL A   1      50.876  25.611  26.730  1.00  0.00     0.040 A 
ATOM     74  F   UNL A   1      50.422  25.831  29.023  1.00  0.00    -0.206 F 
ATOM     75  C   UNL A   1      50.633  25.960  25.402  1.00  0.00     0.006 A 
ENDBRANCH  47  68
BRANCH  59  76
ATOM     76  C   UNL A   1      44.806  32.803  28.104  1.00  0.00     0.057 A 
ATOM     77  C   UNL A   1      45.171  33.924  28.861  1.00  0.00     0.134 A 
ATOM     78  C   UNL A   1      44.212  33.068  26.858  1.00  0.00     0.134 A 
ATOM     79  F   UNL A   1      45.716  33.779  30.078  1.00  0.00    -0.206 F 
ATOM     80  C   UNL A   1      45.001  35.225  28.387  1.00  0.00     0.040 A 
ATOM     81  C   UNL A   1      43.959  34.364  26.408  1.00  0.00     0.040 A 
ATOM     82  F   UNL A   1      43.861  32.079  26.020  1.00  0.00    -0.206 F 
ATOM     83  C   UNL A   1      44.374  35.449  27.166  1.00  0.00     0.006 A 
ENDBRANCH  59  76
ENDBRANCH  33  34
ENDBRANCH  26  28
ENDBRANCH  25  26
ENDBRANCH  24  25
ENDBRANCH  23  24
ENDBRANCH  22  23
ENDBRANCH   1  22
TORSDOF 18
ENDMDL
MODEL 3
REMARK VINA RESULT:     -10.9      4.538      8.524
REMARK SMILES Cc1cccc(-c2cccnc2C(=O)OCCOCCOCCOC(=O)c2ccc(-c3c4nc(c(-c5c(F)cccc5F)c5ccc([nH]5)c(-c5c(F)cccc5F)c5nc(c(-c6c(F)cccc6F)c6ccc3[nH]6)C=C5)C=C4)cc2)c1
REMARK SMILES IDX 20 1 19 2 18 3 17 4 16 5 15 6 13 7 14 8 12 9 7 10 8 11 9 12
REMARK SMILES IDX 11 13 10 14 6 15 1 16 2 17 3 18 81 19 4 20 5 21 21 22 22 23
REMARK SMILES IDX 23 24 24 25 25 26 26 27 27 28 28 29 80 30 29 31 79 32 30 33
REMARK SMILES IDX 31 34 32 35 73 36 33 37 78 38 72 39 74 40 34 41 77 42 71 43
REMARK SMILES IDX 70 44 35 46 61 47 44 48 60 49 45 50 48 51 59 52 75 53 46 54
REMARK SMILES IDX 47 55 58 57 76 58 49 59 36 60 37 61 42 62 38 63 39 64 41 65
REMARK SMILES IDX 43 66 40 67 62 68 63 69 68 70 64 71 65 72 67 73 69 74 66 75
REMARK SMILES IDX 50 76 51 77 56 78 52 79 53 80 55 81 57 82 54 83
REMARK H PARENT 74 45 48 56
REMARK Flexibility Score: inf
ROOT
ATOM      1  C   UNL A   1      49.402  29.109  26.692  1.00  0.00     0.188 C 
ENDROOT
BRANCH   1   2
ATOM      2  C   UNL A   1      48.897  27.921  25.896  1.00  0.00     0.188 C 
BRANCH   2   3
ATOM      3  O   UNL A   1      48.349  26.702  26.441  1.00  0.00    -0.376 OA
BRANCH   3   4
ATOM      4  C   UNL A   1      47.255  26.528  27.376  1.00  0.00     0.202 C 
BRANCH   4   5
ATOM      5  C   UNL A   1      45.554  26.482  27.115  1.00  0.00     0.261 C 
BRANCH   5   6
ATOM      6  O   UNL A   1      44.419  25.378  27.496  1.00  0.00    -0.458 OA
BRANCH   6   7
ATOM      7  C   UNL A   1      43.240  25.262  28.246  1.00  0.00     0.357 C 
ATOM      8  O   UNL A   1      42.898  25.909  29.225  1.00  0.00    -0.244 OA
BRANCH   7   9
ATOM      9  C   UNL A   1      42.077  24.369  27.991  1.00  0.00     0.156 A 
ATOM     10  C   UNL A   1      41.179  24.623  26.983  1.00  0.00     0.015 A 
ATOM     11  C   UNL A   1      40.301  23.578  26.661  1.00  0.00     0.013 A 
ATOM     12  C   UNL A   1      40.391  22.325  27.285  1.00  0.00     0.021 A 
ATOM     13  N   UNL A   1      42.153  23.139  28.638  1.00  0.00    -0.249 NA
ATOM     14  C   UNL A   1      41.341  22.146  28.262  1.00  0.00     0.112 A 
BRANCH  10  15
ATOM     15  C   UNL A   1      41.136  25.941  26.380  1.00  0.00    -0.016 A 
ATOM     16  C   UNL A   1      39.610  29.270  27.295  1.00  0.00     0.044 C 
ATOM     17  C   UNL A   1      40.522  28.258  26.686  1.00  0.00    -0.051 A 
ATOM     18  C   UNL A   1      41.532  28.645  25.801  1.00  0.00     0.003 A 
ATOM     19  C   UNL A   1      40.344  26.910  26.988  1.00  0.00     0.012 A 
ATOM     20  C   UNL A   1      42.304  27.684  25.158  1.00  0.00     0.001 A 
ATOM     21  C   UNL A   1      42.071  26.332  25.409  1.00  0.00     0.009 A 
ENDBRANCH  10  15
ENDBRANCH   7   9
ENDBRANCH   6   7
ENDBRANCH   5   6
ENDBRANCH   4   5
ENDBRANCH   3   4
ENDBRANCH   2   3
ENDBRANCH   1   2
BRANCH   1  22
ATOM     22  O   UNL A   1      48.502  30.186  26.626  1.00  0.00    -0.376 OA
BRANCH  22  23
ATOM     23  C   UNL A   1      48.880  31.310  27.402  1.00  0.00     0.202 C 
BRANCH  23  24
ATOM     24  C   UNL A   1      48.290  32.653  26.913  1.00  0.00     0.261 C 
BRANCH  24  25
ATOM     25  O   UNL A   1      47.129  32.440  26.063  1.00  0.00    -0.460 OA
BRANCH  25  26
ATOM     26  C   UNL A   1      45.908  32.923  26.480  1.00  0.00     0.338 C 
ATOM     27  O   UNL A   1      45.520  34.073  26.299  1.00  0.00    -0.246 OA
BRANCH  26  28
ATOM     28  C   UNL A   1      45.243  31.949  27.418  1.00  0.00     0.060 A 
ATOM     29  C   UNL A   1      44.521  30.777  27.119  1.00  0.00     0.016 A 
ATOM     30  C   UNL A   1      45.011  32.442  28.649  1.00  0.00     0.016 A 
ATOM     31  C   UNL A   1      43.444  30.265  27.995  1.00  0.00     0.010 A 
ATOM     32  C   UNL A   1      43.783  32.102  29.212  1.00  0.00     0.010 A 
ATOM     33  C   UNL A   1      42.916  31.008  29.045  1.00  0.00    -0.014 A 
BRANCH  33  34
ATOM     34  C   UNL A   1      41.616  30.793  30.059  1.00  0.00     0.031 A 
ATOM     35  C   UNL A   1      40.346  31.771  30.444  1.00  0.00     0.074 A 
ATOM     36  C   UNL A   1      41.318  29.509  30.355  1.00  0.00     0.049 A 
ATOM     37  N   UNL A   1      39.087  31.447  30.237  1.00  0.00    -0.248 NA
ATOM     38  C   UNL A   1      40.359  33.165  31.005  1.00  0.00     0.031 C 
ATOM     39  C   UNL A   1      40.082  28.890  30.846  1.00  0.00     0.029 A 
ATOM     40  N   UNL A   1      42.223  28.459  30.497  1.00  0.00    -0.354 N 
ATOM     41  C   UNL A   1      38.267  32.567  30.327  1.00  0.00     0.074 A 
ATOM     42  C   UNL A   1      39.134  33.649  30.730  1.00  0.00     0.031 C 
ATOM     43  C   UNL A   1      40.417  27.847  31.630  1.00  0.00     0.029 A 
ATOM     44  C   UNL A   1      41.866  27.875  31.733  1.00  0.00     0.049 A 
ATOM     45  H   UNL A   1      42.942  28.189  29.882  1.00  0.00     0.167 HD
ATOM     46  C   UNL A   1      36.929  32.476  30.601  1.00  0.00     0.037 A 
ATOM     47  C   UNL A   1      42.623  28.288  32.794  1.00  0.00     0.037 A 
ATOM     48  C   UNL A   1      36.761  31.453  31.608  1.00  0.00     0.049 A 
ATOM     49  C   UNL A   1      41.825  29.247  33.686  1.00  0.00     0.074 A 
ATOM     50  C   UNL A   1      36.636  30.081  31.640  1.00  0.00     0.029 A 
ATOM     51  N   UNL A   1      37.219  31.814  32.858  1.00  0.00    -0.354 N 
ATOM     52  N   UNL A   1      40.554  29.543  33.529  1.00  0.00    -0.248 NA
ATOM     53  C   UNL A   1      42.402  29.976  34.811  1.00  0.00     0.031 C 
ATOM     54  C   UNL A   1      37.399  29.649  32.790  1.00  0.00     0.029 A 
ATOM     55  C   UNL A   1      37.913  30.768  33.441  1.00  0.00     0.049 A 
ATOM     56  H   UNL A   1      37.074  32.693  33.276  1.00  0.00     0.167 HD
ATOM     57  C   UNL A   1      40.169  30.509  34.410  1.00  0.00     0.074 A 
ATOM     58  C   UNL A   1      41.367  30.737  35.208  1.00  0.00     0.031 C 
ATOM     59  C   UNL A   1      38.928  31.088  34.452  1.00  0.00     0.037 A 
BRANCH  46  60
ATOM     60  C   UNL A   1      35.833  33.409  30.119  1.00  0.00     0.057 A 
ATOM     61  C   UNL A   1      35.092  34.198  31.021  1.00  0.00     0.134 A 
ATOM     62  C   UNL A   1      35.335  33.427  28.804  1.00  0.00     0.134 A 
ATOM     63  F   UNL A   1      35.458  34.300  32.307  1.00  0.00    -0.206 F 
ATOM     64  C   UNL A   1      33.922  34.895  30.657  1.00  0.00     0.040 A 
ATOM     65  C   UNL A   1      34.158  34.105  28.424  1.00  0.00     0.040 A 
ATOM     66  F   UNL A   1      35.973  32.777  27.828  1.00  0.00    -0.206 F 
ATOM     67  C   UNL A   1      33.437  34.833  29.358  1.00  0.00     0.006 A 
ENDBRANCH  46  60
BRANCH  47  68
ATOM     68  C   UNL A   1      44.084  28.351  32.360  1.00  0.00     0.057 A 
ATOM     69  C   UNL A   1      44.702  27.128  31.965  1.00  0.00     0.134 A 
ATOM     70  C   UNL A   1      44.729  29.507  31.918  1.00  0.00     0.134 A 
ATOM     71  F   UNL A   1      44.175  25.952  32.350  1.00  0.00    -0.206 F 
ATOM     72  C   UNL A   1      45.742  27.063  31.026  1.00  0.00     0.040 A 
ATOM     73  C   UNL A   1      45.849  29.447  31.057  1.00  0.00     0.040 A 
ATOM     74  F   UNL A   1      44.229  30.721  32.183  1.00  0.00    -0.206 F 
ATOM     75  C   UNL A   1      46.301  28.233  30.543  1.00  0.00     0.006 A 
ENDBRANCH  47  68
BRANCH  59  76
ATOM     76  C   UNL A   1      38.635  32.073  35.548  1.00  0.00     0.057 A 
ATOM     77  C   UNL A   1      38.030  31.633  36.732  1.00  0.00     0.134 A 
ATOM     78  C   UNL A   1      38.853  33.458  35.446  1.00  0.00     0.134 A 
ATOM     79  F   UNL A   1      37.750  30.334  36.914  1.00  0.00    -0.206 F 
ATOM     80  C   UNL A   1      37.709  32.508  37.770  1.00  0.00     0.040 A 
ATOM     81  C   UNL A   1      38.460  34.354  36.439  1.00  0.00     0.040 A 
ATOM     82  F   UNL A   1      39.466  33.998  34.380  1.00  0.00    -0.206 F 
ATOM     83  C   UNL A   1      37.904  33.877  37.617  1.00  0.00     0.006 A 
ENDBRANCH  59  76
ENDBRANCH  33  34
ENDBRANCH  26  28
ENDBRANCH  25  26
ENDBRANCH  24  25
ENDBRANCH  23  24
ENDBRANCH  22  23
ENDBRANCH   1  22
TORSDOF 18
ENDMDL
