MODEL 1
REMARK VINA RESULT:     -11.0      0.000      0.000
REMARK SMILES CCc1ccc2[nH]c(C(=O)c3cc(C)ccn3)c(CC(=O)OCCOCCOCCOC(=O)c3ccc(-c4c5nc(c(-c6c(F)cccc6F)c6ccc([nH]6)c(-c6c(F)cccc6F)c6nc(c(-c7c(F)cccc7F)c7ccc4[nH]7)C=C6)C=C5)cc3)c2c1
REMARK SMILES IDX 26 1 25 2 24 3 23 4 22 5 20 6 21 7 19 8 18 9 3 10 4 11 89 12
REMARK SMILES IDX 5 13 88 14 6 15 7 16 8 17 2 19 1 20 9 21 10 22 11 23 12 24
REMARK SMILES IDX 17 25 13 26 16 27 14 28 15 29 27 30 28 31 29 32 30 33 31 34
REMARK SMILES IDX 32 35 33 36 34 37 35 38 87 39 36 40 86 41 37 42 38 43 39 44
REMARK SMILES IDX 80 45 40 46 85 47 79 48 81 49 41 50 84 51 78 52 77 53 42 55
REMARK SMILES IDX 68 56 51 57 67 58 52 59 55 60 66 61 82 62 53 63 54 64 65 66
REMARK SMILES IDX 83 67 56 68 43 69 44 70 49 71 45 72 46 73 48 74 50 75 47 76
REMARK SMILES IDX 69 77 70 78 75 79 71 80 72 81 74 82 76 83 73 84 57 85 58 86
REMARK SMILES IDX 63 87 59 88 60 89 62 90 64 91 61 92
REMARK H PARENT 7 18 81 54 55 65
REMARK Flexibility Score: inf
ROOT
ATOM      1  C   UNL A   1      35.318  32.201  28.210  1.00  0.00     0.188 C 
ENDROOT
BRANCH   1   2
ATOM      2  O   UNL A   1      34.603  31.189  27.504  1.00  0.00    -0.376 OA
BRANCH   2   3
ATOM      3  C   UNL A   1      33.192  31.316  27.394  1.00  0.00     0.202 C 
BRANCH   3   4
ATOM      4  C   UNL A   1      32.423  30.006  27.177  1.00  0.00     0.261 C 
BRANCH   4   5
ATOM      5  O   UNL A   1      33.023  29.184  26.152  1.00  0.00    -0.463 OA
BRANCH   5   6
ATOM      6  C   UNL A   1      32.950  27.837  26.315  1.00  0.00     0.310 C 
ATOM      7  O   UNL A   1      31.960  27.264  26.764  1.00  0.00    -0.252 OA
BRANCH   6   8
ATOM      8  C   UNL A   1      34.123  27.068  25.716  1.00  0.00     0.161 C 
BRANCH   8   9
ATOM      9  C   UNL A   1      33.896  26.244  24.470  1.00  0.00     0.000 A 
ATOM     10  C   UNL A   1      33.870  22.448  25.029  1.00  0.00    -0.048 A 
ATOM     11  C   UNL A   1      33.525  22.124  23.711  1.00  0.00     0.006 A 
ATOM     12  C   UNL A   1      34.136  23.793  25.361  1.00  0.00     0.014 A 
ATOM     13  C   UNL A   1      33.402  23.104  22.723  1.00  0.00     0.027 A 
ATOM     14  C   UNL A   1      33.938  24.808  24.403  1.00  0.00     0.004 A 
ATOM     15  C   UNL A   1      33.580  24.431  23.113  1.00  0.00     0.046 A 
ATOM     16  N   UNL A   1      33.415  25.586  22.396  1.00  0.00    -0.352 N 
ATOM     17  C   UNL A   1      33.301  26.650  23.264  1.00  0.00     0.093 A 
ATOM     18  H   UNL A   1      33.382  25.647  21.413  1.00  0.00     0.167 HD
BRANCH  10  19
ATOM     19  C   UNL A   1      33.919  21.431  26.148  1.00  0.00     0.032 C 
ATOM     20  C   UNL A   1      34.181  21.965  27.550  1.00  0.00     0.009 C 
ENDBRANCH  10  19
BRANCH  17  21
ATOM     21  C   UNL A   1      32.584  27.873  22.936  1.00  0.00     0.227 C 
ATOM     22  O   UNL A   1      33.144  28.911  22.594  1.00  0.00    -0.285 OA
BRANCH  21  23
ATOM     23  C   UNL A   1      31.099  27.898  23.091  1.00  0.00     0.113 A 
ATOM     24  C   UNL A   1      30.354  28.962  22.590  1.00  0.00     0.036 A 
ATOM     25  N   UNL A   1      30.559  26.822  23.719  1.00  0.00    -0.253 NA
ATOM     26  C   UNL A   1      28.961  28.908  22.714  1.00  0.00    -0.047 A 
ATOM     27  C   UNL A   1      29.210  26.772  23.768  1.00  0.00     0.112 A 
ATOM     28  C   UNL A   1      28.078  30.034  22.261  1.00  0.00     0.044 C 
ATOM     29  C   UNL A   1      28.383  27.771  23.284  1.00  0.00     0.023 A 
ENDBRANCH  21  23
ENDBRANCH  17  21
ENDBRANCH   8   9
ENDBRANCH   6   8
ENDBRANCH   5   6
ENDBRANCH   4   5
ENDBRANCH   3   4
ENDBRANCH   2   3
ENDBRANCH   1   2
BRANCH   1  30
ATOM     30  C   UNL A   1      34.612  32.969  29.348  1.00  0.00     0.188 C 
BRANCH  30  31
ATOM     31  O   UNL A   1      34.605  34.378  29.160  1.00  0.00    -0.376 OA
BRANCH  31  32
ATOM     32  C   UNL A   1      33.348  34.909  28.769  1.00  0.00     0.202 C 
BRANCH  32  33
ATOM     33  C   UNL A   1      32.909  36.042  29.693  1.00  0.00     0.261 C 
BRANCH  33  34
ATOM     34  O   UNL A   1      32.168  35.537  30.825  1.00  0.00    -0.460 OA
BRANCH  34  35
ATOM     35  C   UNL A   1      32.514  35.972  32.049  1.00  0.00     0.338 C 
ATOM     36  O   UNL A   1      32.001  36.904  32.663  1.00  0.00    -0.246 OA
BRANCH  35  37
ATOM     37  C   UNL A   1      33.670  35.201  32.566  1.00  0.00     0.060 A 
ATOM     38  C   UNL A   1      34.974  35.705  32.555  1.00  0.00     0.016 A 
ATOM     39  C   UNL A   1      33.456  33.893  32.994  1.00  0.00     0.016 A 
ATOM     40  C   UNL A   1      36.059  34.898  32.914  1.00  0.00     0.010 A 
ATOM     41  C   UNL A   1      34.535  33.107  33.419  1.00  0.00     0.010 A 
ATOM     42  C   UNL A   1      35.854  33.591  33.366  1.00  0.00    -0.014 A 
BRANCH  42  43
ATOM     43  C   UNL A   1      36.984  32.707  33.769  1.00  0.00     0.031 A 
ATOM     44  C   UNL A   1      37.686  32.936  35.080  1.00  0.00     0.074 A 
ATOM     45  C   UNL A   1      37.431  31.730  32.954  1.00  0.00     0.049 A 
ATOM     46  N   UNL A   1      38.854  32.509  35.485  1.00  0.00    -0.248 NA
ATOM     47  C   UNL A   1      36.974  33.768  36.064  1.00  0.00     0.031 C 
ATOM     48  C   UNL A   1      36.812  31.319  31.695  1.00  0.00     0.029 A 
ATOM     49  N   UNL A   1      38.540  30.922  33.058  1.00  0.00    -0.354 N 
ATOM     50  C   UNL A   1      39.047  33.061  36.745  1.00  0.00     0.074 A 
ATOM     51  C   UNL A   1      37.868  33.852  37.040  1.00  0.00     0.031 C 
ATOM     52  C   UNL A   1      37.550  30.346  31.140  1.00  0.00     0.029 A 
ATOM     53  C   UNL A   1      38.740  30.127  31.956  1.00  0.00     0.049 A 
ATOM     54  H   UNL A   1      39.132  30.915  33.845  1.00  0.00     0.167 HD
ATOM     55  C   UNL A   1      40.111  32.929  37.573  1.00  0.00     0.037 A 
ATOM     56  C   UNL A   1      39.789  29.359  31.602  1.00  0.00     0.037 A 
ATOM     57  C   UNL A   1      41.267  32.114  37.293  1.00  0.00     0.049 A 
ATOM     58  C   UNL A   1      41.002  29.298  32.490  1.00  0.00     0.074 A 
ATOM     59  C   UNL A   1      42.394  31.916  38.075  1.00  0.00     0.029 A 
ATOM     60  N   UNL A   1      41.442  31.354  36.147  1.00  0.00    -0.354 N 
ATOM     61  N   UNL A   1      41.210  29.876  33.648  1.00  0.00    -0.248 NA
ATOM     62  C   UNL A   1      42.135  28.494  32.009  1.00  0.00     0.031 C 
ATOM     63  C   UNL A   1      43.269  31.073  37.381  1.00  0.00     0.029 A 
ATOM     64  C   UNL A   1      42.666  30.705  36.190  1.00  0.00     0.049 A 
ATOM     65  H   UNL A   1      40.792  31.286  35.410  1.00  0.00     0.167 HD
ATOM     66  C   UNL A   1      42.486  29.490  34.042  1.00  0.00     0.074 A 
ATOM     67  C   UNL A   1      42.997  28.616  33.008  1.00  0.00     0.031 C 
ATOM     68  C   UNL A   1      43.169  29.834  35.160  1.00  0.00     0.037 A 
BRANCH  55  69
ATOM     69  C   UNL A   1      40.105  33.722  38.848  1.00  0.00     0.057 A 
ATOM     70  C   UNL A   1      40.755  34.956  38.966  1.00  0.00     0.134 A 
ATOM     71  C   UNL A   1      39.391  33.258  39.962  1.00  0.00     0.134 A 
ATOM     72  F   UNL A   1      41.467  35.450  37.943  1.00  0.00    -0.206 F 
ATOM     73  C   UNL A   1      40.710  35.692  40.151  1.00  0.00     0.040 A 
ATOM     74  C   UNL A   1      39.318  33.997  41.143  1.00  0.00     0.040 A 
ATOM     75  F   UNL A   1      38.740  32.086  39.915  1.00  0.00    -0.206 F 
ATOM     76  C   UNL A   1      39.983  35.216  41.242  1.00  0.00     0.006 A 
ENDBRANCH  55  69
BRANCH  56  77
ATOM     77  C   UNL A   1      39.771  28.629  30.308  1.00  0.00     0.057 A 
ATOM     78  C   UNL A   1      39.164  27.374  30.195  1.00  0.00     0.134 A 
ATOM     79  C   UNL A   1      40.370  29.162  29.159  1.00  0.00     0.134 A 
ATOM     80  F   UNL A   1      38.603  26.796  31.268  1.00  0.00    -0.206 F 
ATOM     81  C   UNL A   1      39.162  26.670  28.989  1.00  0.00     0.040 A 
ATOM     82  C   UNL A   1      40.347  28.484  27.941  1.00  0.00     0.040 A 
ATOM     83  F   UNL A   1      40.973  30.360  29.202  1.00  0.00    -0.206 F 
ATOM     84  C   UNL A   1      39.746  27.230  27.856  1.00  0.00     0.006 A 
ENDBRANCH  56  77
BRANCH  68  85
ATOM     85  C   UNL A   1      44.532  29.231  35.345  1.00  0.00     0.057 A 
ATOM     86  C   UNL A   1      45.693  29.873  34.894  1.00  0.00     0.134 A 
ATOM     87  C   UNL A   1      44.687  28.005  36.003  1.00  0.00     0.134 A 
ATOM     88  F   UNL A   1      45.613  31.044  34.243  1.00  0.00    -0.206 F 
ATOM     89  C   UNL A   1      46.957  29.307  35.072  1.00  0.00     0.040 A 
ATOM     90  C   UNL A   1      45.947  27.440  36.209  1.00  0.00     0.040 A 
ATOM     91  F   UNL A   1      43.618  27.340  36.466  1.00  0.00    -0.206 F 
ATOM     92  C   UNL A   1      47.086  28.089  35.737  1.00  0.00     0.006 A 
ENDBRANCH  68  85
ENDBRANCH  42  43
ENDBRANCH  35  37
ENDBRANCH  34  35
ENDBRANCH  33  34
ENDBRANCH  32  33
ENDBRANCH  31  32
ENDBRANCH  30  31
ENDBRANCH   1  30
TORSDOF 21
ENDMDL
MODEL 2
REMARK VINA RESULT:     -10.8      4.622      7.733
REMARK SMILES CCc1ccc2[nH]c(C(=O)c3cc(C)ccn3)c(CC(=O)OCCOCCOCCOC(=O)c3ccc(-c4c5nc(c(-c6c(F)cccc6F)c6ccc([nH]6)c(-c6c(F)cccc6F)c6nc(c(-c7c(F)cccc7F)c7ccc4[nH]7)C=C6)C=C5)cc3)c2c1
REMARK SMILES IDX 26 1 25 2 24 3 23 4 22 5 20 6 21 7 19 8 18 9 3 10 4 11 89 12
REMARK SMILES IDX 5 13 88 14 6 15 7 16 8 17 2 19 1 20 9 21 10 22 11 23 12 24
REMARK SMILES IDX 17 25 13 26 16 27 14 28 15 29 27 30 28 31 29 32 30 33 31 34
REMARK SMILES IDX 32 35 33 36 34 37 35 38 87 39 36 40 86 41 37 42 38 43 39 44
REMARK SMILES IDX 80 45 40 46 85 47 79 48 81 49 41 50 84 51 78 52 77 53 42 55
REMARK SMILES IDX 68 56 51 57 67 58 52 59 55 60 66 61 82 62 53 63 54 64 65 66
REMARK SMILES IDX 83 67 56 68 43 69 44 70 49 71 45 72 46 73 48 74 50 75 47 76
REMARK SMILES IDX 69 77 70 78 75 79 71 80 72 81 74 82 76 83 73 84 57 85 58 86
REMARK SMILES IDX 63 87 59 88 60 89 62 90 64 91 61 92
REMARK H PARENT 7 18 81 54 55 65
REMARK Flexibility Score: inf
ROOT
ATOM      1  C   UNL A   1      34.117  33.701  28.213  1.00  0.00     0.188 C 
ENDROOT
BRANCH   1   2
ATOM      2  O   UNL A   1      34.000  32.391  28.765  1.00  0.00    -0.376 OA
BRANCH   2   3
ATOM      3  C   UNL A   1      34.350  31.284  27.946  1.00  0.00     0.202 C 
BRANCH   3   4
ATOM      4  C   UNL A   1      33.188  30.625  27.191  1.00  0.00     0.261 C 
BRANCH   4   5
ATOM      5  O   UNL A   1      33.595  30.111  25.904  1.00  0.00    -0.463 OA
BRANCH   5   6
ATOM      6  C   UNL A   1      33.850  28.779  25.821  1.00  0.00     0.310 C 
ATOM      7  O   UNL A   1      33.984  28.055  26.803  1.00  0.00    -0.252 OA
BRANCH   6   8
ATOM      8  C   UNL A   1      33.765  28.212  24.407  1.00  0.00     0.161 C 
BRANCH   8   9
ATOM      9  C   UNL A   1      32.499  27.506  23.978  1.00  0.00     0.000 A 
ATOM     10  C   UNL A   1      29.430  29.778  23.609  1.00  0.00    -0.048 A 
ATOM     11  C   UNL A   1      28.586  28.778  23.109  1.00  0.00     0.006 A 
ATOM     12  C   UNL A   1      30.726  29.431  24.044  1.00  0.00     0.014 A 
ATOM     13  C   UNL A   1      29.008  27.451  22.996  1.00  0.00     0.027 A 
ATOM     14  C   UNL A   1      31.204  28.117  23.864  1.00  0.00     0.004 A 
ATOM     15  C   UNL A   1      30.328  27.168  23.348  1.00  0.00     0.046 A 
ATOM     16  N   UNL A   1      31.035  25.999  23.237  1.00  0.00    -0.352 N 
ATOM     17  C   UNL A   1      32.383  26.272  23.318  1.00  0.00     0.093 A 
ATOM     18  H   UNL A   1      30.641  25.105  23.117  1.00  0.00     0.167 HD
BRANCH  10  19
ATOM     19  C   UNL A   1      29.045  31.240  23.657  1.00  0.00     0.032 C 
ATOM     20  C   UNL A   1      27.563  31.564  23.528  1.00  0.00     0.009 C 
ENDBRANCH  10  19
BRANCH  17  21
ATOM     21  C   UNL A   1      33.403  25.435  22.705  1.00  0.00     0.227 C 
ATOM     22  O   UNL A   1      33.657  25.454  21.503  1.00  0.00    -0.285 OA
BRANCH  21  23
ATOM     23  C   UNL A   1      34.130  24.448  23.557  1.00  0.00     0.113 A 
ATOM     24  C   UNL A   1      33.767  24.261  24.888  1.00  0.00     0.036 A 
ATOM     25  N   UNL A   1      35.122  23.760  22.937  1.00  0.00    -0.253 NA
ATOM     26  C   UNL A   1      34.446  23.285  25.627  1.00  0.00    -0.047 A 
ATOM     27  C   UNL A   1      35.715  22.783  23.658  1.00  0.00     0.112 A 
ATOM     28  C   UNL A   1      34.169  23.053  27.083  1.00  0.00     0.044 C 
ATOM     29  C   UNL A   1      35.414  22.511  24.982  1.00  0.00     0.023 A 
ENDBRANCH  21  23
ENDBRANCH  17  21
ENDBRANCH   8   9
ENDBRANCH   6   8
ENDBRANCH   5   6
ENDBRANCH   4   5
ENDBRANCH   3   4
ENDBRANCH   2   3
ENDBRANCH   1   2
BRANCH   1  30
ATOM     30  C   UNL A   1      33.195  34.824  28.734  1.00  0.00     0.188 C 
BRANCH  30  31
ATOM     31  O   UNL A   1      33.775  35.595  29.778  1.00  0.00    -0.376 OA
BRANCH  31  32
ATOM     32  C   UNL A   1      33.416  35.170  31.085  1.00  0.00     0.202 C 
BRANCH  32  33
ATOM     33  C   UNL A   1      34.649  34.821  31.915  1.00  0.00     0.261 C 
BRANCH  33  34
ATOM     34  O   UNL A   1      35.549  33.963  31.180  1.00  0.00    -0.460 OA
BRANCH  34  35
ATOM     35  C   UNL A   1      35.793  32.737  31.673  1.00  0.00     0.338 C 
ATOM     36  O   UNL A   1      35.079  32.110  32.452  1.00  0.00    -0.246 OA
BRANCH  35  37
ATOM     37  C   UNL A   1      37.101  32.234  31.191  1.00  0.00     0.060 A 
ATOM     38  C   UNL A   1      37.472  32.278  29.844  1.00  0.00     0.016 A 
ATOM     39  C   UNL A   1      37.951  31.615  32.105  1.00  0.00     0.016 A 
ATOM     40  C   UNL A   1      38.649  31.663  29.403  1.00  0.00     0.010 A 
ATOM     41  C   UNL A   1      39.162  31.060  31.674  1.00  0.00     0.010 A 
ATOM     42  C   UNL A   1      39.520  31.058  30.314  1.00  0.00    -0.014 A 
BRANCH  42  43
ATOM     43  C   UNL A   1      40.788  30.406  29.883  1.00  0.00     0.031 A 
ATOM     44  C   UNL A   1      42.044  31.223  29.746  1.00  0.00     0.074 A 
ATOM     45  C   UNL A   1      40.825  29.097  29.558  1.00  0.00     0.049 A 
ATOM     46  N   UNL A   1      43.153  30.947  29.107  1.00  0.00    -0.248 NA
ATOM     47  C   UNL A   1      42.045  32.535  30.414  1.00  0.00     0.031 C 
ATOM     48  C   UNL A   1      39.726  28.147  29.719  1.00  0.00     0.029 A 
ATOM     49  N   UNL A   1      41.832  28.348  28.994  1.00  0.00    -0.354 N 
ATOM     50  C   UNL A   1      43.962  32.067  29.247  1.00  0.00     0.074 A 
ATOM     51  C   UNL A   1      43.218  33.027  30.037  1.00  0.00     0.031 C 
ATOM     52  C   UNL A   1      40.112  26.948  29.257  1.00  0.00     0.029 A 
ATOM     53  C   UNL A   1      41.451  27.065  28.687  1.00  0.00     0.049 A 
ATOM     54  H   UNL A   1      42.737  28.698  28.826  1.00  0.00     0.167 HD
ATOM     55  C   UNL A   1      45.206  32.278  28.752  1.00  0.00     0.037 A 
ATOM     56  C   UNL A   1      42.072  26.108  27.971  1.00  0.00     0.037 A 
ATOM     57  C   UNL A   1      45.960  31.309  27.995  1.00  0.00     0.049 A 
ATOM     58  C   UNL A   1      43.412  26.393  27.351  1.00  0.00     0.074 A 
ATOM     59  C   UNL A   1      47.229  31.433  27.456  1.00  0.00     0.029 A 
ATOM     60  N   UNL A   1      45.517  30.034  27.678  1.00  0.00    -0.354 N 
ATOM     61  N   UNL A   1      44.146  27.477  27.426  1.00  0.00    -0.248 NA
ATOM     62  C   UNL A   1      44.001  25.327  26.526  1.00  0.00     0.031 C 
ATOM     63  C   UNL A   1      47.536  30.250  26.775  1.00  0.00     0.029 A 
ATOM     64  C   UNL A   1      46.478  29.370  26.932  1.00  0.00     0.049 A 
ATOM     65  H   UNL A   1      44.647  29.656  27.943  1.00  0.00     0.167 HD
ATOM     66  C   UNL A   1      45.288  27.216  26.678  1.00  0.00     0.074 A 
ATOM     67  C   UNL A   1      45.158  25.867  26.171  1.00  0.00     0.031 C 
ATOM     68  C   UNL A   1      46.346  28.026  26.433  1.00  0.00     0.037 A 
BRANCH  55  69
ATOM     69  C   UNL A   1      45.822  33.630  28.969  1.00  0.00     0.057 A 
ATOM     70  C   UNL A   1      46.648  33.908  30.065  1.00  0.00     0.134 A 
ATOM     71  C   UNL A   1      45.620  34.655  28.035  1.00  0.00     0.134 A 
ATOM     72  F   UNL A   1      46.871  32.976  31.004  1.00  0.00    -0.206 F 
ATOM     73  C   UNL A   1      47.237  35.163  30.232  1.00  0.00     0.040 A 
ATOM     74  C   UNL A   1      46.224  35.905  28.178  1.00  0.00     0.040 A 
ATOM     75  F   UNL A   1      44.846  34.453  26.958  1.00  0.00    -0.206 F 
ATOM     76  C   UNL A   1      47.031  36.164  29.283  1.00  0.00     0.006 A 
ENDBRANCH  55  69
BRANCH  56  77
ATOM     77  C   UNL A   1      41.403  24.801  27.742  1.00  0.00     0.057 A 
ATOM     78  C   UNL A   1      41.789  23.659  28.451  1.00  0.00     0.134 A 
ATOM     79  C   UNL A   1      40.374  24.661  26.802  1.00  0.00     0.134 A 
ATOM     80  F   UNL A   1      42.790  23.722  29.341  1.00  0.00    -0.206 F 
ATOM     81  C   UNL A   1      41.182  22.421  28.227  1.00  0.00     0.040 A 
ATOM     82  C   UNL A   1      39.738  23.438  26.590  1.00  0.00     0.040 A 
ATOM     83  F   UNL A   1      39.962  25.717  26.085  1.00  0.00    -0.206 F 
ATOM     84  C   UNL A   1      40.147  22.311  27.300  1.00  0.00     0.006 A 
ENDBRANCH  56  77
BRANCH  68  85
ATOM     85  C   UNL A   1      47.469  27.461  25.611  1.00  0.00     0.057 A 
ATOM     86  C   UNL A   1      48.528  26.752  26.192  1.00  0.00     0.134 A 
ATOM     87  C   UNL A   1      47.477  27.609  24.218  1.00  0.00     0.134 A 
ATOM     88  F   UNL A   1      48.586  26.587  27.522  1.00  0.00    -0.206 F 
ATOM     89  C   UNL A   1      49.566  26.228  25.419  1.00  0.00     0.040 A 
ATOM     90  C   UNL A   1      48.497  27.069  23.433  1.00  0.00     0.040 A 
ATOM     91  F   UNL A   1      46.490  28.273  23.597  1.00  0.00    -0.206 F 
ATOM     92  C   UNL A   1      49.548  26.382  24.034  1.00  0.00     0.006 A 
ENDBRANCH  68  85
ENDBRANCH  42  43
ENDBRANCH  35  37
ENDBRANCH  34  35
ENDBRANCH  33  34
ENDBRANCH  32  33
ENDBRANCH  31  32
ENDBRANCH  30  31
ENDBRANCH   1  30
TORSDOF 21
ENDMDL
MODEL 3
REMARK VINA RESULT:     -10.8      3.808      9.462
REMARK SMILES CCc1ccc2[nH]c(C(=O)c3cc(C)ccn3)c(CC(=O)OCCOCCOCCOC(=O)c3ccc(-c4c5nc(c(-c6c(F)cccc6F)c6ccc([nH]6)c(-c6c(F)cccc6F)c6nc(c(-c7c(F)cccc7F)c7ccc4[nH]7)C=C6)C=C5)cc3)c2c1
REMARK SMILES IDX 26 1 25 2 24 3 23 4 22 5 20 6 21 7 19 8 18 9 3 10 4 11 89 12
REMARK SMILES IDX 5 13 88 14 6 15 7 16 8 17 2 19 1 20 9 21 10 22 11 23 12 24
REMARK SMILES IDX 17 25 13 26 16 27 14 28 15 29 27 30 28 31 29 32 30 33 31 34
REMARK SMILES IDX 32 35 33 36 34 37 35 38 87 39 36 40 86 41 37 42 38 43 39 44
REMARK SMILES IDX 80 45 40 46 85 47 79 48 81 49 41 50 84 51 78 52 77 53 42 55
REMARK SMILES IDX 68 56 51 57 67 58 52 59 55 60 66 61 82 62 53 63 54 64 65 66
REMARK SMILES IDX 83 67 56 68 43 69 44 70 49 71 45 72 46 73 48 74 50 75 47 76
REMARK SMILES IDX 69 77 70 78 75 79 71 80 72 81 74 82 76 83 73 84 57 85 58 86
REMARK SMILES IDX 63 87 59 88 60 89 62 90 64 91 61 92
REMARK H PARENT 7 18 81 54 55 65
REMARK Flexibility Score: inf
ROOT
ATOM      1  C   UNL A   1      40.063  21.375  26.196  1.00  0.00     0.188 C 
ENDROOT
BRANCH   1   2
ATOM      2  O   UNL A   1      38.903  22.183  26.009  1.00  0.00    -0.376 OA
BRANCH   2   3
ATOM      3  C   UNL A   1      37.668  21.532  25.742  1.00  0.00     0.202 C 
BRANCH   3   4
ATOM      4  C   UNL A   1      37.116  21.717  24.322  1.00  0.00     0.261 C 
BRANCH   4   5
ATOM      5  O   UNL A   1      37.035  23.109  23.945  1.00  0.00    -0.463 OA
BRANCH   5   6
ATOM      6  C   UNL A   1      35.815  23.703  24.025  1.00  0.00     0.310 C 
ATOM      7  O   UNL A   1      34.953  23.595  23.158  1.00  0.00    -0.252 OA
BRANCH   6   8
ATOM      8  C   UNL A   1      35.525  24.359  25.372  1.00  0.00     0.161 C 
BRANCH   8   9
ATOM      9  C   UNL A   1      34.100  24.406  25.870  1.00  0.00     0.000 A 
ATOM     10  C   UNL A   1      31.958  27.212  24.368  1.00  0.00    -0.048 A 
ATOM     11  C   UNL A   1      30.766  26.812  24.984  1.00  0.00     0.006 A 
ATOM     12  C   UNL A   1      33.159  26.546  24.691  1.00  0.00     0.014 A 
ATOM     13  C   UNL A   1      30.729  25.745  25.886  1.00  0.00     0.027 A 
ATOM     14  C   UNL A   1      33.134  25.416  25.532  1.00  0.00     0.004 A 
ATOM     15  C   UNL A   1      31.920  25.053  26.106  1.00  0.00     0.046 A 
ATOM     16  N   UNL A   1      32.153  23.919  26.839  1.00  0.00    -0.352 N 
ATOM     17  C   UNL A   1      33.357  23.369  26.456  1.00  0.00     0.093 A 
ATOM     18  H   UNL A   1      31.554  23.554  27.530  1.00  0.00     0.167 HD
BRANCH  10  19
ATOM     19  C   UNL A   1      32.024  28.298  23.315  1.00  0.00     0.032 C 
ATOM     20  C   UNL A   1      33.401  28.629  22.757  1.00  0.00     0.009 C 
ENDBRANCH  10  19
BRANCH  17  21
ATOM     21  C   UNL A   1      33.658  21.950  26.577  1.00  0.00     0.227 C 
ATOM     22  O   UNL A   1      34.193  21.457  27.566  1.00  0.00    -0.285 OA
BRANCH  21  23
ATOM     23  C   UNL A   1      33.373  21.054  25.416  1.00  0.00     0.113 A 
ATOM     24  C   UNL A   1      33.956  19.793  25.337  1.00  0.00     0.036 A 
ATOM     25  N   UNL A   1      32.512  21.552  24.492  1.00  0.00    -0.253 NA
ATOM     26  C   UNL A   1      33.612  18.973  24.256  1.00  0.00    -0.047 A 
ATOM     27  C   UNL A   1      32.154  20.714  23.495  1.00  0.00     0.112 A 
ATOM     28  C   UNL A   1      34.234  17.623  24.051  1.00  0.00     0.044 C 
ATOM     29  C   UNL A   1      32.665  19.437  23.339  1.00  0.00     0.023 A 
ENDBRANCH  21  23
ENDBRANCH  17  21
ENDBRANCH   8   9
ENDBRANCH   6   8
ENDBRANCH   5   6
ENDBRANCH   4   5
ENDBRANCH   3   4
ENDBRANCH   2   3
ENDBRANCH   1   2
BRANCH   1  30
ATOM     30  C   UNL A   1      41.446  22.054  26.300  1.00  0.00     0.188 C 
BRANCH  30  31
ATOM     31  O   UNL A   1      42.389  21.564  25.356  1.00  0.00    -0.376 OA
BRANCH  31  32
ATOM     32  C   UNL A   1      43.720  22.007  25.577  1.00  0.00     0.202 C 
BRANCH  32  33
ATOM     33  C   UNL A   1      44.178  22.964  24.479  1.00  0.00     0.261 C 
BRANCH  33  34
ATOM     34  O   UNL A   1      43.580  24.269  24.639  1.00  0.00    -0.460 OA
BRANCH  34  35
ATOM     35  C   UNL A   1      44.350  25.259  25.124  1.00  0.00     0.338 C 
ATOM     36  O   UNL A   1      45.484  25.549  24.749  1.00  0.00    -0.246 OA
BRANCH  35  37
ATOM     37  C   UNL A   1      43.666  25.948  26.243  1.00  0.00     0.060 A 
ATOM     38  C   UNL A   1      43.972  27.261  26.616  1.00  0.00     0.016 A 
ATOM     39  C   UNL A   1      42.749  25.227  27.004  1.00  0.00     0.016 A 
ATOM     40  C   UNL A   1      43.414  27.829  27.766  1.00  0.00     0.010 A 
ATOM     41  C   UNL A   1      42.138  25.820  28.117  1.00  0.00     0.010 A 
ATOM     42  C   UNL A   1      42.476  27.123  28.525  1.00  0.00    -0.014 A 
BRANCH  42  43
ATOM     43  C   UNL A   1      41.851  27.700  29.748  1.00  0.00     0.031 A 
ATOM     44  C   UNL A   1      40.602  28.532  29.631  1.00  0.00     0.074 A 
ATOM     45  C   UNL A   1      42.413  27.539  30.963  1.00  0.00     0.049 A 
ATOM     46  N   UNL A   1      40.075  29.369  30.488  1.00  0.00    -0.248 NA
ATOM     47  C   UNL A   1      39.852  28.408  28.371  1.00  0.00     0.031 C 
ATOM     48  C   UNL A   1      43.567  26.694  31.263  1.00  0.00     0.029 A 
ATOM     49  N   UNL A   1      42.097  28.111  32.174  1.00  0.00    -0.354 N 
ATOM     50  C   UNL A   1      38.965  29.914  29.856  1.00  0.00     0.074 A 
ATOM     51  C   UNL A   1      38.891  29.307  28.542  1.00  0.00     0.031 C 
ATOM     52  C   UNL A   1      43.868  26.808  32.566  1.00  0.00     0.029 A 
ATOM     53  C   UNL A   1      42.987  27.801  33.172  1.00  0.00     0.049 A 
ATOM     54  H   UNL A   1      41.310  28.687  32.310  1.00  0.00     0.167 HD
ATOM     55  C   UNL A   1      38.095  30.841  30.325  1.00  0.00     0.037 A 
ATOM     56  C   UNL A   1      43.127  28.302  34.415  1.00  0.00     0.037 A 
ATOM     57  C   UNL A   1      38.149  31.418  31.645  1.00  0.00     0.049 A 
ATOM     58  C   UNL A   1      42.210  29.397  34.885  1.00  0.00     0.074 A 
ATOM     59  C   UNL A   1      37.308  32.363  32.209  1.00  0.00     0.029 A 
ATOM     60  N   UNL A   1      39.092  31.099  32.610  1.00  0.00    -0.354 N 
ATOM     61  N   UNL A   1      41.204  29.960  34.261  1.00  0.00    -0.248 NA
ATOM     62  C   UNL A   1      42.464  29.944  36.227  1.00  0.00     0.031 C 
ATOM     63  C   UNL A   1      37.768  32.648  33.499  1.00  0.00     0.029 A 
ATOM     64  C   UNL A   1      38.866  31.844  33.757  1.00  0.00     0.049 A 
ATOM     65  H   UNL A   1      39.815  30.440  32.498  1.00  0.00     0.167 HD
ATOM     66  C   UNL A   1      40.694  30.909  35.139  1.00  0.00     0.074 A 
ATOM     67  C   UNL A   1      41.491  30.835  36.345  1.00  0.00     0.031 C 
ATOM     68  C   UNL A   1      39.659  31.765  34.957  1.00  0.00     0.037 A 
BRANCH  55  69
ATOM     69  C   UNL A   1      37.030  31.333  29.388  1.00  0.00     0.057 A 
ATOM     70  C   UNL A   1      35.899  30.570  29.074  1.00  0.00     0.134 A 
ATOM     71  C   UNL A   1      37.119  32.616  28.832  1.00  0.00     0.134 A 
ATOM     72  F   UNL A   1      35.759  29.328  29.562  1.00  0.00    -0.206 F 
ATOM     73  C   UNL A   1      34.903  31.058  28.225  1.00  0.00     0.040 A 
ATOM     74  C   UNL A   1      36.118  33.125  28.002  1.00  0.00     0.040 A 
ATOM     75  F   UNL A   1      38.172  33.403  29.096  1.00  0.00    -0.206 F 
ATOM     76  C   UNL A   1      35.008  32.343  27.693  1.00  0.00     0.006 A 
ENDBRANCH  55  69
BRANCH  56  77
ATOM     77  C   UNL A   1      44.226  27.817  35.290  1.00  0.00     0.057 A 
ATOM     78  C   UNL A   1      44.064  26.682  36.091  1.00  0.00     0.134 A 
ATOM     79  C   UNL A   1      45.456  28.485  35.357  1.00  0.00     0.134 A 
ATOM     80  F   UNL A   1      42.898  26.020  36.096  1.00  0.00    -0.206 F 
ATOM     81  C   UNL A   1      45.083  26.233  36.935  1.00  0.00     0.040 A 
ATOM     82  C   UNL A   1      46.493  28.029  36.171  1.00  0.00     0.040 A 
ATOM     83  F   UNL A   1      45.673  29.583  34.618  1.00  0.00    -0.206 F 
ATOM     84  C   UNL A   1      46.304  26.902  36.968  1.00  0.00     0.006 A 
ENDBRANCH  56  77
BRANCH  68  85
ATOM     85  C   UNL A   1      39.302  32.665  36.104  1.00  0.00     0.057 A 
ATOM     86  C   UNL A   1      39.869  33.938  36.251  1.00  0.00     0.134 A 
ATOM     87  C   UNL A   1      38.361  32.263  37.060  1.00  0.00     0.134 A 
ATOM     88  F   UNL A   1      40.787  34.377  35.378  1.00  0.00    -0.206 F 
ATOM     89  C   UNL A   1      39.529  34.769  37.320  1.00  0.00     0.040 A 
ATOM     90  C   UNL A   1      37.995  33.095  38.120  1.00  0.00     0.040 A 
ATOM     91  F   UNL A   1      37.775  31.059  36.976  1.00  0.00    -0.206 F 
ATOM     92  C   UNL A   1      38.584  34.350  38.255  1.00  0.00     0.006 A 
ENDBRANCH  68  85
ENDBRANCH  42  43
ENDBRANCH  35  37
ENDBRANCH  34  35
ENDBRANCH  33  34
ENDBRANCH  32  33
ENDBRANCH  31  32
ENDBRANCH  30  31
ENDBRANCH   1  30
TORSDOF 21
ENDMDL
