MODEL 1
REMARK VINA RESULT:     -11.7      0.000      0.000
REMARK SMILES CS(=O)(=O)c1ccc(-c2cc(Cl)cc3c2O[C@H](C(F)(F)F)C(C(=O)OCCOCCOCCOC(=O)c2ccc(-c4c5nc(c(-c6c(F)cccc6F)c6ccc([nH]6)c(-c6c(F)cccc6F)c6nc(c(-c7c(F)cccc7F)c7ccc4[nH]7)C=C6)C=C5)cc2)=C3)cc1
REMARK SMILES IDX 29 1 28 2 27 3 26 4 25 5 23 6 24 7 22 8 9 9 10 10 15 11
REMARK SMILES IDX 11 12 14 13 16 14 12 15 13 16 91 17 17 18 8 19 5 20 6 21
REMARK SMILES IDX 93 22 7 23 92 24 2 25 1 26 3 27 4 28 18 29 19 30 20 31 21 32
REMARK SMILES IDX 30 33 31 34 32 35 33 36 34 37 35 38 36 39 37 40 38 41 90 42
REMARK SMILES IDX 39 43 89 44 40 45 41 46 42 47 83 48 43 49 88 50 82 51 84 52
REMARK SMILES IDX 44 53 87 54 81 55 80 56 45 58 71 59 54 60 70 61 55 62 58 63
REMARK SMILES IDX 69 64 85 65 56 66 57 67 68 69 86 70 59 71 46 72 47 73 52 74
REMARK SMILES IDX 48 75 49 76 51 77 53 78 50 79 72 80 73 81 78 82 74 83 75 84
REMARK SMILES IDX 77 85 79 86 76 87 60 88 61 89 66 90 62 91 63 92 65 93 67 94
REMARK SMILES IDX 64 95
REMARK H PARENT 84 57 58 68
REMARK Flexibility Score: inf
ROOT
ATOM      1  C   UNL A   1      30.778  24.487  25.852  1.00  0.00     0.188 C 
ENDROOT
BRANCH   1   2
ATOM      2  O   UNL A   1      31.485  24.423  27.075  1.00  0.00    -0.376 OA
BRANCH   2   3
ATOM      3  C   UNL A   1      31.938  23.133  27.481  1.00  0.00     0.202 C 
BRANCH   3   4
ATOM      4  C   UNL A   1      33.045  22.484  26.631  1.00  0.00     0.261 C 
BRANCH   4   5
ATOM      5  O   UNL A   1      34.374  22.966  26.968  1.00  0.00    -0.460 OA
BRANCH   5   6
ATOM      6  C   UNL A   1      35.016  23.633  25.985  1.00  0.00     0.338 C 
ATOM      7  O   UNL A   1      34.827  24.813  25.719  1.00  0.00    -0.246 OA
BRANCH   6   8
ATOM      8  C   UNL A   1      36.082  22.821  25.328  1.00  0.00     0.087 C 
ATOM      9  C   UNL A   1      39.893  22.336  26.901  1.00  0.00     0.026 A 
ATOM     10  C   UNL A   1      40.022  23.451  27.764  1.00  0.00     0.033 A 
ATOM     11  C   UNL A   1      38.739  22.353  26.098  1.00  0.00     0.135 A 
ATOM     12  C   UNL A   1      39.183  24.565  27.722  1.00  0.00     0.042 A 
ATOM     13  C   UNL A   1      38.087  23.586  25.870  1.00  0.00     0.019 A 
ATOM     14  O   UNL A   1      38.045  21.233  25.633  1.00  0.00    -0.475 OA
ATOM     15  Cl  UNL A   1      39.320  25.838  28.862  1.00  0.00    -0.084 Cl
ATOM     16  C   UNL A   1      38.263  24.675  26.708  1.00  0.00     0.032 A 
ATOM     17  C   UNL A   1      37.036  23.623  24.833  1.00  0.00     0.027 C 
ATOM     18  C   UNL A   1      36.536  21.430  25.763  1.00  0.00     0.316 C 
BRANCH   9  19
ATOM     19  C   UNL A   1      41.153  21.526  26.792  1.00  0.00    -0.015 A 
ATOM     20  C   UNL A   1      43.353  20.113  25.584  1.00  0.00     0.067 A 
ATOM     21  C   UNL A   1      43.486  21.454  25.916  1.00  0.00     0.021 A 
ATOM     22  C   UNL A   1      42.148  19.462  25.874  1.00  0.00     0.021 A 
ATOM     23  C   UNL A   1      42.398  22.130  26.512  1.00  0.00     0.010 A 
ATOM     24  C   UNL A   1      41.073  20.155  26.479  1.00  0.00     0.010 A 
BRANCH  20  25
ATOM     25  S   UNL A   1      44.661  19.199  24.774  1.00  0.00     0.175 S 
ATOM     26  C   UNL A   1      46.194  20.035  25.062  1.00  0.00     0.163 C 
ATOM     27  O   UNL A   1      44.399  19.276  23.348  1.00  0.00    -0.224 OA
ATOM     28  O   UNL A   1      44.723  17.914  25.443  1.00  0.00    -0.224 OA
ENDBRANCH  20  25
ENDBRANCH   9  19
BRANCH  18  29
ATOM     29  C   UNL A   1      35.726  20.404  24.958  1.00  0.00     0.430 C 
ATOM     30  F   UNL A   1      36.486  19.359  24.557  1.00  0.00    -0.167 F 
ATOM     31  F   UNL A   1      34.680  19.917  25.658  1.00  0.00    -0.167 F 
ATOM     32  F   UNL A   1      35.214  20.976  23.836  1.00  0.00    -0.167 F 
ENDBRANCH  18  29
ENDBRANCH   6   8
ENDBRANCH   5   6
ENDBRANCH   4   5
ENDBRANCH   3   4
ENDBRANCH   2   3
ENDBRANCH   1   2
BRANCH   1  33
ATOM     33  C   UNL A   1      30.567  25.918  25.309  1.00  0.00     0.188 C 
BRANCH  33  34
ATOM     34  O   UNL A   1      31.618  26.868  25.384  1.00  0.00    -0.376 OA
BRANCH  34  35
ATOM     35  C   UNL A   1      31.484  28.106  24.695  1.00  0.00     0.202 C 
BRANCH  35  36
ATOM     36  C   UNL A   1      31.648  29.427  25.462  1.00  0.00     0.261 C 
BRANCH  36  37
ATOM     37  O   UNL A   1      33.006  29.823  25.741  1.00  0.00    -0.460 OA
BRANCH  37  38
ATOM     38  C   UNL A   1      33.156  30.783  26.683  1.00  0.00     0.338 C 
ATOM     39  O   UNL A   1      32.301  31.566  27.084  1.00  0.00    -0.246 OA
BRANCH  38  40
ATOM     40  C   UNL A   1      34.470  30.668  27.346  1.00  0.00     0.060 A 
ATOM     41  C   UNL A   1      34.908  29.392  27.701  1.00  0.00     0.016 A 
ATOM     42  C   UNL A   1      35.217  31.786  27.720  1.00  0.00     0.016 A 
ATOM     43  C   UNL A   1      36.089  29.239  28.429  1.00  0.00     0.010 A 
ATOM     44  C   UNL A   1      36.414  31.622  28.445  1.00  0.00     0.010 A 
ATOM     45  C   UNL A   1      36.871  30.344  28.804  1.00  0.00    -0.014 A 
BRANCH  45  46
ATOM     46  C   UNL A   1      38.078  30.160  29.669  1.00  0.00     0.031 A 
ATOM     47  C   UNL A   1      39.346  29.639  29.064  1.00  0.00     0.074 A 
ATOM     48  C   UNL A   1      38.085  30.470  30.981  1.00  0.00     0.049 A 
ATOM     49  N   UNL A   1      40.498  29.405  29.640  1.00  0.00    -0.248 NA
ATOM     50  C   UNL A   1      39.303  29.320  27.632  1.00  0.00     0.031 C 
ATOM     51  C   UNL A   1      36.941  30.993  31.706  1.00  0.00     0.029 A 
ATOM     52  N   UNL A   1      39.090  30.449  31.928  1.00  0.00    -0.354 N 
ATOM     53  C   UNL A   1      41.288  28.816  28.663  1.00  0.00     0.074 A 
ATOM     54  C   UNL A   1      40.509  28.807  27.442  1.00  0.00     0.031 C 
ATOM     55  C   UNL A   1      37.336  31.382  32.931  1.00  0.00     0.029 A 
ATOM     56  C   UNL A   1      38.738  31.036  33.126  1.00  0.00     0.049 A 
ATOM     57  H   UNL A   1      39.975  30.052  31.762  1.00  0.00     0.167 HD
ATOM     58  C   UNL A   1      42.524  28.278  28.789  1.00  0.00     0.037 A 
ATOM     59  C   UNL A   1      39.452  31.266  34.251  1.00  0.00     0.037 A 
ATOM     60  C   UNL A   1      43.298  28.272  30.002  1.00  0.00     0.049 A 
ATOM     61  C   UNL A   1      40.834  30.676  34.369  1.00  0.00     0.074 A 
ATOM     62  C   UNL A   1      44.590  27.813  30.187  1.00  0.00     0.029 A 
ATOM     63  N   UNL A   1      42.853  28.713  31.239  1.00  0.00    -0.354 N 
ATOM     64  N   UNL A   1      41.517  30.005  33.473  1.00  0.00    -0.248 NA
ATOM     65  C   UNL A   1      41.527  30.824  35.658  1.00  0.00     0.031 C 
ATOM     66  C   UNL A   1      44.910  27.933  31.543  1.00  0.00     0.029 A 
ATOM     67  C   UNL A   1      43.851  28.551  32.188  1.00  0.00     0.049 A 
ATOM     68  H   UNL A   1      41.959  29.086  31.417  1.00  0.00     0.167 HD
ATOM     69  C   UNL A   1      42.716  29.661  34.084  1.00  0.00     0.074 A 
ATOM     70  C   UNL A   1      42.672  30.198  35.427  1.00  0.00     0.031 C 
ATOM     71  C   UNL A   1      43.766  28.983  33.561  1.00  0.00     0.037 A 
BRANCH  58  72
ATOM     72  C   UNL A   1      43.077  27.563  27.592  1.00  0.00     0.057 A 
ATOM     73  C   UNL A   1      43.030  26.169  27.457  1.00  0.00     0.134 A 
ATOM     74  C   UNL A   1      43.673  28.295  26.556  1.00  0.00     0.134 A 
ATOM     75  F   UNL A   1      42.490  25.412  28.424  1.00  0.00    -0.206 F 
ATOM     76  C   UNL A   1      43.588  25.528  26.350  1.00  0.00     0.040 A 
ATOM     77  C   UNL A   1      44.206  27.667  25.431  1.00  0.00     0.040 A 
ATOM     78  F   UNL A   1      43.748  29.632  26.624  1.00  0.00    -0.206 F 
ATOM     79  C   UNL A   1      44.173  26.278  25.331  1.00  0.00     0.006 A 
ENDBRANCH  58  72
BRANCH  59  80
ATOM     80  C   UNL A   1      38.902  32.100  35.362  1.00  0.00     0.057 A 
ATOM     81  C   UNL A   1      39.064  33.495  35.351  1.00  0.00     0.134 A 
ATOM     82  C   UNL A   1      38.234  31.554  36.463  1.00  0.00     0.134 A 
ATOM     83  F   UNL A   1      39.721  34.085  34.344  1.00  0.00    -0.206 F 
ATOM     84  C   UNL A   1      38.598  34.305  36.390  1.00  0.00     0.040 A 
ATOM     85  C   UNL A   1      37.725  32.356  37.489  1.00  0.00     0.040 A 
ATOM     86  F   UNL A   1      38.051  30.229  36.554  1.00  0.00    -0.206 F 
ATOM     87  C   UNL A   1      37.915  33.736  37.459  1.00  0.00     0.006 A 
ENDBRANCH  59  80
BRANCH  71  88
ATOM     88  C   UNL A   1      44.946  28.732  34.457  1.00  0.00     0.057 A 
ATOM     89  C   UNL A   1      45.065  27.559  35.213  1.00  0.00     0.134 A 
ATOM     90  C   UNL A   1      46.002  29.650  34.520  1.00  0.00     0.134 A 
ATOM     91  F   UNL A   1      44.083  26.645  35.211  1.00  0.00    -0.206 F 
ATOM     92  C   UNL A   1      46.191  27.311  36.003  1.00  0.00     0.040 A 
ATOM     93  C   UNL A   1      47.143  29.402  35.284  1.00  0.00     0.040 A 
ATOM     94  F   UNL A   1      45.950  30.795  33.821  1.00  0.00    -0.206 F 
ATOM     95  C   UNL A   1      47.238  28.230  36.030  1.00  0.00     0.006 A 
ENDBRANCH  71  88
ENDBRANCH  45  46
ENDBRANCH  38  40
ENDBRANCH  37  38
ENDBRANCH  36  37
ENDBRANCH  35  36
ENDBRANCH  34  35
ENDBRANCH  33  34
ENDBRANCH   1  33
TORSDOF 20
ENDMDL
MODEL 2
REMARK VINA RESULT:     -11.5      0.537      5.766
REMARK SMILES CS(=O)(=O)c1ccc(-c2cc(Cl)cc3c2O[C@H](C(F)(F)F)C(C(=O)OCCOCCOCCOC(=O)c2ccc(-c4c5nc(c(-c6c(F)cccc6F)c6ccc([nH]6)c(-c6c(F)cccc6F)c6nc(c(-c7c(F)cccc7F)c7ccc4[nH]7)C=C6)C=C5)cc2)=C3)cc1
REMARK SMILES IDX 29 1 28 2 27 3 26 4 25 5 23 6 24 7 22 8 9 9 10 10 15 11
REMARK SMILES IDX 11 12 14 13 16 14 12 15 13 16 91 17 17 18 8 19 5 20 6 21
REMARK SMILES IDX 93 22 7 23 92 24 2 25 1 26 3 27 4 28 18 29 19 30 20 31 21 32
REMARK SMILES IDX 30 33 31 34 32 35 33 36 34 37 35 38 36 39 37 40 38 41 90 42
REMARK SMILES IDX 39 43 89 44 40 45 41 46 42 47 83 48 43 49 88 50 82 51 84 52
REMARK SMILES IDX 44 53 87 54 81 55 80 56 45 58 71 59 54 60 70 61 55 62 58 63
REMARK SMILES IDX 69 64 85 65 56 66 57 67 68 69 86 70 59 71 46 72 47 73 52 74
REMARK SMILES IDX 48 75 49 76 51 77 53 78 50 79 72 80 73 81 78 82 74 83 75 84
REMARK SMILES IDX 77 85 79 86 76 87 60 88 61 89 66 90 62 91 63 92 65 93 67 94
REMARK SMILES IDX 64 95
REMARK H PARENT 84 57 58 68
REMARK Flexibility Score: inf
ROOT
ATOM      1  C   UNL A   1      31.045  24.547  25.484  1.00  0.00     0.188 C 
ENDROOT
BRANCH   1   2
ATOM      2  O   UNL A   1      31.247  24.389  26.874  1.00  0.00    -0.376 OA
BRANCH   2   3
ATOM      3  C   UNL A   1      31.839  23.161  27.295  1.00  0.00     0.202 C 
BRANCH   3   4
ATOM      4  C   UNL A   1      33.006  22.624  26.447  1.00  0.00     0.261 C 
BRANCH   4   5
ATOM      5  O   UNL A   1      34.302  23.102  26.900  1.00  0.00    -0.460 OA
BRANCH   5   6
ATOM      6  C   UNL A   1      35.034  23.759  25.975  1.00  0.00     0.338 C 
ATOM      7  O   UNL A   1      34.940  24.959  25.749  1.00  0.00    -0.246 OA
BRANCH   6   8
ATOM      8  C   UNL A   1      36.071  22.899  25.331  1.00  0.00     0.087 C 
ATOM      9  C   UNL A   1      39.869  22.324  26.902  1.00  0.00     0.026 A 
ATOM     10  C   UNL A   1      40.038  23.452  27.741  1.00  0.00     0.033 A 
ATOM     11  C   UNL A   1      38.714  22.361  26.103  1.00  0.00     0.135 A 
ATOM     12  C   UNL A   1      39.236  24.591  27.677  1.00  0.00     0.042 A 
ATOM     13  C   UNL A   1      38.101  23.609  25.850  1.00  0.00     0.019 A 
ATOM     14  O   UNL A   1      37.982  21.254  25.664  1.00  0.00    -0.475 OA
ATOM     15  Cl  UNL A   1      39.418  25.884  28.790  1.00  0.00    -0.084 Cl
ATOM     16  C   UNL A   1      38.315  24.710  26.664  1.00  0.00     0.032 A 
ATOM     17  C   UNL A   1      37.048  23.658  24.816  1.00  0.00     0.027 C 
ATOM     18  C   UNL A   1      36.480  21.504  25.795  1.00  0.00     0.316 C 
BRANCH   9  19
ATOM     19  C   UNL A   1      41.102  21.471  26.807  1.00  0.00    -0.015 A 
ATOM     20  C   UNL A   1      43.322  20.065  25.628  1.00  0.00     0.067 A 
ATOM     21  C   UNL A   1      43.484  21.368  26.078  1.00  0.00     0.021 A 
ATOM     22  C   UNL A   1      42.077  19.446  25.786  1.00  0.00     0.021 A 
ATOM     23  C   UNL A   1      42.385  22.041  26.657  1.00  0.00     0.010 A 
ATOM     24  C   UNL A   1      40.991  20.135  26.377  1.00  0.00     0.010 A 
BRANCH  20  25
ATOM     25  S   UNL A   1      44.646  19.163  24.830  1.00  0.00     0.175 S 
ATOM     26  C   UNL A   1      46.151  20.071  25.036  1.00  0.00     0.163 C 
ATOM     27  O   UNL A   1      44.346  19.158  23.409  1.00  0.00    -0.224 OA
ATOM     28  O   UNL A   1      44.775  17.916  25.559  1.00  0.00    -0.224 OA
ENDBRANCH  20  25
ENDBRANCH   9  19
BRANCH  18  29
ATOM     29  C   UNL A   1      35.635  20.487  25.014  1.00  0.00     0.430 C 
ATOM     30  F   UNL A   1      34.640  19.967  25.769  1.00  0.00    -0.167 F 
ATOM     31  F   UNL A   1      35.082  21.028  23.908  1.00  0.00    -0.167 F 
ATOM     32  F   UNL A   1      36.404  19.447  24.599  1.00  0.00    -0.167 F 
ENDBRANCH  18  29
ENDBRANCH   6   8
ENDBRANCH   5   6
ENDBRANCH   4   5
ENDBRANCH   3   4
ENDBRANCH   2   3
ENDBRANCH   1   2
BRANCH   1  33
ATOM     33  C   UNL A   1      30.732  25.994  25.043  1.00  0.00     0.188 C 
BRANCH  33  34
ATOM     34  O   UNL A   1      31.556  27.063  25.481  1.00  0.00    -0.376 OA
BRANCH  34  35
ATOM     35  C   UNL A   1      31.669  28.228  24.671  1.00  0.00     0.202 C 
BRANCH  35  36
ATOM     36  C   UNL A   1      31.797  29.608  25.334  1.00  0.00     0.261 C 
BRANCH  36  37
ATOM     37  O   UNL A   1      32.521  29.638  26.581  1.00  0.00    -0.460 OA
BRANCH  37  38
ATOM     38  C   UNL A   1      32.975  30.853  26.967  1.00  0.00     0.338 C 
ATOM     39  O   UNL A   1      32.330  31.893  27.044  1.00  0.00    -0.246 OA
BRANCH  38  40
ATOM     40  C   UNL A   1      34.353  30.757  27.486  1.00  0.00     0.060 A 
ATOM     41  C   UNL A   1      34.851  29.486  27.775  1.00  0.00     0.016 A 
ATOM     42  C   UNL A   1      35.114  31.885  27.796  1.00  0.00     0.016 A 
ATOM     43  C   UNL A   1      36.105  29.349  28.372  1.00  0.00     0.010 A 
ATOM     44  C   UNL A   1      36.383  31.738  28.390  1.00  0.00     0.010 A 
ATOM     45  C   UNL A   1      36.900  30.465  28.680  1.00  0.00    -0.014 A 
BRANCH  45  46
ATOM     46  C   UNL A   1      38.195  30.295  29.411  1.00  0.00     0.031 A 
ATOM     47  C   UNL A   1      38.273  30.649  30.865  1.00  0.00     0.074 A 
ATOM     48  C   UNL A   1      39.303  29.806  28.819  1.00  0.00     0.049 A 
ATOM     49  N   UNL A   1      39.298  30.578  31.676  1.00  0.00    -0.248 NA
ATOM     50  C   UNL A   1      37.046  31.171  31.476  1.00  0.00     0.031 C 
ATOM     51  C   UNL A   1      39.381  29.409  27.425  1.00  0.00     0.029 A 
ATOM     52  N   UNL A   1      40.555  29.502  29.315  1.00  0.00    -0.354 N 
ATOM     53  C   UNL A   1      38.867  31.141  32.868  1.00  0.00     0.074 A 
ATOM     54  C   UNL A   1      37.467  31.470  32.696  1.00  0.00     0.031 C 
ATOM     55  C   UNL A   1      40.551  28.782  27.209  1.00  0.00     0.029 A 
ATOM     56  C   UNL A   1      41.360  28.827  28.420  1.00  0.00     0.049 A 
ATOM     57  H   UNL A   1      40.846  29.746  30.223  1.00  0.00     0.167 HD
ATOM     58  C   UNL A   1      39.588  31.413  33.981  1.00  0.00     0.037 A 
ATOM     59  C   UNL A   1      42.603  28.310  28.551  1.00  0.00     0.037 A 
ATOM     60  C   UNL A   1      40.983  31.102  34.154  1.00  0.00     0.049 A 
ATOM     61  C   UNL A   1      43.386  28.607  29.804  1.00  0.00     0.074 A 
ATOM     62  C   UNL A   1      41.763  31.279  35.283  1.00  0.00     0.029 A 
ATOM     63  N   UNL A   1      41.814  30.581  33.175  1.00  0.00    -0.354 N 
ATOM     64  N   UNL A   1      43.001  29.258  30.875  1.00  0.00    -0.248 NA
ATOM     65  C   UNL A   1      44.783  28.150  29.854  1.00  0.00     0.031 C 
ATOM     66  C   UNL A   1      43.075  30.909  34.974  1.00  0.00     0.029 A 
ATOM     67  C   UNL A   1      43.096  30.416  33.679  1.00  0.00     0.049 A 
ATOM     68  H   UNL A   1      41.536  30.361  32.256  1.00  0.00     0.167 HD
ATOM     69  C   UNL A   1      44.099  29.280  31.725  1.00  0.00     0.074 A 
ATOM     70  C   UNL A   1      45.167  28.576  31.050  1.00  0.00     0.031 C 
ATOM     71  C   UNL A   1      44.196  29.817  32.966  1.00  0.00     0.037 A 
BRANCH  58  72
ATOM     72  C   UNL A   1      38.893  32.175  35.070  1.00  0.00     0.057 A 
ATOM     73  C   UNL A   1      38.756  33.569  35.048  1.00  0.00     0.134 A 
ATOM     74  C   UNL A   1      38.352  31.488  36.165  1.00  0.00     0.134 A 
ATOM     75  F   UNL A   1      39.269  34.285  34.036  1.00  0.00    -0.206 F 
ATOM     76  C   UNL A   1      38.137  34.255  36.095  1.00  0.00     0.040 A 
ATOM     77  C   UNL A   1      37.705  32.160  37.202  1.00  0.00     0.040 A 
ATOM     78  F   UNL A   1      38.448  30.153  36.245  1.00  0.00    -0.206 F 
ATOM     79  C   UNL A   1      37.606  33.549  37.173  1.00  0.00     0.006 A 
ENDBRANCH  58  72
BRANCH  59  80
ATOM     80  C   UNL A   1      43.199  27.445  27.489  1.00  0.00     0.057 A 
ATOM     81  C   UNL A   1      43.848  28.021  26.385  1.00  0.00     0.134 A 
ATOM     82  C   UNL A   1      43.126  26.048  27.517  1.00  0.00     0.134 A 
ATOM     83  F   UNL A   1      43.929  29.353  26.275  1.00  0.00    -0.206 F 
ATOM     84  C   UNL A   1      44.385  27.247  25.353  1.00  0.00     0.040 A 
ATOM     85  C   UNL A   1      43.696  25.260  26.512  1.00  0.00     0.040 A 
ATOM     86  F   UNL A   1      42.511  25.424  28.531  1.00  0.00    -0.206 F 
ATOM     87  C   UNL A   1      44.320  25.859  25.421  1.00  0.00     0.006 A 
ENDBRANCH  59  80
BRANCH  71  88
ATOM     88  C   UNL A   1      45.521  29.712  33.666  1.00  0.00     0.057 A 
ATOM     89  C   UNL A   1      45.901  28.557  34.363  1.00  0.00     0.134 A 
ATOM     90  C   UNL A   1      46.452  30.757  33.593  1.00  0.00     0.134 A 
ATOM     91  F   UNL A   1      45.053  27.526  34.485  1.00  0.00    -0.206 F 
ATOM     92  C   UNL A   1      47.157  28.449  34.967  1.00  0.00     0.040 A 
ATOM     93  C   UNL A   1      47.718  30.651  34.168  1.00  0.00     0.040 A 
ATOM     94  F   UNL A   1      46.150  31.890  32.941  1.00  0.00    -0.206 F 
ATOM     95  C   UNL A   1      48.073  29.495  34.859  1.00  0.00     0.006 A 
ENDBRANCH  71  88
ENDBRANCH  45  46
ENDBRANCH  38  40
ENDBRANCH  37  38
ENDBRANCH  36  37
ENDBRANCH  35  36
ENDBRANCH  34  35
ENDBRANCH  33  34
ENDBRANCH   1  33
TORSDOF 20
ENDMDL
MODEL 3
REMARK VINA RESULT:     -11.1      4.358     10.342
REMARK SMILES CS(=O)(=O)c1ccc(-c2cc(Cl)cc3c2O[C@H](C(F)(F)F)C(C(=O)OCCOCCOCCOC(=O)c2ccc(-c4c5nc(c(-c6c(F)cccc6F)c6ccc([nH]6)c(-c6c(F)cccc6F)c6nc(c(-c7c(F)cccc7F)c7ccc4[nH]7)C=C6)C=C5)cc2)=C3)cc1
REMARK SMILES IDX 29 1 28 2 27 3 26 4 25 5 23 6 24 7 22 8 9 9 10 10 15 11
REMARK SMILES IDX 11 12 14 13 16 14 12 15 13 16 91 17 17 18 8 19 5 20 6 21
REMARK SMILES IDX 93 22 7 23 92 24 2 25 1 26 3 27 4 28 18 29 19 30 20 31 21 32
REMARK SMILES IDX 30 33 31 34 32 35 33 36 34 37 35 38 36 39 37 40 38 41 90 42
REMARK SMILES IDX 39 43 89 44 40 45 41 46 42 47 83 48 43 49 88 50 82 51 84 52
REMARK SMILES IDX 44 53 87 54 81 55 80 56 45 58 71 59 54 60 70 61 55 62 58 63
REMARK SMILES IDX 69 64 85 65 56 66 57 67 68 69 86 70 59 71 46 72 47 73 52 74
REMARK SMILES IDX 48 75 49 76 51 77 53 78 50 79 72 80 73 81 78 82 74 83 75 84
REMARK SMILES IDX 77 85 79 86 76 87 60 88 61 89 66 90 62 91 63 92 65 93 67 94
REMARK SMILES IDX 64 95
REMARK H PARENT 84 57 58 68
REMARK Flexibility Score: inf
ROOT
ATOM      1  C   UNL A   1      32.002  22.108  25.217  1.00  0.00     0.188 C 
ENDROOT
BRANCH   1   2
ATOM      2  O   UNL A   1      32.115  23.492  25.488  1.00  0.00    -0.376 OA
BRANCH   2   3
ATOM      3  C   UNL A   1      33.422  24.054  25.392  1.00  0.00     0.202 C 
BRANCH   3   4
ATOM      4  C   UNL A   1      33.541  25.430  24.712  1.00  0.00     0.261 C 
BRANCH   4   5
ATOM      5  O   UNL A   1      34.017  26.467  25.612  1.00  0.00    -0.460 OA
BRANCH   5   6
ATOM      6  C   UNL A   1      33.936  27.729  25.138  1.00  0.00     0.338 C 
ATOM      7  O   UNL A   1      34.274  28.062  24.009  1.00  0.00    -0.246 OA
BRANCH   6   8
ATOM      8  C   UNL A   1      33.268  28.667  26.088  1.00  0.00     0.087 C 
ATOM      9  C   UNL A   1      35.243  31.766  28.017  1.00  0.00     0.026 A 
ATOM     10  C   UNL A   1      36.597  31.355  27.970  1.00  0.00     0.033 A 
ATOM     11  C   UNL A   1      34.326  30.797  27.576  1.00  0.00     0.135 A 
ATOM     12  C   UNL A   1      37.002  30.053  27.676  1.00  0.00     0.042 A 
ATOM     13  C   UNL A   1      34.721  29.440  27.567  1.00  0.00     0.019 A 
ATOM     14  O   UNL A   1      33.096  31.049  26.963  1.00  0.00    -0.475 OA
ATOM     15  Cl  UNL A   1      38.659  29.638  27.527  1.00  0.00    -0.084 Cl
ATOM     16  C   UNL A   1      36.055  29.065  27.561  1.00  0.00     0.032 A 
ATOM     17  C   UNL A   1      33.673  28.424  27.342  1.00  0.00     0.027 C 
ATOM     18  C   UNL A   1      32.870  30.108  25.780  1.00  0.00     0.316 C 
BRANCH   9  19
ATOM     19  C   UNL A   1      35.036  33.025  28.812  1.00  0.00    -0.015 A 
ATOM     20  C   UNL A   1      33.758  34.942  30.539  1.00  0.00     0.067 A 
ATOM     21  C   UNL A   1      34.611  33.987  31.072  1.00  0.00     0.021 A 
ATOM     22  C   UNL A   1      33.558  34.972  29.153  1.00  0.00     0.021 A 
ATOM     23  C   UNL A   1      35.233  33.056  30.210  1.00  0.00     0.010 A 
ATOM     24  C   UNL A   1      34.198  34.036  28.306  1.00  0.00     0.010 A 
BRANCH  20  25
ATOM     25  S   UNL A   1      32.885  36.119  31.567  1.00  0.00     0.175 S 
ATOM     26  C   UNL A   1      33.998  36.716  32.808  1.00  0.00     0.163 C 
ATOM     27  O   UNL A   1      31.844  35.376  32.254  1.00  0.00    -0.224 OA
ATOM     28  O   UNL A   1      32.547  37.232  30.700  1.00  0.00    -0.224 OA
ENDBRANCH  20  25
ENDBRANCH   9  19
BRANCH  18  29
ATOM     29  C   UNL A   1      31.413  30.095  25.296  1.00  0.00     0.430 C 
ATOM     30  F   UNL A   1      31.323  29.873  23.964  1.00  0.00    -0.167 F 
ATOM     31  F   UNL A   1      30.675  29.158  25.928  1.00  0.00    -0.167 F 
ATOM     32  F   UNL A   1      30.819  31.292  25.540  1.00  0.00    -0.167 F 
ENDBRANCH  18  29
ENDBRANCH   6   8
ENDBRANCH   5   6
ENDBRANCH   4   5
ENDBRANCH   3   4
ENDBRANCH   2   3
ENDBRANCH   1   2
BRANCH   1  33
ATOM     33  C   UNL A   1      33.266  21.473  24.595  1.00  0.00     0.188 C 
BRANCH  33  34
ATOM     34  O   UNL A   1      33.987  20.482  25.310  1.00  0.00    -0.376 OA
BRANCH  34  35
ATOM     35  C   UNL A   1      35.351  20.246  24.981  1.00  0.00     0.202 C 
BRANCH  35  36
ATOM     36  C   UNL A   1      36.267  21.430  24.631  1.00  0.00     0.261 C 
BRANCH  36  37
ATOM     37  O   UNL A   1      36.943  22.048  25.745  1.00  0.00    -0.460 OA
BRANCH  37  38
ATOM     38  C   UNL A   1      38.231  21.676  25.929  1.00  0.00     0.338 C 
ATOM     39  O   UNL A   1      38.759  20.632  25.560  1.00  0.00    -0.246 OA
BRANCH  38  40
ATOM     40  C   UNL A   1      39.024  22.789  26.486  1.00  0.00     0.060 A 
ATOM     41  C   UNL A   1      38.645  24.088  26.147  1.00  0.00     0.016 A 
ATOM     42  C   UNL A   1      40.184  22.577  27.232  1.00  0.00     0.016 A 
ATOM     43  C   UNL A   1      39.428  25.169  26.556  1.00  0.00     0.010 A 
ATOM     44  C   UNL A   1      40.962  23.675  27.650  1.00  0.00     0.010 A 
ATOM     45  C   UNL A   1      40.591  24.989  27.323  1.00  0.00    -0.014 A 
BRANCH  45  46
ATOM     46  C   UNL A   1      41.464  26.156  27.661  1.00  0.00     0.031 A 
ATOM     47  C   UNL A   1      41.067  27.075  28.776  1.00  0.00     0.074 A 
ATOM     48  C   UNL A   1      42.622  26.407  27.018  1.00  0.00     0.049 A 
ATOM     49  N   UNL A   1      41.681  28.142  29.223  1.00  0.00    -0.248 NA
ATOM     50  C   UNL A   1      39.804  26.767  29.457  1.00  0.00     0.031 C 
ATOM     51  C   UNL A   1      43.145  25.602  25.929  1.00  0.00     0.029 A 
ATOM     52  N   UNL A   1      43.597  27.363  27.215  1.00  0.00    -0.354 N 
ATOM     53  C   UNL A   1      40.830  28.689  30.171  1.00  0.00     0.074 A 
ATOM     54  C   UNL A   1      39.699  27.792  30.290  1.00  0.00     0.031 C 
ATOM     55  C   UNL A   1      44.400  25.999  25.651  1.00  0.00     0.029 A 
ATOM     56  C   UNL A   1      44.737  27.159  26.465  1.00  0.00     0.049 A 
ATOM     57  H   UNL A   1      43.489  28.122  27.834  1.00  0.00     0.167 HD
ATOM     58  C   UNL A   1      40.951  29.863  30.835  1.00  0.00     0.037 A 
ATOM     59  C   UNL A   1      45.913  27.826  26.428  1.00  0.00     0.037 A 
ATOM     60  C   UNL A   1      42.065  30.766  30.712  1.00  0.00     0.049 A 
ATOM     61  C   UNL A   1      46.039  29.122  27.188  1.00  0.00     0.074 A 
ATOM     62  C   UNL A   1      42.294  31.939  31.411  1.00  0.00     0.029 A 
ATOM     63  N   UNL A   1      43.116  30.624  29.820  1.00  0.00    -0.354 N 
ATOM     64  N   UNL A   1      45.166  29.693  27.982  1.00  0.00    -0.248 NA
ATOM     65  C   UNL A   1      47.280  29.893  27.013  1.00  0.00     0.031 C 
ATOM     66  C   UNL A   1      43.459  32.528  30.911  1.00  0.00     0.029 A 
ATOM     67  C   UNL A   1      44.005  31.679  29.962  1.00  0.00     0.049 A 
ATOM     68  H   UNL A   1      43.217  29.883  29.180  1.00  0.00     0.167 HD
ATOM     69  C   UNL A   1      45.753  30.878  28.406  1.00  0.00     0.074 A 
ATOM     70  C   UNL A   1      47.057  30.947  27.785  1.00  0.00     0.031 C 
ATOM     71  C   UNL A   1      45.256  31.809  29.258  1.00  0.00     0.037 A 
BRANCH  58  72
ATOM     72  C   UNL A   1      39.792  30.281  31.691  1.00  0.00     0.057 A 
ATOM     73  C   UNL A   1      39.565  29.752  32.968  1.00  0.00     0.134 A 
ATOM     74  C   UNL A   1      38.882  31.235  31.214  1.00  0.00     0.134 A 
ATOM     75  F   UNL A   1      40.389  28.821  33.472  1.00  0.00    -0.206 F 
ATOM     76  C   UNL A   1      38.456  30.132  33.725  1.00  0.00     0.040 A 
ATOM     77  C   UNL A   1      37.788  31.644  31.974  1.00  0.00     0.040 A 
ATOM     78  F   UNL A   1      39.044  31.781  30.000  1.00  0.00    -0.206 F 
ATOM     79  C   UNL A   1      37.567  31.084  33.230  1.00  0.00     0.006 A 
ENDBRANCH  58  72
BRANCH  59  80
ATOM     80  C   UNL A   1      47.083  27.296  25.664  1.00  0.00     0.057 A 
ATOM     81  C   UNL A   1      48.050  26.505  26.305  1.00  0.00     0.134 A 
ATOM     82  C   UNL A   1      47.292  27.568  24.308  1.00  0.00     0.134 A 
ATOM     83  F   UNL A   1      47.932  26.229  27.610  1.00  0.00    -0.206 F 
ATOM     84  C   UNL A   1      49.177  26.022  25.635  1.00  0.00     0.040 A 
ATOM     85  C   UNL A   1      48.393  27.056  23.614  1.00  0.00     0.040 A 
ATOM     86  F   UNL A   1      46.420  28.326  23.629  1.00  0.00    -0.206 F 
ATOM     87  C   UNL A   1      49.345  26.288  24.280  1.00  0.00     0.006 A 
ENDBRANCH  59  80
BRANCH  71  88
ATOM     88  C   UNL A   1      46.104  33.018  29.535  1.00  0.00     0.057 A 
ATOM     89  C   UNL A   1      47.074  33.025  30.546  1.00  0.00     0.134 A 
ATOM     90  C   UNL A   1      45.987  34.168  28.744  1.00  0.00     0.134 A 
ATOM     91  F   UNL A   1      47.228  31.963  31.350  1.00  0.00    -0.206 F 
ATOM     92  C   UNL A   1      47.894  34.137  30.762  1.00  0.00     0.040 A 
ATOM     93  C   UNL A   1      46.817  35.274  28.933  1.00  0.00     0.040 A 
ATOM     94  F   UNL A   1      45.076  34.226  27.761  1.00  0.00    -0.206 F 
ATOM     95  C   UNL A   1      47.772  35.260  29.946  1.00  0.00     0.006 A 
ENDBRANCH  71  88
ENDBRANCH  45  46
ENDBRANCH  38  40
ENDBRANCH  37  38
ENDBRANCH  36  37
ENDBRANCH  35  36
ENDBRANCH  34  35
ENDBRANCH  33  34
ENDBRANCH   1  33
TORSDOF 20
ENDMDL
