MODEL 1
REMARK VINA RESULT:     -11.0      0.000      0.000
REMARK SMILES O=C(OCCOCCOCCOC(=O)c1nccnc1C(=O)Nc1ccc2c(c1)OCO2)c1ccc(-c2c3nc(c(-c4c(F)cccc4F)c4ccc([nH]4)c(-c4c(F)cccc4F)c4nc(c(-c5c(F)cccc5F)c5ccc2[nH]5)C=C4)C=C3)cc1
REMARK SMILES IDX 7 1 6 2 5 3 4 4 3 5 2 6 1 7 33 8 34 9 86 10 35 11 85 12
REMARK SMILES IDX 36 13 37 14 38 15 79 16 39 17 84 18 78 19 80 20 40 21 83 22
REMARK SMILES IDX 77 23 76 24 41 26 67 27 50 28 66 29 51 30 54 31 65 32 81 33
REMARK SMILES IDX 52 34 53 35 64 37 82 38 55 39 42 40 43 41 48 42 44 43 45 44
REMARK SMILES IDX 47 45 49 46 46 47 68 48 69 49 74 50 70 51 71 52 73 53 75 54
REMARK SMILES IDX 72 55 56 56 57 57 62 58 58 59 59 60 61 61 63 62 60 63 8 64
REMARK SMILES IDX 9 65 10 66 11 67 12 68 13 69 14 70 15 71 16 72 20 73 17 74
REMARK SMILES IDX 19 75 18 76 21 77 22 78 23 79 24 81 25 82 29 83 26 84 28 85
REMARK SMILES IDX 27 86 30 87 32 88 31 89
REMARK H PARENT 80 25 54 36 23 80
REMARK Flexibility Score: inf
ROOT
ATOM      1  C   UNL A   1      32.584  30.062  25.533  1.00  0.00     0.188 C 
ENDROOT
BRANCH   1   2
ATOM      2  O   UNL A   1      32.435  30.694  26.808  1.00  0.00    -0.376 OA
BRANCH   2   3
ATOM      3  C   UNL A   1      31.377  31.642  26.885  1.00  0.00     0.202 C 
BRANCH   3   4
ATOM      4  C   UNL A   1      31.826  33.067  26.553  1.00  0.00     0.261 C 
BRANCH   4   5
ATOM      5  O   UNL A   1      32.150  33.826  27.731  1.00  0.00    -0.460 OA
BRANCH   5   6
ATOM      6  C   UNL A   1      33.355  34.258  28.179  1.00  0.00     0.338 C 
ATOM      7  O   UNL A   1      33.553  35.473  28.183  1.00  0.00    -0.246 OA
BRANCH   6   8
ATOM      8  C   UNL A   1      34.486  33.369  28.626  1.00  0.00     0.060 A 
ATOM      9  C   UNL A   1      34.367  32.093  29.181  1.00  0.00     0.016 A 
ATOM     10  C   UNL A   1      35.791  33.878  28.469  1.00  0.00     0.016 A 
ATOM     11  C   UNL A   1      35.477  31.355  29.583  1.00  0.00     0.010 A 
ATOM     12  C   UNL A   1      36.917  33.164  28.905  1.00  0.00     0.010 A 
ATOM     13  C   UNL A   1      36.750  31.910  29.499  1.00  0.00    -0.014 A 
BRANCH  13  14
ATOM     14  C   UNL A   1      37.817  31.269  30.289  1.00  0.00     0.031 A 
ATOM     15  C   UNL A   1      38.694  30.284  29.584  1.00  0.00     0.074 A 
ATOM     16  C   UNL A   1      38.119  31.687  31.528  1.00  0.00     0.049 A 
ATOM     17  N   UNL A   1      39.739  29.644  30.029  1.00  0.00    -0.248 NA
ATOM     18  C   UNL A   1      38.382  30.028  28.166  1.00  0.00     0.031 C 
ATOM     19  C   UNL A   1      37.453  32.787  32.207  1.00  0.00     0.029 A 
ATOM     20  N   UNL A   1      39.075  31.275  32.418  1.00  0.00    -0.354 N 
ATOM     21  C   UNL A   1      40.225  28.932  28.944  1.00  0.00     0.074 A 
ATOM     22  C   UNL A   1      39.352  29.197  27.824  1.00  0.00     0.031 C 
ATOM     23  C   UNL A   1      38.001  32.953  33.422  1.00  0.00     0.029 A 
ATOM     24  C   UNL A   1      39.018  31.935  33.622  1.00  0.00     0.049 A 
ATOM     25  H   UNL A   1      39.736  30.576  32.215  1.00  0.00     0.167 HD
ATOM     26  C   UNL A   1      41.307  28.125  28.898  1.00  0.00     0.037 A 
ATOM     27  C   UNL A   1      39.691  31.715  34.766  1.00  0.00     0.037 A 
ATOM     28  C   UNL A   1      42.126  27.837  30.042  1.00  0.00     0.049 A 
ATOM     29  C   UNL A   1      40.759  30.660  34.748  1.00  0.00     0.074 A 
ATOM     30  C   UNL A   1      43.191  26.964  30.143  1.00  0.00     0.029 A 
ATOM     31  N   UNL A   1      41.952  28.414  31.294  1.00  0.00    -0.354 N 
ATOM     32  N   UNL A   1      41.180  29.938  33.736  1.00  0.00    -0.248 NA
ATOM     33  C   UNL A   1      41.455  30.392  36.011  1.00  0.00     0.031 C 
ATOM     34  C   UNL A   1      43.623  26.966  31.474  1.00  0.00     0.029 A 
ATOM     35  C   UNL A   1      42.869  27.888  32.186  1.00  0.00     0.049 A 
ATOM     36  H   UNL A   1      41.276  29.094  31.514  1.00  0.00     0.167 HD
ATOM     37  C   UNL A   1      42.216  29.160  34.227  1.00  0.00     0.074 A 
ATOM     38  C   UNL A   1      42.360  29.501  35.630  1.00  0.00     0.031 C 
ATOM     39  C   UNL A   1      42.985  28.254  33.576  1.00  0.00     0.037 A 
BRANCH  26  40
ATOM     40  C   UNL A   1      41.583  27.447  27.593  1.00  0.00     0.057 A 
ATOM     41  C   UNL A   1      40.971  26.238  27.236  1.00  0.00     0.134 A 
ATOM     42  C   UNL A   1      42.517  27.989  26.703  1.00  0.00     0.134 A 
ATOM     43  F   UNL A   1      40.097  25.646  28.065  1.00  0.00    -0.206 F 
ATOM     44  C   UNL A   1      41.295  25.581  26.048  1.00  0.00     0.040 A 
ATOM     45  C   UNL A   1      42.831  27.355  25.501  1.00  0.00     0.040 A 
ATOM     46  F   UNL A   1      43.150  29.134  26.994  1.00  0.00    -0.206 F 
ATOM     47  C   UNL A   1      42.225  26.143  25.173  1.00  0.00     0.006 A 
ENDBRANCH  26  40
BRANCH  27  48
ATOM     48  C   UNL A   1      39.344  32.452  36.011  1.00  0.00     0.057 A 
ATOM     49  C   UNL A   1      39.945  33.670  36.344  1.00  0.00     0.134 A 
ATOM     50  C   UNL A   1      38.426  31.922  36.930  1.00  0.00     0.134 A 
ATOM     51  F   UNL A   1      40.848  34.224  35.521  1.00  0.00    -0.206 F 
ATOM     52  C   UNL A   1      39.670  34.319  37.552  1.00  0.00     0.040 A 
ATOM     53  C   UNL A   1      38.126  32.569  38.131  1.00  0.00     0.040 A 
ATOM     54  F   UNL A   1      37.803  30.759  36.679  1.00  0.00    -0.206 F 
ATOM     55  C   UNL A   1      38.757  33.768  38.449  1.00  0.00     0.006 A 
ENDBRANCH  27  48
BRANCH  39  56
ATOM     56  C   UNL A   1      44.076  27.602  34.369  1.00  0.00     0.057 A 
ATOM     57  C   UNL A   1      45.348  28.173  34.485  1.00  0.00     0.134 A 
ATOM     58  C   UNL A   1      43.827  26.412  35.064  1.00  0.00     0.134 A 
ATOM     59  F   UNL A   1      45.650  29.304  33.830  1.00  0.00    -0.206 F 
ATOM     60  C   UNL A   1      46.345  27.569  35.251  1.00  0.00     0.040 A 
ATOM     61  C   UNL A   1      44.806  25.816  35.857  1.00  0.00     0.040 A 
ATOM     62  F   UNL A   1      42.624  25.822  34.998  1.00  0.00    -0.206 F 
ATOM     63  C   UNL A   1      46.071  26.392  35.947  1.00  0.00     0.006 A 
ENDBRANCH  39  56
ENDBRANCH  13  14
ENDBRANCH   6   8
ENDBRANCH   5   6
ENDBRANCH   4   5
ENDBRANCH   3   4
ENDBRANCH   2   3
ENDBRANCH   1   2
BRANCH   1  64
ATOM     64  C   UNL A   1      32.622  28.544  25.657  1.00  0.00     0.188 C 
BRANCH  64  65
ATOM     65  O   UNL A   1      32.909  27.848  24.450  1.00  0.00    -0.376 OA
BRANCH  65  66
ATOM     66  C   UNL A   1      33.547  26.592  24.573  1.00  0.00     0.202 C 
BRANCH  66  67
ATOM     67  C   UNL A   1      33.614  25.818  23.248  1.00  0.00     0.261 C 
BRANCH  67  68
ATOM     68  O   UNL A   1      32.962  24.526  23.282  1.00  0.00    -0.458 OA
BRANCH  68  69
ATOM     69  C   UNL A   1      33.674  23.549  22.674  1.00  0.00     0.359 C 
ATOM     70  O   UNL A   1      33.531  23.234  21.495  1.00  0.00    -0.244 OA
BRANCH  69  71
ATOM     71  C   UNL A   1      34.660  22.830  23.543  1.00  0.00     0.179 A 
ATOM     72  N   UNL A   1      35.947  22.967  23.074  1.00  0.00    -0.245 NA
ATOM     73  C   UNL A   1      34.427  22.095  24.691  1.00  0.00     0.161 A 
ATOM     74  C   UNL A   1      36.920  22.243  23.667  1.00  0.00     0.132 A 
ATOM     75  N   UNL A   1      35.435  21.375  25.296  1.00  0.00    -0.247 NA
ATOM     76  C   UNL A   1      36.662  21.434  24.743  1.00  0.00     0.132 A 
BRANCH  73  77
ATOM     77  C   UNL A   1      33.148  21.888  25.391  1.00  0.00     0.276 C 
ATOM     78  O   UNL A   1      32.835  22.717  26.252  1.00  0.00    -0.267 OA
ATOM     79  N   UNL A   1      32.205  20.941  25.061  1.00  0.00    -0.320 N 
ATOM     80  H   UNL A   1      31.285  21.228  25.264  1.00  0.00     0.170 HD
BRANCH  79  81
ATOM     81  C   UNL A   1      32.266  19.653  24.498  1.00  0.00     0.045 A 
ATOM     82  C   UNL A   1      32.199  19.364  23.130  1.00  0.00     0.030 A 
ATOM     83  C   UNL A   1      32.659  18.643  25.392  1.00  0.00     0.076 A 
ATOM     84  C   UNL A   1      32.804  18.206  22.619  1.00  0.00     0.053 A 
ATOM     85  C   UNL A   1      33.247  17.513  24.867  1.00  0.00     0.167 A 
ATOM     86  C   UNL A   1      33.369  17.328  23.514  1.00  0.00     0.165 A 
ATOM     87  O   UNL A   1      33.890  16.553  25.585  1.00  0.00    -0.454 OA
ATOM     88  O   UNL A   1      34.127  16.243  23.206  1.00  0.00    -0.454 OA
ATOM     89  C   UNL A   1      34.549  15.832  24.525  1.00  0.00     0.468 C 
ENDBRANCH  79  81
ENDBRANCH  73  77
ENDBRANCH  69  71
ENDBRANCH  68  69
ENDBRANCH  67  68
ENDBRANCH  66  67
ENDBRANCH  65  66
ENDBRANCH  64  65
ENDBRANCH   1  64
TORSDOF 19
ENDMDL
MODEL 2
REMARK VINA RESULT:     -10.9      2.131      7.128
REMARK SMILES O=C(OCCOCCOCCOC(=O)c1nccnc1C(=O)Nc1ccc2c(c1)OCO2)c1ccc(-c2c3nc(c(-c4c(F)cccc4F)c4ccc([nH]4)c(-c4c(F)cccc4F)c4nc(c(-c5c(F)cccc5F)c5ccc2[nH]5)C=C4)C=C3)cc1
REMARK SMILES IDX 7 1 6 2 5 3 4 4 3 5 2 6 1 7 33 8 34 9 86 10 35 11 85 12
REMARK SMILES IDX 36 13 37 14 38 15 79 16 39 17 84 18 78 19 80 20 40 21 83 22
REMARK SMILES IDX 77 23 76 24 41 26 67 27 50 28 66 29 51 30 54 31 65 32 81 33
REMARK SMILES IDX 52 34 53 35 64 37 82 38 55 39 42 40 43 41 48 42 44 43 45 44
REMARK SMILES IDX 47 45 49 46 46 47 68 48 69 49 74 50 70 51 71 52 73 53 75 54
REMARK SMILES IDX 72 55 56 56 57 57 62 58 58 59 59 60 61 61 63 62 60 63 8 64
REMARK SMILES IDX 9 65 10 66 11 67 12 68 13 69 14 70 15 71 16 72 20 73 17 74
REMARK SMILES IDX 19 75 18 76 21 77 22 78 23 79 24 81 25 82 29 83 26 84 28 85
REMARK SMILES IDX 27 86 30 87 32 88 31 89
REMARK H PARENT 80 25 54 36 23 80
REMARK Flexibility Score: inf
ROOT
ATOM      1  C   UNL A   1      32.649  30.003  26.454  1.00  0.00     0.188 C 
ENDROOT
BRANCH   1   2
ATOM      2  O   UNL A   1      31.620  30.762  25.812  1.00  0.00    -0.376 OA
BRANCH   2   3
ATOM      3  C   UNL A   1      31.288  31.985  26.459  1.00  0.00     0.202 C 
BRANCH   3   4
ATOM      4  C   UNL A   1      32.447  32.564  27.272  1.00  0.00     0.261 C 
BRANCH   4   5
ATOM      5  O   UNL A   1      32.214  33.929  27.660  1.00  0.00    -0.460 OA
BRANCH   5   6
ATOM      6  C   UNL A   1      32.916  34.721  28.508  1.00  0.00     0.338 C 
ATOM      7  O   UNL A   1      32.469  35.847  28.729  1.00  0.00    -0.246 OA
BRANCH   6   8
ATOM      8  C   UNL A   1      34.221  34.351  29.162  1.00  0.00     0.060 A 
ATOM      9  C   UNL A   1      35.490  34.427  28.582  1.00  0.00     0.016 A 
ATOM     10  C   UNL A   1      34.154  33.883  30.490  1.00  0.00     0.016 A 
ATOM     11  C   UNL A   1      36.639  34.042  29.266  1.00  0.00     0.010 A 
ATOM     12  C   UNL A   1      35.298  33.454  31.178  1.00  0.00     0.010 A 
ATOM     13  C   UNL A   1      36.542  33.501  30.544  1.00  0.00    -0.014 A 
BRANCH  13  14
ATOM     14  C   UNL A   1      37.709  32.756  31.050  1.00  0.00     0.031 A 
ATOM     15  C   UNL A   1      38.293  33.199  32.353  1.00  0.00     0.074 A 
ATOM     16  C   UNL A   1      38.112  31.612  30.475  1.00  0.00     0.049 A 
ATOM     17  N   UNL A   1      39.265  32.670  33.043  1.00  0.00    -0.248 NA
ATOM     18  C   UNL A   1      37.658  34.366  32.992  1.00  0.00     0.031 C 
ATOM     19  C   UNL A   1      37.463  30.997  29.329  1.00  0.00     0.029 A 
ATOM     20  N   UNL A   1      39.127  30.747  30.788  1.00  0.00    -0.354 N 
ATOM     21  C   UNL A   1      39.341  33.421  34.206  1.00  0.00     0.074 A 
ATOM     22  C   UNL A   1      38.335  34.455  34.124  1.00  0.00     0.031 C 
ATOM     23  C   UNL A   1      38.107  29.861  29.013  1.00  0.00     0.029 A 
ATOM     24  C   UNL A   1      39.244  29.702  29.902  1.00  0.00     0.049 A 
ATOM     25  H   UNL A   1      39.713  30.862  31.569  1.00  0.00     0.167 HD
ATOM     26  C   UNL A   1      40.185  33.254  35.248  1.00  0.00     0.037 A 
ATOM     27  C   UNL A   1      40.186  28.747  29.805  1.00  0.00     0.037 A 
ATOM     28  C   UNL A   1      41.210  32.250  35.279  1.00  0.00     0.049 A 
ATOM     29  C   UNL A   1      41.243  28.708  30.870  1.00  0.00     0.074 A 
ATOM     30  C   UNL A   1      42.186  32.042  36.234  1.00  0.00     0.029 A 
ATOM     31  N   UNL A   1      41.399  31.292  34.291  1.00  0.00    -0.354 N 
ATOM     32  N   UNL A   1      41.355  29.458  31.942  1.00  0.00    -0.248 NA
ATOM     33  C   UNL A   1      42.295  27.694  30.732  1.00  0.00     0.031 C 
ATOM     34  C   UNL A   1      43.003  30.995  35.794  1.00  0.00     0.029 A 
ATOM     35  C   UNL A   1      42.498  30.510  34.596  1.00  0.00     0.049 A 
ATOM     36  H   UNL A   1      40.834  31.185  33.492  1.00  0.00     0.167 HD
ATOM     37  C   UNL A   1      42.462  28.983  32.626  1.00  0.00     0.074 A 
ATOM     38  C   UNL A   1      42.987  27.878  31.848  1.00  0.00     0.031 C 
ATOM     39  C   UNL A   1      42.991  29.415  33.797  1.00  0.00     0.037 A 
BRANCH  26  40
ATOM     40  C   UNL A   1      40.070  34.239  36.367  1.00  0.00     0.057 A 
ATOM     41  C   UNL A   1      39.300  33.985  37.510  1.00  0.00     0.134 A 
ATOM     42  C   UNL A   1      40.700  35.486  36.275  1.00  0.00     0.134 A 
ATOM     43  F   UNL A   1      38.638  32.825  37.641  1.00  0.00    -0.206 F 
ATOM     44  C   UNL A   1      39.144  34.945  38.512  1.00  0.00     0.040 A 
ATOM     45  C   UNL A   1      40.572  36.444  37.280  1.00  0.00     0.040 A 
ATOM     46  F   UNL A   1      41.436  35.798  35.198  1.00  0.00    -0.206 F 
ATOM     47  C   UNL A   1      39.786  36.178  38.400  1.00  0.00     0.006 A 
ENDBRANCH  26  40
BRANCH  27  48
ATOM     48  C   UNL A   1      40.205  27.807  28.653  1.00  0.00     0.057 A 
ATOM     49  C   UNL A   1      39.602  26.546  28.713  1.00  0.00     0.134 A 
ATOM     50  C   UNL A   1      40.879  28.135  27.466  1.00  0.00     0.134 A 
ATOM     51  F   UNL A   1      38.959  26.158  29.824  1.00  0.00    -0.206 F 
ATOM     52  C   UNL A   1      39.690  25.638  27.654  1.00  0.00     0.040 A 
ATOM     53  C   UNL A   1      40.958  27.245  26.392  1.00  0.00     0.040 A 
ATOM     54  F   UNL A   1      41.479  29.328  27.330  1.00  0.00    -0.206 F 
ATOM     55  C   UNL A   1      40.369  25.988  26.488  1.00  0.00     0.006 A 
ENDBRANCH  27  48
BRANCH  39  56
ATOM     56  C   UNL A   1      44.172  28.659  34.322  1.00  0.00     0.057 A 
ATOM     57  C   UNL A   1      44.027  27.534  35.141  1.00  0.00     0.134 A 
ATOM     58  C   UNL A   1      45.470  29.039  33.958  1.00  0.00     0.134 A 
ATOM     59  F   UNL A   1      42.809  27.131  35.535  1.00  0.00    -0.206 F 
ATOM     60  C   UNL A   1      45.136  26.823  35.598  1.00  0.00     0.040 A 
ATOM     61  C   UNL A   1      46.585  28.318  34.384  1.00  0.00     0.040 A 
ATOM     62  F   UNL A   1      45.673  30.104  33.169  1.00  0.00    -0.206 F 
ATOM     63  C   UNL A   1      46.418  27.210  35.212  1.00  0.00     0.006 A 
ENDBRANCH  39  56
ENDBRANCH  13  14
ENDBRANCH   6   8
ENDBRANCH   5   6
ENDBRANCH   4   5
ENDBRANCH   3   4
ENDBRANCH   2   3
ENDBRANCH   1   2
BRANCH   1  64
ATOM     64  C   UNL A   1      32.089  28.769  27.151  1.00  0.00     0.188 C 
BRANCH  64  65
ATOM     65  O   UNL A   1      32.236  27.552  26.430  1.00  0.00    -0.376 OA
BRANCH  65  66
ATOM     66  C   UNL A   1      31.061  26.989  25.879  1.00  0.00     0.202 C 
BRANCH  66  67
ATOM     67  C   UNL A   1      30.652  25.671  26.553  1.00  0.00     0.261 C 
BRANCH  67  68
ATOM     68  O   UNL A   1      30.795  24.504  25.708  1.00  0.00    -0.458 OA
BRANCH  68  69
ATOM     69  C   UNL A   1      31.268  23.419  26.365  1.00  0.00     0.359 C 
ATOM     70  O   UNL A   1      31.012  23.169  27.541  1.00  0.00    -0.244 OA
BRANCH  69  71
ATOM     71  C   UNL A   1      32.166  22.521  25.571  1.00  0.00     0.179 A 
ATOM     72  N   UNL A   1      31.544  21.339  25.241  1.00  0.00    -0.245 NA
ATOM     73  C   UNL A   1      33.468  22.745  25.159  1.00  0.00     0.161 A 
ATOM     74  C   UNL A   1      32.284  20.370  24.662  1.00  0.00     0.132 A 
ATOM     75  N   UNL A   1      34.206  21.750  24.552  1.00  0.00    -0.247 NA
ATOM     76  C   UNL A   1      33.604  20.562  24.350  1.00  0.00     0.132 A 
BRANCH  73  77
ATOM     77  C   UNL A   1      34.282  23.957  25.343  1.00  0.00     0.276 C 
ATOM     78  O   UNL A   1      35.006  24.006  26.344  1.00  0.00    -0.267 OA
ATOM     79  N   UNL A   1      34.422  24.969  24.419  1.00  0.00    -0.320 N 
ATOM     80  H   UNL A   1      35.301  25.410  24.463  1.00  0.00     0.170 HD
BRANCH  79  81
ATOM     81  C   UNL A   1      33.584  25.512  23.428  1.00  0.00     0.045 A 
ATOM     82  C   UNL A   1      32.549  24.828  22.780  1.00  0.00     0.030 A 
ATOM     83  C   UNL A   1      33.677  26.907  23.284  1.00  0.00     0.076 A 
ATOM     84  C   UNL A   1      31.451  25.530  22.260  1.00  0.00     0.053 A 
ATOM     85  C   UNL A   1      32.588  27.574  22.768  1.00  0.00     0.167 A 
ATOM     86  C   UNL A   1      31.478  26.904  22.322  1.00  0.00     0.165 A 
ATOM     87  O   UNL A   1      32.415  28.924  22.775  1.00  0.00    -0.454 OA
ATOM     88  O   UNL A   1      30.455  27.743  22.016  1.00  0.00    -0.454 OA
ATOM     89  C   UNL A   1      31.020  29.009  22.422  1.00  0.00     0.468 C 
ENDBRANCH  79  81
ENDBRANCH  73  77
ENDBRANCH  69  71
ENDBRANCH  68  69
ENDBRANCH  67  68
ENDBRANCH  66  67
ENDBRANCH  65  66
ENDBRANCH  64  65
ENDBRANCH   1  64
TORSDOF 19
ENDMDL
MODEL 3
REMARK VINA RESULT:     -10.8      4.133      8.680
REMARK SMILES O=C(OCCOCCOCCOC(=O)c1nccnc1C(=O)Nc1ccc2c(c1)OCO2)c1ccc(-c2c3nc(c(-c4c(F)cccc4F)c4ccc([nH]4)c(-c4c(F)cccc4F)c4nc(c(-c5c(F)cccc5F)c5ccc2[nH]5)C=C4)C=C3)cc1
REMARK SMILES IDX 7 1 6 2 5 3 4 4 3 5 2 6 1 7 33 8 34 9 86 10 35 11 85 12
REMARK SMILES IDX 36 13 37 14 38 15 79 16 39 17 84 18 78 19 80 20 40 21 83 22
REMARK SMILES IDX 77 23 76 24 41 26 67 27 50 28 66 29 51 30 54 31 65 32 81 33
REMARK SMILES IDX 52 34 53 35 64 37 82 38 55 39 42 40 43 41 48 42 44 43 45 44
REMARK SMILES IDX 47 45 49 46 46 47 68 48 69 49 74 50 70 51 71 52 73 53 75 54
REMARK SMILES IDX 72 55 56 56 57 57 62 58 58 59 59 60 61 61 63 62 60 63 8 64
REMARK SMILES IDX 9 65 10 66 11 67 12 68 13 69 14 70 15 71 16 72 20 73 17 74
REMARK SMILES IDX 19 75 18 76 21 77 22 78 23 79 24 81 25 82 29 83 26 84 28 85
REMARK SMILES IDX 27 86 30 87 32 88 31 89
REMARK H PARENT 80 25 54 36 23 80
REMARK Flexibility Score: inf
ROOT
ATOM      1  C   UNL A   1      36.877  21.290  24.690  1.00  0.00     0.188 C 
ENDROOT
BRANCH   1   2
ATOM      2  O   UNL A   1      38.223  20.986  25.069  1.00  0.00    -0.376 OA
BRANCH   2   3
ATOM      3  C   UNL A   1      38.592  19.620  24.922  1.00  0.00     0.202 C 
BRANCH   3   4
ATOM      4  C   UNL A   1      39.460  19.110  26.075  1.00  0.00     0.261 C 
BRANCH   4   5
ATOM      5  O   UNL A   1      40.841  18.968  25.697  1.00  0.00    -0.460 OA
BRANCH   5   6
ATOM      6  C   UNL A   1      41.920  19.695  26.076  1.00  0.00     0.338 C 
ATOM      7  O   UNL A   1      43.006  19.115  26.117  1.00  0.00    -0.246 OA
BRANCH   6   8
ATOM      8  C   UNL A   1      41.891  21.142  26.495  1.00  0.00     0.060 A 
ATOM      9  C   UNL A   1      41.477  22.223  25.714  1.00  0.00     0.016 A 
ATOM     10  C   UNL A   1      42.325  21.430  27.806  1.00  0.00     0.016 A 
ATOM     11  C   UNL A   1      41.506  23.531  26.188  1.00  0.00     0.010 A 
ATOM     12  C   UNL A   1      42.397  22.746  28.284  1.00  0.00     0.010 A 
ATOM     13  C   UNL A   1      42.019  23.803  27.452  1.00  0.00    -0.014 A 
BRANCH  13  14
ATOM     14  C   UNL A   1      42.393  25.200  27.741  1.00  0.00     0.031 A 
ATOM     15  C   UNL A   1      43.717  25.674  27.233  1.00  0.00     0.074 A 
ATOM     16  C   UNL A   1      41.511  26.068  28.262  1.00  0.00     0.049 A 
ATOM     17  N   UNL A   1      44.242  26.866  27.288  1.00  0.00    -0.248 NA
ATOM     18  C   UNL A   1      44.536  24.681  26.515  1.00  0.00     0.031 C 
ATOM     19  C   UNL A   1      40.132  25.741  28.587  1.00  0.00     0.029 A 
ATOM     20  N   UNL A   1      41.621  27.397  28.575  1.00  0.00    -0.354 N 
ATOM     21  C   UNL A   1      45.438  26.774  26.594  1.00  0.00     0.074 A 
ATOM     22  C   UNL A   1      45.575  25.409  26.142  1.00  0.00     0.031 C 
ATOM     23  C   UNL A   1      39.522  26.832  29.077  1.00  0.00     0.029 A 
ATOM     24  C   UNL A   1      40.486  27.916  29.150  1.00  0.00     0.049 A 
ATOM     25  H   UNL A   1      42.432  27.927  28.404  1.00  0.00     0.167 HD
ATOM     26  C   UNL A   1      46.339  27.753  26.359  1.00  0.00     0.037 A 
ATOM     27  C   UNL A   1      40.266  29.122  29.703  1.00  0.00     0.037 A 
ATOM     28  C   UNL A   1      46.202  29.089  26.866  1.00  0.00     0.049 A 
ATOM     29  C   UNL A   1      41.370  30.136  29.612  1.00  0.00     0.074 A 
ATOM     30  C   UNL A   1      47.092  30.141  26.777  1.00  0.00     0.029 A 
ATOM     31  N   UNL A   1      45.100  29.548  27.577  1.00  0.00    -0.354 N 
ATOM     32  N   UNL A   1      42.530  30.032  29.007  1.00  0.00    -0.248 NA
ATOM     33  C   UNL A   1      41.143  31.433  30.259  1.00  0.00     0.031 C 
ATOM     34  C   UNL A   1      46.555  31.220  27.487  1.00  0.00     0.029 A 
ATOM     35  C   UNL A   1      45.302  30.860  27.964  1.00  0.00     0.049 A 
ATOM     36  H   UNL A   1      44.295  29.018  27.776  1.00  0.00     0.167 HD
ATOM     37  C   UNL A   1      43.155  31.258  29.165  1.00  0.00     0.074 A 
ATOM     38  C   UNL A   1      42.242  32.093  29.922  1.00  0.00     0.031 C 
ATOM     39  C   UNL A   1      44.368  31.662  28.715  1.00  0.00     0.037 A 
BRANCH  26  40
ATOM     40  C   UNL A   1      47.570  27.363  25.604  1.00  0.00     0.057 A 
ATOM     41  C   UNL A   1      48.715  26.871  26.246  1.00  0.00     0.134 A 
ATOM     42  C   UNL A   1      47.628  27.534  24.217  1.00  0.00     0.134 A 
ATOM     43  F   UNL A   1      48.738  26.722  27.579  1.00  0.00    -0.206 F 
ATOM     44  C   UNL A   1      49.881  26.581  25.534  1.00  0.00     0.040 A 
ATOM     45  C   UNL A   1      48.779  27.225  23.491  1.00  0.00     0.040 A 
ATOM     46  F   UNL A   1      46.573  28.018  23.546  1.00  0.00    -0.206 F 
ATOM     47  C   UNL A   1      49.913  26.755  24.151  1.00  0.00     0.006 A 
ENDBRANCH  26  40
BRANCH  27  48
ATOM     48  C   UNL A   1      39.000  29.413  30.426  1.00  0.00     0.057 A 
ATOM     49  C   UNL A   1      38.824  29.085  31.775  1.00  0.00     0.134 A 
ATOM     50  C   UNL A   1      37.905  29.988  29.763  1.00  0.00     0.134 A 
ATOM     51  F   UNL A   1      39.821  28.513  32.466  1.00  0.00    -0.206 F 
ATOM     52  C   UNL A   1      37.605  29.291  32.428  1.00  0.00     0.040 A 
ATOM     53  C   UNL A   1      36.688  30.218  30.408  1.00  0.00     0.040 A 
ATOM     54  F   UNL A   1      37.998  30.335  28.469  1.00  0.00    -0.206 F 
ATOM     55  C   UNL A   1      36.533  29.861  31.744  1.00  0.00     0.006 A 
ENDBRANCH  27  48
BRANCH  39  56
ATOM     56  C   UNL A   1      44.753  33.081  28.999  1.00  0.00     0.057 A 
ATOM     57  C   UNL A   1      45.469  33.439  30.146  1.00  0.00     0.134 A 
ATOM     58  C   UNL A   1      44.442  34.092  28.081  1.00  0.00     0.134 A 
ATOM     59  F   UNL A   1      45.782  32.516  31.069  1.00  0.00    -0.206 F 
ATOM     60  C   UNL A   1      45.846  34.761  30.382  1.00  0.00     0.040 A 
ATOM     61  C   UNL A   1      44.840  35.412  28.291  1.00  0.00     0.040 A 
ATOM     62  F   UNL A   1      43.764  33.809  26.959  1.00  0.00    -0.206 F 
ATOM     63  C   UNL A   1      45.539  35.749  29.448  1.00  0.00     0.006 A 
ENDBRANCH  39  56
ENDBRANCH  13  14
ENDBRANCH   6   8
ENDBRANCH   5   6
ENDBRANCH   4   5
ENDBRANCH   3   4
ENDBRANCH   2   3
ENDBRANCH   1   2
BRANCH   1  64
ATOM     64  C   UNL A   1      35.915  20.176  25.084  1.00  0.00     0.188 C 
BRANCH  64  65
ATOM     65  O   UNL A   1      34.572  20.591  25.301  1.00  0.00    -0.376 OA
BRANCH  65  66
ATOM     66  C   UNL A   1      33.568  19.922  24.561  1.00  0.00     0.202 C 
BRANCH  66  67
ATOM     67  C   UNL A   1      32.222  20.659  24.568  1.00  0.00     0.261 C 
BRANCH  67  68
ATOM     68  O   UNL A   1      31.966  21.438  23.376  1.00  0.00    -0.458 OA
BRANCH  68  69
ATOM     69  C   UNL A   1      31.759  22.752  23.626  1.00  0.00     0.359 C 
ATOM     70  O   UNL A   1      30.728  23.349  23.324  1.00  0.00    -0.244 OA
BRANCH  69  71
ATOM     71  C   UNL A   1      32.893  23.472  24.288  1.00  0.00     0.179 A 
ATOM     72  N   UNL A   1      33.995  23.552  23.467  1.00  0.00    -0.245 NA
ATOM     73  C   UNL A   1      32.943  24.029  25.553  1.00  0.00     0.161 A 
ATOM     74  C   UNL A   1      35.143  24.034  23.988  1.00  0.00     0.132 A 
ATOM     75  N   UNL A   1      34.120  24.535  26.065  1.00  0.00    -0.247 NA
ATOM     76  C   UNL A   1      35.212  24.490  25.279  1.00  0.00     0.132 A 
BRANCH  73  77
ATOM     77  C   UNL A   1      31.863  24.114  26.550  1.00  0.00     0.276 C 
ATOM     78  O   UNL A   1      31.590  23.085  27.177  1.00  0.00    -0.267 OA
ATOM     79  N   UNL A   1      31.240  25.275  26.951  1.00  0.00    -0.320 N 
ATOM     80  H   UNL A   1      30.937  25.245  27.887  1.00  0.00     0.170 HD
BRANCH  79  81
ATOM     81  C   UNL A   1      30.941  26.495  26.317  1.00  0.00     0.045 A 
ATOM     82  C   UNL A   1      31.520  27.731  26.629  1.00  0.00     0.030 A 
ATOM     83  C   UNL A   1      30.183  26.372  25.141  1.00  0.00     0.076 A 
ATOM     84  C   UNL A   1      31.613  28.736  25.655  1.00  0.00     0.053 A 
ATOM     85  C   UNL A   1      30.287  27.373  24.201  1.00  0.00     0.167 A 
ATOM     86  C   UNL A   1      31.033  28.501  24.430  1.00  0.00     0.165 A 
ATOM     87  O   UNL A   1      29.815  27.310  22.926  1.00  0.00    -0.454 OA
ATOM     88  O   UNL A   1      31.149  29.279  23.322  1.00  0.00    -0.454 OA
ATOM     89  C   UNL A   1      30.475  28.454  22.348  1.00  0.00     0.468 C 
ENDBRANCH  79  81
ENDBRANCH  73  77
ENDBRANCH  69  71
ENDBRANCH  68  69
ENDBRANCH  67  68
ENDBRANCH  66  67
ENDBRANCH  65  66
ENDBRANCH  64  65
ENDBRANCH   1  64
TORSDOF 19
ENDMDL
