MODEL 1
REMARK VINA RESULT:     -10.1      0.000      0.000
REMARK SMILES C[C@H](O)[C@@H](NS(=O)(=O)c1ccc(F)cc1)C(=O)OCCOCCOCCOC(=O)c1ccc(-c2c3nc(c(-c4c(F)cccc4F)c4ccc([nH]4)c(-c4c(F)cccc4F)c4nc(c(-c5c(F)cccc5F)c5ccc2[nH]5)C=C4)C=C3)cc1
REMARK SMILES IDX 22 1 21 2 20 3 19 4 18 5 16 6 17 7 4 8 2 9 1 10 3 11 5 13
REMARK SMILES IDX 6 15 7 16 8 17 9 18 10 19 15 20 11 21 14 22 12 23 13 24
REMARK SMILES IDX 23 25 24 26 25 27 26 28 27 29 28 30 29 31 30 32 31 33 83 34
REMARK SMILES IDX 32 35 82 36 33 37 34 38 35 39 76 40 36 41 81 42 75 43 77 44
REMARK SMILES IDX 37 45 80 46 74 47 73 48 38 50 64 51 47 52 63 53 48 54 51 55
REMARK SMILES IDX 62 56 78 57 49 58 50 59 61 61 79 62 52 63 39 64 40 65 45 66
REMARK SMILES IDX 41 67 42 68 44 69 46 70 43 71 65 72 66 73 71 74 67 75 68 76
REMARK SMILES IDX 70 77 72 78 69 79 53 80 54 81 59 82 55 83 56 84 58 85 60 86
REMARK SMILES IDX 57 87
REMARK H PARENT 3 12 5 14 77 49 51 60
REMARK Flexibility Score: inf
ROOT
ATOM      1  C   UNL A   1      38.108  22.543  25.339  1.00  0.00     0.188 C 
ENDROOT
BRANCH   1   2
ATOM      2  O   UNL A   1      37.057  21.806  24.732  1.00  0.00    -0.376 OA
BRANCH   2   3
ATOM      3  C   UNL A   1      36.145  21.089  25.560  1.00  0.00     0.202 C 
BRANCH   3   4
ATOM      4  C   UNL A   1      35.003  21.880  26.203  1.00  0.00     0.261 C 
BRANCH   4   5
ATOM      5  O   UNL A   1      33.774  21.156  26.472  1.00  0.00    -0.462 OA
BRANCH   5   6
ATOM      6  C   UNL A   1      32.850  21.139  25.468  1.00  0.00     0.326 C 
ATOM      7  O   UNL A   1      32.281  20.123  25.079  1.00  0.00    -0.250 OA
BRANCH   6   8
ATOM      8  C   UNL A   1      32.636  22.485  24.790  1.00  0.00     0.208 C 
BRANCH   8   9
ATOM      9  C   UNL A   1      32.826  22.543  23.255  1.00  0.00     0.140 C 
ATOM     10  C   UNL A   1      34.089  23.272  22.797  1.00  0.00     0.040 C 
BRANCH   9  11
ATOM     11  O   UNL A   1      31.693  23.269  22.722  1.00  0.00    -0.391 OA
ATOM     12  H   UNL A   1      30.881  22.967  23.158  1.00  0.00     0.211 HD
ENDBRANCH   9  11
ENDBRANCH   8   9
BRANCH   8  13
ATOM     13  N   UNL A   1      31.269  23.006  25.107  1.00  0.00    -0.194 NA
ATOM     14  H   UNL A   1      30.668  22.200  25.279  1.00  0.00     0.142 HD
BRANCH  13  15
ATOM     15  S   UNL A   1      31.109  24.041  26.427  1.00  0.00     0.241 S 
ATOM     16  O   UNL A   1      29.912  23.667  27.143  1.00  0.00    -0.207 OA
ATOM     17  O   UNL A   1      32.403  24.076  27.074  1.00  0.00    -0.207 OA
BRANCH  15  18
ATOM     18  C   UNL A   1      30.871  25.632  25.676  1.00  0.00     0.082 A 
ATOM     19  C   UNL A   1      29.915  25.790  24.663  1.00  0.00     0.025 A 
ATOM     20  C   UNL A   1      31.691  26.700  26.060  1.00  0.00     0.025 A 
ATOM     21  C   UNL A   1      29.803  27.019  24.011  1.00  0.00     0.040 A 
ATOM     22  C   UNL A   1      31.562  27.929  25.410  1.00  0.00     0.040 A 
ATOM     23  C   UNL A   1      30.629  28.074  24.385  1.00  0.00     0.123 A 
ATOM     24  F   UNL A   1      30.566  29.230  23.713  1.00  0.00    -0.207 F 
ENDBRANCH  15  18
ENDBRANCH  13  15
ENDBRANCH   8  13
ENDBRANCH   6   8
ENDBRANCH   5   6
ENDBRANCH   4   5
ENDBRANCH   3   4
ENDBRANCH   2   3
ENDBRANCH   1   2
BRANCH   1  25
ATOM     25  C   UNL A   1      38.915  21.839  26.428  1.00  0.00     0.188 C 
BRANCH  25  26
ATOM     26  O   UNL A   1      39.687  20.742  25.984  1.00  0.00    -0.376 OA
BRANCH  26  27
ATOM     27  C   UNL A   1      40.915  20.486  26.653  1.00  0.00     0.202 C 
BRANCH  27  28
ATOM     28  C   UNL A   1      42.201  20.932  25.944  1.00  0.00     0.261 C 
BRANCH  28  29
ATOM     29  O   UNL A   1      42.227  22.307  25.512  1.00  0.00    -0.460 OA
BRANCH  29  30
ATOM     30  C   UNL A   1      43.294  23.073  25.839  1.00  0.00     0.338 C 
ATOM     31  O   UNL A   1      44.431  22.984  25.417  1.00  0.00    -0.246 OA
BRANCH  30  32
ATOM     32  C   UNL A   1      42.764  24.234  26.593  1.00  0.00     0.060 A 
ATOM     33  C   UNL A   1      43.276  25.515  26.325  1.00  0.00     0.016 A 
ATOM     34  C   UNL A   1      41.717  24.065  27.498  1.00  0.00     0.016 A 
ATOM     35  C   UNL A   1      42.759  26.630  26.990  1.00  0.00     0.010 A 
ATOM     36  C   UNL A   1      41.222  25.171  28.183  1.00  0.00     0.010 A 
ATOM     37  C   UNL A   1      41.766  26.449  27.961  1.00  0.00    -0.014 A 
BRANCH  37  38
ATOM     38  C   UNL A   1      41.487  27.501  28.963  1.00  0.00     0.031 A 
ATOM     39  C   UNL A   1      42.310  27.472  30.221  1.00  0.00     0.074 A 
ATOM     40  C   UNL A   1      40.506  28.405  28.810  1.00  0.00     0.049 A 
ATOM     41  N   UNL A   1      42.124  28.099  31.351  1.00  0.00    -0.248 NA
ATOM     42  C   UNL A   1      43.498  26.600  30.200  1.00  0.00     0.031 C 
ATOM     43  C   UNL A   1      39.694  28.587  27.610  1.00  0.00     0.029 A 
ATOM     44  N   UNL A   1      40.014  29.331  29.697  1.00  0.00    -0.354 N 
ATOM     45  C   UNL A   1      43.153  27.676  32.181  1.00  0.00     0.074 A 
ATOM     46  C   UNL A   1      43.957  26.737  31.433  1.00  0.00     0.031 C 
ATOM     47  C   UNL A   1      38.785  29.552  27.845  1.00  0.00     0.029 A 
ATOM     48  C   UNL A   1      38.919  30.014  29.227  1.00  0.00     0.049 A 
ATOM     49  H   UNL A   1      40.409  29.490  30.585  1.00  0.00     0.167 HD
ATOM     50  C   UNL A   1      43.402  28.036  33.459  1.00  0.00     0.037 A 
ATOM     51  C   UNL A   1      38.099  30.877  29.860  1.00  0.00     0.037 A 
ATOM     52  C   UNL A   1      42.601  28.970  34.197  1.00  0.00     0.049 A 
ATOM     53  C   UNL A   1      38.337  31.196  31.315  1.00  0.00     0.074 A 
ATOM     54  C   UNL A   1      42.761  29.395  35.502  1.00  0.00     0.029 A 
ATOM     55  N   UNL A   1      41.487  29.620  33.690  1.00  0.00    -0.354 N 
ATOM     56  N   UNL A   1      39.292  30.772  32.108  1.00  0.00    -0.248 NA
ATOM     57  C   UNL A   1      37.376  32.097  31.970  1.00  0.00     0.031 C 
ATOM     58  C   UNL A   1      41.720  30.277  35.799  1.00  0.00     0.029 A 
ATOM     59  C   UNL A   1      40.941  30.435  34.663  1.00  0.00     0.049 A 
ATOM     60  H   UNL A   1      41.139  29.518  32.775  1.00  0.00     0.167 HD
ATOM     61  C   UNL A   1      39.064  31.375  33.340  1.00  0.00     0.074 A 
ATOM     62  C   UNL A   1      37.879  32.193  33.194  1.00  0.00     0.031 C 
ATOM     63  C   UNL A   1      39.775  31.262  34.487  1.00  0.00     0.037 A 
BRANCH  50  64
ATOM     64  C   UNL A   1      44.567  27.395  34.145  1.00  0.00     0.057 A 
ATOM     65  C   UNL A   1      45.831  27.999  34.114  1.00  0.00     0.134 A 
ATOM     66  C   UNL A   1      44.449  26.167  34.806  1.00  0.00     0.134 A 
ATOM     67  F   UNL A   1      46.007  29.179  33.502  1.00  0.00    -0.206 F 
ATOM     68  C   UNL A   1      46.939  27.393  34.703  1.00  0.00     0.040 A 
ATOM     69  C   UNL A   1      45.547  25.563  35.419  1.00  0.00     0.040 A 
ATOM     70  F   UNL A   1      43.259  25.553  34.890  1.00  0.00    -0.206 F 
ATOM     71  C   UNL A   1      46.799  26.173  35.360  1.00  0.00     0.006 A 
ENDBRANCH  50  64
BRANCH  51  72
ATOM     72  C   UNL A   1      36.953  31.481  29.132  1.00  0.00     0.057 A 
ATOM     73  C   UNL A   1      36.999  32.796  28.653  1.00  0.00     0.134 A 
ATOM     74  C   UNL A   1      35.782  30.751  28.897  1.00  0.00     0.134 A 
ATOM     75  F   UNL A   1      38.094  33.547  28.839  1.00  0.00    -0.206 F 
ATOM     76  C   UNL A   1      35.916  33.369  27.983  1.00  0.00     0.040 A 
ATOM     77  C   UNL A   1      34.701  31.303  28.209  1.00  0.00     0.040 A 
ATOM     78  F   UNL A   1      35.689  29.476  29.304  1.00  0.00    -0.206 F 
ATOM     79  C   UNL A   1      34.763  32.620  27.756  1.00  0.00     0.006 A 
ENDBRANCH  51  72
BRANCH  63  80
ATOM     80  C   UNL A   1      39.341  32.065  35.676  1.00  0.00     0.057 A 
ATOM     81  C   UNL A   1      38.408  31.539  36.580  1.00  0.00     0.134 A 
ATOM     82  C   UNL A   1      39.723  33.401  35.839  1.00  0.00     0.134 A 
ATOM     83  F   UNL A   1      37.989  30.269  36.464  1.00  0.00    -0.206 F 
ATOM     84  C   UNL A   1      37.847  32.323  37.588  1.00  0.00     0.040 A 
ATOM     85  C   UNL A   1      39.184  34.190  36.856  1.00  0.00     0.040 A 
ATOM     86  F   UNL A   1      40.614  33.959  35.006  1.00  0.00    -0.206 F 
ATOM     87  C   UNL A   1      38.233  33.656  37.725  1.00  0.00     0.006 A 
ENDBRANCH  63  80
ENDBRANCH  37  38
ENDBRANCH  30  32
ENDBRANCH  29  30
ENDBRANCH  28  29
ENDBRANCH  27  28
ENDBRANCH  26  27
ENDBRANCH  25  26
ENDBRANCH   1  25
TORSDOF 22
ENDMDL
MODEL 2
REMARK VINA RESULT:     -10.1      4.560      9.634
REMARK SMILES C[C@H](O)[C@@H](NS(=O)(=O)c1ccc(F)cc1)C(=O)OCCOCCOCCOC(=O)c1ccc(-c2c3nc(c(-c4c(F)cccc4F)c4ccc([nH]4)c(-c4c(F)cccc4F)c4nc(c(-c5c(F)cccc5F)c5ccc2[nH]5)C=C4)C=C3)cc1
REMARK SMILES IDX 22 1 21 2 20 3 19 4 18 5 16 6 17 7 4 8 2 9 1 10 3 11 5 13
REMARK SMILES IDX 6 15 7 16 8 17 9 18 10 19 15 20 11 21 14 22 12 23 13 24
REMARK SMILES IDX 23 25 24 26 25 27 26 28 27 29 28 30 29 31 30 32 31 33 83 34
REMARK SMILES IDX 32 35 82 36 33 37 34 38 35 39 76 40 36 41 81 42 75 43 77 44
REMARK SMILES IDX 37 45 80 46 74 47 73 48 38 50 64 51 47 52 63 53 48 54 51 55
REMARK SMILES IDX 62 56 78 57 49 58 50 59 61 61 79 62 52 63 39 64 40 65 45 66
REMARK SMILES IDX 41 67 42 68 44 69 46 70 43 71 65 72 66 73 71 74 67 75 68 76
REMARK SMILES IDX 70 77 72 78 69 79 53 80 54 81 59 82 55 83 56 84 58 85 60 86
REMARK SMILES IDX 57 87
REMARK H PARENT 3 12 5 14 77 49 51 60
REMARK Flexibility Score: inf
ROOT
ATOM      1  C   UNL A   1      34.284  30.455  27.312  1.00  0.00     0.188 C 
ENDROOT
BRANCH   1   2
ATOM      2  O   UNL A   1      33.308  29.438  27.141  1.00  0.00    -0.376 OA
BRANCH   2   3
ATOM      3  C   UNL A   1      33.172  28.816  25.865  1.00  0.00     0.202 C 
BRANCH   3   4
ATOM      4  C   UNL A   1      31.773  28.776  25.245  1.00  0.00     0.261 C 
BRANCH   4   5
ATOM      5  O   UNL A   1      31.024  27.543  25.399  1.00  0.00    -0.462 OA
BRANCH   5   6
ATOM      6  C   UNL A   1      31.398  26.502  24.598  1.00  0.00     0.326 C 
ATOM      7  O   UNL A   1      31.289  26.508  23.375  1.00  0.00    -0.250 OA
BRANCH   6   8
ATOM      8  C   UNL A   1      31.885  25.274  25.353  1.00  0.00     0.208 C 
BRANCH   8   9
ATOM      9  C   UNL A   1      30.854  24.531  26.237  1.00  0.00     0.140 C 
ATOM     10  C   UNL A   1      30.956  23.007  26.189  1.00  0.00     0.040 C 
BRANCH   9  11
ATOM     11  O   UNL A   1      29.543  24.890  25.737  1.00  0.00    -0.391 OA
ATOM     12  H   UNL A   1      29.159  25.578  26.302  1.00  0.00     0.211 HD
ENDBRANCH   9  11
ENDBRANCH   8   9
BRANCH   8  13
ATOM     13  N   UNL A   1      32.473  24.285  24.395  1.00  0.00    -0.194 NA
ATOM     14  H   UNL A   1      31.870  24.262  23.573  1.00  0.00     0.142 HD
BRANCH  13  15
ATOM     15  S   UNL A   1      34.047  24.554  23.855  1.00  0.00     0.241 S 
ATOM     16  O   UNL A   1      34.008  24.675  22.417  1.00  0.00    -0.207 OA
ATOM     17  O   UNL A   1      34.590  25.601  24.693  1.00  0.00    -0.207 OA
BRANCH  15  18
ATOM     18  C   UNL A   1      34.894  23.057  24.296  1.00  0.00     0.082 A 
ATOM     19  C   UNL A   1      36.273  22.943  24.073  1.00  0.00     0.025 A 
ATOM     20  C   UNL A   1      34.158  21.978  24.801  1.00  0.00     0.025 A 
ATOM     21  C   UNL A   1      36.912  21.730  24.330  1.00  0.00     0.040 A 
ATOM     22  C   UNL A   1      34.809  20.771  25.067  1.00  0.00     0.040 A 
ATOM     23  C   UNL A   1      36.176  20.655  24.818  1.00  0.00     0.123 A 
ATOM     24  F   UNL A   1      36.777  19.473  25.001  1.00  0.00    -0.207 F 
ENDBRANCH  15  18
ENDBRANCH  13  15
ENDBRANCH   8  13
ENDBRANCH   6   8
ENDBRANCH   5   6
ENDBRANCH   4   5
ENDBRANCH   3   4
ENDBRANCH   2   3
ENDBRANCH   1   2
BRANCH   1  25
ATOM     25  C   UNL A   1      33.779  31.850  27.675  1.00  0.00     0.188 C 
BRANCH  25  26
ATOM     26  O   UNL A   1      34.758  32.868  27.639  1.00  0.00    -0.376 OA
BRANCH  26  27
ATOM     27  C   UNL A   1      34.502  34.057  28.375  1.00  0.00     0.202 C 
BRANCH  27  28
ATOM     28  C   UNL A   1      34.231  33.902  29.878  1.00  0.00     0.261 C 
BRANCH  28  29
ATOM     29  O   UNL A   1      34.927  32.818  30.525  1.00  0.00    -0.460 OA
BRANCH  29  30
ATOM     30  C   UNL A   1      36.016  33.100  31.278  1.00  0.00     0.338 C 
ATOM     31  O   UNL A   1      36.075  33.809  32.265  1.00  0.00    -0.246 OA
BRANCH  30  32
ATOM     32  C   UNL A   1      37.077  32.155  30.856  1.00  0.00     0.060 A 
ATOM     33  C   UNL A   1      37.851  31.512  31.836  1.00  0.00     0.016 A 
ATOM     34  C   UNL A   1      37.250  31.852  29.506  1.00  0.00     0.016 A 
ATOM     35  C   UNL A   1      38.825  30.582  31.463  1.00  0.00     0.010 A 
ATOM     36  C   UNL A   1      38.241  30.949  29.130  1.00  0.00     0.010 A 
ATOM     37  C   UNL A   1      39.056  30.342  30.103  1.00  0.00    -0.014 A 
BRANCH  37  38
ATOM     38  C   UNL A   1      40.314  29.708  29.649  1.00  0.00     0.031 A 
ATOM     39  C   UNL A   1      41.509  30.608  29.500  1.00  0.00     0.074 A 
ATOM     40  C   UNL A   1      40.392  28.410  29.315  1.00  0.00     0.049 A 
ATOM     41  N   UNL A   1      42.647  30.387  28.900  1.00  0.00    -0.248 NA
ATOM     42  C   UNL A   1      41.391  31.949  30.101  1.00  0.00     0.031 C 
ATOM     43  C   UNL A   1      39.332  27.420  29.487  1.00  0.00     0.029 A 
ATOM     44  N   UNL A   1      41.420  27.710  28.732  1.00  0.00    -0.354 N 
ATOM     45  C   UNL A   1      43.367  31.568  29.027  1.00  0.00     0.074 A 
ATOM     46  C   UNL A   1      42.541  32.504  29.754  1.00  0.00     0.031 C 
ATOM     47  C   UNL A   1      39.758  26.241  28.997  1.00  0.00     0.029 A 
ATOM     48  C   UNL A   1      41.096  26.410  28.429  1.00  0.00     0.049 A 
ATOM     49  H   UNL A   1      42.304  28.102  28.549  1.00  0.00     0.167 HD
ATOM     50  C   UNL A   1      44.608  31.847  28.572  1.00  0.00     0.037 A 
ATOM     51  C   UNL A   1      41.786  25.485  27.733  1.00  0.00     0.037 A 
ATOM     52  C   UNL A   1      45.425  30.913  27.852  1.00  0.00     0.049 A 
ATOM     53  C   UNL A   1      43.131  25.844  27.153  1.00  0.00     0.074 A 
ATOM     54  C   UNL A   1      46.693  31.100  27.337  1.00  0.00     0.029 A 
ATOM     55  N   UNL A   1      45.047  29.615  27.547  1.00  0.00    -0.354 N 
ATOM     56  N   UNL A   1      43.797  26.969  27.246  1.00  0.00    -0.248 NA
ATOM     57  C   UNL A   1      43.813  24.814  26.353  1.00  0.00     0.031 C 
ATOM     58  C   UNL A   1      47.071  29.925  26.685  1.00  0.00     0.029 A 
ATOM     59  C   UNL A   1      46.056  28.993  26.836  1.00  0.00     0.049 A 
ATOM     60  H   UNL A   1      44.192  29.199  27.799  1.00  0.00     0.167 HD
ATOM     61  C   UNL A   1      44.983  26.774  26.547  1.00  0.00     0.074 A 
ATOM     62  C   UNL A   1      44.947  25.423  26.030  1.00  0.00     0.031 C 
ATOM     63  C   UNL A   1      46.010  27.637  26.354  1.00  0.00     0.037 A 
BRANCH  50  64
ATOM     64  C   UNL A   1      45.140  33.224  28.813  1.00  0.00     0.057 A 
ATOM     65  C   UNL A   1      45.925  33.496  29.941  1.00  0.00     0.134 A 
ATOM     66  C   UNL A   1      44.849  34.288  27.950  1.00  0.00     0.134 A 
ATOM     67  F   UNL A   1      46.243  32.518  30.801  1.00  0.00    -0.206 F 
ATOM     68  C   UNL A   1      46.388  34.783  30.210  1.00  0.00     0.040 A 
ATOM     69  C   UNL A   1      45.327  35.575  28.197  1.00  0.00     0.040 A 
ATOM     70  F   UNL A   1      44.123  34.084  26.841  1.00  0.00    -0.206 F 
ATOM     71  C   UNL A   1      46.092  35.827  29.336  1.00  0.00     0.006 A 
ENDBRANCH  50  64
BRANCH  51  72
ATOM     72  C   UNL A   1      41.208  24.133  27.519  1.00  0.00     0.057 A 
ATOM     73  C   UNL A   1      41.681  23.014  28.216  1.00  0.00     0.134 A 
ATOM     74  C   UNL A   1      40.162  23.931  26.612  1.00  0.00     0.134 A 
ATOM     75  F   UNL A   1      42.677  23.140  29.104  1.00  0.00    -0.206 F 
ATOM     76  C   UNL A   1      41.149  21.740  28.003  1.00  0.00     0.040 A 
ATOM     77  C   UNL A   1      39.605  22.668  26.406  1.00  0.00     0.040 A 
ATOM     78  F   UNL A   1      39.645  24.968  25.938  1.00  0.00    -0.206 F 
ATOM     79  C   UNL A   1      40.105  21.565  27.098  1.00  0.00     0.006 A 
ENDBRANCH  51  72
BRANCH  63  80
ATOM     80  C   UNL A   1      47.209  27.156  25.594  1.00  0.00     0.057 A 
ATOM     81  C   UNL A   1      48.259  26.514  26.266  1.00  0.00     0.134 A 
ATOM     82  C   UNL A   1      47.393  27.462  24.242  1.00  0.00     0.134 A 
ATOM     83  F   UNL A   1      48.149  26.211  27.569  1.00  0.00    -0.206 F 
ATOM     84  C   UNL A   1      49.462  26.220  25.625  1.00  0.00     0.040 A 
ATOM     85  C   UNL A   1      48.585  27.154  23.584  1.00  0.00     0.040 A 
ATOM     86  F   UNL A   1      46.423  28.073  23.546  1.00  0.00    -0.206 F 
ATOM     87  C   UNL A   1      49.629  26.545  24.280  1.00  0.00     0.006 A 
ENDBRANCH  63  80
ENDBRANCH  37  38
ENDBRANCH  30  32
ENDBRANCH  29  30
ENDBRANCH  28  29
ENDBRANCH  27  28
ENDBRANCH  26  27
ENDBRANCH  25  26
ENDBRANCH   1  25
TORSDOF 22
ENDMDL
MODEL 3
REMARK VINA RESULT:     -10.0      1.149      2.149
REMARK SMILES C[C@H](O)[C@@H](NS(=O)(=O)c1ccc(F)cc1)C(=O)OCCOCCOCCOC(=O)c1ccc(-c2c3nc(c(-c4c(F)cccc4F)c4ccc([nH]4)c(-c4c(F)cccc4F)c4nc(c(-c5c(F)cccc5F)c5ccc2[nH]5)C=C4)C=C3)cc1
REMARK SMILES IDX 22 1 21 2 20 3 19 4 18 5 16 6 17 7 4 8 2 9 1 10 3 11 5 13
REMARK SMILES IDX 6 15 7 16 8 17 9 18 10 19 15 20 11 21 14 22 12 23 13 24
REMARK SMILES IDX 23 25 24 26 25 27 26 28 27 29 28 30 29 31 30 32 31 33 83 34
REMARK SMILES IDX 32 35 82 36 33 37 34 38 35 39 76 40 36 41 81 42 75 43 77 44
REMARK SMILES IDX 37 45 80 46 74 47 73 48 38 50 64 51 47 52 63 53 48 54 51 55
REMARK SMILES IDX 62 56 78 57 49 58 50 59 61 61 79 62 52 63 39 64 40 65 45 66
REMARK SMILES IDX 41 67 42 68 44 69 46 70 43 71 65 72 66 73 71 74 67 75 68 76
REMARK SMILES IDX 70 77 72 78 69 79 53 80 54 81 59 82 55 83 56 84 58 85 60 86
REMARK SMILES IDX 57 87
REMARK H PARENT 3 12 5 14 77 49 51 60
REMARK Flexibility Score: inf
ROOT
ATOM      1  C   UNL A   1      39.443  21.137  25.768  1.00  0.00     0.188 C 
ENDROOT
BRANCH   1   2
ATOM      2  O   UNL A   1      38.037  21.023  25.601  1.00  0.00    -0.376 OA
BRANCH   2   3
ATOM      3  C   UNL A   1      37.270  22.201  25.363  1.00  0.00     0.202 C 
BRANCH   3   4
ATOM      4  C   UNL A   1      35.991  22.055  24.534  1.00  0.00     0.261 C 
BRANCH   4   5
ATOM      5  O   UNL A   1      34.733  22.259  25.228  1.00  0.00    -0.462 OA
BRANCH   5   6
ATOM      6  C   UNL A   1      33.599  22.002  24.514  1.00  0.00     0.326 C 
ATOM      7  O   UNL A   1      33.383  20.943  23.932  1.00  0.00    -0.250 OA
BRANCH   6   8
ATOM      8  C   UNL A   1      32.641  23.181  24.413  1.00  0.00     0.208 C 
BRANCH   8   9
ATOM      9  C   UNL A   1      31.687  23.422  25.608  1.00  0.00     0.140 C 
ATOM     10  C   UNL A   1      32.072  24.601  26.501  1.00  0.00     0.040 C 
BRANCH   9  11
ATOM     11  O   UNL A   1      31.737  22.229  26.427  1.00  0.00    -0.391 OA
ATOM     12  H   UNL A   1      30.836  21.963  26.666  1.00  0.00     0.211 HD
ENDBRANCH   9  11
ENDBRANCH   8   9
BRANCH   8  13
ATOM     13  N   UNL A   1      33.408  24.443  24.169  1.00  0.00    -0.194 NA
ATOM     14  H   UNL A   1      34.378  24.181  23.994  1.00  0.00     0.142 HD
BRANCH  13  15
ATOM     15  S   UNL A   1      32.916  25.428  22.894  1.00  0.00     0.241 S 
ATOM     16  O   UNL A   1      34.029  25.568  21.985  1.00  0.00    -0.207 OA
ATOM     17  O   UNL A   1      31.635  24.917  22.457  1.00  0.00    -0.207 OA
BRANCH  15  18
ATOM     18  C   UNL A   1      32.601  26.990  23.680  1.00  0.00     0.082 A 
ATOM     19  C   UNL A   1      33.660  27.714  24.244  1.00  0.00     0.025 A 
ATOM     20  C   UNL A   1      31.283  27.450  23.784  1.00  0.00     0.025 A 
ATOM     21  C   UNL A   1      33.391  28.890  24.945  1.00  0.00     0.040 A 
ATOM     22  C   UNL A   1      31.025  28.635  24.476  1.00  0.00     0.040 A 
ATOM     23  C   UNL A   1      32.079  29.337  25.059  1.00  0.00     0.123 A 
ATOM     24  F   UNL A   1      31.815  30.429  25.788  1.00  0.00    -0.207 F 
ENDBRANCH  15  18
ENDBRANCH  13  15
ENDBRANCH   8  13
ENDBRANCH   6   8
ENDBRANCH   5   6
ENDBRANCH   4   5
ENDBRANCH   3   4
ENDBRANCH   2   3
ENDBRANCH   1   2
BRANCH   1  25
ATOM     25  C   UNL A   1      40.198  19.879  26.190  1.00  0.00     0.188 C 
BRANCH  25  26
ATOM     26  O   UNL A   1      41.305  19.546  25.378  1.00  0.00    -0.376 OA
BRANCH  26  27
ATOM     27  C   UNL A   1      42.580  19.463  26.001  1.00  0.00     0.202 C 
BRANCH  27  28
ATOM     28  C   UNL A   1      43.421  20.746  26.044  1.00  0.00     0.261 C 
BRANCH  28  29
ATOM     29  O   UNL A   1      42.694  21.954  26.345  1.00  0.00    -0.460 OA
BRANCH  29  30
ATOM     30  C   UNL A   1      42.898  23.047  25.572  1.00  0.00     0.338 C 
ATOM     31  O   UNL A   1      43.204  23.079  24.395  1.00  0.00    -0.246 OA
BRANCH  30  32
ATOM     32  C   UNL A   1      42.396  24.209  26.344  1.00  0.00     0.060 A 
ATOM     33  C   UNL A   1      42.871  25.494  26.033  1.00  0.00     0.016 A 
ATOM     34  C   UNL A   1      41.409  24.033  27.313  1.00  0.00     0.016 A 
ATOM     35  C   UNL A   1      42.378  26.608  26.716  1.00  0.00     0.010 A 
ATOM     36  C   UNL A   1      40.940  25.139  28.017  1.00  0.00     0.010 A 
ATOM     37  C   UNL A   1      41.449  26.423  27.748  1.00  0.00    -0.014 A 
BRANCH  37  38
ATOM     38  C   UNL A   1      41.215  27.482  28.755  1.00  0.00     0.031 A 
ATOM     39  C   UNL A   1      42.069  27.440  29.991  1.00  0.00     0.074 A 
ATOM     40  C   UNL A   1      40.247  28.404  28.625  1.00  0.00     0.049 A 
ATOM     41  N   UNL A   1      41.924  28.072  31.124  1.00  0.00    -0.248 NA
ATOM     42  C   UNL A   1      43.240  26.546  29.942  1.00  0.00     0.031 C 
ATOM     43  C   UNL A   1      39.408  28.598  27.446  1.00  0.00     0.029 A 
ATOM     44  N   UNL A   1      39.796  29.339  29.522  1.00  0.00    -0.354 N 
ATOM     45  C   UNL A   1      42.967  27.631  31.929  1.00  0.00     0.074 A 
ATOM     46  C   UNL A   1      43.733  26.677  31.162  1.00  0.00     0.031 C 
ATOM     47  C   UNL A   1      38.524  29.580  27.702  1.00  0.00     0.029 A 
ATOM     48  C   UNL A   1      38.702  30.042  29.079  1.00  0.00     0.049 A 
ATOM     49  H   UNL A   1      40.216  29.493  30.400  1.00  0.00     0.167 HD
ATOM     50  C   UNL A   1      43.255  27.989  33.199  1.00  0.00     0.037 A 
ATOM     51  C   UNL A   1      37.914  30.920  29.731  1.00  0.00     0.037 A 
ATOM     52  C   UNL A   1      42.490  28.939  33.956  1.00  0.00     0.049 A 
ATOM     53  C   UNL A   1      38.195  31.238  31.178  1.00  0.00     0.074 A 
ATOM     54  C   UNL A   1      42.691  29.363  35.255  1.00  0.00     0.029 A 
ATOM     55  N   UNL A   1      41.376  29.609  33.475  1.00  0.00    -0.354 N 
ATOM     56  N   UNL A   1      39.162  30.798  31.947  1.00  0.00    -0.248 NA
ATOM     57  C   UNL A   1      37.267  32.158  31.856  1.00  0.00     0.031 C 
ATOM     58  C   UNL A   1      41.675  30.265  35.576  1.00  0.00     0.029 A 
ATOM     59  C   UNL A   1      40.869  30.435  34.461  1.00  0.00     0.049 A 
ATOM     60  H   UNL A   1      41.002  29.511  32.570  1.00  0.00     0.167 HD
ATOM     61  C   UNL A   1      38.977  31.407  33.184  1.00  0.00     0.074 A 
ATOM     62  C   UNL A   1      37.804  32.246  33.067  1.00  0.00     0.031 C 
ATOM     63  C   UNL A   1      39.715  31.283  34.313  1.00  0.00     0.037 A 
BRANCH  50  64
ATOM     64  C   UNL A   1      44.425  27.328  33.856  1.00  0.00     0.057 A 
ATOM     65  C   UNL A   1      44.262  26.126  34.555  1.00  0.00     0.134 A 
ATOM     66  C   UNL A   1      45.704  27.896  33.827  1.00  0.00     0.134 A 
ATOM     67  F   UNL A   1      43.063  25.529  34.614  1.00  0.00    -0.206 F 
ATOM     68  C   UNL A   1      45.329  25.520  35.217  1.00  0.00     0.040 A 
ATOM     69  C   UNL A   1      46.784  27.287  34.466  1.00  0.00     0.040 A 
ATOM     70  F   UNL A   1      45.928  29.034  33.152  1.00  0.00    -0.206 F 
ATOM     71  C   UNL A   1      46.595  26.100  35.172  1.00  0.00     0.006 A 
ENDBRANCH  50  64
BRANCH  51  72
ATOM     72  C   UNL A   1      36.761  31.544  29.031  1.00  0.00     0.057 A 
ATOM     73  C   UNL A   1      36.785  32.885  28.628  1.00  0.00     0.134 A 
ATOM     74  C   UNL A   1      35.605  30.807  28.747  1.00  0.00     0.134 A 
ATOM     75  F   UNL A   1      37.865  33.644  28.864  1.00  0.00    -0.206 F 
ATOM     76  C   UNL A   1      35.695  33.476  27.985  1.00  0.00     0.040 A 
ATOM     77  C   UNL A   1      34.517  31.379  28.085  1.00  0.00     0.040 A 
ATOM     78  F   UNL A   1      35.533  29.510  29.081  1.00  0.00    -0.206 F 
ATOM     79  C   UNL A   1      34.558  32.720  27.708  1.00  0.00     0.006 A 
ENDBRANCH  51  72
BRANCH  63  80
ATOM     80  C   UNL A   1      39.326  32.096  35.510  1.00  0.00     0.057 A 
ATOM     81  C   UNL A   1      39.974  33.309  35.780  1.00  0.00     0.134 A 
ATOM     82  C   UNL A   1      38.430  31.610  36.468  1.00  0.00     0.134 A 
ATOM     83  F   UNL A   1      40.858  33.818  34.907  1.00  0.00    -0.206 F 
ATOM     84  C   UNL A   1      39.766  33.997  36.975  1.00  0.00     0.040 A 
ATOM     85  C   UNL A   1      38.199  32.300  37.659  1.00  0.00     0.040 A 
ATOM     86  F   UNL A   1      37.778  30.456  36.265  1.00  0.00    -0.206 F 
ATOM     87  C   UNL A   1      38.878  33.488  37.922  1.00  0.00     0.006 A 
ENDBRANCH  63  80
ENDBRANCH  37  38
ENDBRANCH  30  32
ENDBRANCH  29  30
ENDBRANCH  28  29
ENDBRANCH  27  28
ENDBRANCH  26  27
ENDBRANCH  25  26
ENDBRANCH   1  25
TORSDOF 22
ENDMDL
