MODEL 1
REMARK VINA RESULT:     -10.3      0.000      0.000
REMARK SMILES O=C(OCCOCCOCCOC(=O)[C@@H]1O[C@H](OC(=O)c2cccnc2)[C@@H](O)[C@H](O)[C@H]1O)c1ccc(-c2c3nc(c(-c4c(F)cccc4F)c4ccc([nH]4)c(-c4c(F)cccc4F)c4nc(c(-c5c(F)cccc5F)c5ccc2[nH]5)C=C4)C=C3)cc1
REMARK SMILES IDX 8 1 7 2 6 3 5 4 4 5 3 6 2 7 1 8 33 9 34 10 86 11 35 12 85 13
REMARK SMILES IDX 36 14 37 15 38 16 79 17 39 18 84 19 78 20 80 21 40 22 83 23
REMARK SMILES IDX 77 24 76 25 41 27 67 28 50 29 66 30 51 31 54 32 65 33 81 34
REMARK SMILES IDX 52 35 53 36 64 38 82 39 55 40 42 41 43 42 48 43 44 44 45 45
REMARK SMILES IDX 47 46 49 47 46 48 68 49 69 50 74 51 70 52 71 53 73 54 75 55
REMARK SMILES IDX 72 56 56 57 57 58 62 59 58 60 59 61 61 62 63 63 60 64 9 65
REMARK SMILES IDX 10 66 11 67 12 68 13 69 14 70 15 71 16 72 31 73 17 74 29 75
REMARK SMILES IDX 27 76 32 77 18 79 19 80 20 81 21 82 22 83 26 84 23 85 25 86
REMARK SMILES IDX 24 87 30 88 28 90
REMARK H PARENT 80 26 54 37 32 78 30 89 28 91
REMARK Flexibility Score: inf
ROOT
ATOM      1  C   UNL A   1      34.377  34.130  29.329  1.00  0.00     0.188 C 
ENDROOT
BRANCH   1   2
ATOM      2  C   UNL A   1      33.349  35.138  29.849  1.00  0.00     0.188 C 
BRANCH   2   3
ATOM      3  O   UNL A   1      33.016  34.953  31.233  1.00  0.00    -0.376 OA
BRANCH   3   4
ATOM      4  C   UNL A   1      34.176  34.705  32.046  1.00  0.00     0.202 C 
BRANCH   4   5
ATOM      5  C   UNL A   1      34.107  33.433  32.910  1.00  0.00     0.261 C 
BRANCH   5   6
ATOM      6  O   UNL A   1      35.003  32.398  32.470  1.00  0.00    -0.460 OA
BRANCH   6   7
ATOM      7  C   UNL A   1      36.230  32.066  32.944  1.00  0.00     0.338 C 
ATOM      8  O   UNL A   1      36.464  32.262  34.136  1.00  0.00    -0.246 OA
BRANCH   7   9
ATOM      9  C   UNL A   1      37.321  31.464  32.114  1.00  0.00     0.060 A 
ATOM     10  C   UNL A   1      38.392  30.729  32.614  1.00  0.00     0.016 A 
ATOM     11  C   UNL A   1      37.239  31.621  30.716  1.00  0.00     0.016 A 
ATOM     12  C   UNL A   1      39.411  30.280  31.788  1.00  0.00     0.010 A 
ATOM     13  C   UNL A   1      38.225  31.102  29.863  1.00  0.00     0.010 A 
ATOM     14  C   UNL A   1      39.338  30.458  30.407  1.00  0.00    -0.014 A 
BRANCH  14  15
ATOM     15  C   UNL A   1      40.507  30.018  29.613  1.00  0.00     0.031 A 
ATOM     16  C   UNL A   1      41.665  30.940  29.459  1.00  0.00     0.074 A 
ATOM     17  C   UNL A   1      40.628  28.724  29.266  1.00  0.00     0.049 A 
ATOM     18  N   UNL A   1      42.820  30.707  28.901  1.00  0.00    -0.248 NA
ATOM     19  C   UNL A   1      41.531  32.277  30.056  1.00  0.00     0.031 C 
ATOM     20  C   UNL A   1      39.615  27.722  29.547  1.00  0.00     0.029 A 
ATOM     21  N   UNL A   1      41.635  28.007  28.678  1.00  0.00    -0.354 N 
ATOM     22  C   UNL A   1      43.568  31.851  29.111  1.00  0.00     0.074 A 
ATOM     23  C   UNL A   1      42.721  32.798  29.804  1.00  0.00     0.031 C 
ATOM     24  C   UNL A   1      40.053  26.513  29.178  1.00  0.00     0.029 A 
ATOM     25  C   UNL A   1      41.323  26.677  28.508  1.00  0.00     0.049 A 
ATOM     26  H   UNL A   1      42.494  28.402  28.405  1.00  0.00     0.167 HD
ATOM     27  C   UNL A   1      44.856  32.070  28.769  1.00  0.00     0.037 A 
ATOM     28  C   UNL A   1      41.955  25.706  27.827  1.00  0.00     0.037 A 
ATOM     29  C   UNL A   1      45.660  31.121  28.048  1.00  0.00     0.049 A 
ATOM     30  C   UNL A   1      43.285  26.048  27.247  1.00  0.00     0.074 A 
ATOM     31  C   UNL A   1      46.938  31.273  27.546  1.00  0.00     0.029 A 
ATOM     32  N   UNL A   1      45.250  29.833  27.717  1.00  0.00    -0.354 N 
ATOM     33  N   UNL A   1      43.951  27.173  27.352  1.00  0.00    -0.248 NA
ATOM     34  C   UNL A   1      43.963  25.006  26.474  1.00  0.00     0.031 C 
ATOM     35  C   UNL A   1      47.285  30.092  26.878  1.00  0.00     0.029 A 
ATOM     36  C   UNL A   1      46.242  29.186  27.002  1.00  0.00     0.049 A 
ATOM     37  H   UNL A   1      44.379  29.439  27.958  1.00  0.00     0.167 HD
ATOM     38  C   UNL A   1      45.139  26.973  26.678  1.00  0.00     0.074 A 
ATOM     39  C   UNL A   1      45.105  25.610  26.177  1.00  0.00     0.031 C 
ATOM     40  C   UNL A   1      46.168  27.835  26.502  1.00  0.00     0.037 A 
BRANCH  27  41
ATOM     41  C   UNL A   1      45.415  33.409  29.131  1.00  0.00     0.057 A 
ATOM     42  C   UNL A   1      46.067  33.633  30.351  1.00  0.00     0.134 A 
ATOM     43  C   UNL A   1      45.239  34.504  28.278  1.00  0.00     0.134 A 
ATOM     44  F   UNL A   1      46.228  32.631  31.230  1.00  0.00    -0.206 F 
ATOM     45  C   UNL A   1      46.507  34.906  30.719  1.00  0.00     0.040 A 
ATOM     46  C   UNL A   1      45.691  35.777  28.627  1.00  0.00     0.040 A 
ATOM     47  F   UNL A   1      44.602  34.359  27.106  1.00  0.00    -0.206 F 
ATOM     48  C   UNL A   1      46.320  35.981  29.853  1.00  0.00     0.006 A 
ENDBRANCH  27  41
BRANCH  28  49
ATOM     49  C   UNL A   1      41.293  24.399  27.574  1.00  0.00     0.057 A 
ATOM     50  C   UNL A   1      40.223  24.258  26.687  1.00  0.00     0.134 A 
ATOM     51  C   UNL A   1      41.715  23.246  28.255  1.00  0.00     0.134 A 
ATOM     52  F   UNL A   1      39.757  25.322  26.018  1.00  0.00    -0.206 F 
ATOM     53  C   UNL A   1      39.586  23.028  26.500  1.00  0.00     0.040 A 
ATOM     54  C   UNL A   1      41.104  22.007  28.062  1.00  0.00     0.040 A 
ATOM     55  F   UNL A   1      42.739  23.306  29.121  1.00  0.00    -0.206 F 
ATOM     56  C   UNL A   1      40.027  21.897  27.186  1.00  0.00     0.006 A 
ENDBRANCH  28  49
BRANCH  40  57
ATOM     57  C   UNL A   1      47.346  27.292  25.760  1.00  0.00     0.057 A 
ATOM     58  C   UNL A   1      48.392  26.635  26.419  1.00  0.00     0.134 A 
ATOM     59  C   UNL A   1      47.442  27.455  24.374  1.00  0.00     0.134 A 
ATOM     60  F   UNL A   1      48.366  26.478  27.751  1.00  0.00    -0.206 F 
ATOM     61  C   UNL A   1      49.514  26.185  25.724  1.00  0.00     0.040 A 
ATOM     62  C   UNL A   1      48.545  26.984  23.665  1.00  0.00     0.040 A 
ATOM     63  F   UNL A   1      46.470  28.079  23.692  1.00  0.00    -0.206 F 
ATOM     64  C   UNL A   1      49.589  26.356  24.341  1.00  0.00     0.006 A 
ENDBRANCH  40  57
ENDBRANCH  14  15
ENDBRANCH   7   9
ENDBRANCH   6   7
ENDBRANCH   5   6
ENDBRANCH   4   5
ENDBRANCH   3   4
ENDBRANCH   2   3
ENDBRANCH   1   2
BRANCH   1  65
ATOM     65  O   UNL A   1      33.925  32.793  29.132  1.00  0.00    -0.376 OA
BRANCH  65  66
ATOM     66  C   UNL A   1      33.896  32.287  27.799  1.00  0.00     0.202 C 
BRANCH  66  67
ATOM     67  C   UNL A   1      33.897  30.763  27.630  1.00  0.00     0.261 C 
BRANCH  67  68
ATOM     68  O   UNL A   1      32.988  30.321  26.611  1.00  0.00    -0.461 OA
BRANCH  68  69
ATOM     69  C   UNL A   1      33.121  29.017  26.221  1.00  0.00     0.338 C 
ATOM     70  O   UNL A   1      34.184  28.410  26.173  1.00  0.00    -0.249 OA
BRANCH  69  71
ATOM     71  C   UNL A   1      31.746  28.403  25.924  1.00  0.00     0.263 C 
ATOM     72  O   UNL A   1      31.894  26.992  26.007  1.00  0.00    -0.322 OA
ATOM     73  C   UNL A   1      31.278  28.883  24.552  1.00  0.00     0.186 C 
ATOM     74  C   UNL A   1      30.862  26.172  25.482  1.00  0.00     0.343 C 
ATOM     75  C   UNL A   1      29.990  28.137  24.178  1.00  0.00     0.181 C 
ATOM     76  C   UNL A   1      30.217  26.641  24.172  1.00  0.00     0.214 C 
BRANCH  73  77
ATOM     77  O   UNL A   1      31.050  30.294  24.554  1.00  0.00    -0.387 OA
ATOM     78  H   UNL A   1      31.385  30.675  25.380  1.00  0.00     0.211 HD
ENDBRANCH  73  77
BRANCH  74  79
ATOM     79  O   UNL A   1      31.389  24.845  25.292  1.00  0.00    -0.429 OA
BRANCH  79  80
ATOM     80  C   UNL A   1      31.341  24.061  26.392  1.00  0.00     0.342 C 
ATOM     81  O   UNL A   1      30.444  24.001  27.236  1.00  0.00    -0.246 OA
BRANCH  80  82
ATOM     82  C   UNL A   1      32.545  23.248  26.472  1.00  0.00     0.078 A 
ATOM     83  C   UNL A   1      32.903  22.571  27.636  1.00  0.00     0.019 A 
ATOM     84  C   UNL A   1      33.325  23.097  25.335  1.00  0.00     0.126 A 
ATOM     85  C   UNL A   1      34.041  21.772  27.621  1.00  0.00     0.021 A 
ATOM     86  N   UNL A   1      34.442  22.333  25.300  1.00  0.00    -0.264 NA
ATOM     87  C   UNL A   1      34.771  21.689  26.444  1.00  0.00     0.111 A 
ENDBRANCH  80  82
ENDBRANCH  79  80
ENDBRANCH  74  79
BRANCH  75  88
ATOM     88  O   UNL A   1      29.512  28.446  22.866  1.00  0.00    -0.387 OA
ATOM     89  H   UNL A   1      28.611  28.803  22.926  1.00  0.00     0.211 HD
ENDBRANCH  75  88
BRANCH  76  90
ATOM     90  O   UNL A   1      28.960  25.979  23.939  1.00  0.00    -0.384 OA
ATOM     91  H   UNL A   1      29.019  25.058  24.238  1.00  0.00     0.211 HD
ENDBRANCH  76  90
ENDBRANCH  69  71
ENDBRANCH  68  69
ENDBRANCH  67  68
ENDBRANCH  66  67
ENDBRANCH  65  66
ENDBRANCH   1  65
TORSDOF 23
ENDMDL
MODEL 2
REMARK VINA RESULT:     -10.3      1.132      6.180
REMARK SMILES O=C(OCCOCCOCCOC(=O)[C@@H]1O[C@H](OC(=O)c2cccnc2)[C@@H](O)[C@H](O)[C@H]1O)c1ccc(-c2c3nc(c(-c4c(F)cccc4F)c4ccc([nH]4)c(-c4c(F)cccc4F)c4nc(c(-c5c(F)cccc5F)c5ccc2[nH]5)C=C4)C=C3)cc1
REMARK SMILES IDX 8 1 7 2 6 3 5 4 4 5 3 6 2 7 1 8 33 9 34 10 86 11 35 12 85 13
REMARK SMILES IDX 36 14 37 15 38 16 79 17 39 18 84 19 78 20 80 21 40 22 83 23
REMARK SMILES IDX 77 24 76 25 41 27 67 28 50 29 66 30 51 31 54 32 65 33 81 34
REMARK SMILES IDX 52 35 53 36 64 38 82 39 55 40 42 41 43 42 48 43 44 44 45 45
REMARK SMILES IDX 47 46 49 47 46 48 68 49 69 50 74 51 70 52 71 53 73 54 75 55
REMARK SMILES IDX 72 56 56 57 57 58 62 59 58 60 59 61 61 62 63 63 60 64 9 65
REMARK SMILES IDX 10 66 11 67 12 68 13 69 14 70 15 71 16 72 31 73 17 74 29 75
REMARK SMILES IDX 27 76 32 77 18 79 19 80 20 81 21 82 22 83 26 84 23 85 25 86
REMARK SMILES IDX 24 87 30 88 28 90
REMARK H PARENT 80 26 54 37 32 78 30 89 28 91
REMARK Flexibility Score: inf
ROOT
ATOM      1  C   UNL A   1      34.894  32.088  27.949  1.00  0.00     0.188 C 
ENDROOT
BRANCH   1   2
ATOM      2  C   UNL A   1      35.241  33.571  28.105  1.00  0.00     0.188 C 
BRANCH   2   3
ATOM      3  O   UNL A   1      35.549  33.948  29.456  1.00  0.00    -0.376 OA
BRANCH   3   4
ATOM      4  C   UNL A   1      34.400  33.881  30.317  1.00  0.00     0.202 C 
BRANCH   4   5
ATOM      5  C   UNL A   1      34.603  33.075  31.614  1.00  0.00     0.261 C 
BRANCH   5   6
ATOM      6  O   UNL A   1      35.908  33.252  32.194  1.00  0.00    -0.460 OA
BRANCH   6   7
ATOM      7  C   UNL A   1      36.714  32.337  32.788  1.00  0.00     0.338 C 
ATOM      8  O   UNL A   1      36.486  32.034  33.958  1.00  0.00    -0.246 OA
BRANCH   7   9
ATOM      9  C   UNL A   1      37.863  31.658  32.109  1.00  0.00     0.060 A 
ATOM     10  C   UNL A   1      38.906  31.007  32.763  1.00  0.00     0.016 A 
ATOM     11  C   UNL A   1      37.871  31.642  30.700  1.00  0.00     0.016 A 
ATOM     12  C   UNL A   1      39.980  30.479  32.064  1.00  0.00     0.010 A 
ATOM     13  C   UNL A   1      38.916  31.041  29.982  1.00  0.00     0.010 A 
ATOM     14  C   UNL A   1      39.997  30.486  30.671  1.00  0.00    -0.014 A 
BRANCH  14  15
ATOM     15  C   UNL A   1      41.219  29.974  30.012  1.00  0.00     0.031 A 
ATOM     16  C   UNL A   1      41.236  28.575  29.505  1.00  0.00     0.074 A 
ATOM     17  C   UNL A   1      42.188  30.833  29.646  1.00  0.00     0.049 A 
ATOM     18  N   UNL A   1      42.159  27.975  28.808  1.00  0.00    -0.248 NA
ATOM     19  C   UNL A   1      40.039  27.761  29.768  1.00  0.00     0.031 C 
ATOM     20  C   UNL A   1      42.154  32.253  29.946  1.00  0.00     0.029 A 
ATOM     21  N   UNL A   1      43.334  30.687  28.911  1.00  0.00    -0.354 N 
ATOM     22  C   UNL A   1      41.644  26.726  28.512  1.00  0.00     0.074 A 
ATOM     23  C   UNL A   1      40.346  26.634  29.147  1.00  0.00     0.031 C 
ATOM     24  C   UNL A   1      43.195  32.866  29.372  1.00  0.00     0.029 A 
ATOM     25  C   UNL A   1      44.045  31.858  28.780  1.00  0.00     0.049 A 
ATOM     26  H   UNL A   1      43.620  29.831  28.517  1.00  0.00     0.167 HD
ATOM     27  C   UNL A   1      42.206  25.758  27.756  1.00  0.00     0.037 A 
ATOM     28  C   UNL A   1      45.278  32.089  28.299  1.00  0.00     0.037 A 
ATOM     29  C   UNL A   1      43.514  25.867  27.168  1.00  0.00     0.049 A 
ATOM     30  C   UNL A   1      45.983  30.932  27.675  1.00  0.00     0.074 A 
ATOM     31  C   UNL A   1      44.236  24.912  26.479  1.00  0.00     0.029 A 
ATOM     32  N   UNL A   1      44.302  27.012  27.212  1.00  0.00    -0.354 N 
ATOM     33  N   UNL A   1      45.537  29.713  27.492  1.00  0.00    -0.248 NA
ATOM     34  C   UNL A   1      47.341  31.169  27.180  1.00  0.00     0.031 C 
ATOM     35  C   UNL A   1      45.476  25.467  26.140  1.00  0.00     0.029 A 
ATOM     36  C   UNL A   1      45.511  26.782  26.578  1.00  0.00     0.049 A 
ATOM     37  H   UNL A   1      44.039  27.864  27.632  1.00  0.00     0.167 HD
ATOM     38  C   UNL A   1      46.547  29.036  26.838  1.00  0.00     0.074 A 
ATOM     39  C   UNL A   1      47.628  29.988  26.649  1.00  0.00     0.031 C 
ATOM     40  C   UNL A   1      46.572  27.747  26.424  1.00  0.00     0.037 A 
BRANCH  27  41
ATOM     41  C   UNL A   1      41.411  24.501  27.598  1.00  0.00     0.057 A 
ATOM     42  C   UNL A   1      41.718  23.337  28.315  1.00  0.00     0.134 A 
ATOM     43  C   UNL A   1      40.369  24.435  26.666  1.00  0.00     0.134 A 
ATOM     44  F   UNL A   1      42.735  23.326  29.191  1.00  0.00    -0.206 F 
ATOM     45  C   UNL A   1      41.028  22.143  28.095  1.00  0.00     0.040 A 
ATOM     46  C   UNL A   1      39.660  23.253  26.452  1.00  0.00     0.040 A 
ATOM     47  F   UNL A   1      40.043  25.510  25.933  1.00  0.00    -0.206 F 
ATOM     48  C   UNL A   1      39.994  22.102  27.162  1.00  0.00     0.006 A 
ENDBRANCH  27  41
BRANCH  28  49
ATOM     49  C   UNL A   1      45.936  33.407  28.492  1.00  0.00     0.057 A 
ATOM     50  C   UNL A   1      46.701  33.706  29.623  1.00  0.00     0.134 A 
ATOM     51  C   UNL A   1      45.783  34.424  27.536  1.00  0.00     0.134 A 
ATOM     52  F   UNL A   1      46.873  32.787  30.583  1.00  0.00    -0.206 F 
ATOM     53  C   UNL A   1      47.273  34.969  29.805  1.00  0.00     0.040 A 
ATOM     54  C   UNL A   1      46.366  35.682  27.694  1.00  0.00     0.040 A 
ATOM     55  F   UNL A   1      45.063  34.208  26.425  1.00  0.00    -0.206 F 
ATOM     56  C   UNL A   1      47.108  35.960  28.839  1.00  0.00     0.006 A 
ENDBRANCH  28  49
BRANCH  40  57
ATOM     57  C   UNL A   1      47.808  27.327  25.695  1.00  0.00     0.057 A 
ATOM     58  C   UNL A   1      48.922  26.814  26.370  1.00  0.00     0.134 A 
ATOM     59  C   UNL A   1      47.887  27.465  24.305  1.00  0.00     0.134 A 
ATOM     60  F   UNL A   1      48.911  26.689  27.705  1.00  0.00    -0.206 F 
ATOM     61  C   UNL A   1      50.090  26.481  25.686  1.00  0.00     0.040 A 
ATOM     62  C   UNL A   1      49.039  27.109  23.607  1.00  0.00     0.040 A 
ATOM     63  F   UNL A   1      46.851  27.954  23.608  1.00  0.00    -0.206 F 
ATOM     64  C   UNL A   1      50.148  26.625  24.299  1.00  0.00     0.006 A 
ENDBRANCH  40  57
ENDBRANCH  14  15
ENDBRANCH   7   9
ENDBRANCH   6   7
ENDBRANCH   5   6
ENDBRANCH   4   5
ENDBRANCH   3   4
ENDBRANCH   2   3
ENDBRANCH   1   2
BRANCH   1  65
ATOM     65  O   UNL A   1      33.546  31.776  27.606  1.00  0.00    -0.376 OA
BRANCH  65  66
ATOM     66  C   UNL A   1      33.249  30.438  27.215  1.00  0.00     0.202 C 
BRANCH  66  67
ATOM     67  C   UNL A   1      31.899  30.193  26.531  1.00  0.00     0.261 C 
BRANCH  67  68
ATOM     68  O   UNL A   1      31.975  29.197  25.501  1.00  0.00    -0.461 OA
BRANCH  68  69
ATOM     69  C   UNL A   1      30.963  29.214  24.581  1.00  0.00     0.338 C 
ATOM     70  O   UNL A   1      30.383  30.225  24.204  1.00  0.00    -0.249 OA
BRANCH  69  71
ATOM     71  C   UNL A   1      30.710  27.802  24.036  1.00  0.00     0.263 C 
ATOM     72  O   UNL A   1      31.377  26.895  24.903  1.00  0.00    -0.322 OA
ATOM     73  C   UNL A   1      31.204  27.735  22.592  1.00  0.00     0.186 C 
ATOM     74  C   UNL A   1      31.564  25.557  24.468  1.00  0.00     0.343 C 
ATOM     75  C   UNL A   1      31.112  26.283  22.103  1.00  0.00     0.181 C 
ATOM     76  C   UNL A   1      31.924  25.364  22.989  1.00  0.00     0.214 C 
BRANCH  73  77
ATOM     77  O   UNL A   1      30.433  28.592  21.747  1.00  0.00    -0.387 OA
ATOM     78  H   UNL A   1      30.036  29.299  22.279  1.00  0.00     0.211 HD
ENDBRANCH  73  77
BRANCH  74  79
ATOM     79  O   UNL A   1      32.591  24.955  25.279  1.00  0.00    -0.429 OA
BRANCH  79  80
ATOM     80  C   UNL A   1      32.134  24.084  26.205  1.00  0.00     0.342 C 
ATOM     81  O   UNL A   1      31.426  24.329  27.184  1.00  0.00    -0.246 OA
BRANCH  80  82
ATOM     82  C   UNL A   1      32.605  22.743  25.897  1.00  0.00     0.078 A 
ATOM     83  C   UNL A   1      31.778  21.786  25.310  1.00  0.00     0.019 A 
ATOM     84  C   UNL A   1      33.933  22.429  26.142  1.00  0.00     0.126 A 
ATOM     85  C   UNL A   1      32.314  20.541  24.999  1.00  0.00     0.021 A 
ATOM     86  N   UNL A   1      34.473  21.221  25.856  1.00  0.00    -0.264 NA
ATOM     87  C   UNL A   1      33.650  20.308  25.291  1.00  0.00     0.111 A 
ENDBRANCH  80  82
ENDBRANCH  79  80
ENDBRANCH  74  79
BRANCH  75  88
ATOM     88  O   UNL A   1      31.637  26.090  20.787  1.00  0.00    -0.387 OA
ATOM     89  H   UNL A   1      30.920  25.821  20.190  1.00  0.00     0.211 HD
ENDBRANCH  75  88
BRANCH  76  90
ATOM     90  O   UNL A   1      31.711  24.004  22.571  1.00  0.00    -0.384 OA
ATOM     91  H   UNL A   1      30.778  23.769  22.695  1.00  0.00     0.211 HD
ENDBRANCH  76  90
ENDBRANCH  69  71
ENDBRANCH  68  69
ENDBRANCH  67  68
ENDBRANCH  66  67
ENDBRANCH  65  66
ENDBRANCH   1  65
TORSDOF 23
ENDMDL
MODEL 3
REMARK VINA RESULT:     -10.2      3.932      6.823
REMARK SMILES O=C(OCCOCCOCCOC(=O)[C@@H]1O[C@H](OC(=O)c2cccnc2)[C@@H](O)[C@H](O)[C@H]1O)c1ccc(-c2c3nc(c(-c4c(F)cccc4F)c4ccc([nH]4)c(-c4c(F)cccc4F)c4nc(c(-c5c(F)cccc5F)c5ccc2[nH]5)C=C4)C=C3)cc1
REMARK SMILES IDX 8 1 7 2 6 3 5 4 4 5 3 6 2 7 1 8 33 9 34 10 86 11 35 12 85 13
REMARK SMILES IDX 36 14 37 15 38 16 79 17 39 18 84 19 78 20 80 21 40 22 83 23
REMARK SMILES IDX 77 24 76 25 41 27 67 28 50 29 66 30 51 31 54 32 65 33 81 34
REMARK SMILES IDX 52 35 53 36 64 38 82 39 55 40 42 41 43 42 48 43 44 44 45 45
REMARK SMILES IDX 47 46 49 47 46 48 68 49 69 50 74 51 70 52 71 53 73 54 75 55
REMARK SMILES IDX 72 56 56 57 57 58 62 59 58 60 59 61 61 62 63 63 60 64 9 65
REMARK SMILES IDX 10 66 11 67 12 68 13 69 14 70 15 71 16 72 31 73 17 74 29 75
REMARK SMILES IDX 27 76 32 77 18 79 19 80 20 81 21 82 22 83 26 84 23 85 25 86
REMARK SMILES IDX 24 87 30 88 28 90
REMARK H PARENT 80 26 54 37 32 78 30 89 28 91
REMARK Flexibility Score: inf
ROOT
ATOM      1  C   UNL A   1      30.627  29.309  24.243  1.00  0.00     0.188 C 
ENDROOT
BRANCH   1   2
ATOM      2  C   UNL A   1      31.307  30.412  25.059  1.00  0.00     0.188 C 
BRANCH   2   3
ATOM      3  O   UNL A   1      31.674  30.001  26.384  1.00  0.00    -0.376 OA
BRANCH   3   4
ATOM      4  C   UNL A   1      32.333  31.046  27.118  1.00  0.00     0.202 C 
BRANCH   4   5
ATOM      5  C   UNL A   1      32.039  32.474  26.625  1.00  0.00     0.261 C 
BRANCH   5   6
ATOM      6  O   UNL A   1      32.096  33.460  27.671  1.00  0.00    -0.460 OA
BRANCH   6   7
ATOM      7  C   UNL A   1      33.177  34.072  28.214  1.00  0.00     0.338 C 
ATOM      8  O   UNL A   1      33.158  35.298  28.322  1.00  0.00    -0.246 OA
BRANCH   7   9
ATOM      9  C   UNL A   1      34.396  33.354  28.706  1.00  0.00     0.060 A 
ATOM     10  C   UNL A   1      34.385  32.229  29.525  1.00  0.00     0.016 A 
ATOM     11  C   UNL A   1      35.651  33.830  28.275  1.00  0.00     0.016 A 
ATOM     12  C   UNL A   1      35.560  31.675  30.009  1.00  0.00     0.010 A 
ATOM     13  C   UNL A   1      36.846  33.227  28.697  1.00  0.00     0.010 A 
ATOM     14  C   UNL A   1      36.799  32.163  29.600  1.00  0.00    -0.014 A 
BRANCH  14  15
ATOM     15  C   UNL A   1      37.997  31.563  30.230  1.00  0.00     0.031 A 
ATOM     16  C   UNL A   1      38.298  31.873  31.654  1.00  0.00     0.074 A 
ATOM     17  C   UNL A   1      38.642  30.558  29.610  1.00  0.00     0.049 A 
ATOM     18  N   UNL A   1      39.227  31.368  32.416  1.00  0.00    -0.248 NA
ATOM     19  C   UNL A   1      37.408  32.833  32.324  1.00  0.00     0.031 C 
ATOM     20  C   UNL A   1      38.287  30.074  28.288  1.00  0.00     0.029 A 
ATOM     21  N   UNL A   1      39.660  29.727  29.994  1.00  0.00    -0.354 N 
ATOM     22  C   UNL A   1      39.014  31.916  33.668  1.00  0.00     0.074 A 
ATOM     23  C   UNL A   1      37.898  32.831  33.554  1.00  0.00     0.031 C 
ATOM     24  C   UNL A   1      39.033  29.008  27.976  1.00  0.00     0.029 A 
ATOM     25  C   UNL A   1      40.014  28.820  29.021  1.00  0.00     0.049 A 
ATOM     26  H   UNL A   1      40.094  29.773  30.877  1.00  0.00     0.167 HD
ATOM     27  C   UNL A   1      39.685  31.652  34.810  1.00  0.00     0.037 A 
ATOM     28  C   UNL A   1      41.056  27.976  28.944  1.00  0.00     0.037 A 
ATOM     29  C   UNL A   1      40.814  30.764  34.882  1.00  0.00     0.049 A 
ATOM     30  C   UNL A   1      41.933  27.878  30.146  1.00  0.00     0.074 A 
ATOM     31  C   UNL A   1      41.644  30.504  35.955  1.00  0.00     0.029 A 
ATOM     32  N   UNL A   1      41.275  29.991  33.821  1.00  0.00    -0.354 N 
ATOM     33  N   UNL A   1      41.795  28.483  31.301  1.00  0.00    -0.248 NA
ATOM     34  C   UNL A   1      43.090  26.986  30.055  1.00  0.00     0.031 C 
ATOM     35  C   UNL A   1      42.631  29.606  35.532  1.00  0.00     0.029 A 
ATOM     36  C   UNL A   1      42.391  29.269  34.209  1.00  0.00     0.049 A 
ATOM     37  H   UNL A   1      40.868  29.962  32.924  1.00  0.00     0.167 HD
ATOM     38  C   UNL A   1      42.834  28.030  32.090  1.00  0.00     0.074 A 
ATOM     39  C   UNL A   1      43.589  27.090  31.279  1.00  0.00     0.031 C 
ATOM     40  C   UNL A   1      43.129  28.355  33.371  1.00  0.00     0.037 A 
BRANCH  27  41
ATOM     41  C   UNL A   1      39.229  32.391  36.027  1.00  0.00     0.057 A 
ATOM     42  C   UNL A   1      38.290  31.846  36.914  1.00  0.00     0.134 A 
ATOM     43  C   UNL A   1      39.683  33.690  36.279  1.00  0.00     0.134 A 
ATOM     44  F   UNL A   1      37.784  30.622  36.702  1.00  0.00    -0.206 F 
ATOM     45  C   UNL A   1      37.804  32.579  37.999  1.00  0.00     0.040 A 
ATOM     46  C   UNL A   1      39.219  34.424  37.371  1.00  0.00     0.040 A 
ATOM     47  F   UNL A   1      40.566  34.274  35.454  1.00  0.00    -0.206 F 
ATOM     48  C   UNL A   1      38.271  33.871  38.229  1.00  0.00     0.006 A 
ENDBRANCH  27  41
BRANCH  28  49
ATOM     49  C   UNL A   1      41.371  27.271  27.674  1.00  0.00     0.057 A 
ATOM     50  C   UNL A   1      40.963  25.958  27.422  1.00  0.00     0.134 A 
ATOM     51  C   UNL A   1      42.129  27.906  26.677  1.00  0.00     0.134 A 
ATOM     52  F   UNL A   1      40.252  25.285  28.339  1.00  0.00    -0.206 F 
ATOM     53  C   UNL A   1      41.310  25.298  26.240  1.00  0.00     0.040 A 
ATOM     54  C   UNL A   1      42.464  27.269  25.482  1.00  0.00     0.040 A 
ATOM     55  F   UNL A   1      42.553  29.168  26.849  1.00  0.00    -0.206 F 
ATOM     56  C   UNL A   1      42.060  25.954  25.264  1.00  0.00     0.006 A 
ENDBRANCH  28  49
BRANCH  40  57
ATOM     57  C   UNL A   1      44.304  27.647  33.963  1.00  0.00     0.057 A 
ATOM     58  C   UNL A   1      44.182  26.380  34.547  1.00  0.00     0.134 A 
ATOM     59  C   UNL A   1      45.563  28.256  33.971  1.00  0.00     0.134 A 
ATOM     60  F   UNL A   1      42.992  25.763  34.593  1.00  0.00    -0.206 F 
ATOM     61  C   UNL A   1      45.273  25.755  35.149  1.00  0.00     0.040 A 
ATOM     62  C   UNL A   1      46.667  27.628  34.545  1.00  0.00     0.040 A 
ATOM     63  F   UNL A   1      45.736  29.471  33.430  1.00  0.00    -0.206 F 
ATOM     64  C   UNL A   1      46.520  26.379  35.145  1.00  0.00     0.006 A 
ENDBRANCH  40  57
ENDBRANCH  14  15
ENDBRANCH   7   9
ENDBRANCH   6   7
ENDBRANCH   5   6
ENDBRANCH   4   5
ENDBRANCH   3   4
ENDBRANCH   2   3
ENDBRANCH   1   2
BRANCH   1  65
ATOM     65  O   UNL A   1      31.210  28.010  24.307  1.00  0.00    -0.376 OA
BRANCH  65  66
ATOM     66  C   UNL A   1      32.289  27.717  23.423  1.00  0.00     0.202 C 
BRANCH  66  67
ATOM     67  C   UNL A   1      32.975  26.356  23.584  1.00  0.00     0.261 C 
BRANCH  67  68
ATOM     68  O   UNL A   1      32.294  25.308  22.880  1.00  0.00    -0.461 OA
BRANCH  68  69
ATOM     69  C   UNL A   1      31.646  24.390  23.660  1.00  0.00     0.338 C 
ATOM     70  O   UNL A   1      30.496  24.011  23.478  1.00  0.00    -0.249 OA
BRANCH  69  71
ATOM     71  C   UNL A   1      32.586  23.850  24.746  1.00  0.00     0.263 C 
ATOM     72  O   UNL A   1      33.251  22.720  24.198  1.00  0.00    -0.322 OA
ATOM     73  C   UNL A   1      31.764  23.524  25.992  1.00  0.00     0.186 C 
ATOM     74  C   UNL A   1      33.944  21.850  25.078  1.00  0.00     0.343 C 
ATOM     75  C   UNL A   1      32.669  22.825  27.015  1.00  0.00     0.181 C 
ATOM     76  C   UNL A   1      33.272  21.567  26.428  1.00  0.00     0.214 C 
BRANCH  73  77
ATOM     77  O   UNL A   1      31.202  24.710  26.558  1.00  0.00    -0.387 OA
ATOM     78  H   UNL A   1      31.778  25.466  26.365  1.00  0.00     0.211 HD
ENDBRANCH  73  77
BRANCH  74  79
ATOM     79  O   UNL A   1      34.168  20.600  24.399  1.00  0.00    -0.429 OA
BRANCH  79  80
ATOM     80  C   UNL A   1      33.040  19.950  24.036  1.00  0.00     0.342 C 
ATOM     81  O   UNL A   1      32.021  20.432  23.538  1.00  0.00    -0.246 OA
BRANCH  80  82
ATOM     82  C   UNL A   1      33.175  18.530  24.321  1.00  0.00     0.078 A 
ATOM     83  C   UNL A   1      33.819  17.658  23.445  1.00  0.00     0.019 A 
ATOM     84  C   UNL A   1      32.697  18.043  25.529  1.00  0.00     0.126 A 
ATOM     85  C   UNL A   1      33.953  16.323  23.809  1.00  0.00     0.021 A 
ATOM     86  N   UNL A   1      32.807  16.746  25.899  1.00  0.00    -0.264 NA
ATOM     87  C   UNL A   1      33.433  15.919  25.031  1.00  0.00     0.111 A 
ENDBRANCH  80  82
ENDBRANCH  79  80
ENDBRANCH  74  79
BRANCH  75  88
ATOM     88  O   UNL A   1      31.977  22.392  28.188  1.00  0.00    -0.387 OA
ATOM     89  H   UNL A   1      31.832  23.151  28.776  1.00  0.00     0.211 HD
ENDBRANCH  75  88
BRANCH  76  90
ATOM     90  O   UNL A   1      34.205  21.012  27.373  1.00  0.00    -0.384 OA
ATOM     91  H   UNL A   1      35.061  21.463  27.286  1.00  0.00     0.211 HD
ENDBRANCH  76  90
ENDBRANCH  69  71
ENDBRANCH  68  69
ENDBRANCH  67  68
ENDBRANCH  66  67
ENDBRANCH  65  66
ENDBRANCH   1  65
TORSDOF 23
ENDMDL
