MODEL 1
REMARK VINA RESULT:     -12.1      0.000      0.000
REMARK SMILES Cc1ccc2[nH]cc([C@@H](C(=O)OCCOCCOCCOC(=O)c3ccc(-c4c5nc(c(-c6c(F)cccc6F)c6ccc([nH]6)c(-c6c(F)cccc6F)c6nc(c(-c7c(F)cccc7F)c7ccc4[nH]7)C=C6)C=C5)cc3)[NH+]3CCN(c4cccc(Cl)c4)CC3)c2c1
REMARK SMILES IDX 16 1 15 2 14 3 13 4 12 5 10 6 11 7 9 8 8 9 1 10 2 11 3 12
REMARK SMILES IDX 92 13 4 14 91 15 5 16 6 17 7 18 78 20 79 21 90 22 80 24
REMARK SMILES IDX 89 25 81 26 82 27 83 28 88 29 84 30 86 31 85 32 87 33 17 34
REMARK SMILES IDX 18 35 19 36 20 37 21 38 22 39 23 40 24 41 25 42 77 43 26 44
REMARK SMILES IDX 76 45 27 46 28 47 29 48 70 49 30 50 75 51 69 52 71 53 31 54
REMARK SMILES IDX 74 55 68 56 67 57 32 59 58 60 41 61 57 62 42 63 45 64 56 65
REMARK SMILES IDX 72 66 43 67 44 68 55 70 73 71 46 72 33 73 34 74 39 75 35 76
REMARK SMILES IDX 36 77 38 78 40 79 37 80 59 81 60 82 65 83 61 84 62 85 64 86
REMARK SMILES IDX 66 87 63 88 47 89 48 90 53 91 49 92 50 93 52 94 54 95 51 96
REMARK H PARENT 6 19 78 23 71 58 45 69
REMARK Flexibility Score: inf
ROOT
ATOM      1  C   UNL A   1      38.706  21.478  25.761  1.00  0.00     0.188 C 
ENDROOT
BRANCH   1   2
ATOM      2  O   UNL A   1      38.772  22.733  26.429  1.00  0.00    -0.376 OA
BRANCH   2   3
ATOM      3  C   UNL A   1      38.026  23.828  25.910  1.00  0.00     0.202 C 
BRANCH   3   4
ATOM      4  C   UNL A   1      36.510  23.626  25.846  1.00  0.00     0.261 C 
BRANCH   4   5
ATOM      5  O   UNL A   1      35.888  24.126  24.639  1.00  0.00    -0.459 OA
BRANCH   5   6
ATOM      6  C   UNL A   1      35.048  23.258  24.003  1.00  0.00     0.370 C 
ATOM      7  O   UNL A   1      35.328  22.738  22.924  1.00  0.00    -0.245 OA
BRANCH   6   8
ATOM      8  C   UNL A   1      33.666  23.097  24.693  1.00  0.00     0.328 C 
BRANCH   8   9
ATOM      9  C   UNL A   1      33.354  21.801  25.418  1.00  0.00     0.046 A 
ATOM     10  C   UNL A   1      32.146  18.555  21.634  1.00  0.00     0.044 C 
ATOM     11  C   UNL A   1      32.460  18.890  23.062  1.00  0.00    -0.050 A 
ATOM     12  C   UNL A   1      32.521  17.893  24.039  1.00  0.00     0.005 A 
ATOM     13  C   UNL A   1      32.701  20.228  23.417  1.00  0.00     0.014 A 
ATOM     14  C   UNL A   1      32.784  18.204  25.377  1.00  0.00     0.027 A 
ATOM     15  C   UNL A   1      32.982  20.571  24.757  1.00  0.00     0.009 A 
ATOM     16  C   UNL A   1      32.993  19.549  25.705  1.00  0.00     0.046 A 
ATOM     17  N   UNL A   1      33.254  20.132  26.918  1.00  0.00    -0.361 N 
ATOM     18  C   UNL A   1      33.459  21.479  26.760  1.00  0.00     0.094 A 
ATOM     19  H   UNL A   1      33.290  19.653  27.778  1.00  0.00     0.166 HD
ENDBRANCH   8   9
BRANCH   8  20
ATOM     20  N   UNL A   1      32.574  23.500  23.779  1.00  0.00    -0.316 N 
ATOM     21  C   UNL A   1      31.244  23.743  24.341  1.00  0.00     0.284 C 
ATOM     22  C   UNL A   1      32.908  24.449  22.709  1.00  0.00     0.284 C 
ATOM     23  H   UNL A   1      32.478  22.595  23.320  1.00  0.00     0.349 HD
ATOM     24  C   UNL A   1      30.845  25.209  24.576  1.00  0.00     0.178 C 
ATOM     25  C   UNL A   1      32.606  25.942  22.990  1.00  0.00     0.178 C 
ATOM     26  N   UNL A   1      31.235  26.105  23.489  1.00  0.00    -0.360 N 
BRANCH  26  27
ATOM     27  C   UNL A   1      30.767  27.412  23.634  1.00  0.00     0.038 A 
ATOM     28  C   UNL A   1      29.781  27.956  22.795  1.00  0.00     0.026 A 
ATOM     29  C   UNL A   1      31.352  28.239  24.597  1.00  0.00     0.046 A 
ATOM     30  C   UNL A   1      29.417  29.301  22.888  1.00  0.00     0.004 A 
ATOM     31  C   UNL A   1      30.985  29.581  24.694  1.00  0.00     0.043 A 
ATOM     32  C   UNL A   1      30.026  30.119  23.837  1.00  0.00     0.020 A 
ATOM     33  Cl  UNL A   1      31.736  30.591  25.868  1.00  0.00    -0.084 Cl
ENDBRANCH  26  27
ENDBRANCH   8  20
ENDBRANCH   6   8
ENDBRANCH   5   6
ENDBRANCH   4   5
ENDBRANCH   3   4
ENDBRANCH   2   3
ENDBRANCH   1   2
BRANCH   1  34
ATOM     34  C   UNL A   1      39.830  20.477  26.006  1.00  0.00     0.188 C 
BRANCH  34  35
ATOM     35  O   UNL A   1      40.515  20.755  27.222  1.00  0.00    -0.376 OA
BRANCH  35  36
ATOM     36  C   UNL A   1      41.837  20.222  27.255  1.00  0.00     0.202 C 
BRANCH  36  37
ATOM     37  C   UNL A   1      42.633  20.881  26.126  1.00  0.00     0.261 C 
BRANCH  37  38
ATOM     38  O   UNL A   1      43.354  22.052  26.567  1.00  0.00    -0.460 OA
BRANCH  38  39
ATOM     39  C   UNL A   1      43.206  23.148  25.799  1.00  0.00     0.338 C 
ATOM     40  O   UNL A   1      43.346  23.219  24.580  1.00  0.00    -0.246 OA
BRANCH  39  41
ATOM     41  C   UNL A   1      42.619  24.228  26.608  1.00  0.00     0.060 A 
ATOM     42  C   UNL A   1      43.208  25.491  26.523  1.00  0.00     0.016 A 
ATOM     43  C   UNL A   1      41.541  24.008  27.468  1.00  0.00     0.016 A 
ATOM     44  C   UNL A   1      42.738  26.536  27.312  1.00  0.00     0.010 A 
ATOM     45  C   UNL A   1      41.083  25.058  28.275  1.00  0.00     0.010 A 
ATOM     46  C   UNL A   1      41.694  26.322  28.215  1.00  0.00    -0.014 A 
BRANCH  46  47
ATOM     47  C   UNL A   1      41.390  27.369  29.220  1.00  0.00     0.031 A 
ATOM     48  C   UNL A   1      42.257  27.455  30.443  1.00  0.00     0.074 A 
ATOM     49  C   UNL A   1      40.432  28.292  29.020  1.00  0.00     0.049 A 
ATOM     50  N   UNL A   1      42.081  28.140  31.542  1.00  0.00    -0.248 NA
ATOM     51  C   UNL A   1      43.497  26.663  30.414  1.00  0.00     0.031 C 
ATOM     52  C   UNL A   1      39.625  28.435  27.809  1.00  0.00     0.029 A 
ATOM     53  N   UNL A   1      39.983  29.296  29.843  1.00  0.00    -0.354 N 
ATOM     54  C   UNL A   1      43.164  27.830  32.352  1.00  0.00     0.074 A 
ATOM     55  C   UNL A   1      43.998  26.905  31.617  1.00  0.00     0.031 C 
ATOM     56  C   UNL A   1      38.772  29.461  27.974  1.00  0.00     0.029 A 
ATOM     57  C   UNL A   1      38.923  29.999  29.324  1.00  0.00     0.049 A 
ATOM     58  H   UNL A   1      40.382  29.492  30.721  1.00  0.00     0.167 HD
ATOM     59  C   UNL A   1      43.432  28.271  33.603  1.00  0.00     0.037 A 
ATOM     60  C   UNL A   1      38.134  30.929  29.897  1.00  0.00     0.037 A 
ATOM     61  C   UNL A   1      42.616  29.214  34.318  1.00  0.00     0.049 A 
ATOM     62  C   UNL A   1      38.374  31.315  31.333  1.00  0.00     0.074 A 
ATOM     63  C   UNL A   1      42.765  29.683  35.611  1.00  0.00     0.029 A 
ATOM     64  N   UNL A   1      41.503  29.847  33.787  1.00  0.00    -0.354 N 
ATOM     65  N   UNL A   1      39.326  30.929  32.148  1.00  0.00    -0.248 NA
ATOM     66  C   UNL A   1      37.409  32.246  31.940  1.00  0.00     0.031 C 
ATOM     67  C   UNL A   1      41.722  30.576  35.873  1.00  0.00     0.029 A 
ATOM     68  C   UNL A   1      40.947  30.693  34.730  1.00  0.00     0.049 A 
ATOM     69  H   UNL A   1      41.158  29.714  32.875  1.00  0.00     0.167 HD
ATOM     70  C   UNL A   1      39.089  31.584  33.351  1.00  0.00     0.074 A 
ATOM     71  C   UNL A   1      37.909  32.400  33.159  1.00  0.00     0.031 C 
ATOM     72  C   UNL A   1      39.782  31.511  34.514  1.00  0.00     0.037 A 
BRANCH  59  73
ATOM     73  C   UNL A   1      44.621  27.682  34.296  1.00  0.00     0.057 A 
ATOM     74  C   UNL A   1      45.843  28.358  34.387  1.00  0.00     0.134 A 
ATOM     75  C   UNL A   1      44.535  26.414  34.887  1.00  0.00     0.134 A 
ATOM     76  F   UNL A   1      45.997  29.563  33.818  1.00  0.00    -0.206 F 
ATOM     77  C   UNL A   1      46.945  27.786  35.025  1.00  0.00     0.040 A 
ATOM     78  C   UNL A   1      45.622  25.842  35.547  1.00  0.00     0.040 A 
ATOM     79  F   UNL A   1      43.393  25.713  34.830  1.00  0.00    -0.206 F 
ATOM     80  C   UNL A   1      46.834  26.527  35.614  1.00  0.00     0.006 A 
ENDBRANCH  59  73
BRANCH  60  81
ATOM     81  C   UNL A   1      36.988  31.506  29.147  1.00  0.00     0.057 A 
ATOM     82  C   UNL A   1      37.026  32.814  28.653  1.00  0.00     0.134 A 
ATOM     83  C   UNL A   1      35.808  30.778  28.950  1.00  0.00     0.134 A 
ATOM     84  F   UNL A   1      38.114  33.576  28.841  1.00  0.00    -0.206 F 
ATOM     85  C   UNL A   1      35.929  33.382  28.002  1.00  0.00     0.040 A 
ATOM     86  C   UNL A   1      34.714  31.323  28.278  1.00  0.00     0.040 A 
ATOM     87  F   UNL A   1      35.701  29.523  29.411  1.00  0.00    -0.206 F 
ATOM     88  C   UNL A   1      34.770  32.633  27.808  1.00  0.00     0.006 A 
ENDBRANCH  60  81
BRANCH  72  89
ATOM     89  C   UNL A   1      39.312  32.364  35.653  1.00  0.00     0.057 A 
ATOM     90  C   UNL A   1      39.726  33.693  35.799  1.00  0.00     0.134 A 
ATOM     91  C   UNL A   1      38.387  31.867  36.580  1.00  0.00     0.134 A 
ATOM     92  F   UNL A   1      40.618  34.225  34.948  1.00  0.00    -0.206 F 
ATOM     93  C   UNL A   1      39.247  34.495  36.836  1.00  0.00     0.040 A 
ATOM     94  C   UNL A   1      37.886  32.664  37.609  1.00  0.00     0.040 A 
ATOM     95  F   UNL A   1      37.944  30.603  36.490  1.00  0.00    -0.206 F 
ATOM     96  C   UNL A   1      38.319  33.982  37.741  1.00  0.00     0.006 A 
ENDBRANCH  72  89
ENDBRANCH  46  47
ENDBRANCH  39  41
ENDBRANCH  38  39
ENDBRANCH  37  38
ENDBRANCH  36  37
ENDBRANCH  35  36
ENDBRANCH  34  35
ENDBRANCH   1  34
TORSDOF 20
ENDMDL
MODEL 2
REMARK VINA RESULT:     -12.0      3.655      9.135
REMARK SMILES Cc1ccc2[nH]cc([C@@H](C(=O)OCCOCCOCCOC(=O)c3ccc(-c4c5nc(c(-c6c(F)cccc6F)c6ccc([nH]6)c(-c6c(F)cccc6F)c6nc(c(-c7c(F)cccc7F)c7ccc4[nH]7)C=C6)C=C5)cc3)[NH+]3CCN(c4cccc(Cl)c4)CC3)c2c1
REMARK SMILES IDX 16 1 15 2 14 3 13 4 12 5 10 6 11 7 9 8 8 9 1 10 2 11 3 12
REMARK SMILES IDX 92 13 4 14 91 15 5 16 6 17 7 18 78 20 79 21 90 22 80 24
REMARK SMILES IDX 89 25 81 26 82 27 83 28 88 29 84 30 86 31 85 32 87 33 17 34
REMARK SMILES IDX 18 35 19 36 20 37 21 38 22 39 23 40 24 41 25 42 77 43 26 44
REMARK SMILES IDX 76 45 27 46 28 47 29 48 70 49 30 50 75 51 69 52 71 53 31 54
REMARK SMILES IDX 74 55 68 56 67 57 32 59 58 60 41 61 57 62 42 63 45 64 56 65
REMARK SMILES IDX 72 66 43 67 44 68 55 70 73 71 46 72 33 73 34 74 39 75 35 76
REMARK SMILES IDX 36 77 38 78 40 79 37 80 59 81 60 82 65 83 61 84 62 85 64 86
REMARK SMILES IDX 66 87 63 88 47 89 48 90 53 91 49 92 50 93 52 94 54 95 51 96
REMARK H PARENT 6 19 78 23 71 58 45 69
REMARK Flexibility Score: inf
ROOT
ATOM      1  C   UNL A   1      34.368  31.571  27.970  1.00  0.00     0.188 C 
ENDROOT
BRANCH   1   2
ATOM      2  O   UNL A   1      33.047  31.532  27.443  1.00  0.00    -0.376 OA
BRANCH   2   3
ATOM      3  C   UNL A   1      32.693  30.479  26.553  1.00  0.00     0.202 C 
BRANCH   3   4
ATOM      4  C   UNL A   1      31.928  29.310  27.181  1.00  0.00     0.261 C 
BRANCH   4   5
ATOM      5  O   UNL A   1      31.430  28.339  26.232  1.00  0.00    -0.459 OA
BRANCH   5   6
ATOM      6  C   UNL A   1      32.328  27.397  25.821  1.00  0.00     0.370 C 
ATOM      7  O   UNL A   1      33.255  27.014  26.534  1.00  0.00    -0.245 OA
BRANCH   6   8
ATOM      8  C   UNL A   1      32.154  26.961  24.341  1.00  0.00     0.328 C 
BRANCH   8   9
ATOM      9  C   UNL A   1      31.751  28.001  23.313  1.00  0.00     0.046 A 
ATOM     10  C   UNL A   1      26.628  28.056  23.585  1.00  0.00     0.044 C 
ATOM     11  C   UNL A   1      27.951  28.587  23.114  1.00  0.00    -0.050 A 
ATOM     12  C   UNL A   1      28.025  29.731  22.317  1.00  0.00     0.005 A 
ATOM     13  C   UNL A   1      29.130  27.921  23.487  1.00  0.00     0.014 A 
ATOM     14  C   UNL A   1      29.252  30.212  21.850  1.00  0.00     0.027 A 
ATOM     15  C   UNL A   1      30.386  28.390  23.043  1.00  0.00     0.009 A 
ATOM     16  C   UNL A   1      30.408  29.512  22.217  1.00  0.00     0.046 A 
ATOM     17  N   UNL A   1      31.721  29.747  21.899  1.00  0.00    -0.361 N 
ATOM     18  C   UNL A   1      32.531  28.842  22.538  1.00  0.00     0.094 A 
ATOM     19  H   UNL A   1      32.038  30.462  21.300  1.00  0.00     0.166 HD
ENDBRANCH   8   9
BRANCH   8  20
ATOM     20  N   UNL A   1      31.326  25.738  24.249  1.00  0.00    -0.316 N 
ATOM     21  C   UNL A   1      31.421  24.917  23.041  1.00  0.00     0.284 C 
ATOM     22  C   UNL A   1      31.189  24.925  25.465  1.00  0.00     0.284 C 
ATOM     23  H   UNL A   1      30.434  26.219  24.141  1.00  0.00     0.349 HD
ATOM     24  C   UNL A   1      32.297  23.656  23.124  1.00  0.00     0.178 C 
ATOM     25  C   UNL A   1      32.147  23.715  25.600  1.00  0.00     0.178 C 
ATOM     26  N   UNL A   1      32.136  22.911  24.371  1.00  0.00    -0.360 N 
BRANCH  26  27
ATOM     27  C   UNL A   1      32.829  21.699  24.404  1.00  0.00     0.038 A 
ATOM     28  C   UNL A   1      32.179  20.458  24.308  1.00  0.00     0.026 A 
ATOM     29  C   UNL A   1      34.210  21.714  24.618  1.00  0.00     0.046 A 
ATOM     30  C   UNL A   1      32.885  19.262  24.462  1.00  0.00     0.004 A 
ATOM     31  C   UNL A   1      34.915  20.520  24.767  1.00  0.00     0.043 A 
ATOM     32  C   UNL A   1      34.256  19.293  24.699  1.00  0.00     0.020 A 
ATOM     33  Cl  UNL A   1      36.611  20.558  25.056  1.00  0.00    -0.084 Cl
ENDBRANCH  26  27
ENDBRANCH   8  20
ENDBRANCH   6   8
ENDBRANCH   5   6
ENDBRANCH   4   5
ENDBRANCH   3   4
ENDBRANCH   2   3
ENDBRANCH   1   2
BRANCH   1  34
ATOM     34  C   UNL A   1      34.782  32.801  28.771  1.00  0.00     0.188 C 
BRANCH  34  35
ATOM     35  O   UNL A   1      33.664  33.633  29.058  1.00  0.00    -0.376 OA
BRANCH  35  36
ATOM     36  C   UNL A   1      33.766  34.930  28.475  1.00  0.00     0.202 C 
BRANCH  36  37
ATOM     37  C   UNL A   1      32.975  35.901  29.355  1.00  0.00     0.261 C 
BRANCH  37  38
ATOM     38  O   UNL A   1      32.381  35.252  30.500  1.00  0.00    -0.460 OA
BRANCH  38  39
ATOM     39  C   UNL A   1      32.664  35.808  31.693  1.00  0.00     0.338 C 
ATOM     40  O   UNL A   1      32.020  36.682  32.271  1.00  0.00    -0.246 OA
BRANCH  39  41
ATOM     41  C   UNL A   1      33.750  35.051  32.333  1.00  0.00     0.060 A 
ATOM     42  C   UNL A   1      35.020  35.632  32.350  1.00  0.00     0.016 A 
ATOM     43  C   UNL A   1      33.549  33.778  32.871  1.00  0.00     0.016 A 
ATOM     44  C   UNL A   1      36.100  34.936  32.884  1.00  0.00     0.010 A 
ATOM     45  C   UNL A   1      34.643  33.072  33.391  1.00  0.00     0.010 A 
ATOM     46  C   UNL A   1      35.928  33.642  33.380  1.00  0.00    -0.014 A 
BRANCH  46  47
ATOM     47  C   UNL A   1      37.128  32.831  33.698  1.00  0.00     0.031 A 
ATOM     48  C   UNL A   1      37.778  33.018  35.039  1.00  0.00     0.074 A 
ATOM     49  C   UNL A   1      37.585  31.877  32.867  1.00  0.00     0.049 A 
ATOM     50  N   UNL A   1      38.930  32.582  35.473  1.00  0.00    -0.248 NA
ATOM     51  C   UNL A   1      37.013  33.797  36.026  1.00  0.00     0.031 C 
ATOM     52  C   UNL A   1      36.958  31.470  31.610  1.00  0.00     0.029 A 
ATOM     53  N   UNL A   1      38.691  31.068  32.969  1.00  0.00    -0.354 N 
ATOM     54  C   UNL A   1      39.049  33.069  36.767  1.00  0.00     0.074 A 
ATOM     55  C   UNL A   1      37.849  33.824  37.053  1.00  0.00     0.031 C 
ATOM     56  C   UNL A   1      37.697  30.495  31.052  1.00  0.00     0.029 A 
ATOM     57  C   UNL A   1      38.882  30.260  31.875  1.00  0.00     0.049 A 
ATOM     58  H   UNL A   1      39.289  31.069  33.750  1.00  0.00     0.167 HD
ATOM     59  C   UNL A   1      40.075  32.910  37.635  1.00  0.00     0.037 A 
ATOM     60  C   UNL A   1      39.922  29.466  31.553  1.00  0.00     0.037 A 
ATOM     61  C   UNL A   1      41.253  32.133  37.357  1.00  0.00     0.049 A 
ATOM     62  C   UNL A   1      41.111  29.399  32.477  1.00  0.00     0.074 A 
ATOM     63  C   UNL A   1      42.377  31.954  38.144  1.00  0.00     0.029 A 
ATOM     64  N   UNL A   1      41.447  31.390  36.204  1.00  0.00    -0.354 N 
ATOM     65  N   UNL A   1      41.283  29.960  33.649  1.00  0.00    -0.248 NA
ATOM     66  C   UNL A   1      42.265  28.610  32.017  1.00  0.00     0.031 C 
ATOM     67  C   UNL A   1      43.266  31.127  37.450  1.00  0.00     0.029 A 
ATOM     68  C   UNL A   1      42.677  30.760  36.250  1.00  0.00     0.049 A 
ATOM     69  H   UNL A   1      40.805  31.321  35.461  1.00  0.00     0.167 HD
ATOM     70  C   UNL A   1      42.549  29.576  34.075  1.00  0.00     0.074 A 
ATOM     71  C   UNL A   1      43.099  28.725  33.041  1.00  0.00     0.031 C 
ATOM     72  C   UNL A   1      43.201  29.903  35.218  1.00  0.00     0.037 A 
BRANCH  59  73
ATOM     73  C   UNL A   1      39.992  33.645  38.936  1.00  0.00     0.057 A 
ATOM     74  C   UNL A   1      40.649  34.862  39.149  1.00  0.00     0.134 A 
ATOM     75  C   UNL A   1      39.234  33.123  39.993  1.00  0.00     0.134 A 
ATOM     76  F   UNL A   1      41.413  35.401  38.186  1.00  0.00    -0.206 F 
ATOM     77  C   UNL A   1      40.571  35.526  40.374  1.00  0.00     0.040 A 
ATOM     78  C   UNL A   1      39.130  33.789  41.214  1.00  0.00     0.040 A 
ATOM     79  F   UNL A   1      38.584  31.958  39.853  1.00  0.00    -0.206 F 
ATOM     80  C   UNL A   1      39.803  34.993  41.409  1.00  0.00     0.006 A 
ENDBRANCH  59  73
BRANCH  60  81
ATOM     81  C   UNL A   1      39.934  28.730  30.262  1.00  0.00     0.057 A 
ATOM     82  C   UNL A   1      40.546  29.267  29.124  1.00  0.00     0.134 A 
ATOM     83  C   UNL A   1      39.290  27.495  30.124  1.00  0.00     0.134 A 
ATOM     84  F   UNL A   1      41.149  30.463  29.182  1.00  0.00    -0.206 F 
ATOM     85  C   UNL A   1      40.507  28.608  27.894  1.00  0.00     0.040 A 
ATOM     86  C   UNL A   1      39.265  26.812  28.907  1.00  0.00     0.040 A 
ATOM     87  F   UNL A   1      38.672  26.931  31.173  1.00  0.00    -0.206 F 
ATOM     88  C   UNL A   1      39.868  27.374  27.784  1.00  0.00     0.006 A 
ENDBRANCH  60  81
BRANCH  72  89
ATOM     89  C   UNL A   1      44.560  29.309  35.432  1.00  0.00     0.057 A 
ATOM     90  C   UNL A   1      45.726  29.969  35.027  1.00  0.00     0.134 A 
ATOM     91  C   UNL A   1      44.706  28.089  36.104  1.00  0.00     0.134 A 
ATOM     92  F   UNL A   1      45.653  31.137  34.369  1.00  0.00    -0.206 F 
ATOM     93  C   UNL A   1      46.990  29.431  35.271  1.00  0.00     0.040 A 
ATOM     94  C   UNL A   1      45.964  27.550  36.372  1.00  0.00     0.040 A 
ATOM     95  F   UNL A   1      43.628  27.411  36.526  1.00  0.00    -0.206 F 
ATOM     96  C   UNL A   1      47.111  28.220  35.952  1.00  0.00     0.006 A 
ENDBRANCH  72  89
ENDBRANCH  46  47
ENDBRANCH  39  41
ENDBRANCH  38  39
ENDBRANCH  37  38
ENDBRANCH  36  37
ENDBRANCH  35  36
ENDBRANCH  34  35
ENDBRANCH   1  34
TORSDOF 20
ENDMDL
MODEL 3
REMARK VINA RESULT:     -11.8      2.322      6.971
REMARK SMILES Cc1ccc2[nH]cc([C@@H](C(=O)OCCOCCOCCOC(=O)c3ccc(-c4c5nc(c(-c6c(F)cccc6F)c6ccc([nH]6)c(-c6c(F)cccc6F)c6nc(c(-c7c(F)cccc7F)c7ccc4[nH]7)C=C6)C=C5)cc3)[NH+]3CCN(c4cccc(Cl)c4)CC3)c2c1
REMARK SMILES IDX 16 1 15 2 14 3 13 4 12 5 10 6 11 7 9 8 8 9 1 10 2 11 3 12
REMARK SMILES IDX 92 13 4 14 91 15 5 16 6 17 7 18 78 20 79 21 90 22 80 24
REMARK SMILES IDX 89 25 81 26 82 27 83 28 88 29 84 30 86 31 85 32 87 33 17 34
REMARK SMILES IDX 18 35 19 36 20 37 21 38 22 39 23 40 24 41 25 42 77 43 26 44
REMARK SMILES IDX 76 45 27 46 28 47 29 48 70 49 30 50 75 51 69 52 71 53 31 54
REMARK SMILES IDX 74 55 68 56 67 57 32 59 58 60 41 61 57 62 42 63 45 64 56 65
REMARK SMILES IDX 72 66 43 67 44 68 55 70 73 71 46 72 33 73 34 74 39 75 35 76
REMARK SMILES IDX 36 77 38 78 40 79 37 80 59 81 60 82 65 83 61 84 62 85 64 86
REMARK SMILES IDX 66 87 63 88 47 89 48 90 53 91 49 92 50 93 52 94 54 95 51 96
REMARK H PARENT 6 19 78 23 71 58 45 69
REMARK Flexibility Score: inf
ROOT
ATOM      1  C   UNL A   1      37.739  23.183  26.091  1.00  0.00     0.188 C 
ENDROOT
BRANCH   1   2
ATOM      2  O   UNL A   1      36.553  23.764  25.560  1.00  0.00    -0.376 OA
BRANCH   2   3
ATOM      3  C   UNL A   1      35.567  22.912  24.987  1.00  0.00     0.202 C 
BRANCH   3   4
ATOM      4  C   UNL A   1      35.570  22.833  23.458  1.00  0.00     0.261 C 
BRANCH   4   5
ATOM      5  O   UNL A   1      34.867  23.913  22.799  1.00  0.00    -0.459 OA
BRANCH   5   6
ATOM      6  C   UNL A   1      33.594  24.142  23.233  1.00  0.00     0.370 C 
ATOM      7  O   UNL A   1      32.724  23.273  23.217  1.00  0.00    -0.245 OA
BRANCH   6   8
ATOM      8  C   UNL A   1      33.314  25.621  23.615  1.00  0.00     0.328 C 
BRANCH   8   9
ATOM      9  C   UNL A   1      32.456  25.916  24.830  1.00  0.00     0.046 A 
ATOM     10  C   UNL A   1      34.949  29.736  27.178  1.00  0.00     0.044 C 
ATOM     11  C   UNL A   1      33.775  28.822  26.985  1.00  0.00    -0.050 A 
ATOM     12  C   UNL A   1      32.631  28.941  27.777  1.00  0.00     0.005 A 
ATOM     13  C   UNL A   1      33.830  27.833  25.987  1.00  0.00     0.014 A 
ATOM     14  C   UNL A   1      31.546  28.072  27.621  1.00  0.00     0.027 A 
ATOM     15  C   UNL A   1      32.746  26.950  25.797  1.00  0.00     0.009 A 
ATOM     16  C   UNL A   1      31.641  27.081  26.637  1.00  0.00     0.046 A 
ATOM     17  N   UNL A   1      30.750  26.103  26.279  1.00  0.00    -0.361 N 
ATOM     18  C   UNL A   1      31.232  25.393  25.209  1.00  0.00     0.094 A 
ATOM     19  H   UNL A   1      29.887  25.935  26.725  1.00  0.00     0.166 HD
ENDBRANCH   8   9
BRANCH   8  20
ATOM     20  N   UNL A   1      32.884  26.395  22.429  1.00  0.00    -0.316 N 
ATOM     21  C   UNL A   1      31.492  26.286  21.989  1.00  0.00     0.284 C 
ATOM     22  C   UNL A   1      33.406  27.761  22.291  1.00  0.00     0.284 C 
ATOM     23  H   UNL A   1      33.395  25.838  21.745  1.00  0.00     0.349 HD
ATOM     24  C   UNL A   1      30.543  27.426  22.393  1.00  0.00     0.178 C 
ATOM     25  C   UNL A   1      32.492  28.905  22.799  1.00  0.00     0.178 C 
ATOM     26  N   UNL A   1      31.134  28.756  22.263  1.00  0.00    -0.360 N 
BRANCH  26  27
ATOM     27  C   UNL A   1      30.241  29.802  22.505  1.00  0.00     0.038 A 
ATOM     28  C   UNL A   1      29.911  30.223  23.803  1.00  0.00     0.026 A 
ATOM     29  C   UNL A   1      29.592  30.403  21.423  1.00  0.00     0.046 A 
ATOM     30  C   UNL A   1      28.927  31.192  24.017  1.00  0.00     0.004 A 
ATOM     31  C   UNL A   1      28.614  31.374  21.637  1.00  0.00     0.043 A 
ATOM     32  C   UNL A   1      28.271  31.765  22.931  1.00  0.00     0.020 A 
ATOM     33  Cl  UNL A   1      27.806  32.085  20.294  1.00  0.00    -0.084 Cl
ENDBRANCH  26  27
ENDBRANCH   8  20
ENDBRANCH   6   8
ENDBRANCH   5   6
ENDBRANCH   4   5
ENDBRANCH   3   4
ENDBRANCH   2   3
ENDBRANCH   1   2
BRANCH   1  34
ATOM     34  C   UNL A   1      38.161  21.814  25.567  1.00  0.00     0.188 C 
BRANCH  34  35
ATOM     35  O   UNL A   1      39.465  21.467  26.019  1.00  0.00    -0.376 OA
BRANCH  35  36
ATOM     36  C   UNL A   1      40.072  22.484  26.813  1.00  0.00     0.202 C 
BRANCH  36  37
ATOM     37  C   UNL A   1      41.450  22.780  26.217  1.00  0.00     0.261 C 
BRANCH  37  38
ATOM     38  O   UNL A   1      42.123  23.865  26.890  1.00  0.00    -0.460 OA
BRANCH  38  39
ATOM     39  C   UNL A   1      41.999  25.074  26.310  1.00  0.00     0.338 C 
ATOM     40  O   UNL A   1      42.080  25.327  25.109  1.00  0.00    -0.246 OA
BRANCH  39  41
ATOM     41  C   UNL A   1      41.520  26.043  27.307  1.00  0.00     0.060 A 
ATOM     42  C   UNL A   1      42.303  27.176  27.535  1.00  0.00     0.016 A 
ATOM     43  C   UNL A   1      40.351  25.834  28.042  1.00  0.00     0.016 A 
ATOM     44  C   UNL A   1      41.935  28.095  28.513  1.00  0.00     0.010 A 
ATOM     45  C   UNL A   1      39.993  26.752  29.038  1.00  0.00     0.010 A 
ATOM     46  C   UNL A   1      40.797  27.877  29.292  1.00  0.00    -0.014 A 
BRANCH  46  47
ATOM     47  C   UNL A   1      40.573  28.724  30.488  1.00  0.00     0.031 A 
ATOM     48  C   UNL A   1      39.477  29.749  30.439  1.00  0.00     0.074 A 
ATOM     49  C   UNL A   1      41.254  28.535  31.633  1.00  0.00     0.049 A 
ATOM     50  N   UNL A   1      39.214  30.727  31.264  1.00  0.00    -0.248 NA
ATOM     51  C   UNL A   1      38.544  29.645  29.305  1.00  0.00     0.031 C 
ATOM     52  C   UNL A   1      42.227  27.473  31.880  1.00  0.00     0.029 A 
ATOM     53  N   UNL A   1      41.216  29.238  32.812  1.00  0.00    -0.354 N 
ATOM     54  C   UNL A   1      38.114  31.382  30.728  1.00  0.00     0.074 A 
ATOM     55  C   UNL A   1      37.751  30.685  29.514  1.00  0.00     0.031 C 
ATOM     56  C   UNL A   1      42.703  27.602  33.131  1.00  0.00     0.029 A 
ATOM     57  C   UNL A   1      42.122  28.794  33.745  1.00  0.00     0.049 A 
ATOM     58  H   UNL A   1      40.600  29.989  32.973  1.00  0.00     0.167 HD
ATOM     59  C   UNL A   1      37.473  32.476  31.202  1.00  0.00     0.037 A 
ATOM     60  C   UNL A   1      42.477  29.325  34.931  1.00  0.00     0.037 A 
ATOM     61  C   UNL A   1      37.819  33.146  32.426  1.00  0.00     0.049 A 
ATOM     62  C   UNL A   1      41.837  30.612  35.384  1.00  0.00     0.074 A 
ATOM     63  C   UNL A   1      37.272  34.295  32.968  1.00  0.00     0.029 A 
ATOM     64  N   UNL A   1      38.797  32.713  33.307  1.00  0.00    -0.354 N 
ATOM     65  N   UNL A   1      40.881  31.307  34.817  1.00  0.00    -0.248 NA
ATOM     66  C   UNL A   1      42.350  31.206  36.628  1.00  0.00     0.031 C 
ATOM     67  C   UNL A   1      37.942  34.574  34.163  1.00  0.00     0.029 A 
ATOM     68  C   UNL A   1      38.878  33.576  34.384  1.00  0.00     0.049 A 
ATOM     69  H   UNL A   1      39.352  31.908  33.186  1.00  0.00     0.167 HD
ATOM     70  C   UNL A   1      40.663  32.403  35.644  1.00  0.00     0.074 A 
ATOM     71  C   UNL A   1      41.579  32.277  36.757  1.00  0.00     0.031 C 
ATOM     72  C   UNL A   1      39.786  33.426  35.492  1.00  0.00     0.037 A 
BRANCH  59  73
ATOM     73  C   UNL A   1      36.377  33.046  30.357  1.00  0.00     0.057 A 
ATOM     74  C   UNL A   1      35.025  32.796  30.618  1.00  0.00     0.134 A 
ATOM     75  C   UNL A   1      36.686  33.866  29.264  1.00  0.00     0.134 A 
ATOM     76  F   UNL A   1      34.665  31.996  31.634  1.00  0.00    -0.206 F 
ATOM     77  C   UNL A   1      34.018  33.326  29.810  1.00  0.00     0.040 A 
ATOM     78  C   UNL A   1      35.688  34.421  28.463  1.00  0.00     0.040 A 
ATOM     79  F   UNL A   1      37.963  34.141  28.959  1.00  0.00    -0.206 F 
ATOM     80  C   UNL A   1      34.349  34.147  28.732  1.00  0.00     0.006 A 
ENDBRANCH  59  73
BRANCH  60  81
ATOM     81  C   UNL A   1      43.548  28.694  35.745  1.00  0.00     0.057 A 
ATOM     82  C   UNL A   1      43.259  27.691  36.676  1.00  0.00     0.134 A 
ATOM     83  C   UNL A   1      44.880  29.115  35.646  1.00  0.00     0.134 A 
ATOM     84  F   UNL A   1      41.997  27.269  36.844  1.00  0.00    -0.206 F 
ATOM     85  C   UNL A   1      44.252  27.137  37.487  1.00  0.00     0.040 A 
ATOM     86  C   UNL A   1      45.887  28.552  36.431  1.00  0.00     0.040 A 
ATOM     87  F   UNL A   1      45.223  30.083  34.783  1.00  0.00    -0.206 F 
ATOM     88  C   UNL A   1      45.572  27.565  37.362  1.00  0.00     0.006 A 
ENDBRANCH  60  81
BRANCH  72  89
ATOM     89  C   UNL A   1      39.743  34.465  36.571  1.00  0.00     0.057 A 
ATOM     90  C   UNL A   1      39.048  34.257  37.768  1.00  0.00     0.134 A 
ATOM     91  C   UNL A   1      40.456  35.662  36.434  1.00  0.00     0.134 A 
ATOM     92  F   UNL A   1      38.337  33.134  37.956  1.00  0.00    -0.206 F 
ATOM     93  C   UNL A   1      39.052  35.211  38.787  1.00  0.00     0.040 A 
ATOM     94  C   UNL A   1      40.484  36.615  37.453  1.00  0.00     0.040 A 
ATOM     95  F   UNL A   1      41.151  35.918  35.315  1.00  0.00    -0.206 F 
ATOM     96  C   UNL A   1      39.778  36.391  38.633  1.00  0.00     0.006 A 
ENDBRANCH  72  89
ENDBRANCH  46  47
ENDBRANCH  39  41
ENDBRANCH  38  39
ENDBRANCH  37  38
ENDBRANCH  36  37
ENDBRANCH  35  36
ENDBRANCH  34  35
ENDBRANCH   1  34
TORSDOF 20
ENDMDL
