MODEL 1
REMARK VINA RESULT:     -12.2      0.000      0.000
REMARK SMILES O=C(OCCOCCOCCOC(=O)[C@H](c1c[nH]c2ccc(Br)cc12)[N@H+]1CCC[C@H](c2nc3ccccc3s2)C1)c1ccc(-c2c3nc(c(-c4c(F)cccc4F)c4ccc([nH]4)c(-c4c(F)cccc4F)c4nc(c(-c5c(F)cccc5F)c5ccc2[nH]5)C=C4)C=C3)cc1
REMARK SMILES IDX 7 1 6 2 5 3 4 4 3 5 2 6 1 7 41 8 42 9 94 10 43 11 93 12
REMARK SMILES IDX 44 13 45 14 46 15 87 16 47 17 92 18 86 19 88 20 48 21 91 22
REMARK SMILES IDX 85 23 84 24 49 26 75 27 58 28 74 29 59 30 62 31 73 32 89 33
REMARK SMILES IDX 60 34 61 35 72 37 90 38 63 39 50 40 51 41 56 42 52 43 53 44
REMARK SMILES IDX 55 45 57 46 54 47 76 48 77 49 82 50 78 51 79 52 81 53 83 54
REMARK SMILES IDX 80 55 64 56 65 57 70 58 66 59 67 60 69 61 71 62 68 63 8 64
REMARK SMILES IDX 9 65 10 66 11 67 12 68 13 69 14 70 15 71 26 72 27 73 40 74
REMARK SMILES IDX 28 76 30 77 29 78 31 79 32 80 39 81 33 82 38 83 34 84 37 85
REMARK SMILES IDX 35 86 36 87 16 88 17 89 25 90 18 91 19 92 24 93 20 95 22 96
REMARK SMILES IDX 21 97 23 98
REMARK H PARENT 88 25 62 36 26 75 18 94
REMARK Flexibility Score: inf
ROOT
ATOM      1  C   UNL A   1      38.222  20.295  25.104  1.00  0.00     0.188 C 
ENDROOT
BRANCH   1   2
ATOM      2  O   UNL A   1      39.490  20.176  25.750  1.00  0.00    -0.376 OA
BRANCH   2   3
ATOM      3  C   UNL A   1      40.085  21.408  26.156  1.00  0.00     0.202 C 
BRANCH   3   4
ATOM      4  C   UNL A   1      41.618  21.469  26.118  1.00  0.00     0.261 C 
BRANCH   4   5
ATOM      5  O   UNL A   1      42.155  22.473  25.242  1.00  0.00    -0.460 OA
BRANCH   5   6
ATOM      6  C   UNL A   1      43.006  23.472  25.550  1.00  0.00     0.338 C 
ATOM      7  O   UNL A   1      44.073  23.573  24.918  1.00  0.00    -0.246 OA
BRANCH   6   8
ATOM      8  C   UNL A   1      42.714  24.492  26.584  1.00  0.00     0.060 A 
ATOM      9  C   UNL A   1      43.244  25.784  26.579  1.00  0.00     0.016 A 
ATOM     10  C   UNL A   1      41.754  24.177  27.550  1.00  0.00     0.016 A 
ATOM     11  C   UNL A   1      42.923  26.709  27.565  1.00  0.00     0.010 A 
ATOM     12  C   UNL A   1      41.368  25.127  28.497  1.00  0.00     0.010 A 
ATOM     13  C   UNL A   1      41.961  26.399  28.520  1.00  0.00    -0.014 A 
BRANCH  13  14
ATOM     14  C   UNL A   1      41.603  27.390  29.561  1.00  0.00     0.031 A 
ATOM     15  C   UNL A   1      42.405  27.419  30.819  1.00  0.00     0.074 A 
ATOM     16  C   UNL A   1      40.569  28.235  29.377  1.00  0.00     0.049 A 
ATOM     17  N   UNL A   1      42.200  28.107  31.908  1.00  0.00    -0.248 NA
ATOM     18  C   UNL A   1      43.597  26.552  30.866  1.00  0.00     0.031 C 
ATOM     19  C   UNL A   1      39.768  28.313  28.164  1.00  0.00     0.029 A 
ATOM     20  N   UNL A   1      40.002  29.183  30.190  1.00  0.00    -0.354 N 
ATOM     21  C   UNL A   1      43.193  27.708  32.789  1.00  0.00     0.074 A 
ATOM     22  C   UNL A   1      44.009  26.728  32.111  1.00  0.00     0.031 C 
ATOM     23  C   UNL A   1      38.787  29.210  28.318  1.00  0.00     0.029 A 
ATOM     24  C   UNL A   1      38.906  29.807  29.632  1.00  0.00     0.049 A 
ATOM     25  H   UNL A   1      40.345  29.396  31.089  1.00  0.00     0.167 HD
ATOM     26  C   UNL A   1      43.384  28.124  34.060  1.00  0.00     0.037 A 
ATOM     27  C   UNL A   1      38.093  30.760  30.120  1.00  0.00     0.037 A 
ATOM     28  C   UNL A   1      42.570  29.125  34.692  1.00  0.00     0.049 A 
ATOM     29  C   UNL A   1      38.363  31.235  31.515  1.00  0.00     0.074 A 
ATOM     30  C   UNL A   1      42.674  29.641  35.968  1.00  0.00     0.029 A 
ATOM     31  N   UNL A   1      41.496  29.763  34.082  1.00  0.00    -0.354 N 
ATOM     32  N   UNL A   1      39.319  30.864  32.334  1.00  0.00    -0.248 NA
ATOM     33  C   UNL A   1      37.445  32.237  32.067  1.00  0.00     0.031 C 
ATOM     34  C   UNL A   1      41.634  30.559  36.148  1.00  0.00     0.029 A 
ATOM     35  C   UNL A   1      40.908  30.647  34.969  1.00  0.00     0.049 A 
ATOM     36  H   UNL A   1      41.198  29.608  33.156  1.00  0.00     0.167 HD
ATOM     37  C   UNL A   1      39.104  31.563  33.508  1.00  0.00     0.074 A 
ATOM     38  C   UNL A   1      37.965  32.430  33.271  1.00  0.00     0.031 C 
ATOM     39  C   UNL A   1      39.763  31.476  34.688  1.00  0.00     0.037 A 
BRANCH  26  40
ATOM     40  C   UNL A   1      44.460  27.443  34.847  1.00  0.00     0.057 A 
ATOM     41  C   UNL A   1      44.226  26.281  35.592  1.00  0.00     0.134 A 
ATOM     42  C   UNL A   1      45.753  27.980  34.872  1.00  0.00     0.134 A 
ATOM     43  F   UNL A   1      43.001  25.737  35.638  1.00  0.00    -0.206 F 
ATOM     44  C   UNL A   1      45.239  25.685  36.347  1.00  0.00     0.040 A 
ATOM     45  C   UNL A   1      46.778  27.382  35.605  1.00  0.00     0.040 A 
ATOM     46  F   UNL A   1      46.038  29.101  34.192  1.00  0.00    -0.206 F 
ATOM     47  C   UNL A   1      46.521  26.233  36.351  1.00  0.00     0.006 A 
ENDBRANCH  26  40
BRANCH  27  48
ATOM     48  C   UNL A   1      36.982  31.318  29.298  1.00  0.00     0.057 A 
ATOM     49  C   UNL A   1      37.058  32.607  28.755  1.00  0.00     0.134 A 
ATOM     50  C   UNL A   1      35.824  30.579  29.019  1.00  0.00     0.134 A 
ATOM     51  F   UNL A   1      38.134  33.374  28.986  1.00  0.00    -0.206 F 
ATOM     52  C   UNL A   1      36.022  33.147  27.987  1.00  0.00     0.040 A 
ATOM     53  C   UNL A   1      34.795  31.092  28.222  1.00  0.00     0.040 A 
ATOM     54  F   UNL A   1      35.680  29.337  29.502  1.00  0.00    -0.206 F 
ATOM     55  C   UNL A   1      34.888  32.385  27.713  1.00  0.00     0.006 A 
ENDBRANCH  27  48
BRANCH  39  56
ATOM     56  C   UNL A   1      39.231  32.312  35.806  1.00  0.00     0.057 A 
ATOM     57  C   UNL A   1      38.283  31.801  36.701  1.00  0.00     0.134 A 
ATOM     58  C   UNL A   1      39.700  33.612  36.017  1.00  0.00     0.134 A 
ATOM     59  F   UNL A   1      37.786  30.566  36.534  1.00  0.00    -0.206 F 
ATOM     60  C   UNL A   1      37.809  32.563  37.766  1.00  0.00     0.040 A 
ATOM     61  C   UNL A   1      39.252  34.375  37.094  1.00  0.00     0.040 A 
ATOM     62  F   UNL A   1      40.612  34.151  35.194  1.00  0.00    -0.206 F 
ATOM     63  C   UNL A   1      38.301  33.851  37.969  1.00  0.00     0.006 A 
ENDBRANCH  39  56
ENDBRANCH  13  14
ENDBRANCH   6   8
ENDBRANCH   5   6
ENDBRANCH   4   5
ENDBRANCH   3   4
ENDBRANCH   2   3
ENDBRANCH   1   2
BRANCH   1  64
ATOM     64  C   UNL A   1      37.776  21.751  25.018  1.00  0.00     0.188 C 
BRANCH  64  65
ATOM     65  O   UNL A   1      36.470  22.002  24.504  1.00  0.00    -0.376 OA
BRANCH  65  66
ATOM     66  C   UNL A   1      36.320  22.951  23.456  1.00  0.00     0.202 C 
BRANCH  66  67
ATOM     67  C   UNL A   1      35.111  23.902  23.469  1.00  0.00     0.261 C 
BRANCH  67  68
ATOM     68  O   UNL A   1      34.058  23.645  22.529  1.00  0.00    -0.459 OA
BRANCH  68  69
ATOM     69  C   UNL A   1      33.344  24.763  22.203  1.00  0.00     0.370 C 
ATOM     70  O   UNL A   1      33.650  25.495  21.258  1.00  0.00    -0.245 OA
BRANCH  69  71
ATOM     71  C   UNL A   1      32.233  25.073  23.242  1.00  0.00     0.328 C 
BRANCH  71  72
ATOM     72  N   UNL A   1      32.356  24.149  24.419  1.00  0.00    -0.319 N 
ATOM     73  C   UNL A   1      32.694  24.827  25.670  1.00  0.00     0.263 C 
ATOM     74  C   UNL A   1      31.155  23.304  24.649  1.00  0.00     0.274 C 
ATOM     75  H   UNL A   1      33.134  23.547  24.152  1.00  0.00     0.349 HD
ATOM     76  C   UNL A   1      33.075  23.777  26.725  1.00  0.00     0.062 C 
ATOM     77  C   UNL A   1      31.348  22.206  25.715  1.00  0.00     0.104 C 
ATOM     78  C   UNL A   1      31.928  22.807  27.000  1.00  0.00     0.022 C 
BRANCH  77  79
ATOM     79  C   UNL A   1      32.151  21.065  25.143  1.00  0.00     0.103 A 
ATOM     80  N   UNL A   1      31.776  20.372  24.093  1.00  0.00    -0.241 NA
ATOM     81  S   UNL A   1      33.567  20.486  25.925  1.00  0.00    -0.118 S 
ATOM     82  C   UNL A   1      32.614  19.309  23.880  1.00  0.00     0.082 A 
ATOM     83  C   UNL A   1      33.670  19.198  24.782  1.00  0.00     0.055 A 
ATOM     84  C   UNL A   1      32.473  18.356  22.854  1.00  0.00     0.030 A 
ATOM     85  C   UNL A   1      34.607  18.158  24.688  1.00  0.00     0.021 A 
ATOM     86  C   UNL A   1      33.397  17.317  22.752  1.00  0.00     0.002 A 
ATOM     87  C   UNL A   1      34.452  17.223  23.657  1.00  0.00     0.002 A 
ENDBRANCH  77  79
ENDBRANCH  71  72
BRANCH  71  88
ATOM     88  C   UNL A   1      32.290  26.541  23.707  1.00  0.00     0.046 A 
ATOM     89  C   UNL A   1      33.398  27.155  24.275  1.00  0.00     0.094 A 
ATOM     90  C   UNL A   1      31.274  27.588  23.648  1.00  0.00     0.010 A 
ATOM     91  N   UNL A   1      33.125  28.465  24.525  1.00  0.00    -0.361 N 
ATOM     92  C   UNL A   1      31.838  28.761  24.163  1.00  0.00     0.046 A 
ATOM     93  C   UNL A   1      29.930  27.684  23.216  1.00  0.00     0.026 A 
ATOM     94  H   UNL A   1      33.763  29.108  24.912  1.00  0.00     0.166 HD
ATOM     95  C   UNL A   1      31.155  29.982  24.263  1.00  0.00     0.028 A 
ATOM     96  C   UNL A   1      29.212  28.880  23.379  1.00  0.00     0.018 A 
ATOM     97  C   UNL A   1      29.819  30.022  23.877  1.00  0.00     0.018 A 
ATOM     98  Br  UNL A   1      27.363  28.951  22.976  1.00  0.00    -0.051 Br
ENDBRANCH  71  88
ENDBRANCH  69  71
ENDBRANCH  68  69
ENDBRANCH  67  68
ENDBRANCH  66  67
ENDBRANCH  65  66
ENDBRANCH  64  65
ENDBRANCH   1  64
TORSDOF 20
ENDMDL
MODEL 2
REMARK VINA RESULT:     -12.1      1.345      6.069
REMARK SMILES O=C(OCCOCCOCCOC(=O)[C@H](c1c[nH]c2ccc(Br)cc12)[N@H+]1CCC[C@H](c2nc3ccccc3s2)C1)c1ccc(-c2c3nc(c(-c4c(F)cccc4F)c4ccc([nH]4)c(-c4c(F)cccc4F)c4nc(c(-c5c(F)cccc5F)c5ccc2[nH]5)C=C4)C=C3)cc1
REMARK SMILES IDX 7 1 6 2 5 3 4 4 3 5 2 6 1 7 41 8 42 9 94 10 43 11 93 12
REMARK SMILES IDX 44 13 45 14 46 15 87 16 47 17 92 18 86 19 88 20 48 21 91 22
REMARK SMILES IDX 85 23 84 24 49 26 75 27 58 28 74 29 59 30 62 31 73 32 89 33
REMARK SMILES IDX 60 34 61 35 72 37 90 38 63 39 50 40 51 41 56 42 52 43 53 44
REMARK SMILES IDX 55 45 57 46 54 47 76 48 77 49 82 50 78 51 79 52 81 53 83 54
REMARK SMILES IDX 80 55 64 56 65 57 70 58 66 59 67 60 69 61 71 62 68 63 8 64
REMARK SMILES IDX 9 65 10 66 11 67 12 68 13 69 14 70 15 71 26 72 27 73 40 74
REMARK SMILES IDX 28 76 30 77 29 78 31 79 32 80 39 81 33 82 38 83 34 84 37 85
REMARK SMILES IDX 35 86 36 87 16 88 17 89 25 90 18 91 19 92 24 93 20 95 22 96
REMARK SMILES IDX 21 97 23 98
REMARK H PARENT 88 25 62 36 26 75 18 94
REMARK Flexibility Score: inf
ROOT
ATOM      1  C   UNL A   1      38.917  21.625  25.725  1.00  0.00     0.188 C 
ENDROOT
BRANCH   1   2
ATOM      2  O   UNL A   1      39.530  22.321  26.811  1.00  0.00    -0.376 OA
BRANCH   2   3
ATOM      3  C   UNL A   1      40.946  22.169  26.911  1.00  0.00     0.202 C 
BRANCH   3   4
ATOM      4  C   UNL A   1      41.784  22.869  25.833  1.00  0.00     0.261 C 
BRANCH   4   5
ATOM      5  O   UNL A   1      42.366  24.117  26.247  1.00  0.00    -0.460 OA
BRANCH   5   6
ATOM      6  C   UNL A   1      41.837  25.352  26.147  1.00  0.00     0.338 C 
ATOM      7  O   UNL A   1      41.466  25.762  25.033  1.00  0.00    -0.246 OA
BRANCH   6   8
ATOM      8  C   UNL A   1      41.632  26.240  27.315  1.00  0.00     0.060 A 
ATOM      9  C   UNL A   1      42.282  27.463  27.491  1.00  0.00     0.016 A 
ATOM     10  C   UNL A   1      40.635  25.885  28.230  1.00  0.00     0.016 A 
ATOM     11  C   UNL A   1      42.039  28.266  28.599  1.00  0.00     0.010 A 
ATOM     12  C   UNL A   1      40.331  26.725  29.303  1.00  0.00     0.010 A 
ATOM     13  C   UNL A   1      41.042  27.918  29.504  1.00  0.00    -0.014 A 
BRANCH  13  14
ATOM     14  C   UNL A   1      40.768  28.782  30.675  1.00  0.00     0.031 A 
ATOM     15  C   UNL A   1      39.637  29.753  30.591  1.00  0.00     0.074 A 
ATOM     16  C   UNL A   1      41.531  28.699  31.783  1.00  0.00     0.049 A 
ATOM     17  N   UNL A   1      39.292  30.686  31.433  1.00  0.00    -0.248 NA
ATOM     18  C   UNL A   1      38.780  29.669  29.395  1.00  0.00     0.031 C 
ATOM     19  C   UNL A   1      42.618  27.748  31.972  1.00  0.00     0.029 A 
ATOM     20  N   UNL A   1      41.530  29.413  32.954  1.00  0.00    -0.354 N 
ATOM     21  C   UNL A   1      38.225  31.342  30.841  1.00  0.00     0.074 A 
ATOM     22  C   UNL A   1      37.966  30.698  29.575  1.00  0.00     0.031 C 
ATOM     23  C   UNL A   1      43.213  27.960  33.151  1.00  0.00     0.029 A 
ATOM     24  C   UNL A   1      42.528  29.041  33.830  1.00  0.00     0.049 A 
ATOM     25  H   UNL A   1      40.878  30.125  33.150  1.00  0.00     0.167 HD
ATOM     26  C   UNL A   1      37.538  32.402  31.322  1.00  0.00     0.037 A 
ATOM     27  C   UNL A   1      42.850  29.511  35.048  1.00  0.00     0.037 A 
ATOM     28  C   UNL A   1      37.803  32.997  32.602  1.00  0.00     0.049 A 
ATOM     29  C   UNL A   1      42.037  30.653  35.572  1.00  0.00     0.074 A 
ATOM     30  C   UNL A   1      37.166  34.064  33.204  1.00  0.00     0.029 A 
ATOM     31  N   UNL A   1      38.794  32.568  33.477  1.00  0.00    -0.354 N 
ATOM     32  N   UNL A   1      41.014  31.255  35.011  1.00  0.00    -0.248 NA
ATOM     33  C   UNL A   1      42.421  31.201  36.878  1.00  0.00     0.031 C 
ATOM     34  C   UNL A   1      37.801  34.310  34.426  1.00  0.00     0.029 A 
ATOM     35  C   UNL A   1      38.806  33.369  34.604  1.00  0.00     0.049 A 
ATOM     36  H   UNL A   1      39.397  31.806  33.318  1.00  0.00     0.167 HD
ATOM     37  C   UNL A   1      40.649  32.269  35.877  1.00  0.00     0.074 A 
ATOM     38  C   UNL A   1      41.518  32.159  37.034  1.00  0.00     0.031 C 
ATOM     39  C   UNL A   1      39.704  33.227  35.722  1.00  0.00     0.037 A 
BRANCH  26  40
ATOM     40  C   UNL A   1      36.502  33.007  30.426  1.00  0.00     0.057 A 
ATOM     41  C   UNL A   1      36.831  33.846  29.354  1.00  0.00     0.134 A 
ATOM     42  C   UNL A   1      35.144  32.756  30.660  1.00  0.00     0.134 A 
ATOM     43  F   UNL A   1      38.112  34.154  29.099  1.00  0.00    -0.206 F 
ATOM     44  C   UNL A   1      35.844  34.427  28.556  1.00  0.00     0.040 A 
ATOM     45  C   UNL A   1      34.150  33.314  29.856  1.00  0.00     0.040 A 
ATOM     46  F   UNL A   1      34.762  31.973  31.680  1.00  0.00    -0.206 F 
ATOM     47  C   UNL A   1      34.499  34.158  28.803  1.00  0.00     0.006 A 
ENDBRANCH  26  40
BRANCH  27  48
ATOM     48  C   UNL A   1      43.963  28.907  35.835  1.00  0.00     0.057 A 
ATOM     49  C   UNL A   1      45.265  29.421  35.762  1.00  0.00     0.134 A 
ATOM     50  C   UNL A   1      43.760  27.815  36.689  1.00  0.00     0.134 A 
ATOM     51  F   UNL A   1      45.535  30.462  34.960  1.00  0.00    -0.206 F 
ATOM     52  C   UNL A   1      46.321  28.862  36.488  1.00  0.00     0.040 A 
ATOM     53  C   UNL A   1      44.799  27.269  37.449  1.00  0.00     0.040 A 
ATOM     54  F   UNL A   1      42.541  27.270  36.813  1.00  0.00    -0.206 F 
ATOM     55  C   UNL A   1      46.087  27.786  37.341  1.00  0.00     0.006 A 
ENDBRANCH  27  48
BRANCH  39  56
ATOM     56  C   UNL A   1      39.607  34.242  36.814  1.00  0.00     0.057 A 
ATOM     57  C   UNL A   1      40.235  35.489  36.699  1.00  0.00     0.134 A 
ATOM     58  C   UNL A   1      38.846  33.994  37.961  1.00  0.00     0.134 A 
ATOM     59  F   UNL A   1      40.992  35.773  35.627  1.00  0.00    -0.206 F 
ATOM     60  C   UNL A   1      40.119  36.452  37.697  1.00  0.00     0.040 A 
ATOM     61  C   UNL A   1      38.701  34.960  38.954  1.00  0.00     0.040 A 
ATOM     62  F   UNL A   1      38.218  32.819  38.121  1.00  0.00    -0.206 F 
ATOM     63  C   UNL A   1      39.343  36.191  38.825  1.00  0.00     0.006 A 
ENDBRANCH  39  56
ENDBRANCH  13  14
ENDBRANCH   6   8
ENDBRANCH   5   6
ENDBRANCH   4   5
ENDBRANCH   3   4
ENDBRANCH   2   3
ENDBRANCH   1   2
BRANCH   1  64
ATOM     64  C   UNL A   1      37.448  22.011  25.577  1.00  0.00     0.188 C 
BRANCH  64  65
ATOM     65  O   UNL A   1      36.986  22.318  24.264  1.00  0.00    -0.376 OA
BRANCH  65  66
ATOM     66  C   UNL A   1      35.603  22.593  24.074  1.00  0.00     0.202 C 
BRANCH  66  67
ATOM     67  C   UNL A   1      35.182  23.652  23.042  1.00  0.00     0.261 C 
BRANCH  67  68
ATOM     68  O   UNL A   1      33.900  23.491  22.415  1.00  0.00    -0.459 OA
BRANCH  68  69
ATOM     69  C   UNL A   1      33.272  24.678  22.166  1.00  0.00     0.370 C 
ATOM     70  O   UNL A   1      33.636  25.447  21.272  1.00  0.00    -0.245 OA
BRANCH  69  71
ATOM     71  C   UNL A   1      32.181  24.997  23.222  1.00  0.00     0.328 C 
BRANCH  71  72
ATOM     72  N   UNL A   1      32.326  24.085  24.405  1.00  0.00    -0.319 N 
ATOM     73  C   UNL A   1      32.688  24.775  25.643  1.00  0.00     0.263 C 
ATOM     74  C   UNL A   1      31.129  23.243  24.667  1.00  0.00     0.274 C 
ATOM     75  H   UNL A   1      33.099  23.480  24.130  1.00  0.00     0.349 HD
ATOM     76  C   UNL A   1      33.089  23.736  26.700  1.00  0.00     0.062 C 
ATOM     77  C   UNL A   1      31.343  22.155  25.740  1.00  0.00     0.104 C 
ATOM     78  C   UNL A   1      31.948  22.769  27.007  1.00  0.00     0.022 C 
BRANCH  77  79
ATOM     79  C   UNL A   1      32.134  21.009  25.163  1.00  0.00     0.103 A 
ATOM     80  N   UNL A   1      31.770  20.344  24.091  1.00  0.00    -0.241 NA
ATOM     81  S   UNL A   1      33.520  20.384  25.966  1.00  0.00    -0.118 S 
ATOM     82  C   UNL A   1      32.590  19.267  23.877  1.00  0.00     0.082 A 
ATOM     83  C   UNL A   1      33.622  19.116  24.800  1.00  0.00     0.055 A 
ATOM     84  C   UNL A   1      32.453  18.338  22.829  1.00  0.00     0.030 A 
ATOM     85  C   UNL A   1      34.539  18.058  24.707  1.00  0.00     0.021 A 
ATOM     86  C   UNL A   1      33.357  17.282  22.727  1.00  0.00     0.002 A 
ATOM     87  C   UNL A   1      34.388  17.147  23.654  1.00  0.00     0.002 A 
ENDBRANCH  77  79
ENDBRANCH  71  72
BRANCH  71  88
ATOM     88  C   UNL A   1      32.246  26.470  23.672  1.00  0.00     0.046 A 
ATOM     89  C   UNL A   1      33.362  27.087  24.220  1.00  0.00     0.094 A 
ATOM     90  C   UNL A   1      31.231  27.518  23.614  1.00  0.00     0.010 A 
ATOM     91  N   UNL A   1      33.094  28.401  24.460  1.00  0.00    -0.361 N 
ATOM     92  C   UNL A   1      31.804  28.695  24.111  1.00  0.00     0.046 A 
ATOM     93  C   UNL A   1      29.882  27.613  23.198  1.00  0.00     0.026 A 
ATOM     94  H   UNL A   1      33.738  29.046  24.832  1.00  0.00     0.166 HD
ATOM     95  C   UNL A   1      31.124  29.919  24.207  1.00  0.00     0.028 A 
ATOM     96  C   UNL A   1      29.168  28.811  23.358  1.00  0.00     0.018 A 
ATOM     97  C   UNL A   1      29.784  29.957  23.837  1.00  0.00     0.018 A 
ATOM     98  Br  UNL A   1      27.314  28.882  22.978  1.00  0.00    -0.051 Br
ENDBRANCH  71  88
ENDBRANCH  69  71
ENDBRANCH  68  69
ENDBRANCH  67  68
ENDBRANCH  66  67
ENDBRANCH  65  66
ENDBRANCH  64  65
ENDBRANCH   1  64
TORSDOF 20
ENDMDL
MODEL 3
REMARK VINA RESULT:     -12.1      2.344      7.714
REMARK SMILES O=C(OCCOCCOCCOC(=O)[C@H](c1c[nH]c2ccc(Br)cc12)[N@H+]1CCC[C@H](c2nc3ccccc3s2)C1)c1ccc(-c2c3nc(c(-c4c(F)cccc4F)c4ccc([nH]4)c(-c4c(F)cccc4F)c4nc(c(-c5c(F)cccc5F)c5ccc2[nH]5)C=C4)C=C3)cc1
REMARK SMILES IDX 7 1 6 2 5 3 4 4 3 5 2 6 1 7 41 8 42 9 94 10 43 11 93 12
REMARK SMILES IDX 44 13 45 14 46 15 87 16 47 17 92 18 86 19 88 20 48 21 91 22
REMARK SMILES IDX 85 23 84 24 49 26 75 27 58 28 74 29 59 30 62 31 73 32 89 33
REMARK SMILES IDX 60 34 61 35 72 37 90 38 63 39 50 40 51 41 56 42 52 43 53 44
REMARK SMILES IDX 55 45 57 46 54 47 76 48 77 49 82 50 78 51 79 52 81 53 83 54
REMARK SMILES IDX 80 55 64 56 65 57 70 58 66 59 67 60 69 61 71 62 68 63 8 64
REMARK SMILES IDX 9 65 10 66 11 67 12 68 13 69 14 70 15 71 26 72 27 73 40 74
REMARK SMILES IDX 28 76 30 77 29 78 31 79 32 80 39 81 33 82 38 83 34 84 37 85
REMARK SMILES IDX 35 86 36 87 16 88 17 89 25 90 18 91 19 92 24 93 20 95 22 96
REMARK SMILES IDX 21 97 23 98
REMARK H PARENT 88 25 62 36 26 75 18 94
REMARK Flexibility Score: inf
ROOT
ATOM      1  C   UNL A   1      41.540  20.252  26.277  1.00  0.00     0.188 C 
ENDROOT
BRANCH   1   2
ATOM      2  O   UNL A   1      42.388  21.059  25.459  1.00  0.00    -0.376 OA
BRANCH   2   3
ATOM      3  C   UNL A   1      43.201  21.997  26.163  1.00  0.00     0.202 C 
BRANCH   3   4
ATOM      4  C   UNL A   1      43.116  23.456  25.696  1.00  0.00     0.261 C 
BRANCH   4   5
ATOM      5  O   UNL A   1      41.954  24.165  26.158  1.00  0.00    -0.460 OA
BRANCH   5   6
ATOM      6  C   UNL A   1      41.687  25.481  26.046  1.00  0.00     0.338 C 
ATOM      7  O   UNL A   1      41.569  25.979  24.913  1.00  0.00    -0.246 OA
BRANCH   6   8
ATOM      8  C   UNL A   1      41.482  26.366  27.217  1.00  0.00     0.060 A 
ATOM      9  C   UNL A   1      42.096  27.610  27.374  1.00  0.00     0.016 A 
ATOM     10  C   UNL A   1      40.519  25.981  28.156  1.00  0.00     0.016 A 
ATOM     11  C   UNL A   1      41.854  28.408  28.486  1.00  0.00     0.010 A 
ATOM     12  C   UNL A   1      40.214  26.815  29.234  1.00  0.00     0.010 A 
ATOM     13  C   UNL A   1      40.891  28.031  29.415  1.00  0.00    -0.014 A 
BRANCH  13  14
ATOM     14  C   UNL A   1      40.617  28.890  30.590  1.00  0.00     0.031 A 
ATOM     15  C   UNL A   1      39.479  29.853  30.515  1.00  0.00     0.074 A 
ATOM     16  C   UNL A   1      41.386  28.809  31.693  1.00  0.00     0.049 A 
ATOM     17  N   UNL A   1      39.132  30.781  31.362  1.00  0.00    -0.248 NA
ATOM     18  C   UNL A   1      38.616  29.767  29.323  1.00  0.00     0.031 C 
ATOM     19  C   UNL A   1      42.480  27.865  31.874  1.00  0.00     0.029 A 
ATOM     20  N   UNL A   1      41.386  29.519  32.867  1.00  0.00    -0.354 N 
ATOM     21  C   UNL A   1      38.057  31.431  30.777  1.00  0.00     0.074 A 
ATOM     22  C   UNL A   1      37.796  30.790  29.510  1.00  0.00     0.031 C 
ATOM     23  C   UNL A   1      43.080  28.077  33.051  1.00  0.00     0.029 A 
ATOM     24  C   UNL A   1      42.391  29.151  33.736  1.00  0.00     0.049 A 
ATOM     25  H   UNL A   1      40.731  30.226  33.068  1.00  0.00     0.167 HD
ATOM     26  C   UNL A   1      37.366  32.485  31.265  1.00  0.00     0.037 A 
ATOM     27  C   UNL A   1      42.717  29.620  34.954  1.00  0.00     0.037 A 
ATOM     28  C   UNL A   1      37.633  33.079  32.545  1.00  0.00     0.049 A 
ATOM     29  C   UNL A   1      41.898  30.755  35.486  1.00  0.00     0.074 A 
ATOM     30  C   UNL A   1      36.992  34.139  33.154  1.00  0.00     0.029 A 
ATOM     31  N   UNL A   1      38.631  32.654  33.414  1.00  0.00    -0.354 N 
ATOM     32  N   UNL A   1      40.869  31.351  34.932  1.00  0.00    -0.248 NA
ATOM     33  C   UNL A   1      42.286  31.302  36.791  1.00  0.00     0.031 C 
ATOM     34  C   UNL A   1      37.632  34.386  34.373  1.00  0.00     0.029 A 
ATOM     35  C   UNL A   1      38.644  33.452  34.543  1.00  0.00     0.049 A 
ATOM     36  H   UNL A   1      39.239  31.896  33.250  1.00  0.00     0.167 HD
ATOM     37  C   UNL A   1      40.501  32.360  35.803  1.00  0.00     0.074 A 
ATOM     38  C   UNL A   1      41.377  32.253  36.955  1.00  0.00     0.031 C 
ATOM     39  C   UNL A   1      39.549  33.313  35.656  1.00  0.00     0.037 A 
BRANCH  26  40
ATOM     40  C   UNL A   1      36.321  33.086  30.376  1.00  0.00     0.057 A 
ATOM     41  C   UNL A   1      34.952  32.860  30.566  1.00  0.00     0.134 A 
ATOM     42  C   UNL A   1      36.702  33.892  29.296  1.00  0.00     0.134 A 
ATOM     43  F   UNL A   1      34.524  32.068  31.561  1.00  0.00    -0.206 F 
ATOM     44  C   UNL A   1      33.999  33.402  29.700  1.00  0.00     0.040 A 
ATOM     45  C   UNL A   1      35.758  34.457  28.439  1.00  0.00     0.040 A 
ATOM     46  F   UNL A   1      37.998  34.135  29.051  1.00  0.00    -0.206 F 
ATOM     47  C   UNL A   1      34.401  34.208  28.636  1.00  0.00     0.006 A 
ENDBRANCH  26  40
BRANCH  27  48
ATOM     48  C   UNL A   1      43.838  29.022  35.733  1.00  0.00     0.057 A 
ATOM     49  C   UNL A   1      43.616  27.971  36.633  1.00  0.00     0.134 A 
ATOM     50  C   UNL A   1      45.159  29.468  35.593  1.00  0.00     0.134 A 
ATOM     51  F   UNL A   1      42.376  27.497  36.824  1.00  0.00    -0.206 F 
ATOM     52  C   UNL A   1      44.656  27.404  37.377  1.00  0.00     0.040 A 
ATOM     53  C   UNL A   1      46.214  28.886  36.302  1.00  0.00     0.040 A 
ATOM     54  F   UNL A   1      45.449  30.468  34.748  1.00  0.00    -0.206 F 
ATOM     55  C   UNL A   1      45.962  27.857  37.206  1.00  0.00     0.006 A 
ENDBRANCH  27  48
BRANCH  39  56
ATOM     56  C   UNL A   1      39.450  34.324  36.751  1.00  0.00     0.057 A 
ATOM     57  C   UNL A   1      38.746  34.045  37.929  1.00  0.00     0.134 A 
ATOM     58  C   UNL A   1      40.099  35.558  36.651  1.00  0.00     0.134 A 
ATOM     59  F   UNL A   1      38.091  32.882  38.072  1.00  0.00    -0.206 F 
ATOM     60  C   UNL A   1      38.680  34.969  38.969  1.00  0.00     0.040 A 
ATOM     61  C   UNL A   1      40.061  36.481  37.694  1.00  0.00     0.040 A 
ATOM     62  F   UNL A   1      40.792  35.876  35.547  1.00  0.00    -0.206 F 
ATOM     63  C   UNL A   1      39.346  36.188  38.855  1.00  0.00     0.006 A 
ENDBRANCH  39  56
ENDBRANCH  13  14
ENDBRANCH   6   8
ENDBRANCH   5   6
ENDBRANCH   4   5
ENDBRANCH   3   4
ENDBRANCH   2   3
ENDBRANCH   1   2
BRANCH   1  64
ATOM     64  C   UNL A   1      40.326  21.038  26.762  1.00  0.00     0.188 C 
BRANCH  64  65
ATOM     65  O   UNL A   1      39.571  21.741  25.777  1.00  0.00    -0.376 OA
BRANCH  65  66
ATOM     66  C   UNL A   1      38.166  21.525  25.711  1.00  0.00     0.202 C 
BRANCH  66  67
ATOM     67  C   UNL A   1      37.235  22.716  25.429  1.00  0.00     0.261 C 
BRANCH  67  68
ATOM     68  O   UNL A   1      35.821  22.470  25.459  1.00  0.00    -0.459 OA
BRANCH  68  69
ATOM     69  C   UNL A   1      35.211  22.704  24.259  1.00  0.00     0.370 C 
ATOM     70  O   UNL A   1      35.842  22.966  23.232  1.00  0.00    -0.245 OA
BRANCH  69  71
ATOM     71  C   UNL A   1      33.665  22.756  24.388  1.00  0.00     0.328 C 
BRANCH  71  72
ATOM     72  N   UNL A   1      33.153  24.086  23.914  1.00  0.00    -0.319 N 
ATOM     73  C   UNL A   1      33.129  24.226  22.458  1.00  0.00     0.263 C 
ATOM     74  C   UNL A   1      31.809  24.436  24.445  1.00  0.00     0.274 C 
ATOM     75  H   UNL A   1      33.837  24.739  24.295  1.00  0.00     0.349 HD
ATOM     76  C   UNL A   1      32.870  25.697  22.098  1.00  0.00     0.062 C 
ATOM     77  C   UNL A   1      31.367  25.883  24.142  1.00  0.00     0.104 C 
ATOM     78  C   UNL A   1      31.534  26.190  22.650  1.00  0.00     0.022 C 
BRANCH  77  79
ATOM     79  C   UNL A   1      32.079  26.844  25.060  1.00  0.00     0.103 A 
ATOM     80  N   UNL A   1      31.593  28.015  25.401  1.00  0.00    -0.241 NA
ATOM     81  S   UNL A   1      33.674  26.532  25.619  1.00  0.00    -0.118 S 
ATOM     82  C   UNL A   1      32.508  28.738  26.121  1.00  0.00     0.082 A 
ATOM     83  C   UNL A   1      33.721  28.093  26.353  1.00  0.00     0.055 A 
ATOM     84  C   UNL A   1      32.308  30.041  26.612  1.00  0.00     0.030 A 
ATOM     85  C   UNL A   1      34.752  28.712  27.074  1.00  0.00     0.021 A 
ATOM     86  C   UNL A   1      33.326  30.666  27.330  1.00  0.00     0.002 A 
ATOM     87  C   UNL A   1      34.531  30.007  27.559  1.00  0.00     0.002 A 
ENDBRANCH  77  79
ENDBRANCH  71  72
BRANCH  71  88
ATOM     88  C   UNL A   1      32.995  21.615  23.597  1.00  0.00     0.046 A 
ATOM     89  C   UNL A   1      32.031  21.784  22.614  1.00  0.00     0.094 A 
ATOM     90  C   UNL A   1      33.212  20.172  23.662  1.00  0.00     0.010 A 
ATOM     91  N   UNL A   1      31.690  20.576  22.086  1.00  0.00    -0.361 N 
ATOM     92  C   UNL A   1      32.383  19.572  22.707  1.00  0.00     0.046 A 
ATOM     93  C   UNL A   1      34.018  19.292  24.423  1.00  0.00     0.026 A 
ATOM     94  H   UNL A   1      31.036  20.444  21.361  1.00  0.00     0.166 HD
ATOM     95  C   UNL A   1      32.321  18.189  22.478  1.00  0.00     0.028 A 
ATOM     96  C   UNL A   1      33.911  17.902  24.257  1.00  0.00     0.018 A 
ATOM     97  C   UNL A   1      33.090  17.355  23.284  1.00  0.00     0.018 A 
ATOM     98  Br  UNL A   1      34.848  16.723  25.405  1.00  0.00    -0.051 Br
ENDBRANCH  71  88
ENDBRANCH  69  71
ENDBRANCH  68  69
ENDBRANCH  67  68
ENDBRANCH  66  67
ENDBRANCH  65  66
ENDBRANCH  64  65
ENDBRANCH   1  64
TORSDOF 20
ENDMDL
