MODEL 1
REMARK VINA RESULT:     -11.2      0.000      0.000
REMARK SMILES Cn1ccc(NS(=O)(=O)c2ccc(C(=O)OCCOCCOCCOC(=O)c3ccc(-c4c5nc(c(-c6c(F)cccc6F)c6ccc([nH]6)c(-c6c(F)cccc6F)c6nc(c(-c7c(F)cccc7F)c7ccc4[nH]7)C=C6)C=C5)cc3)cc2F)n1
REMARK SMILES IDX 20 1 19 2 18 3 17 4 16 5 14 6 15 7 13 8 10 9 11 10 83 11
REMARK SMILES IDX 12 12 82 13 84 14 7 15 8 16 9 17 6 18 5 20 1 21 2 22 3 23
REMARK SMILES IDX 85 24 4 25 21 26 22 27 23 28 24 29 25 30 26 31 27 32 28 33
REMARK SMILES IDX 29 34 81 35 30 36 80 37 31 38 32 39 33 40 74 41 34 42 79 43
REMARK SMILES IDX 73 44 75 45 35 46 78 47 72 48 71 49 36 51 62 52 45 53 61 54
REMARK SMILES IDX 46 55 49 56 60 57 76 58 47 59 48 60 59 62 77 63 50 64 37 65
REMARK SMILES IDX 38 66 43 67 39 68 40 69 42 70 44 71 41 72 63 73 64 74 69 75
REMARK SMILES IDX 65 76 66 77 68 78 70 79 67 80 51 81 52 82 57 83 53 84 54 85
REMARK SMILES IDX 56 86 58 87 55 88
REMARK H PARENT 6 19 75 50 49 61
REMARK Flexibility Score: inf
ROOT
ATOM      1  C   UNL A   1      39.132  22.006  26.308  1.00  0.00     0.188 C 
ENDROOT
BRANCH   1   2
ATOM      2  O   UNL A   1      38.240  21.268  25.499  1.00  0.00    -0.376 OA
BRANCH   2   3
ATOM      3  C   UNL A   1      37.054  21.889  25.020  1.00  0.00     0.202 C 
BRANCH   3   4
ATOM      4  C   UNL A   1      35.863  22.129  25.952  1.00  0.00     0.261 C 
BRANCH   4   5
ATOM      5  O   UNL A   1      34.596  22.062  25.282  1.00  0.00    -0.460 OA
BRANCH   5   6
ATOM      6  C   UNL A   1      33.674  22.951  25.722  1.00  0.00     0.338 C 
ATOM      7  O   UNL A   1      32.946  22.848  26.697  1.00  0.00    -0.246 OA
BRANCH   6   8
ATOM      8  C   UNL A   1      33.795  24.205  24.967  1.00  0.00     0.063 A 
ATOM      9  C   UNL A   1      33.629  26.653  23.664  1.00  0.00     0.123 A 
ATOM     10  C   UNL A   1      33.924  26.622  25.019  1.00  0.00     0.026 A 
ATOM     11  C   UNL A   1      33.615  25.457  22.940  1.00  0.00     0.144 A 
ATOM     12  C   UNL A   1      33.901  25.401  25.687  1.00  0.00     0.017 A 
ATOM     13  C   UNL A   1      33.735  24.223  23.578  1.00  0.00     0.056 A 
ATOM     14  F   UNL A   1      33.478  25.464  21.607  1.00  0.00    -0.205 F 
BRANCH   9  15
ATOM     15  S   UNL A   1      33.054  28.098  22.834  1.00  0.00     0.266 S 
ATOM     16  O   UNL A   1      33.920  28.329  21.696  1.00  0.00    -0.201 OA
ATOM     17  O   UNL A   1      32.913  29.106  23.868  1.00  0.00    -0.201 OA
BRANCH  15  18
ATOM     18  N   UNL A   1      31.507  27.935  22.233  1.00  0.00    -0.262 N 
ATOM     19  H   UNL A   1      31.385  27.146  21.658  1.00  0.00     0.182 HD
BRANCH  18  20
ATOM     20  C   UNL A   1      30.362  28.693  22.386  1.00  0.00     0.161 A 
ATOM     21  C   UNL A   1      28.062  30.792  20.897  1.00  0.00     0.173 C 
ATOM     22  N   UNL A   1      28.765  29.969  21.855  1.00  0.00    -0.274 N 
ATOM     23  C   UNL A   1      28.203  29.087  22.728  1.00  0.00     0.110 A 
ATOM     24  N   UNL A   1      30.103  29.842  21.766  1.00  0.00    -0.155 NA
ATOM     25  C   UNL A   1      29.226  28.244  23.100  1.00  0.00     0.069 A 
ENDBRANCH  18  20
ENDBRANCH  15  18
ENDBRANCH   9  15
ENDBRANCH   6   8
ENDBRANCH   5   6
ENDBRANCH   4   5
ENDBRANCH   3   4
ENDBRANCH   2   3
ENDBRANCH   1   2
BRANCH   1  26
ATOM     26  C   UNL A   1      40.439  21.365  26.827  1.00  0.00     0.188 C 
BRANCH  26  27
ATOM     27  O   UNL A   1      41.294  20.646  25.969  1.00  0.00    -0.376 OA
BRANCH  27  28
ATOM     28  C   UNL A   1      42.700  20.737  26.110  1.00  0.00     0.202 C 
BRANCH  28  29
ATOM     29  C   UNL A   1      43.558  21.665  25.243  1.00  0.00     0.261 C 
BRANCH  29  30
ATOM     30  O   UNL A   1      42.935  22.886  24.829  1.00  0.00    -0.460 OA
BRANCH  30  31
ATOM     31  C   UNL A   1      43.706  23.991  24.976  1.00  0.00     0.338 C 
ATOM     32  O   UNL A   1      44.731  24.271  24.380  1.00  0.00    -0.246 OA
BRANCH  31  33
ATOM     33  C   UNL A   1      43.043  24.935  25.890  1.00  0.00     0.060 A 
ATOM     34  C   UNL A   1      43.484  26.264  25.911  1.00  0.00     0.016 A 
ATOM     35  C   UNL A   1      42.056  24.494  26.773  1.00  0.00     0.016 A 
ATOM     36  C   UNL A   1      42.956  27.155  26.843  1.00  0.00     0.010 A 
ATOM     37  C   UNL A   1      41.542  25.384  27.719  1.00  0.00     0.010 A 
ATOM     38  C   UNL A   1      42.010  26.708  27.776  1.00  0.00    -0.014 A 
BRANCH  38  39
ATOM     39  C   UNL A   1      41.618  27.581  28.906  1.00  0.00     0.031 A 
ATOM     40  C   UNL A   1      42.400  27.505  30.186  1.00  0.00     0.074 A 
ATOM     41  C   UNL A   1      40.584  28.431  28.792  1.00  0.00     0.049 A 
ATOM     42  N   UNL A   1      42.195  28.126  31.318  1.00  0.00    -0.248 NA
ATOM     43  C   UNL A   1      43.567  26.607  30.190  1.00  0.00     0.031 C 
ATOM     44  C   UNL A   1      39.770  28.616  27.592  1.00  0.00     0.029 A 
ATOM     45  N   UNL A   1      40.036  29.292  29.710  1.00  0.00    -0.354 N 
ATOM     46  C   UNL A   1      43.202  27.692  32.172  1.00  0.00     0.074 A 
ATOM     47  C   UNL A   1      44.006  26.742  31.434  1.00  0.00     0.031 C 
ATOM     48  C   UNL A   1      38.819  29.530  27.851  1.00  0.00     0.029 A 
ATOM     49  C   UNL A   1      38.936  29.967  29.242  1.00  0.00     0.049 A 
ATOM     50  H   UNL A   1      40.397  29.414  30.617  1.00  0.00     0.167 HD
ATOM     51  C   UNL A   1      43.436  28.057  33.454  1.00  0.00     0.037 A 
ATOM     52  C   UNL A   1      38.106  30.820  29.873  1.00  0.00     0.037 A 
ATOM     53  C   UNL A   1      42.630  28.993  34.191  1.00  0.00     0.049 A 
ATOM     54  C   UNL A   1      38.341  31.152  31.324  1.00  0.00     0.074 A 
ATOM     55  C   UNL A   1      42.793  29.428  35.495  1.00  0.00     0.029 A 
ATOM     56  N   UNL A   1      41.505  29.631  33.692  1.00  0.00    -0.354 N 
ATOM     57  N   UNL A   1      39.303  30.748  32.118  1.00  0.00    -0.248 NA
ATOM     58  C   UNL A   1      37.372  32.050  31.969  1.00  0.00     0.031 C 
ATOM     59  C   UNL A   1      41.740  30.294  35.800  1.00  0.00     0.029 A 
ATOM     60  C   UNL A   1      40.951  30.439  34.669  1.00  0.00     0.049 A 
ATOM     61  H   UNL A   1      41.153  29.524  32.778  1.00  0.00     0.167 HD
ATOM     62  C   UNL A   1      39.067  31.355  33.345  1.00  0.00     0.074 A 
ATOM     63  C   UNL A   1      37.878  32.167  33.188  1.00  0.00     0.031 C 
ATOM     64  C   UNL A   1      39.772  31.249  34.498  1.00  0.00     0.037 A 
BRANCH  51  65
ATOM     65  C   UNL A   1      44.603  27.427  34.153  1.00  0.00     0.057 A 
ATOM     66  C   UNL A   1      45.872  28.018  34.098  1.00  0.00     0.134 A 
ATOM     67  C   UNL A   1      44.484  26.207  34.830  1.00  0.00     0.134 A 
ATOM     68  F   UNL A   1      46.053  29.184  33.461  1.00  0.00    -0.206 F 
ATOM     69  C   UNL A   1      46.985  27.409  34.679  1.00  0.00     0.040 A 
ATOM     70  C   UNL A   1      45.585  25.601  35.437  1.00  0.00     0.040 A 
ATOM     71  F   UNL A   1      43.292  25.599  34.931  1.00  0.00    -0.206 F 
ATOM     72  C   UNL A   1      46.842  26.197  35.353  1.00  0.00     0.006 A 
ENDBRANCH  51  65
BRANCH  52  73
ATOM     73  C   UNL A   1      36.965  31.422  29.137  1.00  0.00     0.057 A 
ATOM     74  C   UNL A   1      37.014  32.737  28.660  1.00  0.00     0.134 A 
ATOM     75  C   UNL A   1      35.796  30.690  28.900  1.00  0.00     0.134 A 
ATOM     76  F   UNL A   1      38.106  33.489  28.858  1.00  0.00    -0.206 F 
ATOM     77  C   UNL A   1      35.934  33.310  27.987  1.00  0.00     0.040 A 
ATOM     78  C   UNL A   1      34.718  31.243  28.207  1.00  0.00     0.040 A 
ATOM     79  F   UNL A   1      35.699  29.421  29.319  1.00  0.00    -0.206 F 
ATOM     80  C   UNL A   1      34.783  32.560  27.756  1.00  0.00     0.006 A 
ENDBRANCH  52  73
BRANCH  64  81
ATOM     81  C   UNL A   1      39.304  32.043  35.683  1.00  0.00     0.057 A 
ATOM     82  C   UNL A   1      38.368  31.504  36.576  1.00  0.00     0.134 A 
ATOM     83  C   UNL A   1      39.707  33.368  35.889  1.00  0.00     0.134 A 
ATOM     84  F   UNL A   1      37.933  30.244  36.428  1.00  0.00    -0.206 F 
ATOM     85  C   UNL A   1      37.834  32.262  37.619  1.00  0.00     0.040 A 
ATOM     86  C   UNL A   1      39.198  34.128  36.943  1.00  0.00     0.040 A 
ATOM     87  F   UNL A   1      40.606  33.939  35.074  1.00  0.00    -0.206 F 
ATOM     88  C   UNL A   1      38.250  33.578  37.806  1.00  0.00     0.006 A 
ENDBRANCH  64  81
ENDBRANCH  38  39
ENDBRANCH  31  33
ENDBRANCH  30  31
ENDBRANCH  29  30
ENDBRANCH  28  29
ENDBRANCH  27  28
ENDBRANCH  26  27
ENDBRANCH   1  26
TORSDOF 20
ENDMDL
MODEL 2
REMARK VINA RESULT:     -10.5      3.873      7.514
REMARK SMILES Cn1ccc(NS(=O)(=O)c2ccc(C(=O)OCCOCCOCCOC(=O)c3ccc(-c4c5nc(c(-c6c(F)cccc6F)c6ccc([nH]6)c(-c6c(F)cccc6F)c6nc(c(-c7c(F)cccc7F)c7ccc4[nH]7)C=C6)C=C5)cc3)cc2F)n1
REMARK SMILES IDX 20 1 19 2 18 3 17 4 16 5 14 6 15 7 13 8 10 9 11 10 83 11
REMARK SMILES IDX 12 12 82 13 84 14 7 15 8 16 9 17 6 18 5 20 1 21 2 22 3 23
REMARK SMILES IDX 85 24 4 25 21 26 22 27 23 28 24 29 25 30 26 31 27 32 28 33
REMARK SMILES IDX 29 34 81 35 30 36 80 37 31 38 32 39 33 40 74 41 34 42 79 43
REMARK SMILES IDX 73 44 75 45 35 46 78 47 72 48 71 49 36 51 62 52 45 53 61 54
REMARK SMILES IDX 46 55 49 56 60 57 76 58 47 59 48 60 59 62 77 63 50 64 37 65
REMARK SMILES IDX 38 66 43 67 39 68 40 69 42 70 44 71 41 72 63 73 64 74 69 75
REMARK SMILES IDX 65 76 66 77 68 78 70 79 67 80 51 81 52 82 57 83 53 84 54 85
REMARK SMILES IDX 56 86 58 87 55 88
REMARK H PARENT 6 19 75 50 49 61
REMARK Flexibility Score: inf
ROOT
ATOM      1  C   UNL A   1      35.130  23.143  25.840  1.00  0.00     0.188 C 
ENDROOT
BRANCH   1   2
ATOM      2  O   UNL A   1      34.912  22.916  27.217  1.00  0.00    -0.376 OA
BRANCH   2   3
ATOM      3  C   UNL A   1      33.974  21.928  27.623  1.00  0.00     0.202 C 
BRANCH   3   4
ATOM      4  C   UNL A   1      32.556  22.321  28.049  1.00  0.00     0.261 C 
BRANCH   4   5
ATOM      5  O   UNL A   1      32.085  23.519  27.413  1.00  0.00    -0.460 OA
BRANCH   5   6
ATOM      6  C   UNL A   1      30.809  23.458  26.964  1.00  0.00     0.338 C 
ATOM      7  O   UNL A   1      29.845  22.957  27.521  1.00  0.00    -0.246 OA
BRANCH   6   8
ATOM      8  C   UNL A   1      30.670  24.283  25.756  1.00  0.00     0.063 A 
ATOM      9  C   UNL A   1      30.830  25.837  23.459  1.00  0.00     0.123 A 
ATOM     10  C   UNL A   1      30.926  24.457  23.354  1.00  0.00     0.026 A 
ATOM     11  C   UNL A   1      30.461  26.406  24.681  1.00  0.00     0.144 A 
ATOM     12  C   UNL A   1      30.952  23.693  24.518  1.00  0.00     0.017 A 
ATOM     13  C   UNL A   1      30.341  25.632  25.833  1.00  0.00     0.056 A 
ATOM     14  F   UNL A   1      30.218  27.721  24.779  1.00  0.00    -0.205 F 
BRANCH   9  15
ATOM     15  S   UNL A   1      31.360  26.939  22.189  1.00  0.00     0.266 S 
ATOM     16  O   UNL A   1      30.284  27.877  21.940  1.00  0.00    -0.201 OA
ATOM     17  O   UNL A   1      31.856  26.090  21.123  1.00  0.00    -0.201 OA
BRANCH  15  18
ATOM     18  N   UNL A   1      32.693  27.844  22.622  1.00  0.00    -0.262 N 
ATOM     19  H   UNL A   1      33.234  28.144  21.857  1.00  0.00     0.182 HD
BRANCH  18  20
ATOM     20  C   UNL A   1      33.184  28.254  23.846  1.00  0.00     0.161 A 
ATOM     21  C   UNL A   1      32.631  30.086  26.718  1.00  0.00     0.173 C 
ATOM     22  N   UNL A   1      33.225  29.226  25.721  1.00  0.00    -0.274 N 
ATOM     23  C   UNL A   1      33.862  28.043  25.951  1.00  0.00     0.110 A 
ATOM     24  N   UNL A   1      32.957  29.434  24.418  1.00  0.00    -0.155 NA
ATOM     25  C   UNL A   1      33.858  27.388  24.740  1.00  0.00     0.069 A 
ENDBRANCH  18  20
ENDBRANCH  15  18
ENDBRANCH   9  15
ENDBRANCH   6   8
ENDBRANCH   5   6
ENDBRANCH   4   5
ENDBRANCH   3   4
ENDBRANCH   2   3
ENDBRANCH   1   2
BRANCH   1  26
ATOM     26  C   UNL A   1      34.397  22.294  24.777  1.00  0.00     0.188 C 
BRANCH  26  27
ATOM     27  O   UNL A   1      34.990  21.143  24.220  1.00  0.00    -0.376 OA
BRANCH  27  28
ATOM     28  C   UNL A   1      35.798  20.292  25.013  1.00  0.00     0.202 C 
BRANCH  28  29
ATOM     29  C   UNL A   1      37.328  20.324  24.962  1.00  0.00     0.261 C 
BRANCH  29  30
ATOM     30  O   UNL A   1      37.951  21.461  25.570  1.00  0.00    -0.460 OA
BRANCH  30  31
ATOM     31  C   UNL A   1      39.158  21.210  26.132  1.00  0.00     0.338 C 
ATOM     32  O   UNL A   1      39.792  20.169  26.107  1.00  0.00    -0.246 OA
BRANCH  31  33
ATOM     33  C   UNL A   1      39.713  22.457  26.684  1.00  0.00     0.060 A 
ATOM     34  C   UNL A   1      39.227  23.676  26.194  1.00  0.00     0.016 A 
ATOM     35  C   UNL A   1      40.756  22.423  27.609  1.00  0.00     0.016 A 
ATOM     36  C   UNL A   1      39.807  24.872  26.610  1.00  0.00     0.010 A 
ATOM     37  C   UNL A   1      41.351  23.621  28.010  1.00  0.00     0.010 A 
ATOM     38  C   UNL A   1      40.898  24.847  27.491  1.00  0.00    -0.014 A 
BRANCH  38  39
ATOM     39  C   UNL A   1      41.662  26.087  27.757  1.00  0.00     0.031 A 
ATOM     40  C   UNL A   1      41.013  27.180  28.559  1.00  0.00     0.074 A 
ATOM     41  C   UNL A   1      42.915  26.236  27.296  1.00  0.00     0.049 A 
ATOM     42  N   UNL A   1      41.469  28.369  28.856  1.00  0.00    -0.248 NA
ATOM     43  C   UNL A   1      39.672  26.894  29.094  1.00  0.00     0.031 C 
ATOM     44  C   UNL A   1      43.659  25.236  26.534  1.00  0.00     0.029 A 
ATOM     45  N   UNL A   1      43.777  27.299  27.395  1.00  0.00    -0.354 N 
ATOM     46  C   UNL A   1      40.471  28.976  29.609  1.00  0.00     0.074 A 
ATOM     47  C   UNL A   1      39.378  28.033  29.706  1.00  0.00     0.031 C 
ATOM     48  C   UNL A   1      44.868  25.737  26.226  1.00  0.00     0.029 A 
ATOM     49  C   UNL A   1      44.968  27.103  26.740  1.00  0.00     0.049 A 
ATOM     50  H   UNL A   1      43.564  28.123  27.889  1.00  0.00     0.167 HD
ATOM     51  C   UNL A   1      40.468  30.207  30.169  1.00  0.00     0.037 A 
ATOM     52  C   UNL A   1      46.007  27.941  26.555  1.00  0.00     0.037 A 
ATOM     53  C   UNL A   1      41.550  31.149  30.062  1.00  0.00     0.049 A 
ATOM     54  C   UNL A   1      45.949  29.335  27.124  1.00  0.00     0.074 A 
ATOM     55  C   UNL A   1      41.640  32.421  30.601  1.00  0.00     0.029 A 
ATOM     56  N   UNL A   1      42.726  30.926  29.363  1.00  0.00    -0.354 N 
ATOM     57  N   UNL A   1      45.008  29.895  27.845  1.00  0.00    -0.248 NA
ATOM     58  C   UNL A   1      47.093  30.216  26.846  1.00  0.00     0.031 C 
ATOM     59  C   UNL A   1      42.850  32.984  30.189  1.00  0.00     0.029 A 
ATOM     60  C   UNL A   1      43.538  32.044  29.437  1.00  0.00     0.049 A 
ATOM     61  H   UNL A   1      42.950  30.095  28.883  1.00  0.00     0.167 HD
ATOM     62  C   UNL A   1      45.452  31.182  28.122  1.00  0.00     0.074 A 
ATOM     63  C   UNL A   1      46.755  31.317  27.504  1.00  0.00     0.031 C 
ATOM     64  C   UNL A   1      44.835  32.163  28.825  1.00  0.00     0.037 A 
BRANCH  51  65
ATOM     65  C   UNL A   1      39.248  30.619  30.936  1.00  0.00     0.057 A 
ATOM     66  C   UNL A   1      38.198  31.292  30.299  1.00  0.00     0.134 A 
ATOM     67  C   UNL A   1      39.139  30.404  32.316  1.00  0.00     0.134 A 
ATOM     68  F   UNL A   1      38.244  31.533  28.980  1.00  0.00    -0.206 F 
ATOM     69  C   UNL A   1      37.088  31.750  31.010  1.00  0.00     0.040 A 
ATOM     70  C   UNL A   1      38.022  30.835  33.033  1.00  0.00     0.040 A 
ATOM     71  F   UNL A   1      40.105  29.752  32.981  1.00  0.00    -0.206 F 
ATOM     72  C   UNL A   1      36.998  31.519  32.382  1.00  0.00     0.006 A 
ENDBRANCH  51  65
BRANCH  52  73
ATOM     73  C   UNL A   1      47.196  27.486  25.792  1.00  0.00     0.057 A 
ATOM     74  C   UNL A   1      48.290  26.888  26.428  1.00  0.00     0.134 A 
ATOM     75  C   UNL A   1      47.264  27.647  24.404  1.00  0.00     0.134 A 
ATOM     76  F   UNL A   1      48.286  26.709  27.757  1.00  0.00    -0.206 F 
ATOM     77  C   UNL A   1      49.417  26.479  25.714  1.00  0.00     0.040 A 
ATOM     78  C   UNL A   1      48.376  27.221  23.673  1.00  0.00     0.040 A 
ATOM     79  F   UNL A   1      46.240  28.198  23.738  1.00  0.00    -0.206 F 
ATOM     80  C   UNL A   1      49.459  26.643  24.331  1.00  0.00     0.006 A 
ENDBRANCH  52  73
BRANCH  64  81
ATOM     81  C   UNL A   1      45.560  33.467  28.995  1.00  0.00     0.057 A 
ATOM     82  C   UNL A   1      46.390  33.681  30.104  1.00  0.00     0.134 A 
ATOM     83  C   UNL A   1      45.365  34.539  28.116  1.00  0.00     0.134 A 
ATOM     84  F   UNL A   1      46.609  32.698  30.990  1.00  0.00    -0.206 F 
ATOM     85  C   UNL A   1      46.984  34.921  30.343  1.00  0.00     0.040 A 
ATOM     86  C   UNL A   1      45.974  35.777  28.331  1.00  0.00     0.040 A 
ATOM     87  F   UNL A   1      44.589  34.396  27.032  1.00  0.00    -0.206 F 
ATOM     88  C   UNL A   1      46.778  35.973  29.454  1.00  0.00     0.006 A 
ENDBRANCH  64  81
ENDBRANCH  38  39
ENDBRANCH  31  33
ENDBRANCH  30  31
ENDBRANCH  29  30
ENDBRANCH  28  29
ENDBRANCH  27  28
ENDBRANCH  26  27
ENDBRANCH   1  26
TORSDOF 20
ENDMDL
MODEL 3
REMARK VINA RESULT:     -10.5      4.558      9.772
REMARK SMILES Cn1ccc(NS(=O)(=O)c2ccc(C(=O)OCCOCCOCCOC(=O)c3ccc(-c4c5nc(c(-c6c(F)cccc6F)c6ccc([nH]6)c(-c6c(F)cccc6F)c6nc(c(-c7c(F)cccc7F)c7ccc4[nH]7)C=C6)C=C5)cc3)cc2F)n1
REMARK SMILES IDX 20 1 19 2 18 3 17 4 16 5 14 6 15 7 13 8 10 9 11 10 83 11
REMARK SMILES IDX 12 12 82 13 84 14 7 15 8 16 9 17 6 18 5 20 1 21 2 22 3 23
REMARK SMILES IDX 85 24 4 25 21 26 22 27 23 28 24 29 25 30 26 31 27 32 28 33
REMARK SMILES IDX 29 34 81 35 30 36 80 37 31 38 32 39 33 40 74 41 34 42 79 43
REMARK SMILES IDX 73 44 75 45 35 46 78 47 72 48 71 49 36 51 62 52 45 53 61 54
REMARK SMILES IDX 46 55 49 56 60 57 76 58 47 59 48 60 59 62 77 63 50 64 37 65
REMARK SMILES IDX 38 66 43 67 39 68 40 69 42 70 44 71 41 72 63 73 64 74 69 75
REMARK SMILES IDX 65 76 66 77 68 78 70 79 67 80 51 81 52 82 57 83 53 84 54 85
REMARK SMILES IDX 56 86 58 87 55 88
REMARK H PARENT 6 19 75 50 49 61
REMARK Flexibility Score: inf
ROOT
ATOM      1  C   UNL A   1      33.074  33.533  27.838  1.00  0.00     0.188 C 
ENDROOT
BRANCH   1   2
ATOM      2  O   UNL A   1      33.727  32.301  28.058  1.00  0.00    -0.376 OA
BRANCH   2   3
ATOM      3  C   UNL A   1      33.403  31.182  27.243  1.00  0.00     0.202 C 
BRANCH   3   4
ATOM      4  C   UNL A   1      34.152  29.855  27.398  1.00  0.00     0.261 C 
BRANCH   4   5
ATOM      5  O   UNL A   1      34.530  29.268  26.144  1.00  0.00    -0.460 OA
BRANCH   5   6
ATOM      6  C   UNL A   1      33.492  28.890  25.359  1.00  0.00     0.338 C 
ATOM      7  O   UNL A   1      33.146  29.378  24.295  1.00  0.00    -0.246 OA
BRANCH   6   8
ATOM      8  C   UNL A   1      32.923  27.633  25.864  1.00  0.00     0.063 A 
ATOM      9  C   UNL A   1      31.909  25.110  26.429  1.00  0.00     0.123 A 
ATOM     10  C   UNL A   1      33.282  25.310  26.443  1.00  0.00     0.026 A 
ATOM     11  C   UNL A   1      31.058  26.214  26.326  1.00  0.00     0.144 A 
ATOM     12  C   UNL A   1      33.787  26.548  26.056  1.00  0.00     0.017 A 
ATOM     13  C   UNL A   1      31.557  27.492  26.080  1.00  0.00     0.056 A 
ATOM     14  F   UNL A   1      29.732  26.071  26.455  1.00  0.00    -0.205 F 
BRANCH   9  15
ATOM     15  S   UNL A   1      31.168  23.514  26.315  1.00  0.00     0.266 S 
ATOM     16  O   UNL A   1      29.908  23.559  27.029  1.00  0.00    -0.201 OA
ATOM     17  O   UNL A   1      32.204  22.578  26.710  1.00  0.00    -0.201 OA
BRANCH  15  18
ATOM     18  N   UNL A   1      30.814  23.067  24.748  1.00  0.00    -0.262 N 
ATOM     19  H   UNL A   1      30.021  22.490  24.669  1.00  0.00     0.182 HD
BRANCH  18  20
ATOM     20  C   UNL A   1      31.417  23.351  23.538  1.00  0.00     0.161 A 
ATOM     21  C   UNL A   1      32.893  25.740  21.531  1.00  0.00     0.173 C 
ATOM     22  N   UNL A   1      32.377  24.490  22.040  1.00  0.00    -0.274 N 
ATOM     23  C   UNL A   1      32.991  23.275  21.972  1.00  0.00     0.110 A 
ATOM     24  N   UNL A   1      31.316  24.497  22.869  1.00  0.00    -0.155 NA
ATOM     25  C   UNL A   1      32.378  22.505  22.935  1.00  0.00     0.069 A 
ENDBRANCH  18  20
ENDBRANCH  15  18
ENDBRANCH   9  15
ENDBRANCH   6   8
ENDBRANCH   5   6
ENDBRANCH   4   5
ENDBRANCH   3   4
ENDBRANCH   2   3
ENDBRANCH   1   2
BRANCH   1  26
ATOM     26  C   UNL A   1      33.294  34.724  28.797  1.00  0.00     0.188 C 
BRANCH  26  27
ATOM     27  O   UNL A   1      33.001  34.623  30.171  1.00  0.00    -0.376 OA
BRANCH  27  28
ATOM     28  C   UNL A   1      33.823  35.262  31.132  1.00  0.00     0.202 C 
BRANCH  28  29
ATOM     29  C   UNL A   1      34.937  34.526  31.884  1.00  0.00     0.261 C 
BRANCH  29  30
ATOM     30  O   UNL A   1      35.095  33.139  31.567  1.00  0.00    -0.460 OA
BRANCH  30  31
ATOM     31  C   UNL A   1      35.806  32.430  32.478  1.00  0.00     0.338 C 
ATOM     32  O   UNL A   1      35.591  32.322  33.672  1.00  0.00    -0.246 OA
BRANCH  31  33
ATOM     33  C   UNL A   1      36.840  31.642  31.788  1.00  0.00     0.060 A 
ATOM     34  C   UNL A   1      37.775  30.945  32.564  1.00  0.00     0.016 A 
ATOM     35  C   UNL A   1      36.937  31.661  30.396  1.00  0.00     0.016 A 
ATOM     36  C   UNL A   1      38.834  30.283  31.945  1.00  0.00     0.010 A 
ATOM     37  C   UNL A   1      38.010  31.014  29.779  1.00  0.00     0.010 A 
ATOM     38  C   UNL A   1      38.977  30.347  30.552  1.00  0.00    -0.014 A 
BRANCH  38  39
ATOM     39  C   UNL A   1      40.214  29.846  29.912  1.00  0.00     0.031 A 
ATOM     40  C   UNL A   1      41.372  30.787  29.737  1.00  0.00     0.074 A 
ATOM     41  C   UNL A   1      40.307  28.571  29.499  1.00  0.00     0.049 A 
ATOM     42  N   UNL A   1      42.522  30.582  29.149  1.00  0.00    -0.248 NA
ATOM     43  C   UNL A   1      41.210  32.140  30.296  1.00  0.00     0.031 C 
ATOM     44  C   UNL A   1      39.264  27.558  29.642  1.00  0.00     0.029 A 
ATOM     45  N   UNL A   1      41.331  27.917  28.860  1.00  0.00    -0.354 N 
ATOM     46  C   UNL A   1      43.219  31.779  29.263  1.00  0.00     0.074 A 
ATOM     47  C   UNL A   1      42.358  32.710  29.958  1.00  0.00     0.031 C 
ATOM     48  C   UNL A   1      39.699  26.408  29.099  1.00  0.00     0.029 A 
ATOM     49  C   UNL A   1      41.036  26.615  28.541  1.00  0.00     0.049 A 
ATOM     50  H   UNL A   1      42.195  28.340  28.653  1.00  0.00     0.167 HD
ATOM     51  C   UNL A   1      44.467  32.072  28.829  1.00  0.00     0.037 A 
ATOM     52  C   UNL A   1      41.753  25.704  27.853  1.00  0.00     0.037 A 
ATOM     53  C   UNL A   1      45.319  31.150  28.127  1.00  0.00     0.049 A 
ATOM     54  C   UNL A   1      43.108  26.078  27.312  1.00  0.00     0.074 A 
ATOM     55  C   UNL A   1      46.603  31.356  27.652  1.00  0.00     0.029 A 
ATOM     56  N   UNL A   1      44.972  29.850  27.793  1.00  0.00    -0.354 N 
ATOM     57  N   UNL A   1      43.764  27.206  27.436  1.00  0.00    -0.248 NA
ATOM     58  C   UNL A   1      43.819  25.056  26.529  1.00  0.00     0.031 C 
ATOM     59  C   UNL A   1      47.014  30.197  26.990  1.00  0.00     0.029 A 
ATOM     60  C   UNL A   1      46.007  29.250  27.098  1.00  0.00     0.049 A 
ATOM     61  H   UNL A   1      44.114  29.419  28.016  1.00  0.00     0.167 HD
ATOM     62  C   UNL A   1      44.969  27.025  26.766  1.00  0.00     0.074 A 
ATOM     63  C   UNL A   1      44.959  25.673  26.249  1.00  0.00     0.031 C 
ATOM     64  C   UNL A   1      45.989  27.901  26.596  1.00  0.00     0.037 A 
BRANCH  51  65
ATOM     65  C   UNL A   1      44.984  33.457  29.082  1.00  0.00     0.057 A 
ATOM     66  C   UNL A   1      44.874  34.450  28.101  1.00  0.00     0.134 A 
ATOM     67  C   UNL A   1      45.644  33.789  30.272  1.00  0.00     0.134 A 
ATOM     68  F   UNL A   1      44.258  34.193  26.938  1.00  0.00    -0.206 F 
ATOM     69  C   UNL A   1      45.414  35.722  28.289  1.00  0.00     0.040 A 
ATOM     70  C   UNL A   1      46.167  35.066  30.481  1.00  0.00     0.040 A 
ATOM     71  F   UNL A   1      45.768  32.885  31.256  1.00  0.00    -0.206 F 
ATOM     72  C   UNL A   1      46.062  36.033  29.484  1.00  0.00     0.006 A 
ENDBRANCH  51  65
BRANCH  52  73
ATOM     73  C   UNL A   1      41.200  24.344  27.631  1.00  0.00     0.057 A 
ATOM     74  C   UNL A   1      41.673  23.236  28.344  1.00  0.00     0.134 A 
ATOM     75  C   UNL A   1      40.188  24.124  26.691  1.00  0.00     0.134 A 
ATOM     76  F   UNL A   1      42.645  23.383  29.256  1.00  0.00    -0.206 F 
ATOM     77  C   UNL A   1      41.170  21.954  28.121  1.00  0.00     0.040 A 
ATOM     78  C   UNL A   1      39.658  22.850  26.474  1.00  0.00     0.040 A 
ATOM     79  F   UNL A   1      39.684  25.149  25.990  1.00  0.00    -0.206 F 
ATOM     80  C   UNL A   1      40.155  21.760  27.185  1.00  0.00     0.006 A 
ENDBRANCH  52  73
BRANCH  64  81
ATOM     81  C   UNL A   1      47.199  27.430  25.841  1.00  0.00     0.057 A 
ATOM     82  C   UNL A   1      47.268  27.570  24.448  1.00  0.00     0.134 A 
ATOM     83  C   UNL A   1      48.249  26.759  26.477  1.00  0.00     0.134 A 
ATOM     84  F   UNL A   1      46.288  28.194  23.778  1.00  0.00    -0.206 F 
ATOM     85  C   UNL A   1      48.330  27.041  23.714  1.00  0.00     0.040 A 
ATOM     86  C   UNL A   1      49.329  26.246  25.756  1.00  0.00     0.040 A 
ATOM     87  F   UNL A   1      48.247  26.600  27.809  1.00  0.00    -0.206 F 
ATOM     88  C   UNL A   1      49.365  26.378  24.367  1.00  0.00     0.006 A 
ENDBRANCH  64  81
ENDBRANCH  38  39
ENDBRANCH  31  33
ENDBRANCH  30  31
ENDBRANCH  29  30
ENDBRANCH  28  29
ENDBRANCH  27  28
ENDBRANCH  26  27
ENDBRANCH   1  26
TORSDOF 20
ENDMDL
