MODEL 1
REMARK VINA RESULT:     -10.5      0.000      0.000
REMARK SMILES CC(C)CCn1cc(C(=O)OCCOCCOCCOC(=O)c2ccc(-c3c4nc(c(-c5c(F)cccc5F)c5ccc([nH]5)c(-c5c(F)cccc5F)c5nc(c(-c6c(F)cccc6F)c6ccc3[nH]6)C=C5)C=C4)cc2)c(-c2ccoc2)n1
REMARK SMILES IDX 15 1 14 2 13 3 12 4 11 5 9 6 10 7 8 8 6 9 7 10 83 11 77 12
REMARK SMILES IDX 5 13 4 14 2 15 1 16 3 17 78 18 79 19 82 20 80 21 81 22 16 23
REMARK SMILES IDX 17 24 18 25 19 26 20 27 21 28 22 29 23 30 24 31 76 32 25 33
REMARK SMILES IDX 75 34 26 35 27 36 28 37 69 38 29 39 74 40 68 41 70 42 30 43
REMARK SMILES IDX 73 44 67 45 66 46 31 48 57 49 40 50 56 51 41 52 44 53 55 54
REMARK SMILES IDX 71 55 42 56 43 57 54 59 72 60 45 61 32 62 33 63 38 64 34 65
REMARK SMILES IDX 35 66 37 67 39 68 36 69 58 70 59 71 64 72 60 73 61 74 63 75
REMARK SMILES IDX 65 76 62 77 46 78 47 79 52 80 48 81 49 82 51 83 53 84 50 85
REMARK H PARENT 70 47 44 58
REMARK Flexibility Score: inf
ROOT
ATOM      1  C   UNL A   1      40.120  21.558  26.428  1.00  0.00     0.188 C 
ENDROOT
BRANCH   1   2
ATOM      2  O   UNL A   1      39.038  22.460  26.485  1.00  0.00    -0.376 OA
BRANCH   2   3
ATOM      3  C   UNL A   1      37.904  22.202  25.676  1.00  0.00     0.202 C 
BRANCH   3   4
ATOM      4  C   UNL A   1      37.225  23.287  24.807  1.00  0.00     0.261 C 
BRANCH   4   5
ATOM      5  O   UNL A   1      35.862  23.630  25.080  1.00  0.00    -0.460 OA
BRANCH   5   6
ATOM      6  C   UNL A   1      34.943  23.409  24.080  1.00  0.00     0.342 C 
ATOM      7  O   UNL A   1      35.012  23.879  22.980  1.00  0.00    -0.246 OA
BRANCH   6   8
ATOM      8  C   UNL A   1      33.938  22.433  24.497  1.00  0.00     0.106 A 
ATOM      9  N   UNL A   1      32.814  20.572  24.882  1.00  0.00    -0.271 N 
ATOM     10  C   UNL A   1      33.978  21.057  24.351  1.00  0.00     0.125 A 
ATOM     11  N   UNL A   1      31.999  21.540  25.328  1.00  0.00    -0.172 NA
ATOM     12  C   UNL A   1      32.658  22.670  25.058  1.00  0.00     0.110 A 
BRANCH   9  13
ATOM     13  C   UNL A   1      32.462  19.178  25.081  1.00  0.00     0.144 C 
BRANCH  13  14
ATOM     14  C   UNL A   1      32.497  18.288  23.829  1.00  0.00     0.027 C 
BRANCH  14  15
ATOM     15  C   UNL A   1      33.035  16.859  24.045  1.00  0.00    -0.016 C 
ATOM     16  C   UNL A   1      34.274  16.573  23.197  1.00  0.00     0.007 C 
ATOM     17  C   UNL A   1      33.367  16.651  25.526  1.00  0.00     0.007 C 
ENDBRANCH  14  15
ENDBRANCH  13  14
ENDBRANCH   9  13
BRANCH  12  18
ATOM     18  C   UNL A   1      32.001  23.956  25.214  1.00  0.00     0.041 A 
ATOM     19  C   UNL A   1      31.866  24.670  26.424  1.00  0.00     0.052 A 
ATOM     20  C   UNL A   1      31.292  24.652  24.264  1.00  0.00     0.205 A 
ATOM     21  C   UNL A   1      31.104  25.777  26.123  1.00  0.00     0.195 A 
ATOM     22  O   UNL A   1      30.761  25.781  24.807  1.00  0.00    -0.472 OA
ENDBRANCH  12  18
ENDBRANCH   6   8
ENDBRANCH   5   6
ENDBRANCH   4   5
ENDBRANCH   3   4
ENDBRANCH   2   3
ENDBRANCH   1   2
BRANCH   1  23
ATOM     23  C   UNL A   1      39.747  20.191  25.815  1.00  0.00     0.188 C 
BRANCH  23  24
ATOM     24  O   UNL A   1      40.685  19.124  25.740  1.00  0.00    -0.376 OA
BRANCH  24  25
ATOM     25  C   UNL A   1      41.899  19.134  26.477  1.00  0.00     0.202 C 
BRANCH  25  26
ATOM     26  C   UNL A   1      43.258  19.046  25.787  1.00  0.00     0.261 C 
BRANCH  26  27
ATOM     27  O   UNL A   1      43.399  19.856  24.638  1.00  0.00    -0.460 OA
BRANCH  27  28
ATOM     28  C   UNL A   1      44.667  19.973  24.197  1.00  0.00     0.338 C 
ATOM     29  O   UNL A   1      45.413  19.083  23.827  1.00  0.00    -0.246 OA
BRANCH  28  30
ATOM     30  C   UNL A   1      45.076  21.369  24.369  1.00  0.00     0.060 A 
ATOM     31  C   UNL A   1      46.032  21.614  25.354  1.00  0.00     0.016 A 
ATOM     32  C   UNL A   1      44.223  22.368  23.878  1.00  0.00     0.016 A 
ATOM     33  C   UNL A   1      45.926  22.786  26.065  1.00  0.00     0.010 A 
ATOM     34  C   UNL A   1      44.089  23.512  24.615  1.00  0.00     0.010 A 
ATOM     35  C   UNL A   1      44.873  23.653  25.755  1.00  0.00    -0.014 A 
BRANCH  35  36
ATOM     36  C   UNL A   1      44.660  24.807  26.594  1.00  0.00     0.031 A 
ATOM     37  C   UNL A   1      45.777  25.761  26.492  1.00  0.00     0.074 A 
ATOM     38  C   UNL A   1      43.525  24.999  27.290  1.00  0.00     0.049 A 
ATOM     39  N   UNL A   1      46.700  25.954  27.372  1.00  0.00    -0.248 NA
ATOM     40  C   UNL A   1      46.045  26.390  25.188  1.00  0.00     0.031 C 
ATOM     41  C   UNL A   1      42.284  24.222  27.261  1.00  0.00     0.029 A 
ATOM     42  N   UNL A   1      43.224  26.023  28.133  1.00  0.00    -0.354 N 
ATOM     43  C   UNL A   1      47.535  26.912  26.817  1.00  0.00     0.074 A 
ATOM     44  C   UNL A   1      47.236  26.946  25.412  1.00  0.00     0.031 C 
ATOM     45  C   UNL A   1      41.302  24.928  27.870  1.00  0.00     0.029 A 
ATOM     46  C   UNL A   1      41.869  26.143  28.432  1.00  0.00     0.049 A 
ATOM     47  H   UNL A   1      43.907  26.628  28.502  1.00  0.00     0.167 HD
ATOM     48  C   UNL A   1      48.175  27.808  27.613  1.00  0.00     0.037 A 
ATOM     49  C   UNL A   1      41.291  27.222  29.024  1.00  0.00     0.037 A 
ATOM     50  C   UNL A   1      48.167  27.373  28.988  1.00  0.00     0.049 A 
ATOM     51  C   UNL A   1      42.378  27.968  29.719  1.00  0.00     0.074 A 
ATOM     52  C   UNL A   1      48.636  26.255  29.652  1.00  0.00     0.029 A 
ATOM     53  N   UNL A   1      47.243  27.952  29.825  1.00  0.00    -0.354 N 
ATOM     54  N   UNL A   1      42.992  27.516  30.778  1.00  0.00    -0.248 NA
ATOM     55  C   UNL A   1      43.114  28.962  28.949  1.00  0.00     0.031 C 
ATOM     56  C   UNL A   1      47.642  25.961  30.630  1.00  0.00     0.029 A 
ATOM     57  C   UNL A   1      46.667  26.956  30.570  1.00  0.00     0.049 A 
ATOM     58  H   UNL A   1      47.032  28.912  29.880  1.00  0.00     0.167 HD
ATOM     59  C   UNL A   1      44.330  27.807  30.557  1.00  0.00     0.074 A 
ATOM     60  C   UNL A   1      44.338  28.761  29.448  1.00  0.00     0.031 C 
ATOM     61  C   UNL A   1      45.316  27.018  31.076  1.00  0.00     0.037 A 
BRANCH  48  62
ATOM     62  C   UNL A   1      48.423  29.243  27.227  1.00  0.00     0.057 A 
ATOM     63  C   UNL A   1      49.719  29.764  27.377  1.00  0.00     0.134 A 
ATOM     64  C   UNL A   1      47.414  30.204  27.002  1.00  0.00     0.134 A 
ATOM     65  F   UNL A   1      50.763  28.954  27.608  1.00  0.00    -0.206 F 
ATOM     66  C   UNL A   1      49.977  31.138  27.388  1.00  0.00     0.040 A 
ATOM     67  C   UNL A   1      47.670  31.575  26.954  1.00  0.00     0.040 A 
ATOM     68  F   UNL A   1      46.116  29.893  26.921  1.00  0.00    -0.206 F 
ATOM     69  C   UNL A   1      48.949  32.050  27.183  1.00  0.00     0.006 A 
ENDBRANCH  48  62
BRANCH  49  70
ATOM     70  C   UNL A   1      39.960  27.830  28.775  1.00  0.00     0.057 A 
ATOM     71  C   UNL A   1      38.990  27.887  29.791  1.00  0.00     0.134 A 
ATOM     72  C   UNL A   1      39.703  28.623  27.644  1.00  0.00     0.134 A 
ATOM     73  F   UNL A   1      39.151  27.193  30.928  1.00  0.00    -0.206 F 
ATOM     74  C   UNL A   1      37.859  28.711  29.703  1.00  0.00     0.040 A 
ATOM     75  C   UNL A   1      38.576  29.446  27.542  1.00  0.00     0.040 A 
ATOM     76  F   UNL A   1      40.583  28.701  26.636  1.00  0.00    -0.206 F 
ATOM     77  C   UNL A   1      37.657  29.507  28.581  1.00  0.00     0.006 A 
ENDBRANCH  49  70
BRANCH  61  78
ATOM     78  C   UNL A   1      44.929  25.974  32.086  1.00  0.00     0.057 A 
ATOM     79  C   UNL A   1      44.518  24.672  31.763  1.00  0.00     0.134 A 
ATOM     80  C   UNL A   1      45.141  26.251  33.442  1.00  0.00     0.134 A 
ATOM     81  F   UNL A   1      44.387  24.282  30.488  1.00  0.00    -0.206 F 
ATOM     82  C   UNL A   1      44.291  23.704  32.747  1.00  0.00     0.040 A 
ATOM     83  C   UNL A   1      44.953  25.284  34.430  1.00  0.00     0.040 A 
ATOM     84  F   UNL A   1      45.590  27.458  33.821  1.00  0.00    -0.206 F 
ATOM     85  C   UNL A   1      44.516  24.009  34.086  1.00  0.00     0.006 A 
ENDBRANCH  61  78
ENDBRANCH  35  36
ENDBRANCH  28  30
ENDBRANCH  27  28
ENDBRANCH  26  27
ENDBRANCH  25  26
ENDBRANCH  24  25
ENDBRANCH  23  24
ENDBRANCH   1  23
TORSDOF 21
ENDMDL
MODEL 2
REMARK VINA RESULT:     -10.5      1.376      3.034
REMARK SMILES CC(C)CCn1cc(C(=O)OCCOCCOCCOC(=O)c2ccc(-c3c4nc(c(-c5c(F)cccc5F)c5ccc([nH]5)c(-c5c(F)cccc5F)c5nc(c(-c6c(F)cccc6F)c6ccc3[nH]6)C=C5)C=C4)cc2)c(-c2ccoc2)n1
REMARK SMILES IDX 15 1 14 2 13 3 12 4 11 5 9 6 10 7 8 8 6 9 7 10 83 11 77 12
REMARK SMILES IDX 5 13 4 14 2 15 1 16 3 17 78 18 79 19 82 20 80 21 81 22 16 23
REMARK SMILES IDX 17 24 18 25 19 26 20 27 21 28 22 29 23 30 24 31 76 32 25 33
REMARK SMILES IDX 75 34 26 35 27 36 28 37 69 38 29 39 74 40 68 41 70 42 30 43
REMARK SMILES IDX 73 44 67 45 66 46 31 48 57 49 40 50 56 51 41 52 44 53 55 54
REMARK SMILES IDX 71 55 42 56 43 57 54 59 72 60 45 61 32 62 33 63 38 64 34 65
REMARK SMILES IDX 35 66 37 67 39 68 36 69 58 70 59 71 64 72 60 73 61 74 63 75
REMARK SMILES IDX 65 76 62 77 46 78 47 79 52 80 48 81 49 82 51 83 53 84 50 85
REMARK H PARENT 70 47 44 58
REMARK Flexibility Score: inf
ROOT
ATOM      1  C   UNL A   1      40.147  21.331  26.313  1.00  0.00     0.188 C 
ENDROOT
BRANCH   1   2
ATOM      2  O   UNL A   1      39.091  22.242  26.105  1.00  0.00    -0.376 OA
BRANCH   2   3
ATOM      3  C   UNL A   1      37.967  21.810  25.358  1.00  0.00     0.202 C 
BRANCH   3   4
ATOM      4  C   UNL A   1      36.793  22.746  24.987  1.00  0.00     0.261 C 
BRANCH   4   5
ATOM      5  O   UNL A   1      36.304  23.658  25.978  1.00  0.00    -0.460 OA
BRANCH   5   6
ATOM      6  C   UNL A   1      35.035  23.440  26.465  1.00  0.00     0.342 C 
ATOM      7  O   UNL A   1      34.788  22.809  27.453  1.00  0.00    -0.246 OA
BRANCH   6   8
ATOM      8  C   UNL A   1      34.041  24.178  25.688  1.00  0.00     0.106 A 
ATOM      9  N   UNL A   1      32.756  25.758  24.835  1.00  0.00    -0.271 N 
ATOM     10  C   UNL A   1      33.769  25.535  25.727  1.00  0.00     0.125 A 
ATOM     11  N   UNL A   1      32.321  24.633  24.247  1.00  0.00    -0.172 NA
ATOM     12  C   UNL A   1      33.068  23.670  24.792  1.00  0.00     0.110 A 
BRANCH   9  13
ATOM     13  C   UNL A   1      32.222  27.044  24.427  1.00  0.00     0.144 C 
BRANCH  13  14
ATOM     14  C   UNL A   1      31.626  27.109  23.012  1.00  0.00     0.027 C 
BRANCH  14  15
ATOM     15  C   UNL A   1      30.132  27.484  22.938  1.00  0.00    -0.016 C 
ATOM     16  C   UNL A   1      29.280  26.662  23.903  1.00  0.00     0.007 C 
ATOM     17  C   UNL A   1      29.960  28.976  23.244  1.00  0.00     0.007 C 
ENDBRANCH  14  15
ENDBRANCH  13  14
ENDBRANCH   9  13
BRANCH  12  18
ATOM     18  C   UNL A   1      32.751  22.272  24.553  1.00  0.00     0.041 A 
ATOM     19  C   UNL A   1      32.828  21.613  23.307  1.00  0.00     0.052 A 
ATOM     20  C   UNL A   1      32.208  21.375  25.442  1.00  0.00     0.205 A 
ATOM     21  C   UNL A   1      32.353  20.339  23.528  1.00  0.00     0.195 A 
ATOM     22  O   UNL A   1      31.986  20.182  24.828  1.00  0.00    -0.472 OA
ENDBRANCH  12  18
ENDBRANCH   6   8
ENDBRANCH   5   6
ENDBRANCH   4   5
ENDBRANCH   3   4
ENDBRANCH   2   3
ENDBRANCH   1   2
BRANCH   1  23
ATOM     23  C   UNL A   1      39.854  19.918  25.764  1.00  0.00     0.188 C 
BRANCH  23  24
ATOM     24  O   UNL A   1      40.855  18.907  25.726  1.00  0.00    -0.376 OA
BRANCH  24  25
ATOM     25  C   UNL A   1      42.108  19.062  26.378  1.00  0.00     0.202 C 
BRANCH  25  26
ATOM     26  C   UNL A   1      43.428  18.920  25.626  1.00  0.00     0.261 C 
BRANCH  26  27
ATOM     27  O   UNL A   1      43.567  19.759  24.498  1.00  0.00    -0.460 OA
BRANCH  27  28
ATOM     28  C   UNL A   1      44.837  19.911  24.075  1.00  0.00     0.338 C 
ATOM     29  O   UNL A   1      45.617  19.042  23.729  1.00  0.00    -0.246 OA
BRANCH  28  30
ATOM     30  C   UNL A   1      45.199  21.322  24.237  1.00  0.00     0.060 A 
ATOM     31  C   UNL A   1      46.173  21.602  25.195  1.00  0.00     0.016 A 
ATOM     32  C   UNL A   1      44.297  22.288  23.772  1.00  0.00     0.016 A 
ATOM     33  C   UNL A   1      46.043  22.769  25.910  1.00  0.00     0.010 A 
ATOM     34  C   UNL A   1      44.141  23.427  24.513  1.00  0.00     0.010 A 
ATOM     35  C   UNL A   1      44.951  23.597  25.631  1.00  0.00    -0.014 A 
BRANCH  35  36
ATOM     36  C   UNL A   1      44.720  24.742  26.476  1.00  0.00     0.031 A 
ATOM     37  C   UNL A   1      45.838  25.698  26.409  1.00  0.00     0.074 A 
ATOM     38  C   UNL A   1      43.569  24.927  27.150  1.00  0.00     0.049 A 
ATOM     39  N   UNL A   1      46.741  25.882  27.310  1.00  0.00    -0.248 NA
ATOM     40  C   UNL A   1      46.134  26.340  25.116  1.00  0.00     0.031 C 
ATOM     41  C   UNL A   1      42.330  24.150  27.086  1.00  0.00     0.029 A 
ATOM     42  N   UNL A   1      43.250  25.942  27.997  1.00  0.00    -0.354 N 
ATOM     43  C   UNL A   1      47.587  26.846  26.783  1.00  0.00     0.074 A 
ATOM     44  C   UNL A   1      47.319  26.894  25.372  1.00  0.00     0.031 C 
ATOM     45  C   UNL A   1      41.334  24.850  27.681  1.00  0.00     0.029 A 
ATOM     46  C   UNL A   1      41.888  26.059  28.267  1.00  0.00     0.049 A 
ATOM     47  H   UNL A   1      43.924  26.544  28.386  1.00  0.00     0.167 HD
ATOM     48  C   UNL A   1      48.210  27.735  27.601  1.00  0.00     0.037 A 
ATOM     49  C   UNL A   1      41.297  27.131  28.857  1.00  0.00     0.037 A 
ATOM     50  C   UNL A   1      48.172  27.285  28.972  1.00  0.00     0.049 A 
ATOM     51  C   UNL A   1      42.368  27.871  29.583  1.00  0.00     0.074 A 
ATOM     52  C   UNL A   1      48.627  26.161  29.634  1.00  0.00     0.029 A 
ATOM     53  N   UNL A   1      47.230  27.856  29.794  1.00  0.00    -0.354 N 
ATOM     54  N   UNL A   1      42.960  27.408  30.650  1.00  0.00    -0.248 NA
ATOM     55  C   UNL A   1      43.121  28.872  28.839  1.00  0.00     0.031 C 
ATOM     56  C   UNL A   1      47.613  25.857  30.588  1.00  0.00     0.029 A 
ATOM     57  C   UNL A   1      46.638  26.852  30.516  1.00  0.00     0.049 A 
ATOM     58  H   UNL A   1      47.017  28.815  29.854  1.00  0.00     0.167 HD
ATOM     59  C   UNL A   1      44.302  27.702  30.461  1.00  0.00     0.074 A 
ATOM     60  C   UNL A   1      44.333  28.667  29.363  1.00  0.00     0.031 C 
ATOM     61  C   UNL A   1      45.277  26.908  30.993  1.00  0.00     0.037 A 
BRANCH  48  62
ATOM     62  C   UNL A   1      48.465  29.173  27.235  1.00  0.00     0.057 A 
ATOM     63  C   UNL A   1      49.759  29.691  27.411  1.00  0.00     0.134 A 
ATOM     64  C   UNL A   1      47.461  30.138  27.005  1.00  0.00     0.134 A 
ATOM     65  F   UNL A   1      50.798  28.877  27.649  1.00  0.00    -0.206 F 
ATOM     66  C   UNL A   1      50.018  31.064  27.441  1.00  0.00     0.040 A 
ATOM     67  C   UNL A   1      47.719  31.509  26.977  1.00  0.00     0.040 A 
ATOM     68  F   UNL A   1      46.164  29.829  26.901  1.00  0.00    -0.206 F 
ATOM     69  C   UNL A   1      48.994  31.980  27.231  1.00  0.00     0.006 A 
ENDBRANCH  48  62
BRANCH  49  70
ATOM     70  C   UNL A   1      39.971  27.741  28.586  1.00  0.00     0.057 A 
ATOM     71  C   UNL A   1      38.979  27.786  29.580  1.00  0.00     0.134 A 
ATOM     72  C   UNL A   1      39.739  28.547  27.459  1.00  0.00     0.134 A 
ATOM     73  F   UNL A   1      39.115  27.079  30.712  1.00  0.00    -0.206 F 
ATOM     74  C   UNL A   1      37.849  28.610  29.476  1.00  0.00     0.040 A 
ATOM     75  C   UNL A   1      38.614  29.370  27.340  1.00  0.00     0.040 A 
ATOM     76  F   UNL A   1      40.641  28.637  26.471  1.00  0.00    -0.206 F 
ATOM     77  C   UNL A   1      37.672  29.419  28.359  1.00  0.00     0.006 A 
ENDBRANCH  49  70
BRANCH  61  78
ATOM     78  C   UNL A   1      44.869  25.855  31.985  1.00  0.00     0.057 A 
ATOM     79  C   UNL A   1      44.491  24.547  31.641  1.00  0.00     0.134 A 
ATOM     80  C   UNL A   1      45.026  26.128  33.348  1.00  0.00     0.134 A 
ATOM     81  F   UNL A   1      44.414  24.161  30.361  1.00  0.00    -0.206 F 
ATOM     82  C   UNL A   1      44.242  23.572  32.612  1.00  0.00     0.040 A 
ATOM     83  C   UNL A   1      44.816  25.155  34.326  1.00  0.00     0.040 A 
ATOM     84  F   UNL A   1      45.441  27.341  33.748  1.00  0.00    -0.206 F 
ATOM     85  C   UNL A   1      44.412  23.874  33.960  1.00  0.00     0.006 A 
ENDBRANCH  61  78
ENDBRANCH  35  36
ENDBRANCH  28  30
ENDBRANCH  27  28
ENDBRANCH  26  27
ENDBRANCH  25  26
ENDBRANCH  24  25
ENDBRANCH  23  24
ENDBRANCH   1  23
TORSDOF 21
ENDMDL
MODEL 3
REMARK VINA RESULT:     -10.3      5.847     11.196
REMARK SMILES CC(C)CCn1cc(C(=O)OCCOCCOCCOC(=O)c2ccc(-c3c4nc(c(-c5c(F)cccc5F)c5ccc([nH]5)c(-c5c(F)cccc5F)c5nc(c(-c6c(F)cccc6F)c6ccc3[nH]6)C=C5)C=C4)cc2)c(-c2ccoc2)n1
REMARK SMILES IDX 15 1 14 2 13 3 12 4 11 5 9 6 10 7 8 8 6 9 7 10 83 11 77 12
REMARK SMILES IDX 5 13 4 14 2 15 1 16 3 17 78 18 79 19 82 20 80 21 81 22 16 23
REMARK SMILES IDX 17 24 18 25 19 26 20 27 21 28 22 29 23 30 24 31 76 32 25 33
REMARK SMILES IDX 75 34 26 35 27 36 28 37 69 38 29 39 74 40 68 41 70 42 30 43
REMARK SMILES IDX 73 44 67 45 66 46 31 48 57 49 40 50 56 51 41 52 44 53 55 54
REMARK SMILES IDX 71 55 42 56 43 57 54 59 72 60 45 61 32 62 33 63 38 64 34 65
REMARK SMILES IDX 35 66 37 67 39 68 36 69 58 70 59 71 64 72 60 73 61 74 63 75
REMARK SMILES IDX 65 76 62 77 46 78 47 79 52 80 48 81 49 82 51 83 53 84 50 85
REMARK H PARENT 70 47 44 58
REMARK Flexibility Score: inf
ROOT
ATOM      1  C   UNL A   1      34.671  32.029  27.599  1.00  0.00     0.188 C 
ENDROOT
BRANCH   1   2
ATOM      2  O   UNL A   1      34.445  30.652  27.800  1.00  0.00    -0.376 OA
BRANCH   2   3
ATOM      3  C   UNL A   1      33.789  29.922  26.779  1.00  0.00     0.202 C 
BRANCH   3   4
ATOM      4  C   UNL A   1      33.790  28.376  26.716  1.00  0.00     0.261 C 
BRANCH   4   5
ATOM      5  O   UNL A   1      32.781  27.721  25.938  1.00  0.00    -0.460 OA
BRANCH   5   6
ATOM      6  C   UNL A   1      32.777  27.958  24.582  1.00  0.00     0.342 C 
ATOM      7  O   UNL A   1      33.758  27.985  23.896  1.00  0.00    -0.246 OA
BRANCH   6   8
ATOM      8  C   UNL A   1      31.410  28.053  24.072  1.00  0.00     0.106 A 
ATOM      9  N   UNL A   1      29.450  28.787  23.371  1.00  0.00    -0.271 N 
ATOM     10  C   UNL A   1      30.671  29.198  23.831  1.00  0.00     0.125 A 
ATOM     11  N   UNL A   1      29.327  27.451  23.335  1.00  0.00    -0.172 NA
ATOM     12  C   UNL A   1      30.497  27.004  23.799  1.00  0.00     0.110 A 
BRANCH   9  13
ATOM     13  C   UNL A   1      28.385  29.628  22.856  1.00  0.00     0.144 C 
BRANCH  13  14
ATOM     14  C   UNL A   1      28.355  31.073  23.377  1.00  0.00     0.027 C 
BRANCH  14  15
ATOM     15  C   UNL A   1      28.891  32.142  22.404  1.00  0.00    -0.016 C 
ATOM     16  C   UNL A   1      28.000  32.304  21.173  1.00  0.00     0.007 C 
ATOM     17  C   UNL A   1      29.012  33.486  23.130  1.00  0.00     0.007 C 
ENDBRANCH  14  15
ENDBRANCH  13  14
ENDBRANCH   9  13
BRANCH  12  18
ATOM     18  C   UNL A   1      30.675  25.594  24.101  1.00  0.00     0.041 A 
ATOM     19  C   UNL A   1      30.871  24.568  23.152  1.00  0.00     0.052 A 
ATOM     20  C   UNL A   1      30.564  24.982  25.327  1.00  0.00     0.205 A 
ATOM     21  C   UNL A   1      30.898  23.394  23.871  1.00  0.00     0.195 A 
ATOM     22  O   UNL A   1      30.725  23.638  25.197  1.00  0.00    -0.472 OA
ENDBRANCH  12  18
ENDBRANCH   6   8
ENDBRANCH   5   6
ENDBRANCH   4   5
ENDBRANCH   3   4
ENDBRANCH   2   3
ENDBRANCH   1   2
BRANCH   1  23
ATOM     23  C   UNL A   1      33.860  32.930  28.556  1.00  0.00     0.188 C 
BRANCH  23  24
ATOM     24  O   UNL A   1      34.423  34.098  29.141  1.00  0.00    -0.376 OA
BRANCH  24  25
ATOM     25  C   UNL A   1      33.755  35.351  29.115  1.00  0.00     0.202 C 
BRANCH  25  26
ATOM     26  C   UNL A   1      32.896  35.827  30.283  1.00  0.00     0.261 C 
BRANCH  26  27
ATOM     27  O   UNL A   1      32.819  34.932  31.373  1.00  0.00    -0.460 OA
BRANCH  27  28
ATOM     28  C   UNL A   1      33.202  35.461  32.552  1.00  0.00     0.338 C 
ATOM     29  O   UNL A   1      32.870  36.531  33.032  1.00  0.00    -0.246 OA
BRANCH  28  30
ATOM     30  C   UNL A   1      34.228  34.587  33.126  1.00  0.00     0.060 A 
ATOM     31  C   UNL A   1      35.380  35.216  33.597  1.00  0.00     0.016 A 
ATOM     32  C   UNL A   1      34.193  33.227  32.790  1.00  0.00     0.016 A 
ATOM     33  C   UNL A   1      36.574  34.554  33.441  1.00  0.00     0.010 A 
ATOM     34  C   UNL A   1      35.386  32.586  32.593  1.00  0.00     0.010 A 
ATOM     35  C   UNL A   1      36.558  33.298  32.825  1.00  0.00    -0.014 A 
BRANCH  35  36
ATOM     36  C   UNL A   1      37.816  32.665  32.517  1.00  0.00     0.031 A 
ATOM     37  C   UNL A   1      38.689  32.594  33.701  1.00  0.00     0.074 A 
ATOM     38  C   UNL A   1      38.083  32.128  31.311  1.00  0.00     0.049 A 
ATOM     39  N   UNL A   1      39.722  33.328  33.933  1.00  0.00    -0.248 NA
ATOM     40  C   UNL A   1      38.236  31.804  34.859  1.00  0.00     0.031 C 
ATOM     41  C   UNL A   1      37.191  31.950  30.165  1.00  0.00     0.029 A 
ATOM     42  N   UNL A   1      39.236  31.538  30.896  1.00  0.00    -0.354 N 
ATOM     43  C   UNL A   1      40.188  32.918  35.174  1.00  0.00     0.074 A 
ATOM     44  C   UNL A   1      39.114  32.185  35.787  1.00  0.00     0.031 C 
ATOM     45  C   UNL A   1      37.766  31.101  29.281  1.00  0.00     0.029 A 
ATOM     46  C   UNL A   1      39.106  30.774  29.739  1.00  0.00     0.049 A 
ATOM     47  H   UNL A   1      40.091  31.642  31.373  1.00  0.00     0.167 HD
ATOM     48  C   UNL A   1      41.516  32.951  35.454  1.00  0.00     0.037 A 
ATOM     49  C   UNL A   1      40.028  29.886  29.280  1.00  0.00     0.037 A 
ATOM     50  C   UNL A   1      42.221  33.781  34.507  1.00  0.00     0.049 A 
ATOM     51  C   UNL A   1      41.329  30.250  29.909  1.00  0.00     0.074 A 
ATOM     52  C   UNL A   1      42.137  35.109  34.134  1.00  0.00     0.029 A 
ATOM     53  N   UNL A   1      42.897  33.143  33.494  1.00  0.00    -0.354 N 
ATOM     54  N   UNL A   1      41.990  31.335  29.612  1.00  0.00    -0.248 NA
ATOM     55  C   UNL A   1      41.632  29.675  31.214  1.00  0.00     0.031 C 
ATOM     56  C   UNL A   1      42.343  35.110  32.724  1.00  0.00     0.029 A 
ATOM     57  C   UNL A   1      42.625  33.803  32.325  1.00  0.00     0.049 A 
ATOM     58  H   UNL A   1      43.475  32.352  33.591  1.00  0.00     0.167 HD
ATOM     59  C   UNL A   1      42.428  31.824  30.834  1.00  0.00     0.074 A 
ATOM     60  C   UNL A   1      42.240  30.723  31.778  1.00  0.00     0.031 C 
ATOM     61  C   UNL A   1      42.607  33.162  31.032  1.00  0.00     0.037 A 
BRANCH  48  62
ATOM     62  C   UNL A   1      42.220  31.919  36.297  1.00  0.00     0.057 A 
ATOM     63  C   UNL A   1      43.060  32.360  37.334  1.00  0.00     0.134 A 
ATOM     64  C   UNL A   1      42.347  30.554  35.963  1.00  0.00     0.134 A 
ATOM     65  F   UNL A   1      43.042  33.639  37.736  1.00  0.00    -0.206 F 
ATOM     66  C   UNL A   1      44.011  31.527  37.931  1.00  0.00     0.040 A 
ATOM     67  C   UNL A   1      43.254  29.701  36.592  1.00  0.00     0.040 A 
ATOM     68  F   UNL A   1      41.687  29.988  34.947  1.00  0.00    -0.206 F 
ATOM     69  C   UNL A   1      44.116  30.194  37.556  1.00  0.00     0.006 A 
ENDBRANCH  48  62
BRANCH  49  70
ATOM     70  C   UNL A   1      39.822  28.579  28.609  1.00  0.00     0.057 A 
ATOM     71  C   UNL A   1      40.367  28.324  27.338  1.00  0.00     0.134 A 
ATOM     72  C   UNL A   1      39.343  27.454  29.302  1.00  0.00     0.134 A 
ATOM     73  F   UNL A   1      40.882  29.321  26.604  1.00  0.00    -0.206 F 
ATOM     74  C   UNL A   1      40.464  27.028  26.810  1.00  0.00     0.040 A 
ATOM     75  C   UNL A   1      39.429  26.157  28.784  1.00  0.00     0.040 A 
ATOM     76  F   UNL A   1      38.857  27.559  30.546  1.00  0.00    -0.206 F 
ATOM     77  C   UNL A   1      40.008  25.937  27.541  1.00  0.00     0.006 A 
ENDBRANCH  49  70
BRANCH  61  78
ATOM     78  C   UNL A   1      42.552  34.069  29.834  1.00  0.00     0.057 A 
ATOM     79  C   UNL A   1      41.388  34.702  29.372  1.00  0.00     0.134 A 
ATOM     80  C   UNL A   1      43.757  34.443  29.228  1.00  0.00     0.134 A 
ATOM     81  F   UNL A   1      40.202  34.487  29.956  1.00  0.00    -0.206 F 
ATOM     82  C   UNL A   1      41.419  35.633  28.328  1.00  0.00     0.040 A 
ATOM     83  C   UNL A   1      43.807  35.397  28.210  1.00  0.00     0.040 A 
ATOM     84  F   UNL A   1      44.918  33.921  29.657  1.00  0.00    -0.206 F 
ATOM     85  C   UNL A   1      42.634  35.988  27.749  1.00  0.00     0.006 A 
ENDBRANCH  61  78
ENDBRANCH  35  36
ENDBRANCH  28  30
ENDBRANCH  27  28
ENDBRANCH  26  27
ENDBRANCH  25  26
ENDBRANCH  24  25
ENDBRANCH  23  24
ENDBRANCH   1  23
TORSDOF 21
ENDMDL
