MODEL 1
REMARK VINA RESULT:     -11.0      0.000      0.000
REMARK SMILES O=C(OCCOCCOCCOC(=O)[C@@H]1CCn2c(C(=O)c3ccccc3)ccc21)c1ccc(-c2c3nc(c(-c4c(F)cccc4F)c4ccc([nH]4)c(-c4c(F)cccc4F)c4nc(c(-c5c(F)cccc5F)c5ccc2[nH]5)C=C4)C=C3)cc1
REMARK SMILES IDX 7 1 6 2 5 3 4 4 3 5 2 6 1 7 31 8 32 9 84 10 33 11 83 12
REMARK SMILES IDX 34 13 35 14 36 15 77 16 37 17 82 18 76 19 78 20 38 21 81 22
REMARK SMILES IDX 75 23 74 24 39 26 65 27 48 28 64 29 49 30 52 31 63 32 79 33
REMARK SMILES IDX 50 34 51 35 62 37 80 38 53 39 40 40 41 41 46 42 42 43 43 44
REMARK SMILES IDX 45 45 47 46 44 47 66 48 67 49 72 50 68 51 69 52 71 53 73 54
REMARK SMILES IDX 70 55 54 56 55 57 60 58 56 59 57 60 59 61 61 62 58 63 8 64
REMARK SMILES IDX 9 65 10 66 11 67 12 68 13 69 14 70 15 71 16 72 30 73 17 74
REMARK SMILES IDX 18 75 29 76 19 77 28 78 20 79 21 80 22 81 23 82 27 83 24 84
REMARK SMILES IDX 26 85 25 86
REMARK H PARENT 78 25 52 36
REMARK Flexibility Score: inf
ROOT
ATOM      1  C   UNL A   1      35.723  20.972  25.019  1.00  0.00     0.188 C 
ENDROOT
BRANCH   1   2
ATOM      2  O   UNL A   1      36.870  21.756  24.655  1.00  0.00    -0.376 OA
BRANCH   2   3
ATOM      3  C   UNL A   1      38.082  21.331  25.287  1.00  0.00     0.202 C 
BRANCH   3   4
ATOM      4  C   UNL A   1      38.551  19.908  24.938  1.00  0.00     0.261 C 
BRANCH   4   5
ATOM      5  O   UNL A   1      39.470  19.368  25.901  1.00  0.00    -0.460 OA
BRANCH   5   6
ATOM      6  C   UNL A   1      40.788  19.655  26.039  1.00  0.00     0.338 C 
ATOM      7  O   UNL A   1      41.618  18.830  25.664  1.00  0.00    -0.246 OA
BRANCH   6   8
ATOM      8  C   UNL A   1      41.293  20.938  26.615  1.00  0.00     0.060 A 
ATOM      9  C   UNL A   1      41.340  21.234  27.978  1.00  0.00     0.016 A 
ATOM     10  C   UNL A   1      41.839  21.873  25.718  1.00  0.00     0.016 A 
ATOM     11  C   UNL A   1      41.812  22.463  28.434  1.00  0.00     0.010 A 
ATOM     12  C   UNL A   1      42.367  23.088  26.173  1.00  0.00     0.010 A 
ATOM     13  C   UNL A   1      42.322  23.403  27.535  1.00  0.00    -0.014 A 
BRANCH  13  14
ATOM     14  C   UNL A   1      42.734  24.727  28.048  1.00  0.00     0.031 A 
ATOM     15  C   UNL A   1      41.684  25.749  28.370  1.00  0.00     0.074 A 
ATOM     16  C   UNL A   1      44.032  24.974  28.296  1.00  0.00     0.049 A 
ATOM     17  N   UNL A   1      41.826  26.957  28.847  1.00  0.00    -0.248 NA
ATOM     18  C   UNL A   1      40.286  25.364  28.108  1.00  0.00     0.031 C 
ATOM     19  C   UNL A   1      45.135  24.051  28.022  1.00  0.00     0.029 A 
ATOM     20  N   UNL A   1      44.643  26.061  28.867  1.00  0.00    -0.354 N 
ATOM     21  C   UNL A   1      40.548  27.499  28.885  1.00  0.00     0.074 A 
ATOM     22  C   UNL A   1      39.638  26.481  28.409  1.00  0.00     0.031 C 
ATOM     23  C   UNL A   1      46.279  24.592  28.473  1.00  0.00     0.029 A 
ATOM     24  C   UNL A   1      45.993  25.894  29.059  1.00  0.00     0.049 A 
ATOM     25  H   UNL A   1      44.159  26.882  29.116  1.00  0.00     0.167 HD
ATOM     26  C   UNL A   1      40.177  28.746  29.256  1.00  0.00     0.037 A 
ATOM     27  C   UNL A   1      46.889  26.702  29.654  1.00  0.00     0.037 A 
ATOM     28  C   UNL A   1      41.089  29.744  29.746  1.00  0.00     0.049 A 
ATOM     29  C   UNL A   1      46.426  28.039  30.161  1.00  0.00     0.074 A 
ATOM     30  C   UNL A   1      40.831  31.054  30.106  1.00  0.00     0.029 A 
ATOM     31  N   UNL A   1      42.443  29.529  29.957  1.00  0.00    -0.354 N 
ATOM     32  N   UNL A   1      45.220  28.554  30.153  1.00  0.00    -0.248 NA
ATOM     33  C   UNL A   1      47.455  28.922  30.730  1.00  0.00     0.031 C 
ATOM     34  C   UNL A   1      42.036  31.641  30.509  1.00  0.00     0.029 A 
ATOM     35  C   UNL A   1      43.035  30.685  30.433  1.00  0.00     0.049 A 
ATOM     36  H   UNL A   1      42.913  28.680  29.793  1.00  0.00     0.167 HD
ATOM     37  C   UNL A   1      45.354  29.833  30.673  1.00  0.00     0.074 A 
ATOM     38  C   UNL A   1      46.741  29.989  31.058  1.00  0.00     0.031 C 
ATOM     39  C   UNL A   1      44.425  30.812  30.780  1.00  0.00     0.037 A 
BRANCH  26  40
ATOM     40  C   UNL A   1      38.738  29.114  29.069  1.00  0.00     0.057 A 
ATOM     41  C   UNL A   1      38.231  29.554  27.840  1.00  0.00     0.134 A 
ATOM     42  C   UNL A   1      37.847  29.031  30.146  1.00  0.00     0.134 A 
ATOM     43  F   UNL A   1      39.040  29.681  26.777  1.00  0.00    -0.206 F 
ATOM     44  C   UNL A   1      36.890  29.914  27.696  1.00  0.00     0.040 A 
ATOM     45  C   UNL A   1      36.501  29.370  30.010  1.00  0.00     0.040 A 
ATOM     46  F   UNL A   1      38.273  28.623  31.352  1.00  0.00    -0.206 F 
ATOM     47  C   UNL A   1      36.020  29.818  28.781  1.00  0.00     0.006 A 
ENDBRANCH  26  40
BRANCH  27  48
ATOM     48  C   UNL A   1      48.313  26.311  29.798  1.00  0.00     0.057 A 
ATOM     49  C   UNL A   1      48.778  25.730  30.985  1.00  0.00     0.134 A 
ATOM     50  C   UNL A   1      49.257  26.593  28.805  1.00  0.00     0.134 A 
ATOM     51  F   UNL A   1      47.921  25.447  31.978  1.00  0.00    -0.206 F 
ATOM     52  C   UNL A   1      50.135  25.489  31.198  1.00  0.00     0.040 A 
ATOM     53  C   UNL A   1      50.615  26.341  28.996  1.00  0.00     0.040 A 
ATOM     54  F   UNL A   1      48.872  27.130  27.637  1.00  0.00    -0.206 F 
ATOM     55  C   UNL A   1      51.058  25.804  30.203  1.00  0.00     0.006 A 
ENDBRANCH  27  48
BRANCH  39  56
ATOM     56  C   UNL A   1      44.909  32.140  31.275  1.00  0.00     0.057 A 
ATOM     57  C   UNL A   1      44.864  32.459  32.638  1.00  0.00     0.134 A 
ATOM     58  C   UNL A   1      45.439  33.090  30.398  1.00  0.00     0.134 A 
ATOM     59  F   UNL A   1      44.352  31.590  33.524  1.00  0.00    -0.206 F 
ATOM     60  C   UNL A   1      45.312  33.691  33.112  1.00  0.00     0.040 A 
ATOM     61  C   UNL A   1      45.908  34.319  30.862  1.00  0.00     0.040 A 
ATOM     62  F   UNL A   1      45.510  32.839  29.082  1.00  0.00    -0.206 F 
ATOM     63  C   UNL A   1      45.840  34.624  32.221  1.00  0.00     0.006 A 
ENDBRANCH  39  56
ENDBRANCH  13  14
ENDBRANCH   6   8
ENDBRANCH   5   6
ENDBRANCH   4   5
ENDBRANCH   3   4
ENDBRANCH   2   3
ENDBRANCH   1   2
BRANCH   1  64
ATOM     64  C   UNL A   1      34.426  21.750  24.788  1.00  0.00     0.188 C 
BRANCH  64  65
ATOM     65  O   UNL A   1      34.557  23.118  24.393  1.00  0.00    -0.376 OA
BRANCH  65  66
ATOM     66  C   UNL A   1      34.580  24.103  25.419  1.00  0.00     0.202 C 
BRANCH  66  67
ATOM     67  C   UNL A   1      34.095  25.511  25.049  1.00  0.00     0.261 C 
BRANCH  67  68
ATOM     68  O   UNL A   1      32.958  25.952  25.796  1.00  0.00    -0.463 OA
BRANCH  68  69
ATOM     69  C   UNL A   1      32.460  27.169  25.429  1.00  0.00     0.315 C 
ATOM     70  O   UNL A   1      32.308  28.131  26.174  1.00  0.00    -0.251 OA
BRANCH  69  71
ATOM     71  C   UNL A   1      32.122  27.165  23.946  1.00  0.00     0.148 C 
ATOM     72  C   UNL A   1      32.303  28.573  23.326  1.00  0.00     0.043 C 
ATOM     73  C   UNL A   1      30.674  26.907  23.784  1.00  0.00     0.033 A 
ATOM     74  C   UNL A   1      30.901  29.086  22.952  1.00  0.00     0.124 C 
ATOM     75  N   UNL A   1      30.011  27.984  23.271  1.00  0.00    -0.341 N 
ATOM     76  C   UNL A   1      29.768  25.929  24.081  1.00  0.00     0.025 A 
ATOM     77  C   UNL A   1      28.662  27.821  23.374  1.00  0.00     0.090 A 
ATOM     78  C   UNL A   1      28.497  26.513  23.842  1.00  0.00     0.032 A 
BRANCH  77  79
ATOM     79  C   UNL A   1      27.589  28.780  23.172  1.00  0.00     0.209 C 
ATOM     80  O   UNL A   1      26.415  28.514  23.430  1.00  0.00    -0.287 OA
BRANCH  79  81
ATOM     81  C   UNL A   1      27.853  30.152  22.684  1.00  0.00     0.024 A 
ATOM     82  C   UNL A   1      27.972  30.341  21.302  1.00  0.00     0.012 A 
ATOM     83  C   UNL A   1      28.030  31.229  23.557  1.00  0.00     0.012 A 
ATOM     84  C   UNL A   1      28.207  31.615  20.790  1.00  0.00     0.001 A 
ATOM     85  C   UNL A   1      28.251  32.507  23.039  1.00  0.00     0.001 A 
ATOM     86  C   UNL A   1      28.331  32.700  21.658  1.00  0.00     0.000 A 
ENDBRANCH  79  81
ENDBRANCH  77  79
ENDBRANCH  69  71
ENDBRANCH  68  69
ENDBRANCH  67  68
ENDBRANCH  66  67
ENDBRANCH  65  66
ENDBRANCH  64  65
ENDBRANCH   1  64
TORSDOF 19
ENDMDL
MODEL 2
REMARK VINA RESULT:     -11.0      3.709      8.003
REMARK SMILES O=C(OCCOCCOCCOC(=O)[C@@H]1CCn2c(C(=O)c3ccccc3)ccc21)c1ccc(-c2c3nc(c(-c4c(F)cccc4F)c4ccc([nH]4)c(-c4c(F)cccc4F)c4nc(c(-c5c(F)cccc5F)c5ccc2[nH]5)C=C4)C=C3)cc1
REMARK SMILES IDX 7 1 6 2 5 3 4 4 3 5 2 6 1 7 31 8 32 9 84 10 33 11 83 12
REMARK SMILES IDX 34 13 35 14 36 15 77 16 37 17 82 18 76 19 78 20 38 21 81 22
REMARK SMILES IDX 75 23 74 24 39 26 65 27 48 28 64 29 49 30 52 31 63 32 79 33
REMARK SMILES IDX 50 34 51 35 62 37 80 38 53 39 40 40 41 41 46 42 42 43 43 44
REMARK SMILES IDX 45 45 47 46 44 47 66 48 67 49 72 50 68 51 69 52 71 53 73 54
REMARK SMILES IDX 70 55 54 56 55 57 60 58 56 59 57 60 59 61 61 62 58 63 8 64
REMARK SMILES IDX 9 65 10 66 11 67 12 68 13 69 14 70 15 71 16 72 30 73 17 74
REMARK SMILES IDX 18 75 29 76 19 77 28 78 20 79 21 80 22 81 23 82 27 83 24 84
REMARK SMILES IDX 26 85 25 86
REMARK H PARENT 78 25 52 36
REMARK Flexibility Score: inf
ROOT
ATOM      1  C   UNL A   1      42.009  19.235  26.265  1.00  0.00     0.188 C 
ENDROOT
BRANCH   1   2
ATOM      2  O   UNL A   1      42.679  19.406  25.007  1.00  0.00    -0.376 OA
BRANCH   2   3
ATOM      3  C   UNL A   1      43.923  20.106  25.108  1.00  0.00     0.202 C 
BRANCH   3   4
ATOM      4  C   UNL A   1      43.881  21.428  25.893  1.00  0.00     0.261 C 
BRANCH   4   5
ATOM      5  O   UNL A   1      43.334  22.516  25.133  1.00  0.00    -0.460 OA
BRANCH   5   6
ATOM      6  C   UNL A   1      43.600  23.839  25.269  1.00  0.00     0.338 C 
ATOM      7  O   UNL A   1      44.230  24.412  24.383  1.00  0.00    -0.246 OA
BRANCH   6   8
ATOM      8  C   UNL A   1      43.151  24.650  26.441  1.00  0.00     0.060 A 
ATOM      9  C   UNL A   1      42.354  24.171  27.481  1.00  0.00     0.016 A 
ATOM     10  C   UNL A   1      43.642  25.964  26.539  1.00  0.00     0.016 A 
ATOM     11  C   UNL A   1      41.964  24.997  28.533  1.00  0.00     0.010 A 
ATOM     12  C   UNL A   1      43.301  26.784  27.621  1.00  0.00     0.010 A 
ATOM     13  C   UNL A   1      42.429  26.313  28.607  1.00  0.00    -0.014 A 
BRANCH  13  14
ATOM     14  C   UNL A   1      41.925  27.184  29.691  1.00  0.00     0.031 A 
ATOM     15  C   UNL A   1      42.707  27.296  30.967  1.00  0.00     0.074 A 
ATOM     16  C   UNL A   1      40.821  27.926  29.493  1.00  0.00     0.049 A 
ATOM     17  N   UNL A   1      42.456  28.015  32.029  1.00  0.00    -0.248 NA
ATOM     18  C   UNL A   1      43.928  26.479  31.066  1.00  0.00     0.031 C 
ATOM     19  C   UNL A   1      39.988  27.896  28.291  1.00  0.00     0.029 A 
ATOM     20  N   UNL A   1      40.229  28.877  30.285  1.00  0.00    -0.354 N 
ATOM     21  C   UNL A   1      43.448  27.692  32.944  1.00  0.00     0.074 A 
ATOM     22  C   UNL A   1      44.323  26.734  32.305  1.00  0.00     0.031 C 
ATOM     23  C   UNL A   1      39.023  28.825  28.406  1.00  0.00     0.029 A 
ATOM     24  C   UNL A   1      39.166  29.507  29.684  1.00  0.00     0.049 A 
ATOM     25  H   UNL A   1      40.538  29.087  31.196  1.00  0.00     0.167 HD
ATOM     26  C   UNL A   1      43.595  28.137  34.213  1.00  0.00     0.037 A 
ATOM     27  C   UNL A   1      38.407  30.528  30.120  1.00  0.00     0.037 A 
ATOM     28  C   UNL A   1      42.729  29.104  34.831  1.00  0.00     0.049 A 
ATOM     29  C   UNL A   1      38.665  31.081  31.494  1.00  0.00     0.074 A 
ATOM     30  C   UNL A   1      42.755  29.592  36.125  1.00  0.00     0.029 A 
ATOM     31  N   UNL A   1      41.683  29.744  34.182  1.00  0.00    -0.354 N 
ATOM     32  N   UNL A   1      39.584  30.738  32.364  1.00  0.00    -0.248 NA
ATOM     33  C   UNL A   1      37.759  32.142  31.960  1.00  0.00     0.031 C 
ATOM     34  C   UNL A   1      41.706  30.507  36.268  1.00  0.00     0.029 A 
ATOM     35  C   UNL A   1      41.051  30.614  35.053  1.00  0.00     0.049 A 
ATOM     36  H   UNL A   1      41.428  29.601  33.242  1.00  0.00     0.167 HD
ATOM     37  C   UNL A   1      39.338  31.506  33.493  1.00  0.00     0.074 A 
ATOM     38  C   UNL A   1      38.236  32.388  33.171  1.00  0.00     0.031 C 
ATOM     39  C   UNL A   1      39.938  31.457  34.706  1.00  0.00     0.037 A 
BRANCH  26  40
ATOM     40  C   UNL A   1      44.684  27.517  35.032  1.00  0.00     0.057 A 
ATOM     41  C   UNL A   1      44.496  26.337  35.760  1.00  0.00     0.134 A 
ATOM     42  C   UNL A   1      45.945  28.124  35.095  1.00  0.00     0.134 A 
ATOM     43  F   UNL A   1      43.303  25.723  35.762  1.00  0.00    -0.206 F 
ATOM     44  C   UNL A   1      45.520  25.791  36.536  1.00  0.00     0.040 A 
ATOM     45  C   UNL A   1      46.983  27.578  35.851  1.00  0.00     0.040 A 
ATOM     46  F   UNL A   1      46.187  29.262  34.426  1.00  0.00    -0.206 F 
ATOM     47  C   UNL A   1      46.769  26.409  36.579  1.00  0.00     0.006 A 
ENDBRANCH  26  40
BRANCH  27  48
ATOM     48  C   UNL A   1      37.319  31.099  29.287  1.00  0.00     0.057 A 
ATOM     49  C   UNL A   1      37.430  32.388  28.753  1.00  0.00     0.134 A 
ATOM     50  C   UNL A   1      36.114  30.418  29.087  1.00  0.00     0.134 A 
ATOM     51  F   UNL A   1      38.559  33.094  28.922  1.00  0.00    -0.206 F 
ATOM     52  C   UNL A   1      36.365  33.000  28.091  1.00  0.00     0.040 A 
ATOM     53  C   UNL A   1      35.046  31.009  28.413  1.00  0.00     0.040 A 
ATOM     54  F   UNL A   1      35.952  29.172  29.557  1.00  0.00    -0.206 F 
ATOM     55  C   UNL A   1      35.165  32.311  27.929  1.00  0.00     0.006 A 
ENDBRANCH  27  48
BRANCH  39  56
ATOM     56  C   UNL A   1      39.363  32.339  35.770  1.00  0.00     0.057 A 
ATOM     57  C   UNL A   1      39.811  33.656  35.932  1.00  0.00     0.134 A 
ATOM     58  C   UNL A   1      38.351  31.883  36.619  1.00  0.00     0.134 A 
ATOM     59  F   UNL A   1      40.790  34.143  35.155  1.00  0.00    -0.206 F 
ATOM     60  C   UNL A   1      39.283  34.487  36.920  1.00  0.00     0.040 A 
ATOM     61  C   UNL A   1      37.801  32.711  37.599  1.00  0.00     0.040 A 
ATOM     62  F   UNL A   1      37.881  30.631  36.510  1.00  0.00    -0.206 F 
ATOM     63  C   UNL A   1      38.271  34.014  37.754  1.00  0.00     0.006 A 
ENDBRANCH  39  56
ENDBRANCH  13  14
ENDBRANCH   6   8
ENDBRANCH   5   6
ENDBRANCH   4   5
ENDBRANCH   3   4
ENDBRANCH   2   3
ENDBRANCH   1   2
BRANCH   1  64
ATOM     64  C   UNL A   1      40.607  19.847  26.232  1.00  0.00     0.188 C 
BRANCH  64  65
ATOM     65  O   UNL A   1      40.466  21.162  26.775  1.00  0.00    -0.376 OA
BRANCH  65  66
ATOM     66  C   UNL A   1      39.573  22.056  26.120  1.00  0.00     0.202 C 
BRANCH  66  67
ATOM     67  C   UNL A   1      38.184  21.518  25.754  1.00  0.00     0.261 C 
BRANCH  67  68
ATOM     68  O   UNL A   1      37.573  22.185  24.646  1.00  0.00    -0.463 OA
BRANCH  68  69
ATOM     69  C   UNL A   1      36.593  23.077  24.976  1.00  0.00     0.315 C 
ATOM     70  O   UNL A   1      36.757  24.109  25.617  1.00  0.00    -0.251 OA
BRANCH  69  71
ATOM     71  C   UNL A   1      35.257  22.608  24.423  1.00  0.00     0.148 C 
ATOM     72  C   UNL A   1      34.784  23.512  23.257  1.00  0.00     0.043 C 
ATOM     73  C   UNL A   1      34.214  22.810  25.452  1.00  0.00     0.033 A 
ATOM     74  C   UNL A   1      33.543  24.277  23.752  1.00  0.00     0.124 C 
ATOM     75  N   UNL A   1      33.301  23.755  25.085  1.00  0.00    -0.341 N 
ATOM     76  C   UNL A   1      33.932  22.391  26.722  1.00  0.00     0.025 A 
ATOM     77  C   UNL A   1      32.513  24.109  26.140  1.00  0.00     0.090 A 
ATOM     78  C   UNL A   1      32.872  23.226  27.163  1.00  0.00     0.032 A 
BRANCH  77  79
ATOM     79  C   UNL A   1      31.577  25.212  26.275  1.00  0.00     0.209 C 
ATOM     80  O   UNL A   1      30.432  25.051  26.698  1.00  0.00    -0.287 OA
BRANCH  79  81
ATOM     81  C   UNL A   1      31.963  26.604  25.954  1.00  0.00     0.024 A 
ATOM     82  C   UNL A   1      31.167  27.306  25.041  1.00  0.00     0.012 A 
ATOM     83  C   UNL A   1      33.104  27.202  26.495  1.00  0.00     0.012 A 
ATOM     84  C   UNL A   1      31.478  28.624  24.714  1.00  0.00     0.001 A 
ATOM     85  C   UNL A   1      33.404  28.529  26.175  1.00  0.00     0.001 A 
ATOM     86  C   UNL A   1      32.588  29.240  25.293  1.00  0.00     0.000 A 
ENDBRANCH  79  81
ENDBRANCH  77  79
ENDBRANCH  69  71
ENDBRANCH  68  69
ENDBRANCH  67  68
ENDBRANCH  66  67
ENDBRANCH  65  66
ENDBRANCH  64  65
ENDBRANCH   1  64
TORSDOF 19
ENDMDL
MODEL 3
REMARK VINA RESULT:     -10.9      5.144     10.247
REMARK SMILES O=C(OCCOCCOCCOC(=O)[C@@H]1CCn2c(C(=O)c3ccccc3)ccc21)c1ccc(-c2c3nc(c(-c4c(F)cccc4F)c4ccc([nH]4)c(-c4c(F)cccc4F)c4nc(c(-c5c(F)cccc5F)c5ccc2[nH]5)C=C4)C=C3)cc1
REMARK SMILES IDX 7 1 6 2 5 3 4 4 3 5 2 6 1 7 31 8 32 9 84 10 33 11 83 12
REMARK SMILES IDX 34 13 35 14 36 15 77 16 37 17 82 18 76 19 78 20 38 21 81 22
REMARK SMILES IDX 75 23 74 24 39 26 65 27 48 28 64 29 49 30 52 31 63 32 79 33
REMARK SMILES IDX 50 34 51 35 62 37 80 38 53 39 40 40 41 41 46 42 42 43 43 44
REMARK SMILES IDX 45 45 47 46 44 47 66 48 67 49 72 50 68 51 69 52 71 53 73 54
REMARK SMILES IDX 70 55 54 56 55 57 60 58 56 59 57 60 59 61 61 62 58 63 8 64
REMARK SMILES IDX 9 65 10 66 11 67 12 68 13 69 14 70 15 71 16 72 30 73 17 74
REMARK SMILES IDX 18 75 29 76 19 77 28 78 20 79 21 80 22 81 23 82 27 83 24 84
REMARK SMILES IDX 26 85 25 86
REMARK H PARENT 78 25 52 36
REMARK Flexibility Score: inf
ROOT
ATOM      1  C   UNL A   1      34.316  34.024  27.947  1.00  0.00     0.188 C 
ENDROOT
BRANCH   1   2
ATOM      2  O   UNL A   1      34.273  34.924  29.064  1.00  0.00    -0.376 OA
BRANCH   2   3
ATOM      3  C   UNL A   1      32.973  35.468  29.316  1.00  0.00     0.202 C 
BRANCH   3   4
ATOM      4  C   UNL A   1      32.946  36.798  30.087  1.00  0.00     0.261 C 
BRANCH   4   5
ATOM      5  O   UNL A   1      32.369  36.676  31.397  1.00  0.00    -0.460 OA
BRANCH   5   6
ATOM      6  C   UNL A   1      32.482  35.635  32.258  1.00  0.00     0.338 C 
ATOM      7  O   UNL A   1      31.462  35.163  32.756  1.00  0.00    -0.246 OA
BRANCH   6   8
ATOM      8  C   UNL A   1      33.789  35.012  32.627  1.00  0.00     0.060 A 
ATOM      9  C   UNL A   1      35.020  35.668  32.590  1.00  0.00     0.016 A 
ATOM     10  C   UNL A   1      33.757  33.700  33.130  1.00  0.00     0.016 A 
ATOM     11  C   UNL A   1      36.200  35.011  32.935  1.00  0.00     0.010 A 
ATOM     12  C   UNL A   1      34.931  33.051  33.533  1.00  0.00     0.010 A 
ATOM     13  C   UNL A   1      36.165  33.695  33.403  1.00  0.00    -0.014 A 
BRANCH  13  14
ATOM     14  C   UNL A   1      37.443  33.004  33.678  1.00  0.00     0.031 A 
ATOM     15  C   UNL A   1      38.089  33.162  35.023  1.00  0.00     0.074 A 
ATOM     16  C   UNL A   1      37.970  32.181  32.754  1.00  0.00     0.049 A 
ATOM     17  N   UNL A   1      39.193  32.631  35.476  1.00  0.00    -0.248 NA
ATOM     18  C   UNL A   1      37.407  34.048  35.982  1.00  0.00     0.031 C 
ATOM     19  C   UNL A   1      37.424  31.953  31.416  1.00  0.00     0.029 A 
ATOM     20  N   UNL A   1      39.064  31.356  32.812  1.00  0.00    -0.354 N 
ATOM     21  C   UNL A   1      39.372  33.163  36.746  1.00  0.00     0.074 A 
ATOM     22  C   UNL A   1      38.250  34.038  37.005  1.00  0.00     0.031 C 
ATOM     23  C   UNL A   1      38.156  31.009  30.801  1.00  0.00     0.029 A 
ATOM     24  C   UNL A   1      39.221  30.574  31.693  1.00  0.00     0.049 A 
ATOM     25  H   UNL A   1      39.677  31.327  33.582  1.00  0.00     0.167 HD
ATOM     26  C   UNL A   1      40.399  32.959  37.603  1.00  0.00     0.037 A 
ATOM     27  C   UNL A   1      40.119  29.607  31.433  1.00  0.00     0.037 A 
ATOM     28  C   UNL A   1      41.500  32.071  37.342  1.00  0.00     0.049 A 
ATOM     29  C   UNL A   1      41.185  29.321  32.453  1.00  0.00     0.074 A 
ATOM     30  C   UNL A   1      42.618  31.824  38.118  1.00  0.00     0.029 A 
ATOM     31  N   UNL A   1      41.609  31.272  36.214  1.00  0.00    -0.354 N 
ATOM     32  N   UNL A   1      41.365  29.861  33.635  1.00  0.00    -0.248 NA
ATOM     33  C   UNL A   1      42.193  28.313  32.092  1.00  0.00     0.031 C 
ATOM     34  C   UNL A   1      43.419  30.894  37.444  1.00  0.00     0.029 A 
ATOM     35  C   UNL A   1      42.780  30.538  36.268  1.00  0.00     0.049 A 
ATOM     36  H   UNL A   1      40.951  31.233  35.483  1.00  0.00     0.167 HD
ATOM     37  C   UNL A   1      42.527  29.293  34.135  1.00  0.00     0.074 A 
ATOM     38  C   UNL A   1      42.967  28.311  33.167  1.00  0.00     0.031 C 
ATOM     39  C   UNL A   1      43.200  29.589  35.272  1.00  0.00     0.037 A 
BRANCH  26  40
ATOM     40  C   UNL A   1      40.410  33.771  38.861  1.00  0.00     0.057 A 
ATOM     41  C   UNL A   1      39.708  33.384  40.008  1.00  0.00     0.134 A 
ATOM     42  C   UNL A   1      41.136  34.967  38.916  1.00  0.00     0.134 A 
ATOM     43  F   UNL A   1      38.972  32.262  40.010  1.00  0.00    -0.206 F 
ATOM     44  C   UNL A   1      39.714  34.171  41.162  1.00  0.00     0.040 A 
ATOM     45  C   UNL A   1      41.165  35.752  40.069  1.00  0.00     0.040 A 
ATOM     46  F   UNL A   1      41.824  35.396  37.847  1.00  0.00    -0.206 F 
ATOM     47  C   UNL A   1      40.448  35.355  41.196  1.00  0.00     0.006 A 
ENDBRANCH  26  40
BRANCH  27  48
ATOM     48  C   UNL A   1      40.090  28.840  30.162  1.00  0.00     0.057 A 
ATOM     49  C   UNL A   1      40.737  29.327  29.019  1.00  0.00     0.134 A 
ATOM     50  C   UNL A   1      39.344  27.665  30.031  1.00  0.00     0.134 A 
ATOM     51  F   UNL A   1      41.459  30.456  29.082  1.00  0.00    -0.206 F 
ATOM     52  C   UNL A   1      40.603  28.700  27.781  1.00  0.00     0.040 A 
ATOM     53  C   UNL A   1      39.214  27.016  28.803  1.00  0.00     0.040 A 
ATOM     54  F   UNL A   1      38.718  27.136  31.093  1.00  0.00    -0.206 F 
ATOM     55  C   UNL A   1      39.830  27.545  27.670  1.00  0.00     0.006 A 
ENDBRANCH  27  48
BRANCH  39  56
ATOM     56  C   UNL A   1      44.503  28.881  35.479  1.00  0.00     0.057 A 
ATOM     57  C   UNL A   1      44.565  27.686  36.208  1.00  0.00     0.134 A 
ATOM     58  C   UNL A   1      45.691  29.377  34.935  1.00  0.00     0.134 A 
ATOM     59  F   UNL A   1      43.458  27.171  36.765  1.00  0.00    -0.206 F 
ATOM     60  C   UNL A   1      45.772  27.017  36.407  1.00  0.00     0.040 A 
ATOM     61  C   UNL A   1      46.902  28.707  35.111  1.00  0.00     0.040 A 
ATOM     62  F   UNL A   1      45.693  30.516  34.225  1.00  0.00    -0.206 F 
ATOM     63  C   UNL A   1      46.945  27.527  35.853  1.00  0.00     0.006 A 
ENDBRANCH  39  56
ENDBRANCH  13  14
ENDBRANCH   6   8
ENDBRANCH   5   6
ENDBRANCH   4   5
ENDBRANCH   3   4
ENDBRANCH   2   3
ENDBRANCH   1   2
BRANCH   1  64
ATOM     64  C   UNL A   1      35.529  33.094  28.032  1.00  0.00     0.188 C 
BRANCH  64  65
ATOM     65  O   UNL A   1      35.324  31.733  27.647  1.00  0.00    -0.376 OA
BRANCH  65  66
ATOM     66  C   UNL A   1      34.022  31.185  27.818  1.00  0.00     0.202 C 
BRANCH  66  67
ATOM     67  C   UNL A   1      33.599  30.068  26.855  1.00  0.00     0.261 C 
BRANCH  67  68
ATOM     68  O   UNL A   1      32.504  30.416  26.003  1.00  0.00    -0.463 OA
BRANCH  68  69
ATOM     69  C   UNL A   1      31.754  29.362  25.565  1.00  0.00     0.315 C 
ATOM     70  O   UNL A   1      31.386  28.416  26.252  1.00  0.00    -0.251 OA
BRANCH  69  71
ATOM     71  C   UNL A   1      31.430  29.535  24.089  1.00  0.00     0.148 C 
ATOM     72  C   UNL A   1      30.114  28.806  23.716  1.00  0.00     0.043 C 
ATOM     73  C   UNL A   1      32.449  28.824  23.288  1.00  0.00     0.033 A 
ATOM     74  C   UNL A   1      30.493  27.629  22.800  1.00  0.00     0.124 C 
ATOM     75  N   UNL A   1      31.927  27.758  22.614  1.00  0.00    -0.341 N 
ATOM     76  C   UNL A   1      33.800  28.859  23.083  1.00  0.00     0.025 A 
ATOM     77  C   UNL A   1      32.916  26.973  22.099  1.00  0.00     0.090 A 
ATOM     78  C   UNL A   1      34.097  27.680  22.350  1.00  0.00     0.032 A 
BRANCH  77  79
ATOM     79  C   UNL A   1      32.842  25.646  21.514  1.00  0.00     0.209 C 
ATOM     80  O   UNL A   1      32.997  25.451  20.308  1.00  0.00    -0.287 OA
BRANCH  79  81
ATOM     81  C   UNL A   1      32.621  24.440  22.344  1.00  0.00     0.024 A 
ATOM     82  C   UNL A   1      31.423  24.354  23.062  1.00  0.00     0.012 A 
ATOM     83  C   UNL A   1      33.582  23.431  22.459  1.00  0.00     0.012 A 
ATOM     84  C   UNL A   1      31.159  23.235  23.848  1.00  0.00     0.001 A 
ATOM     85  C   UNL A   1      33.307  22.304  23.236  1.00  0.00     0.001 A 
ATOM     86  C   UNL A   1      32.095  22.203  23.923  1.00  0.00     0.000 A 
ENDBRANCH  79  81
ENDBRANCH  77  79
ENDBRANCH  69  71
ENDBRANCH  68  69
ENDBRANCH  67  68
ENDBRANCH  66  67
ENDBRANCH  65  66
ENDBRANCH  64  65
ENDBRANCH   1  64
TORSDOF 19
ENDMDL
