MODEL 1
REMARK VINA RESULT:      -9.3      0.000      0.000
REMARK SMILES Cc1ccccc1C(=O)Nc1cc(C(=O)OCCOCCOCCOC(=O)c2ccc(-c3c4nc(c(-c5c(F)cccc5F)c5ccc([nH]5)c(-c5c(F)cccc5F)c5nc(c(-c6c(F)cccc6F)c6ccc3[nH]6)C=C5)C=C4)cc2)ccc1N1CC[NH+](CC(=O)Nc2ccc(F)cc2)CC1
REMARK SMILES IDX 20 1 19 2 18 3 17 4 16 5 14 6 15 7 13 8 11 9 12 10 84 11
REMARK SMILES IDX 83 12 82 13 10 14 8 15 9 16 7 18 1 19 2 20 3 21 4 22 6 23
REMARK SMILES IDX 5 24 85 25 86 26 101 27 87 28 100 29 88 30 89 32 90 33 91 34
REMARK SMILES IDX 92 35 93 37 94 38 99 39 95 40 98 41 96 42 97 43 21 44 22 45
REMARK SMILES IDX 23 46 24 47 25 48 26 49 27 50 28 51 29 52 81 53 30 54 80 55
REMARK SMILES IDX 31 56 32 57 33 58 74 59 34 60 79 61 73 62 75 63 35 64 78 65
REMARK SMILES IDX 72 66 71 67 36 69 62 70 45 71 61 72 46 73 49 74 60 75 76 76
REMARK SMILES IDX 47 77 48 78 59 80 77 81 50 82 37 83 38 84 43 85 39 86 40 87
REMARK SMILES IDX 42 88 44 89 41 90 63 91 64 92 69 93 65 94 66 95 68 96 70 97
REMARK SMILES IDX 67 98 51 99 52 100 57 101 53 102 54 103 56 104 58 105 55 106
REMARK H PARENT 10 17 88 31 92 36 75 68 49 79
REMARK Flexibility Score: inf
ROOT
ATOM      1  C   UNL A   1      33.111  35.993  29.655  1.00  0.00     0.188 C 
ENDROOT
BRANCH   1   2
ATOM      2  O   UNL A   1      32.554  34.781  29.190  1.00  0.00    -0.376 OA
BRANCH   2   3
ATOM      3  C   UNL A   1      33.510  33.993  28.510  1.00  0.00     0.202 C 
BRANCH   3   4
ATOM      4  C   UNL A   1      34.964  34.493  28.318  1.00  0.00     0.261 C 
BRANCH   4   5
ATOM      5  O   UNL A   1      36.265  33.636  28.683  1.00  0.00    -0.460 OA
BRANCH   5   6
ATOM      6  C   UNL A   1      37.595  33.469  29.166  1.00  0.00     0.338 C 
ATOM      7  O   UNL A   1      38.201  34.555  29.128  1.00  0.00    -0.246 OA
BRANCH   6   8
ATOM      8  C   UNL A   1      38.629  32.229  29.707  1.00  0.00     0.062 A 
ATOM      9  C   UNL A   1      40.901  31.000  29.889  1.00  0.00     0.065 A 
ATOM     10  C   UNL A   1      40.013  32.110  30.154  1.00  0.00     0.044 A 
ATOM     11  C   UNL A   1      40.326  29.853  29.256  1.00  0.00     0.061 A 
ATOM     12  C   UNL A   1      38.911  29.850  29.190  1.00  0.00     0.029 A 
ATOM     13  C   UNL A   1      38.101  30.982  29.391  1.00  0.00     0.018 A 
BRANCH   9  14
ATOM     14  N   UNL A   1      42.349  31.071  29.973  1.00  0.00    -0.320 N 
ATOM     15  C   UNL A   1      43.546  31.793  29.784  1.00  0.00     0.255 C 
ATOM     16  O   UNL A   1      44.549  31.200  30.227  1.00  0.00    -0.269 OA
ATOM     17  H   UNL A   1      42.629  30.198  30.332  1.00  0.00     0.170 HD
BRANCH  15  18
ATOM     18  C   UNL A   1      43.906  33.123  29.111  1.00  0.00     0.043 A 
ATOM     19  C   UNL A   1      42.656  34.736  31.055  1.00  0.00     0.045 C 
ATOM     20  C   UNL A   1      42.894  34.562  29.580  1.00  0.00    -0.038 A 
ATOM     21  C   UNL A   1      42.220  35.722  28.264  1.00  0.00     0.004 A 
ATOM     22  C   UNL A   1      42.596  35.428  26.456  1.00  0.00     0.000 A 
ATOM     23  C   UNL A   1      44.391  32.883  27.326  1.00  0.00     0.014 A 
ATOM     24  C   UNL A   1      43.674  33.994  25.969  1.00  0.00     0.001 A 
ENDBRANCH  15  18
ENDBRANCH   9  14
BRANCH  11  25
ATOM     25  N   UNL A   1      41.022  28.779  28.663  1.00  0.00    -0.359 N 
ATOM     26  C   UNL A   1      41.655  27.737  29.549  1.00  0.00     0.178 C 
ATOM     27  C   UNL A   1      41.699  28.859  27.369  1.00  0.00     0.178 C 
ATOM     28  C   UNL A   1      42.237  26.473  28.830  1.00  0.00     0.284 C 
ATOM     29  C   UNL A   1      41.743  27.462  26.734  1.00  0.00     0.284 C 
ATOM     30  N   UNL A   1      42.666  26.576  27.427  1.00  0.00    -0.324 N 
ATOM     31  H   UNL A   1      42.610  25.637  27.033  1.00  0.00     0.348 HD
BRANCH  30  32
ATOM     32  C   UNL A   1      44.100  26.818  27.157  1.00  0.00     0.364 C 
BRANCH  32  33
ATOM     33  C   UNL A   1      44.583  26.798  25.709  1.00  0.00     0.279 C 
ATOM     34  O   UNL A   1      44.690  27.872  25.096  1.00  0.00    -0.268 OA
ATOM     35  N   UNL A   1      44.935  25.680  25.002  1.00  0.00    -0.321 N 
ATOM     36  H   UNL A   1      45.451  25.914  24.196  1.00  0.00     0.170 HD
BRANCH  35  37
ATOM     37  C   UNL A   1      44.761  24.281  25.110  1.00  0.00     0.041 A 
ATOM     38  C   UNL A   1      43.480  23.797  24.776  1.00  0.00     0.029 A 
ATOM     39  C   UNL A   1      45.682  23.367  25.616  1.00  0.00     0.029 A 
ATOM     40  C   UNL A   1      43.110  22.469  25.022  1.00  0.00     0.041 A 
ATOM     41  C   UNL A   1      45.300  22.049  25.917  1.00  0.00     0.041 A 
ATOM     42  C   UNL A   1      44.016  21.613  25.623  1.00  0.00     0.123 A 
ATOM     43  F   UNL A   1      43.656  20.354  25.903  1.00  0.00    -0.207 F 
ENDBRANCH  35  37
ENDBRANCH  32  33
ENDBRANCH  30  32
ENDBRANCH  11  25
ENDBRANCH   6   8
ENDBRANCH   5   6
ENDBRANCH   4   5
ENDBRANCH   3   4
ENDBRANCH   2   3
ENDBRANCH   1   2
BRANCH   1  44
ATOM     44  C   UNL A   1      32.531  36.356  31.024  1.00  0.00     0.188 C 
BRANCH  44  45
ATOM     45  O   UNL A   1      33.415  37.136  31.825  1.00  0.00    -0.376 OA
BRANCH  45  46
ATOM     46  C   UNL A   1      34.104  36.441  32.863  1.00  0.00     0.202 C 
BRANCH  46  47
ATOM     47  C   UNL A   1      33.872  34.932  32.723  1.00  0.00     0.261 C 
BRANCH  47  48
ATOM     48  O   UNL A   1      35.123  34.210  32.705  1.00  0.00    -0.460 OA
BRANCH  48  49
ATOM     49  C   UNL A   1      35.601  33.863  33.931  1.00  0.00     0.338 C 
ATOM     50  O   UNL A   1      34.920  33.520  34.883  1.00  0.00    -0.246 OA
BRANCH  49  51
ATOM     51  C   UNL A   1      37.048  34.219  33.991  1.00  0.00     0.060 A 
ATOM     52  C   UNL A   1      37.737  34.463  32.820  1.00  0.00     0.016 A 
ATOM     53  C   UNL A   1      37.782  33.994  35.155  1.00  0.00     0.016 A 
ATOM     54  C   UNL A   1      39.119  34.243  32.802  1.00  0.00     0.010 A 
ATOM     55  C   UNL A   1      39.113  33.590  35.057  1.00  0.00     0.010 A 
ATOM     56  C   UNL A   1      39.774  33.542  33.824  1.00  0.00    -0.014 A 
BRANCH  56  57
ATOM     57  C   UNL A   1      41.102  32.796  33.869  1.00  0.00     0.031 A 
ATOM     58  C   UNL A   1      40.898  31.336  33.695  1.00  0.00     0.074 A 
ATOM     59  C   UNL A   1      42.409  33.007  34.362  1.00  0.00     0.049 A 
ATOM     60  N   UNL A   1      41.848  30.581  34.060  1.00  0.00    -0.248 NA
ATOM     61  C   UNL A   1      39.687  30.659  33.363  1.00  0.00     0.031 C 
ATOM     62  C   UNL A   1      43.656  32.426  33.790  1.00  0.00     0.029 A 
ATOM     63  N   UNL A   1      43.021  33.853  35.300  1.00  0.00    -0.354 N 
ATOM     64  C   UNL A   1      41.670  29.167  34.138  1.00  0.00     0.074 A 
ATOM     65  C   UNL A   1      40.113  29.396  33.437  1.00  0.00     0.031 C 
ATOM     66  C   UNL A   1      44.734  32.713  34.557  1.00  0.00     0.029 A 
ATOM     67  C   UNL A   1      44.333  33.602  35.610  1.00  0.00     0.049 A 
ATOM     68  H   UNL A   1      42.529  34.596  35.717  1.00  0.00     0.167 HD
ATOM     69  C   UNL A   1      42.762  27.782  34.766  1.00  0.00     0.037 A 
ATOM     70  C   UNL A   1      45.045  34.089  36.655  1.00  0.00     0.037 A 
ATOM     71  C   UNL A   1      44.373  27.846  35.437  1.00  0.00     0.049 A 
ATOM     72  C   UNL A   1      45.804  32.987  37.352  1.00  0.00     0.074 A 
ATOM     73  C   UNL A   1      45.616  28.066  34.779  1.00  0.00     0.029 A 
ATOM     74  N   UNL A   1      44.694  28.070  36.781  1.00  0.00    -0.354 N 
ATOM     75  N   UNL A   1      45.742  31.724  37.010  1.00  0.00    -0.248 NA
ATOM     76  C   UNL A   1      46.605  33.208  38.557  1.00  0.00     0.031 C 
ATOM     77  C   UNL A   1      46.455  28.816  35.625  1.00  0.00     0.029 A 
ATOM     78  C   UNL A   1      45.821  28.914  36.845  1.00  0.00     0.049 A 
ATOM     79  H   UNL A   1      44.211  27.699  37.554  1.00  0.00     0.167 HD
ATOM     80  C   UNL A   1      46.331  30.970  38.000  1.00  0.00     0.074 A 
ATOM     81  C   UNL A   1      46.910  31.948  38.907  1.00  0.00     0.031 C 
ATOM     82  C   UNL A   1      46.266  29.603  38.046  1.00  0.00     0.037 A 
BRANCH  69  83
ATOM     83  C   UNL A   1      42.889  25.995  34.379  1.00  0.00     0.057 A 
ATOM     84  C   UNL A   1      42.373  25.078  35.347  1.00  0.00     0.134 A 
ATOM     85  C   UNL A   1      43.828  25.348  33.540  1.00  0.00     0.134 A 
ATOM     86  F   UNL A   1      41.160  25.195  35.888  1.00  0.00    -0.206 F 
ATOM     87  C   UNL A   1      42.986  23.876  35.719  1.00  0.00     0.040 A 
ATOM     88  C   UNL A   1      44.466  24.134  33.904  1.00  0.00     0.040 A 
ATOM     89  F   UNL A   1      44.208  25.869  32.365  1.00  0.00    -0.206 F 
ATOM     90  C   UNL A   1      44.101  23.438  35.048  1.00  0.00     0.006 A 
ENDBRANCH  69  83
BRANCH  70  91
ATOM     91  C   UNL A   1      44.597  35.386  37.258  1.00  0.00     0.057 A 
ATOM     92  C   UNL A   1      45.126  36.588  36.737  1.00  0.00     0.134 A 
ATOM     93  C   UNL A   1      43.544  35.529  38.165  1.00  0.00     0.134 A 
ATOM     94  F   UNL A   1      46.151  36.548  35.871  1.00  0.00    -0.206 F 
ATOM     95  C   UNL A   1      44.581  37.847  37.024  1.00  0.00     0.040 A 
ATOM     96  C   UNL A   1      42.987  36.788  38.462  1.00  0.00     0.040 A 
ATOM     97  F   UNL A   1      42.977  34.451  38.721  1.00  0.00    -0.206 F 
ATOM     98  C   UNL A   1      43.483  37.947  37.866  1.00  0.00     0.006 A 
ENDBRANCH  70  91
BRANCH  82  99
ATOM     99  C   UNL A   1      46.777  28.772  39.176  1.00  0.00     0.057 A 
ATOM    100  C   UNL A   1      46.086  28.565  40.374  1.00  0.00     0.134 A 
ATOM    101  C   UNL A   1      47.966  28.034  39.007  1.00  0.00     0.134 A 
ATOM    102  F   UNL A   1      44.905  29.154  40.612  1.00  0.00    -0.206 F 
ATOM    103  C   UNL A   1      46.570  27.700  41.360  1.00  0.00     0.040 A 
ATOM    104  C   UNL A   1      48.426  27.128  39.956  1.00  0.00     0.040 A 
ATOM    105  F   UNL A   1      48.719  28.153  37.903  1.00  0.00    -0.206 F 
ATOM    106  C   UNL A   1      47.733  26.966  41.146  1.00  0.00     0.006 A 
ENDBRANCH  82  99
ENDBRANCH  56  57
ENDBRANCH  49  51
ENDBRANCH  48  49
ENDBRANCH  47  48
ENDBRANCH  46  47
ENDBRANCH  45  46
ENDBRANCH  44  45
ENDBRANCH   1  44
TORSDOF 23
ENDMDL
MODEL 2
REMARK VINA RESULT:      -9.1      7.014     13.111
REMARK SMILES Cc1ccccc1C(=O)Nc1cc(C(=O)OCCOCCOCCOC(=O)c2ccc(-c3c4nc(c(-c5c(F)cccc5F)c5ccc([nH]5)c(-c5c(F)cccc5F)c5nc(c(-c6c(F)cccc6F)c6ccc3[nH]6)C=C5)C=C4)cc2)ccc1N1CC[NH+](CC(=O)Nc2ccc(F)cc2)CC1
REMARK SMILES IDX 20 1 19 2 18 3 17 4 16 5 14 6 15 7 13 8 11 9 12 10 84 11
REMARK SMILES IDX 83 12 82 13 10 14 8 15 9 16 7 18 1 19 2 20 3 21 4 22 6 23
REMARK SMILES IDX 5 24 85 25 86 26 101 27 87 28 100 29 88 30 89 32 90 33 91 34
REMARK SMILES IDX 92 35 93 37 94 38 99 39 95 40 98 41 96 42 97 43 21 44 22 45
REMARK SMILES IDX 23 46 24 47 25 48 26 49 27 50 28 51 29 52 81 53 30 54 80 55
REMARK SMILES IDX 31 56 32 57 33 58 74 59 34 60 79 61 73 62 75 63 35 64 78 65
REMARK SMILES IDX 72 66 71 67 36 69 62 70 45 71 61 72 46 73 49 74 60 75 76 76
REMARK SMILES IDX 47 77 48 78 59 80 77 81 50 82 37 83 38 84 43 85 39 86 40 87
REMARK SMILES IDX 42 88 44 89 41 90 63 91 64 92 69 93 65 94 66 95 68 96 70 97
REMARK SMILES IDX 67 98 51 99 52 100 57 101 53 102 54 103 56 104 58 105 55 106
REMARK H PARENT 10 17 88 31 92 36 75 68 49 79
REMARK Flexibility Score: inf
ROOT
ATOM      1  C   UNL A   1      47.083  38.335  25.774  1.00  0.00     0.188 C 
ENDROOT
BRANCH   1   2
ATOM      2  O   UNL A   1      48.372  38.278  26.350  1.00  0.00    -0.376 OA
BRANCH   2   3
ATOM      3  C   UNL A   1      48.555  37.098  27.106  1.00  0.00     0.202 C 
BRANCH   3   4
ATOM      4  C   UNL A   1      47.911  36.940  28.505  1.00  0.00     0.261 C 
BRANCH   4   5
ATOM      5  O   UNL A   1      48.108  37.977  29.709  1.00  0.00    -0.460 OA
BRANCH   5   6
ATOM      6  C   UNL A   1      48.194  39.280  30.274  1.00  0.00     0.338 C 
ATOM      7  O   UNL A   1      48.359  39.201  31.505  1.00  0.00    -0.246 OA
BRANCH   6   8
ATOM      8  C   UNL A   1      48.069  40.910  29.795  1.00  0.00     0.062 A 
ATOM      9  C   UNL A   1      46.774  43.067  29.180  1.00  0.00     0.065 A 
ATOM     10  C   UNL A   1      47.221  42.055  30.111  1.00  0.00     0.044 A 
ATOM     11  C   UNL A   1      47.330  43.020  27.863  1.00  0.00     0.061 A 
ATOM     12  C   UNL A   1      48.430  42.142  27.707  1.00  0.00     0.029 A 
ATOM     13  C   UNL A   1      48.776  41.128  28.618  1.00  0.00     0.018 A 
BRANCH   9  14
ATOM     14  N   UNL A   1      45.633  43.937  29.401  1.00  0.00    -0.320 N 
ATOM     15  C   UNL A   1      44.466  44.254  30.128  1.00  0.00     0.255 C 
ATOM     16  O   UNL A   1      43.967  45.348  29.798  1.00  0.00    -0.269 OA
ATOM     17  H   UNL A   1      45.709  44.640  28.717  1.00  0.00     0.170 HD
BRANCH  15  18
ATOM     18  C   UNL A   1      43.636  43.536  31.199  1.00  0.00     0.043 A 
ATOM     19  C   UNL A   1      44.556  45.125  33.337  1.00  0.00     0.045 C 
ATOM     20  C   UNL A   1      44.206  43.724  32.918  1.00  0.00    -0.038 A 
ATOM     21  C   UNL A   1      44.327  42.228  34.050  1.00  0.00     0.004 A 
ATOM     22  C   UNL A   1      43.844  40.530  33.434  1.00  0.00     0.000 A 
ATOM     23  C   UNL A   1      43.036  41.873  30.606  1.00  0.00     0.014 A 
ATOM     24  C   UNL A   1      43.207  40.335  31.698  1.00  0.00     0.001 A 
ENDBRANCH  15  18
ENDBRANCH   9  14
BRANCH  11  25
ATOM     25  N   UNL A   1      46.864  43.711  26.725  1.00  0.00    -0.359 N 
ATOM     26  C   UNL A   1      45.379  43.842  26.505  1.00  0.00     0.178 C 
ATOM     27  C   UNL A   1      47.599  43.798  25.464  1.00  0.00     0.178 C 
ATOM     28  C   UNL A   1      44.930  44.787  25.338  1.00  0.00     0.284 C 
ATOM     29  C   UNL A   1      47.201  45.089  24.734  1.00  0.00     0.284 C 
ATOM     30  N   UNL A   1      45.844  45.025  24.212  1.00  0.00    -0.324 N 
ATOM     31  H   UNL A   1      45.585  45.924  23.807  1.00  0.00     0.348 HD
BRANCH  30  32
ATOM     32  C   UNL A   1      45.672  44.204  22.993  1.00  0.00     0.364 C 
BRANCH  32  33
ATOM     33  C   UNL A   1      46.093  44.795  21.651  1.00  0.00     0.279 C 
ATOM     34  O   UNL A   1      47.107  45.509  21.598  1.00  0.00    -0.268 OA
ATOM     35  N   UNL A   1      45.452  44.597  20.457  1.00  0.00    -0.321 N 
ATOM     36  H   UNL A   1      46.025  44.848  19.697  1.00  0.00     0.170 HD
BRANCH  35  37
ATOM     37  C   UNL A   1      44.191  44.130  20.016  1.00  0.00     0.041 A 
ATOM     38  C   UNL A   1      43.603  44.861  18.966  1.00  0.00     0.029 A 
ATOM     39  C   UNL A   1      43.439  43.107  20.588  1.00  0.00     0.029 A 
ATOM     40  C   UNL A   1      42.280  44.633  18.564  1.00  0.00     0.041 A 
ATOM     41  C   UNL A   1      42.095  42.911  20.229  1.00  0.00     0.041 A 
ATOM     42  C   UNL A   1      41.526  43.679  19.224  1.00  0.00     0.123 A 
ATOM     43  F   UNL A   1      40.247  43.486  18.876  1.00  0.00    -0.207 F 
ENDBRANCH  35  37
ENDBRANCH  32  33
ENDBRANCH  30  32
ENDBRANCH  11  25
ENDBRANCH   6   8
ENDBRANCH   5   6
ENDBRANCH   4   5
ENDBRANCH   3   4
ENDBRANCH   2   3
ENDBRANCH   1   2
BRANCH   1  44
ATOM     44  C   UNL A   1      46.780  39.753  25.285  1.00  0.00     0.188 C 
BRANCH  44  45
ATOM     45  O   UNL A   1      45.599  40.310  25.859  1.00  0.00    -0.376 OA
BRANCH  45  46
ATOM     46  C   UNL A   1      45.367  40.013  27.234  1.00  0.00     0.202 C 
BRANCH  46  47
ATOM     47  C   UNL A   1      43.860  39.999  27.518  1.00  0.00     0.261 C 
BRANCH  47  48
ATOM     48  O   UNL A   1      43.496  38.879  28.355  1.00  0.00    -0.460 OA
BRANCH  48  49
ATOM     49  C   UNL A   1      42.656  37.980  27.774  1.00  0.00     0.338 C 
ATOM     50  O   UNL A   1      41.444  38.093  27.697  1.00  0.00    -0.246 OA
BRANCH  49  51
ATOM     51  C   UNL A   1      43.424  36.734  27.487  1.00  0.00     0.060 A 
ATOM     52  C   UNL A   1      42.926  35.823  26.577  1.00  0.00     0.016 A 
ATOM     53  C   UNL A   1      44.445  36.321  28.343  1.00  0.00     0.016 A 
ATOM     54  C   UNL A   1      43.295  34.479  26.709  1.00  0.00     0.010 A 
ATOM     55  C   UNL A   1      44.634  34.960  28.577  1.00  0.00     0.010 A 
ATOM     56  C   UNL A   1      43.920  33.989  27.864  1.00  0.00    -0.014 A 
BRANCH  56  57
ATOM     57  C   UNL A   1      44.029  32.590  28.457  1.00  0.00     0.031 A 
ATOM     58  C   UNL A   1      45.067  31.794  27.756  1.00  0.00     0.074 A 
ATOM     59  C   UNL A   1      43.232  31.707  29.221  1.00  0.00     0.049 A 
ATOM     60  N   UNL A   1      45.016  30.537  27.903  1.00  0.00    -0.248 NA
ATOM     61  C   UNL A   1      45.991  32.247  26.768  1.00  0.00     0.031 C 
ATOM     62  C   UNL A   1      43.742  30.672  30.162  1.00  0.00     0.029 A 
ATOM     63  N   UNL A   1      41.870  31.572  29.528  1.00  0.00    -0.354 N 
ATOM     64  C   UNL A   1      45.826  29.674  27.104  1.00  0.00     0.074 A 
ATOM     65  C   UNL A   1      46.582  31.086  26.471  1.00  0.00     0.031 C 
ATOM     66  C   UNL A   1      42.738  29.904  30.647  1.00  0.00     0.029 A 
ATOM     67  C   UNL A   1      41.485  30.433  30.188  1.00  0.00     0.049 A 
ATOM     68  H   UNL A   1      41.217  32.267  29.282  1.00  0.00     0.167 HD
ATOM     69  C   UNL A   1      45.908  27.812  26.930  1.00  0.00     0.037 A 
ATOM     70  C   UNL A   1      40.228  29.954  30.350  1.00  0.00     0.037 A 
ATOM     71  C   UNL A   1      44.992  26.571  27.749  1.00  0.00     0.049 A 
ATOM     72  C   UNL A   1      40.165  28.482  30.026  1.00  0.00     0.074 A 
ATOM     73  C   UNL A   1      45.099  26.108  29.090  1.00  0.00     0.029 A 
ATOM     74  N   UNL A   1      43.743  26.078  27.353  1.00  0.00    -0.354 N 
ATOM     75  N   UNL A   1      41.186  27.779  29.605  1.00  0.00    -0.248 NA
ATOM     76  C   UNL A   1      38.919  27.713  30.048  1.00  0.00     0.031 C 
ATOM     77  C   UNL A   1      43.814  25.785  29.568  1.00  0.00     0.029 A 
ATOM     78  C   UNL A   1      42.948  25.880  28.500  1.00  0.00     0.049 A 
ATOM     79  H   UNL A   1      43.467  25.898  26.426  1.00  0.00     0.167 HD
ATOM     80  C   UNL A   1      40.728  26.561  29.157  1.00  0.00     0.074 A 
ATOM     81  C   UNL A   1      39.320  26.546  29.516  1.00  0.00     0.031 C 
ATOM     82  C   UNL A   1      41.510  25.665  28.477  1.00  0.00     0.037 A 
BRANCH  69  83
ATOM     83  C   UNL A   1      47.232  26.644  26.434  1.00  0.00     0.057 A 
ATOM     84  C   UNL A   1      48.554  26.918  26.903  1.00  0.00     0.134 A 
ATOM     85  C   UNL A   1      47.278  25.813  25.289  1.00  0.00     0.134 A 
ATOM     86  F   UNL A   1      48.835  27.184  28.179  1.00  0.00    -0.206 F 
ATOM     87  C   UNL A   1      49.720  26.780  26.140  1.00  0.00     0.040 A 
ATOM     88  C   UNL A   1      48.446  25.668  24.498  1.00  0.00     0.040 A 
ATOM     89  F   UNL A   1      46.200  25.143  24.854  1.00  0.00    -0.206 F 
ATOM     90  C   UNL A   1      49.656  26.228  24.884  1.00  0.00     0.006 A 
ENDBRANCH  69  83
BRANCH  70  91
ATOM     91  C   UNL A   1      39.096  30.934  30.282  1.00  0.00     0.057 A 
ATOM     92  C   UNL A   1      38.348  31.014  29.086  1.00  0.00     0.134 A 
ATOM     93  C   UNL A   1      38.579  31.643  31.369  1.00  0.00     0.134 A 
ATOM     94  F   UNL A   1      38.778  30.379  27.984  1.00  0.00    -0.206 F 
ATOM     95  C   UNL A   1      37.116  31.678  29.000  1.00  0.00     0.040 A 
ATOM     96  C   UNL A   1      37.342  32.313  31.297  1.00  0.00     0.040 A 
ATOM     97  F   UNL A   1      39.216  31.636  32.547  1.00  0.00    -0.206 F 
ATOM     98  C   UNL A   1      36.592  32.304  30.122  1.00  0.00     0.006 A 
ENDBRANCH  70  91
BRANCH  82  99
ATOM     99  C   UNL A   1      41.005  24.401  27.863  1.00  0.00     0.057 A 
ATOM    100  C   UNL A   1      41.366  23.120  28.292  1.00  0.00     0.134 A 
ATOM    101  C   UNL A   1      40.004  24.467  26.873  1.00  0.00     0.134 A 
ATOM    102  F   UNL A   1      42.251  22.937  29.282  1.00  0.00    -0.206 F 
ATOM    103  C   UNL A   1      40.788  21.972  27.742  1.00  0.00     0.040 A 
ATOM    104  C   UNL A   1      39.382  23.335  26.360  1.00  0.00     0.040 A 
ATOM    105  F   UNL A   1      39.579  25.639  26.377  1.00  0.00    -0.206 F 
ATOM    106  C   UNL A   1      39.781  22.078  26.786  1.00  0.00     0.006 A 
ENDBRANCH  82  99
ENDBRANCH  56  57
ENDBRANCH  49  51
ENDBRANCH  48  49
ENDBRANCH  47  48
ENDBRANCH  46  47
ENDBRANCH  45  46
ENDBRANCH  44  45
ENDBRANCH   1  44
TORSDOF 23
ENDMDL
MODEL 3
REMARK VINA RESULT:      -8.0      1.411      2.116
REMARK SMILES Cc1ccccc1C(=O)Nc1cc(C(=O)OCCOCCOCCOC(=O)c2ccc(-c3c4nc(c(-c5c(F)cccc5F)c5ccc([nH]5)c(-c5c(F)cccc5F)c5nc(c(-c6c(F)cccc6F)c6ccc3[nH]6)C=C5)C=C4)cc2)ccc1N1CC[NH+](CC(=O)Nc2ccc(F)cc2)CC1
REMARK SMILES IDX 20 1 19 2 18 3 17 4 16 5 14 6 15 7 13 8 11 9 12 10 84 11
REMARK SMILES IDX 83 12 82 13 10 14 8 15 9 16 7 18 1 19 2 20 3 21 4 22 6 23
REMARK SMILES IDX 5 24 85 25 86 26 101 27 87 28 100 29 88 30 89 32 90 33 91 34
REMARK SMILES IDX 92 35 93 37 94 38 99 39 95 40 98 41 96 42 97 43 21 44 22 45
REMARK SMILES IDX 23 46 24 47 25 48 26 49 27 50 28 51 29 52 81 53 30 54 80 55
REMARK SMILES IDX 31 56 32 57 33 58 74 59 34 60 79 61 73 62 75 63 35 64 78 65
REMARK SMILES IDX 72 66 71 67 36 69 62 70 45 71 61 72 46 73 49 74 60 75 76 76
REMARK SMILES IDX 47 77 48 78 59 80 77 81 50 82 37 83 38 84 43 85 39 86 40 87
REMARK SMILES IDX 42 88 44 89 41 90 63 91 64 92 69 93 65 94 66 95 68 96 70 97
REMARK SMILES IDX 67 98 51 99 52 100 57 101 53 102 54 103 56 104 58 105 55 106
REMARK H PARENT 10 17 88 31 92 36 75 68 49 79
REMARK Flexibility Score: inf
ROOT
ATOM      1  C   UNL A   1      33.508  35.803  30.136  1.00  0.00     0.188 C 
ENDROOT
BRANCH   1   2
ATOM      2  O   UNL A   1      32.548  35.037  29.439  1.00  0.00    -0.376 OA
BRANCH   2   3
ATOM      3  C   UNL A   1      33.133  34.299  28.385  1.00  0.00     0.202 C 
BRANCH   3   4
ATOM      4  C   UNL A   1      34.657  34.361  28.118  1.00  0.00     0.261 C 
BRANCH   4   5
ATOM      5  O   UNL A   1      35.705  33.264  28.628  1.00  0.00    -0.460 OA
BRANCH   5   6
ATOM      6  C   UNL A   1      36.938  32.840  29.201  1.00  0.00     0.338 C 
ATOM      7  O   UNL A   1      37.632  33.828  29.498  1.00  0.00    -0.246 OA
BRANCH   6   8
ATOM      8  C   UNL A   1      37.781  31.398  29.534  1.00  0.00     0.062 A 
ATOM      9  C   UNL A   1      39.912  29.981  29.929  1.00  0.00     0.065 A 
ATOM     10  C   UNL A   1      38.958  31.000  30.301  1.00  0.00     0.044 A 
ATOM     11  C   UNL A   1      39.596  29.193  28.778  1.00  0.00     0.061 A 
ATOM     12  C   UNL A   1      38.274  29.344  28.292  1.00  0.00     0.029 A 
ATOM     13  C   UNL A   1      37.413  30.399  28.640  1.00  0.00     0.018 A 
BRANCH   9  14
ATOM     14  N   UNL A   1      41.258  29.883  30.466  1.00  0.00    -0.320 N 
ATOM     15  C   UNL A   1      42.502  30.484  30.751  1.00  0.00     0.255 C 
ATOM     16  O   UNL A   1      43.264  29.744  31.404  1.00  0.00    -0.269 OA
ATOM     17  H   UNL A   1      41.343  28.955  30.781  1.00  0.00     0.170 HD
BRANCH  15  18
ATOM     18  C   UNL A   1      43.157  31.825  30.396  1.00  0.00     0.043 A 
ATOM     19  C   UNL A   1      45.541  31.324  31.812  1.00  0.00     0.045 C 
ATOM     20  C   UNL A   1      44.513  32.370  31.481  1.00  0.00    -0.038 A 
ATOM     21  C   UNL A   1      44.573  34.139  32.114  1.00  0.00     0.004 A 
ATOM     22  C   UNL A   1      43.254  35.370  31.621  1.00  0.00     0.000 A 
ATOM     23  C   UNL A   1      41.902  33.068  29.798  1.00  0.00     0.014 A 
ATOM     24  C   UNL A   1      41.895  34.839  30.468  1.00  0.00     0.001 A 
ENDBRANCH  15  18
ENDBRANCH   9  14
BRANCH  11  25
ATOM     25  N   UNL A   1      40.472  28.341  28.072  1.00  0.00    -0.359 N 
ATOM     26  C   UNL A   1      40.909  27.048  28.710  1.00  0.00     0.178 C 
ATOM     27  C   UNL A   1      41.450  28.807  27.091  1.00  0.00     0.178 C 
ATOM     28  C   UNL A   1      41.715  26.060  27.800  1.00  0.00     0.284 C 
ATOM     29  C   UNL A   1      41.722  27.687  26.076  1.00  0.00     0.284 C 
ATOM     30  N   UNL A   1      42.481  26.591  26.663  1.00  0.00    -0.324 N 
ATOM     31  H   UNL A   1      42.572  25.832  25.989  1.00  0.00     0.348 HD
BRANCH  30  32
ATOM     32  C   UNL A   1      43.923  26.855  26.860  1.00  0.00     0.364 C 
BRANCH  32  33
ATOM     33  C   UNL A   1      44.826  26.923  25.633  1.00  0.00     0.279 C 
ATOM     34  O   UNL A   1      45.105  28.033  25.151  1.00  0.00    -0.268 OA
ATOM     35  N   UNL A   1      45.392  25.849  24.999  1.00  0.00    -0.321 N 
ATOM     36  H   UNL A   1      46.127  26.129  24.407  1.00  0.00     0.170 HD
BRANCH  35  37
ATOM     37  C   UNL A   1      45.208  24.447  24.960  1.00  0.00     0.041 A 
ATOM     38  C   UNL A   1      43.877  24.009  24.812  1.00  0.00     0.029 A 
ATOM     39  C   UNL A   1      46.185  23.476  25.165  1.00  0.00     0.029 A 
ATOM     40  C   UNL A   1      43.528  22.660  24.953  1.00  0.00     0.041 A 
ATOM     41  C   UNL A   1      45.835  22.130  25.364  1.00  0.00     0.041 A 
ATOM     42  C   UNL A   1      44.509  21.735  25.261  1.00  0.00     0.123 A 
ATOM     43  F   UNL A   1      44.178  20.450  25.442  1.00  0.00    -0.207 F 
ENDBRANCH  35  37
ENDBRANCH  32  33
ENDBRANCH  30  32
ENDBRANCH  11  25
ENDBRANCH   6   8
ENDBRANCH   5   6
ENDBRANCH   4   5
ENDBRANCH   3   4
ENDBRANCH   2   3
ENDBRANCH   1   2
BRANCH   1  44
ATOM     44  C   UNL A   1      33.147  35.888  31.621  1.00  0.00     0.188 C 
BRANCH  44  45
ATOM     45  O   UNL A   1      34.178  36.460  32.423  1.00  0.00    -0.376 OA
BRANCH  45  46
ATOM     46  C   UNL A   1      34.579  35.704  33.564  1.00  0.00     0.202 C 
BRANCH  46  47
ATOM     47  C   UNL A   1      34.561  34.207  33.232  1.00  0.00     0.261 C 
BRANCH  47  48
ATOM     48  O   UNL A   1      35.894  33.653  33.243  1.00  0.00    -0.460 OA
BRANCH  48  49
ATOM     49  C   UNL A   1      36.496  33.635  34.463  1.00  0.00     0.338 C 
ATOM     50  O   UNL A   1      35.918  33.581  35.536  1.00  0.00    -0.246 OA
BRANCH  49  51
ATOM     51  C   UNL A   1      37.942  33.954  34.280  1.00  0.00     0.060 A 
ATOM     52  C   UNL A   1      38.578  33.580  33.113  1.00  0.00     0.016 A 
ATOM     53  C   UNL A   1      38.728  34.319  35.372  1.00  0.00     0.016 A 
ATOM     54  C   UNL A   1      39.959  33.359  33.147  1.00  0.00     0.010 A 
ATOM     55  C   UNL A   1      40.056  33.899  35.430  1.00  0.00     0.010 A 
ATOM     56  C   UNL A   1      40.663  33.241  34.354  1.00  0.00    -0.014 A 
BRANCH  56  57
ATOM     57  C   UNL A   1      41.997  32.594  34.704  1.00  0.00     0.031 A 
ATOM     58  C   UNL A   1      41.937  31.121  34.528  1.00  0.00     0.074 A 
ATOM     59  C   UNL A   1      43.149  32.904  35.463  1.00  0.00     0.049 A 
ATOM     60  N   UNL A   1      42.834  30.442  35.109  1.00  0.00    -0.248 NA
ATOM     61  C   UNL A   1      40.877  30.355  33.959  1.00  0.00     0.031 C 
ATOM     62  C   UNL A   1      44.527  32.410  35.190  1.00  0.00     0.029 A 
ATOM     63  N   UNL A   1      43.481  33.802  36.488  1.00  0.00    -0.354 N 
ATOM     64  C   UNL A   1      42.741  29.019  35.183  1.00  0.00     0.074 A 
ATOM     65  C   UNL A   1      41.363  29.127  34.156  1.00  0.00     0.031 C 
ATOM     66  C   UNL A   1      45.390  32.782  36.164  1.00  0.00     0.029 A 
ATOM     67  C   UNL A   1      44.709  33.650  37.082  1.00  0.00     0.049 A 
ATOM     68  H   UNL A   1      42.860  34.512  36.770  1.00  0.00     0.167 HD
ATOM     69  C   UNL A   1      43.763  27.724  36.068  1.00  0.00     0.037 A 
ATOM     70  C   UNL A   1      45.141  34.198  38.243  1.00  0.00     0.037 A 
ATOM     71  C   UNL A   1      45.181  27.911  37.069  1.00  0.00     0.049 A 
ATOM     72  C   UNL A   1      45.803  33.161  39.116  1.00  0.00     0.074 A 
ATOM     73  C   UNL A   1      46.519  28.214  36.691  1.00  0.00     0.029 A 
ATOM     74  N   UNL A   1      45.185  28.171  38.445  1.00  0.00    -0.354 N 
ATOM     75  N   UNL A   1      45.905  31.894  38.802  1.00  0.00    -0.248 NA
ATOM     76  C   UNL A   1      46.306  33.453  40.459  1.00  0.00     0.031 C 
ATOM     77  C   UNL A   1      47.101  29.032  37.679  1.00  0.00     0.029 A 
ATOM     78  C   UNL A   1      46.211  29.096  38.730  1.00  0.00     0.049 A 
ATOM     79  H   UNL A   1      44.572  27.774  39.104  1.00  0.00     0.167 HD
ATOM     80  C   UNL A   1      46.314  31.195  39.914  1.00  0.00     0.074 A 
ATOM     81  C   UNL A   1      46.613  32.221  40.900  1.00  0.00     0.031 C 
ATOM     82  C   UNL A   1      46.335  29.827  39.980  1.00  0.00     0.037 A 
BRANCH  69  83
ATOM     83  C   UNL A   1      44.093  25.946  35.763  1.00  0.00     0.057 A 
ATOM     84  C   UNL A   1      44.851  25.612  34.598  1.00  0.00     0.134 A 
ATOM     85  C   UNL A   1      43.333  24.832  36.191  1.00  0.00     0.134 A 
ATOM     86  F   UNL A   1      46.005  26.202  34.285  1.00  0.00    -0.206 F 
ATOM     87  C   UNL A   1      44.578  24.537  33.745  1.00  0.00     0.040 A 
ATOM     88  C   UNL A   1      43.038  23.737  35.339  1.00  0.00     0.040 A 
ATOM     89  F   UNL A   1      42.803  24.764  37.422  1.00  0.00    -0.206 F 
ATOM     90  C   UNL A   1      43.598  23.633  34.074  1.00  0.00     0.006 A 
ENDBRANCH  69  83
BRANCH  70  91
ATOM     91  C   UNL A   1      44.484  35.465  38.701  1.00  0.00     0.057 A 
ATOM     92  C   UNL A   1      44.904  36.686  38.127  1.00  0.00     0.134 A 
ATOM     93  C   UNL A   1      43.345  35.534  39.508  1.00  0.00     0.134 A 
ATOM     94  F   UNL A   1      45.999  36.719  37.351  1.00  0.00    -0.206 F 
ATOM     95  C   UNL A   1      44.185  37.881  38.268  1.00  0.00     0.040 A 
ATOM     96  C   UNL A   1      42.613  36.728  39.656  1.00  0.00     0.040 A 
ATOM     97  F   UNL A   1      42.870  34.434  40.104  1.00  0.00    -0.206 F 
ATOM     98  C   UNL A   1      43.013  37.896  39.009  1.00  0.00     0.006 A 
ENDBRANCH  70  91
BRANCH  82  99
ATOM     99  C   UNL A   1      46.643  29.047  41.215  1.00  0.00     0.057 A 
ATOM    100  C   UNL A   1      47.919  28.589  41.557  1.00  0.00     0.134 A 
ATOM    101  C   UNL A   1      45.633  28.855  42.180  1.00  0.00     0.134 A 
ATOM    102  F   UNL A   1      48.972  28.785  40.751  1.00  0.00    -0.206 F 
ATOM    103  C   UNL A   1      48.166  27.946  42.774  1.00  0.00     0.040 A 
ATOM    104  C   UNL A   1      45.880  28.269  43.416  1.00  0.00     0.040 A 
ATOM    105  F   UNL A   1      44.368  29.247  41.964  1.00  0.00    -0.206 F 
ATOM    106  C   UNL A   1      47.150  27.800  43.714  1.00  0.00     0.006 A 
ENDBRANCH  82  99
ENDBRANCH  56  57
ENDBRANCH  49  51
ENDBRANCH  48  49
ENDBRANCH  47  48
ENDBRANCH  46  47
ENDBRANCH  45  46
ENDBRANCH  44  45
ENDBRANCH   1  44
TORSDOF 23
ENDMDL
