MODEL 1
REMARK VINA RESULT:      -9.8      0.000      0.000
REMARK SMILES NC(=O)CC[C@H](NC(=O)N[C@H]1CCOC1)C(=O)OCCOCCOCCOC(=O)c1ccc(-c2c3nc(c(-c4c(F)cccc4F)c4ccc([nH]4)c(-c4c(F)cccc4F)c4nc(c(-c5c(F)cccc5F)c5ccc2[nH]5)C=C4)C=C3)cc1
REMARK SMILES IDX 22 1 21 2 20 3 19 4 18 5 16 6 17 7 6 8 5 9 4 10 2 11 1 12
REMARK SMILES IDX 3 15 7 16 8 17 9 19 10 20 11 22 12 23 15 24 13 25 14 26
REMARK SMILES IDX 23 27 24 28 25 29 26 30 27 31 28 32 29 33 30 34 31 35 83 36
REMARK SMILES IDX 32 37 82 38 33 39 34 40 35 41 76 42 36 43 81 44 75 45 77 46
REMARK SMILES IDX 37 47 80 48 74 49 73 50 38 52 64 53 47 54 63 55 48 56 51 57
REMARK SMILES IDX 62 58 78 59 49 60 50 61 61 63 79 64 52 65 39 66 40 67 45 68
REMARK SMILES IDX 41 69 42 70 44 71 46 72 43 73 65 74 66 75 71 76 67 77 68 78
REMARK SMILES IDX 70 79 72 80 69 81 53 82 54 83 59 84 55 85 56 86 58 87 60 88
REMARK SMILES IDX 57 89
REMARK H PARENT 1 13 1 14 7 18 10 21 77 51 51 62
REMARK Flexibility Score: inf
ROOT
ATOM      1  C   UNL A   1      38.895  21.831  26.117  1.00  0.00     0.188 C 
ENDROOT
BRANCH   1   2
ATOM      2  O   UNL A   1      37.673  21.360  25.547  1.00  0.00    -0.376 OA
BRANCH   2   3
ATOM      3  C   UNL A   1      36.540  22.226  25.599  1.00  0.00     0.202 C 
BRANCH   3   4
ATOM      4  C   UNL A   1      36.543  23.368  24.579  1.00  0.00     0.261 C 
BRANCH   4   5
ATOM      5  O   UNL A   1      35.557  24.362  24.921  1.00  0.00    -0.462 OA
BRANCH   5   6
ATOM      6  C   UNL A   1      34.419  24.432  24.189  1.00  0.00     0.328 C 
ATOM      7  O   UNL A   1      34.356  24.125  23.005  1.00  0.00    -0.250 OA
BRANCH   6   8
ATOM      8  C   UNL A   1      33.188  24.937  25.022  1.00  0.00     0.194 C 
BRANCH   8   9
ATOM      9  C   UNL A   1      33.275  26.442  25.319  1.00  0.00     0.047 C 
BRANCH   9  10
ATOM     10  C   UNL A   1      33.453  27.311  24.066  1.00  0.00     0.102 C 
BRANCH  10  11
ATOM     11  C   UNL A   1      32.222  28.119  23.724  1.00  0.00     0.217 C 
ATOM     12  N   UNL A   1      31.119  27.874  24.483  1.00  0.00    -0.370 N 
ATOM     13  H   UNL A   1      30.284  28.367  24.312  1.00  0.00     0.159 HD
ATOM     14  H   UNL A   1      31.157  27.204  25.203  1.00  0.00     0.159 HD
ATOM     15  O   UNL A   1      32.192  28.951  22.824  1.00  0.00    -0.275 OA
ENDBRANCH  10  11
ENDBRANCH   9  10
ENDBRANCH   8   9
BRANCH   8  16
ATOM     16  N   UNL A   1      32.592  24.167  26.140  1.00  0.00    -0.325 N 
ATOM     17  C   UNL A   1      32.455  22.958  26.665  1.00  0.00     0.315 C 
ATOM     18  H   UNL A   1      32.110  24.801  26.717  1.00  0.00     0.166 HD
ATOM     19  O   UNL A   1      32.017  22.966  27.826  1.00  0.00    -0.249 OA
ATOM     20  N   UNL A   1      32.702  21.763  26.157  1.00  0.00    -0.333 N 
ATOM     21  H   UNL A   1      32.677  21.092  26.879  1.00  0.00     0.165 HD
BRANCH  20  22
ATOM     22  C   UNL A   1      32.999  21.096  24.892  1.00  0.00     0.112 C 
ATOM     23  C   UNL A   1      32.908  19.610  24.903  1.00  0.00     0.056 C 
ATOM     24  C   UNL A   1      32.155  21.490  23.694  1.00  0.00     0.185 C 
ATOM     25  C   UNL A   1      32.540  19.197  23.506  1.00  0.00     0.162 C 
ATOM     26  O   UNL A   1      32.154  20.371  22.792  1.00  0.00    -0.379 OA
ENDBRANCH  20  22
ENDBRANCH   8  16
ENDBRANCH   6   8
ENDBRANCH   5   6
ENDBRANCH   4   5
ENDBRANCH   3   4
ENDBRANCH   2   3
ENDBRANCH   1   2
BRANCH   1  27
ATOM     27  C   UNL A   1      40.128  20.916  26.017  1.00  0.00     0.188 C 
BRANCH  27  28
ATOM     28  O   UNL A   1      40.679  20.590  27.278  1.00  0.00    -0.376 OA
BRANCH  28  29
ATOM     29  C   UNL A   1      42.026  20.163  27.267  1.00  0.00     0.202 C 
BRANCH  29  30
ATOM     30  C   UNL A   1      42.861  20.769  26.129  1.00  0.00     0.261 C 
BRANCH  30  31
ATOM     31  O   UNL A   1      43.530  22.007  26.442  1.00  0.00    -0.460 OA
BRANCH  31  32
ATOM     32  C   UNL A   1      43.308  23.065  25.622  1.00  0.00     0.338 C 
ATOM     33  O   UNL A   1      43.339  23.067  24.412  1.00  0.00    -0.246 OA
BRANCH  32  34
ATOM     34  C   UNL A   1      42.767  24.176  26.454  1.00  0.00     0.060 A 
ATOM     35  C   UNL A   1      43.394  25.433  26.399  1.00  0.00     0.016 A 
ATOM     36  C   UNL A   1      41.621  24.005  27.233  1.00  0.00     0.016 A 
ATOM     37  C   UNL A   1      42.890  26.510  27.139  1.00  0.00     0.010 A 
ATOM     38  C   UNL A   1      41.133  25.076  27.993  1.00  0.00     0.010 A 
ATOM     39  C   UNL A   1      41.780  26.326  27.975  1.00  0.00    -0.014 A 
BRANCH  39  40
ATOM     40  C   UNL A   1      41.433  27.340  29.008  1.00  0.00     0.031 A 
ATOM     41  C   UNL A   1      42.216  27.325  30.295  1.00  0.00     0.074 A 
ATOM     42  C   UNL A   1      40.449  28.244  28.842  1.00  0.00     0.049 A 
ATOM     43  N   UNL A   1      42.040  28.017  31.390  1.00  0.00    -0.248 NA
ATOM     44  C   UNL A   1      43.351  26.388  30.348  1.00  0.00     0.031 C 
ATOM     45  C   UNL A   1      39.642  28.412  27.637  1.00  0.00     0.029 A 
ATOM     46  N   UNL A   1      39.954  29.185  29.715  1.00  0.00    -0.354 N 
ATOM     47  C   UNL A   1      43.030  27.590  32.267  1.00  0.00     0.074 A 
ATOM     48  C   UNL A   1      43.783  26.559  31.587  1.00  0.00     0.031 C 
ATOM     49  C   UNL A   1      38.738  29.386  27.853  1.00  0.00     0.029 A 
ATOM     50  C   UNL A   1      38.877  29.883  29.223  1.00  0.00     0.049 A 
ATOM     51  H   UNL A   1      40.336  29.345  30.607  1.00  0.00     0.167 HD
ATOM     52  C   UNL A   1      43.296  28.019  33.523  1.00  0.00     0.037 A 
ATOM     53  C   UNL A   1      38.078  30.792  29.820  1.00  0.00     0.037 A 
ATOM     54  C   UNL A   1      42.546  29.035  34.212  1.00  0.00     0.049 A 
ATOM     55  C   UNL A   1      38.332  31.187  31.256  1.00  0.00     0.074 A 
ATOM     56  C   UNL A   1      42.747  29.541  35.483  1.00  0.00     0.029 A 
ATOM     57  N   UNL A   1      41.442  29.692  33.689  1.00  0.00    -0.354 N 
ATOM     58  N   UNL A   1      39.281  30.792  32.070  1.00  0.00    -0.248 NA
ATOM     59  C   UNL A   1      37.399  32.155  31.856  1.00  0.00     0.031 C 
ATOM     60  C   UNL A   1      41.730  30.463  35.753  1.00  0.00     0.029 A 
ATOM     61  C   UNL A   1      40.935  30.580  34.624  1.00  0.00     0.049 A 
ATOM     62  H   UNL A   1      41.074  29.549  32.787  1.00  0.00     0.167 HD
ATOM     63  C   UNL A   1      39.082  31.489  33.259  1.00  0.00     0.074 A 
ATOM     64  C   UNL A   1      37.928  32.338  33.057  1.00  0.00     0.031 C 
ATOM     65  C   UNL A   1      39.794  31.433  34.412  1.00  0.00     0.037 A 
BRANCH  52  66
ATOM     66  C   UNL A   1      44.432  27.357  34.248  1.00  0.00     0.057 A 
ATOM     67  C   UNL A   1      45.736  27.871  34.214  1.00  0.00     0.134 A 
ATOM     68  C   UNL A   1      44.215  26.196  35.001  1.00  0.00     0.134 A 
ATOM     69  F   UNL A   1      46.014  28.970  33.496  1.00  0.00    -0.206 F 
ATOM     70  C   UNL A   1      46.787  27.238  34.878  1.00  0.00     0.040 A 
ATOM     71  C   UNL A   1      45.253  25.572  35.696  1.00  0.00     0.040 A 
ATOM     72  F   UNL A   1      42.992  25.652  35.080  1.00  0.00    -0.206 F 
ATOM     73  C   UNL A   1      46.545  26.089  35.629  1.00  0.00     0.006 A 
ENDBRANCH  52  66
BRANCH  53  74
ATOM     74  C   UNL A   1      36.937  31.393  29.078  1.00  0.00     0.057 A 
ATOM     75  C   UNL A   1      36.977  32.724  28.641  1.00  0.00     0.134 A 
ATOM     76  C   UNL A   1      35.763  30.671  28.830  1.00  0.00     0.134 A 
ATOM     77  F   UNL A   1      38.059  33.479  28.878  1.00  0.00    -0.206 F 
ATOM     78  C   UNL A   1      35.887  33.318  28.002  1.00  0.00     0.040 A 
ATOM     79  C   UNL A   1      34.677  31.244  28.165  1.00  0.00     0.040 A 
ATOM     80  F   UNL A   1      35.655  29.395  29.228  1.00  0.00    -0.206 F 
ATOM     81  C   UNL A   1      34.734  32.575  27.757  1.00  0.00     0.006 A 
ENDBRANCH  53  74
BRANCH  65  82
ATOM     82  C   UNL A   1      39.387  32.350  35.533  1.00  0.00     0.057 A 
ATOM     83  C   UNL A   1      39.856  33.667  35.630  1.00  0.00     0.134 A 
ATOM     84  C   UNL A   1      38.470  31.921  36.504  1.00  0.00     0.134 A 
ATOM     85  F   UNL A   1      40.741  34.141  34.740  1.00  0.00    -0.206 F 
ATOM     86  C   UNL A   1      39.447  34.514  36.663  1.00  0.00     0.040 A 
ATOM     87  C   UNL A   1      38.032  32.767  37.523  1.00  0.00     0.040 A 
ATOM     88  F   UNL A   1      37.971  30.676  36.466  1.00  0.00    -0.206 F 
ATOM     89  C   UNL A   1      38.527  34.067  37.609  1.00  0.00     0.006 A 
ENDBRANCH  65  82
ENDBRANCH  39  40
ENDBRANCH  32  34
ENDBRANCH  31  32
ENDBRANCH  30  31
ENDBRANCH  29  30
ENDBRANCH  28  29
ENDBRANCH  27  28
ENDBRANCH   1  27
TORSDOF 22
ENDMDL
MODEL 2
REMARK VINA RESULT:      -9.8      1.301      2.921
REMARK SMILES NC(=O)CC[C@H](NC(=O)N[C@H]1CCOC1)C(=O)OCCOCCOCCOC(=O)c1ccc(-c2c3nc(c(-c4c(F)cccc4F)c4ccc([nH]4)c(-c4c(F)cccc4F)c4nc(c(-c5c(F)cccc5F)c5ccc2[nH]5)C=C4)C=C3)cc1
REMARK SMILES IDX 22 1 21 2 20 3 19 4 18 5 16 6 17 7 6 8 5 9 4 10 2 11 1 12
REMARK SMILES IDX 3 15 7 16 8 17 9 19 10 20 11 22 12 23 15 24 13 25 14 26
REMARK SMILES IDX 23 27 24 28 25 29 26 30 27 31 28 32 29 33 30 34 31 35 83 36
REMARK SMILES IDX 32 37 82 38 33 39 34 40 35 41 76 42 36 43 81 44 75 45 77 46
REMARK SMILES IDX 37 47 80 48 74 49 73 50 38 52 64 53 47 54 63 55 48 56 51 57
REMARK SMILES IDX 62 58 78 59 49 60 50 61 61 63 79 64 52 65 39 66 40 67 45 68
REMARK SMILES IDX 41 69 42 70 44 71 46 72 43 73 65 74 66 75 71 76 67 77 68 78
REMARK SMILES IDX 70 79 72 80 69 81 53 82 54 83 59 84 55 85 56 86 58 87 60 88
REMARK SMILES IDX 57 89
REMARK H PARENT 1 13 1 14 7 18 10 21 77 51 51 62
REMARK Flexibility Score: inf
ROOT
ATOM      1  C   UNL A   1      38.342  21.833  25.790  1.00  0.00     0.188 C 
ENDROOT
BRANCH   1   2
ATOM      2  O   UNL A   1      37.722  21.441  24.565  1.00  0.00    -0.376 OA
BRANCH   2   3
ATOM      3  C   UNL A   1      36.696  22.283  24.042  1.00  0.00     0.202 C 
BRANCH   3   4
ATOM      4  C   UNL A   1      35.266  21.777  24.250  1.00  0.00     0.261 C 
BRANCH   4   5
ATOM      5  O   UNL A   1      34.313  22.665  23.634  1.00  0.00    -0.462 OA
BRANCH   5   6
ATOM      6  C   UNL A   1      33.227  23.053  24.345  1.00  0.00     0.328 C 
ATOM      7  O   UNL A   1      32.945  22.603  25.450  1.00  0.00    -0.250 OA
BRANCH   6   8
ATOM      8  C   UNL A   1      32.376  24.147  23.609  1.00  0.00     0.194 C 
BRANCH   8   9
ATOM      9  C   UNL A   1      30.899  24.104  24.029  1.00  0.00     0.047 C 
BRANCH   9  10
ATOM     10  C   UNL A   1      30.507  25.199  25.031  1.00  0.00     0.102 C 
BRANCH  10  11
ATOM     11  C   UNL A   1      30.242  24.664  26.420  1.00  0.00     0.217 C 
ATOM     12  N   UNL A   1      28.938  24.635  26.808  1.00  0.00    -0.370 N 
ATOM     13  H   UNL A   1      28.697  24.298  27.701  1.00  0.00     0.159 HD
ATOM     14  H   UNL A   1      28.235  24.950  26.195  1.00  0.00     0.159 HD
ATOM     15  O   UNL A   1      31.129  24.275  27.172  1.00  0.00    -0.275 OA
ENDBRANCH  10  11
ENDBRANCH   9  10
ENDBRANCH   8   9
BRANCH   8  16
ATOM     16  N   UNL A   1      32.555  24.490  22.178  1.00  0.00    -0.325 N 
ATOM     17  C   UNL A   1      32.860  25.462  21.330  1.00  0.00     0.315 C 
ATOM     18  H   UNL A   1      32.378  23.678  21.652  1.00  0.00     0.166 HD
ATOM     19  O   UNL A   1      33.102  25.062  20.181  1.00  0.00    -0.249 OA
ATOM     20  N   UNL A   1      32.942  26.769  21.509  1.00  0.00    -0.333 N 
ATOM     21  H   UNL A   1      33.382  27.176  20.727  1.00  0.00     0.165 HD
BRANCH  20  22
ATOM     22  C   UNL A   1      32.605  27.816  22.470  1.00  0.00     0.112 C 
ATOM     23  C   UNL A   1      31.153  28.040  22.706  1.00  0.00     0.056 C 
ATOM     24  C   UNL A   1      33.170  27.669  23.871  1.00  0.00     0.185 C 
ATOM     25  C   UNL A   1      31.026  28.556  24.111  1.00  0.00     0.162 C 
ATOM     26  O   UNL A   1      32.284  28.372  24.758  1.00  0.00    -0.379 OA
ENDBRANCH  20  22
ENDBRANCH   8  16
ENDBRANCH   6   8
ENDBRANCH   5   6
ENDBRANCH   4   5
ENDBRANCH   3   4
ENDBRANCH   2   3
ENDBRANCH   1   2
BRANCH   1  27
ATOM     27  C   UNL A   1      39.854  21.585  25.938  1.00  0.00     0.188 C 
BRANCH  27  28
ATOM     28  O   UNL A   1      40.161  20.614  26.918  1.00  0.00    -0.376 OA
BRANCH  28  29
ATOM     29  C   UNL A   1      41.533  20.459  27.219  1.00  0.00     0.202 C 
BRANCH  29  30
ATOM     30  C   UNL A   1      42.473  21.037  26.150  1.00  0.00     0.261 C 
BRANCH  30  31
ATOM     31  O   UNL A   1      43.293  22.143  26.579  1.00  0.00    -0.460 OA
BRANCH  31  32
ATOM     32  C   UNL A   1      43.292  23.260  25.808  1.00  0.00     0.338 C 
ATOM     33  O   UNL A   1      43.477  23.321  24.614  1.00  0.00    -0.246 OA
BRANCH  32  34
ATOM     34  C   UNL A   1      42.770  24.381  26.639  1.00  0.00     0.060 A 
ATOM     35  C   UNL A   1      43.424  25.624  26.591  1.00  0.00     0.016 A 
ATOM     36  C   UNL A   1      41.615  24.234  27.411  1.00  0.00     0.016 A 
ATOM     37  C   UNL A   1      42.938  26.710  27.330  1.00  0.00     0.010 A 
ATOM     38  C   UNL A   1      41.145  25.313  28.170  1.00  0.00     0.010 A 
ATOM     39  C   UNL A   1      41.820  26.549  28.159  1.00  0.00    -0.014 A 
BRANCH  39  40
ATOM     40  C   UNL A   1      41.489  27.569  29.192  1.00  0.00     0.031 A 
ATOM     41  C   UNL A   1      42.292  27.561  30.466  1.00  0.00     0.074 A 
ATOM     42  C   UNL A   1      40.501  28.470  29.036  1.00  0.00     0.049 A 
ATOM     43  N   UNL A   1      42.133  28.259  31.560  1.00  0.00    -0.248 NA
ATOM     44  C   UNL A   1      43.429  26.626  30.506  1.00  0.00     0.031 C 
ATOM     45  C   UNL A   1      39.673  28.631  27.844  1.00  0.00     0.029 A 
ATOM     46  N   UNL A   1      40.019  29.416  29.912  1.00  0.00    -0.354 N 
ATOM     47  C   UNL A   1      43.138  27.838  32.423  1.00  0.00     0.074 A 
ATOM     48  C   UNL A   1      43.881  26.804  31.736  1.00  0.00     0.031 C 
ATOM     49  C   UNL A   1      38.772  29.605  28.070  1.00  0.00     0.029 A 
ATOM     50  C   UNL A   1      38.933  30.109  29.434  1.00  0.00     0.049 A 
ATOM     51  H   UNL A   1      40.415  29.581  30.798  1.00  0.00     0.167 HD
ATOM     52  C   UNL A   1      43.423  28.274  33.672  1.00  0.00     0.037 A 
ATOM     53  C   UNL A   1      38.143  31.020  30.040  1.00  0.00     0.037 A 
ATOM     54  C   UNL A   1      42.683  29.293  34.367  1.00  0.00     0.049 A 
ATOM     55  C   UNL A   1      38.419  31.424  31.469  1.00  0.00     0.074 A 
ATOM     56  C   UNL A   1      42.904  29.807  35.632  1.00  0.00     0.029 A 
ATOM     57  N   UNL A   1      41.571  29.946  33.859  1.00  0.00    -0.354 N 
ATOM     58  N   UNL A   1      39.382  31.035  32.270  1.00  0.00    -0.248 NA
ATOM     59  C   UNL A   1      37.495  32.394  32.078  1.00  0.00     0.031 C 
ATOM     60  C   UNL A   1      41.891  30.728  35.913  1.00  0.00     0.029 A 
ATOM     61  C   UNL A   1      41.078  30.838  34.797  1.00  0.00     0.049 A 
ATOM     62  H   UNL A   1      41.188  29.798  32.964  1.00  0.00     0.167 HD
ATOM     63  C   UNL A   1      39.201  31.738  33.458  1.00  0.00     0.074 A 
ATOM     64  C   UNL A   1      38.043  32.584  33.270  1.00  0.00     0.031 C 
ATOM     65  C   UNL A   1      39.932  31.689  34.599  1.00  0.00     0.037 A 
BRANCH  52  66
ATOM     66  C   UNL A   1      44.572  27.617  34.382  1.00  0.00     0.057 A 
ATOM     67  C   UNL A   1      45.876  28.129  34.318  1.00  0.00     0.134 A 
ATOM     68  C   UNL A   1      44.368  26.464  35.151  1.00  0.00     0.134 A 
ATOM     69  F   UNL A   1      46.142  29.221  33.585  1.00  0.00    -0.206 F 
ATOM     70  C   UNL A   1      46.938  27.501  34.969  1.00  0.00     0.040 A 
ATOM     71  C   UNL A   1      45.418  25.846  35.832  1.00  0.00     0.040 A 
ATOM     72  F   UNL A   1      43.146  25.923  35.258  1.00  0.00    -0.206 F 
ATOM     73  C   UNL A   1      46.709  26.360  35.735  1.00  0.00     0.006 A 
ENDBRANCH  52  66
BRANCH  53  74
ATOM     74  C   UNL A   1      36.989  31.616  29.313  1.00  0.00     0.057 A 
ATOM     75  C   UNL A   1      35.804  30.896  29.118  1.00  0.00     0.134 A 
ATOM     76  C   UNL A   1      37.060  32.899  28.754  1.00  0.00     0.134 A 
ATOM     77  F   UNL A   1      35.685  29.650  29.600  1.00  0.00    -0.206 F 
ATOM     78  C   UNL A   1      34.739  31.420  28.381  1.00  0.00     0.040 A 
ATOM     79  C   UNL A   1      35.992  33.447  28.040  1.00  0.00     0.040 A 
ATOM     80  F   UNL A   1      38.168  33.640  28.895  1.00  0.00    -0.206 F 
ATOM     81  C   UNL A   1      34.830  32.703  27.844  1.00  0.00     0.006 A 
ENDBRANCH  53  74
BRANCH  65  82
ATOM     82  C   UNL A   1      39.543  32.612  35.721  1.00  0.00     0.057 A 
ATOM     83  C   UNL A   1      40.063  33.907  35.840  1.00  0.00     0.134 A 
ATOM     84  C   UNL A   1      38.591  32.212  36.671  1.00  0.00     0.134 A 
ATOM     85  F   UNL A   1      40.984  34.352  34.972  1.00  0.00    -0.206 F 
ATOM     86  C   UNL A   1      39.671  34.760  36.875  1.00  0.00     0.040 A 
ATOM     87  C   UNL A   1      38.169  33.066  37.690  1.00  0.00     0.040 A 
ATOM     88  F   UNL A   1      38.041  30.990  36.611  1.00  0.00    -0.206 F 
ATOM     89  C   UNL A   1      38.715  34.343  37.799  1.00  0.00     0.006 A 
ENDBRANCH  65  82
ENDBRANCH  39  40
ENDBRANCH  32  34
ENDBRANCH  31  32
ENDBRANCH  30  31
ENDBRANCH  29  30
ENDBRANCH  28  29
ENDBRANCH  27  28
ENDBRANCH   1  27
TORSDOF 22
ENDMDL
MODEL 3
REMARK VINA RESULT:      -9.7      2.244      8.106
REMARK SMILES NC(=O)CC[C@H](NC(=O)N[C@H]1CCOC1)C(=O)OCCOCCOCCOC(=O)c1ccc(-c2c3nc(c(-c4c(F)cccc4F)c4ccc([nH]4)c(-c4c(F)cccc4F)c4nc(c(-c5c(F)cccc5F)c5ccc2[nH]5)C=C4)C=C3)cc1
REMARK SMILES IDX 22 1 21 2 20 3 19 4 18 5 16 6 17 7 6 8 5 9 4 10 2 11 1 12
REMARK SMILES IDX 3 15 7 16 8 17 9 19 10 20 11 22 12 23 15 24 13 25 14 26
REMARK SMILES IDX 23 27 24 28 25 29 26 30 27 31 28 32 29 33 30 34 31 35 83 36
REMARK SMILES IDX 32 37 82 38 33 39 34 40 35 41 76 42 36 43 81 44 75 45 77 46
REMARK SMILES IDX 37 47 80 48 74 49 73 50 38 52 64 53 47 54 63 55 48 56 51 57
REMARK SMILES IDX 62 58 78 59 49 60 50 61 61 63 79 64 52 65 39 66 40 67 45 68
REMARK SMILES IDX 41 69 42 70 44 71 46 72 43 73 65 74 66 75 71 76 67 77 68 78
REMARK SMILES IDX 70 79 72 80 69 81 53 82 54 83 59 84 55 85 56 86 58 87 60 88
REMARK SMILES IDX 57 89
REMARK H PARENT 1 13 1 14 7 18 10 21 77 51 51 62
REMARK Flexibility Score: inf
ROOT
ATOM      1  C   UNL A   1      32.587  28.601  25.149  1.00  0.00     0.188 C 
ENDROOT
BRANCH   1   2
ATOM      2  O   UNL A   1      31.898  27.510  24.537  1.00  0.00    -0.376 OA
BRANCH   2   3
ATOM      3  C   UNL A   1      32.239  27.181  23.192  1.00  0.00     0.202 C 
BRANCH   3   4
ATOM      4  C   UNL A   1      32.134  25.695  22.835  1.00  0.00     0.261 C 
BRANCH   4   5
ATOM      5  O   UNL A   1      32.209  24.878  24.020  1.00  0.00    -0.462 OA
BRANCH   5   6
ATOM      6  C   UNL A   1      31.599  23.667  24.018  1.00  0.00     0.328 C 
ATOM      7  O   UNL A   1      30.493  23.467  23.531  1.00  0.00    -0.250 OA
BRANCH   6   8
ATOM      8  C   UNL A   1      32.467  22.547  24.694  1.00  0.00     0.194 C 
BRANCH   8   9
ATOM      9  C   UNL A   1      32.287  21.187  24.004  1.00  0.00     0.047 C 
BRANCH   9  10
ATOM     10  C   UNL A   1      33.309  20.130  24.442  1.00  0.00     0.102 C 
BRANCH  10  11
ATOM     11  C   UNL A   1      32.677  18.941  25.129  1.00  0.00     0.217 C 
ATOM     12  N   UNL A   1      32.848  18.872  26.478  1.00  0.00    -0.370 N 
ATOM     13  H   UNL A   1      32.461  18.123  26.986  1.00  0.00     0.159 HD
ATOM     14  H   UNL A   1      33.359  19.572  26.944  1.00  0.00     0.159 HD
ATOM     15  O   UNL A   1      32.043  18.077  24.533  1.00  0.00    -0.275 OA
ENDBRANCH  10  11
ENDBRANCH   9  10
ENDBRANCH   8   9
BRANCH   8  16
ATOM     16  N   UNL A   1      32.639  22.427  26.162  1.00  0.00    -0.325 N 
ATOM     17  C   UNL A   1      33.460  22.661  27.176  1.00  0.00     0.315 C 
ATOM     18  H   UNL A   1      31.825  22.011  26.525  1.00  0.00     0.166 HD
ATOM     19  O   UNL A   1      32.919  22.558  28.288  1.00  0.00    -0.249 OA
ATOM     20  N   UNL A   1      34.743  22.976  27.192  1.00  0.00    -0.333 N 
ATOM     21  H   UNL A   1      34.993  23.270  28.098  1.00  0.00     0.165 HD
BRANCH  20  22
ATOM     22  C   UNL A   1      35.918  23.037  26.326  1.00  0.00     0.112 C 
ATOM     23  C   UNL A   1      36.342  21.750  25.711  1.00  0.00     0.056 C 
ATOM     24  C   UNL A   1      35.849  23.985  25.143  1.00  0.00     0.185 C 
ATOM     25  C   UNL A   1      37.013  22.100  24.413  1.00  0.00     0.162 C 
ATOM     26  O   UNL A   1      36.743  23.474  24.140  1.00  0.00    -0.379 OA
ENDBRANCH  20  22
ENDBRANCH   8  16
ENDBRANCH   6   8
ENDBRANCH   5   6
ENDBRANCH   4   5
ENDBRANCH   3   4
ENDBRANCH   2   3
ENDBRANCH   1   2
BRANCH   1  27
ATOM     27  C   UNL A   1      31.792  29.892  25.409  1.00  0.00     0.188 C 
BRANCH  27  28
ATOM     28  O   UNL A   1      32.406  30.738  26.361  1.00  0.00    -0.376 OA
BRANCH  28  29
ATOM     29  C   UNL A   1      31.593  31.772  26.878  1.00  0.00     0.202 C 
BRANCH  29  30
ATOM     30  C   UNL A   1      32.261  33.155  26.860  1.00  0.00     0.261 C 
BRANCH  30  31
ATOM     31  O   UNL A   1      32.321  33.831  28.132  1.00  0.00    -0.460 OA
BRANCH  31  32
ATOM     32  C   UNL A   1      33.412  34.599  28.383  1.00  0.00     0.338 C 
ATOM     33  O   UNL A   1      33.445  35.804  28.490  1.00  0.00    -0.246 OA
BRANCH  32  34
ATOM     34  C   UNL A   1      34.529  33.687  28.760  1.00  0.00     0.060 A 
ATOM     35  C   UNL A   1      34.225  32.456  29.366  1.00  0.00     0.016 A 
ATOM     36  C   UNL A   1      35.856  34.009  28.469  1.00  0.00     0.016 A 
ATOM     37  C   UNL A   1      35.248  31.558  29.699  1.00  0.00     0.010 A 
ATOM     38  C   UNL A   1      36.879  33.122  28.826  1.00  0.00     0.010 A 
ATOM     39  C   UNL A   1      36.586  31.905  29.470  1.00  0.00    -0.014 A 
BRANCH  39  40
ATOM     40  C   UNL A   1      37.688  31.134  30.107  1.00  0.00     0.031 A 
ATOM     41  C   UNL A   1      37.995  31.417  31.555  1.00  0.00     0.074 A 
ATOM     42  C   UNL A   1      38.419  30.220  29.441  1.00  0.00     0.049 A 
ATOM     43  N   UNL A   1      38.969  30.973  32.306  1.00  0.00    -0.248 NA
ATOM     44  C   UNL A   1      37.074  32.339  32.241  1.00  0.00     0.031 C 
ATOM     45  C   UNL A   1      38.209  29.806  28.058  1.00  0.00     0.029 A 
ATOM     46  N   UNL A   1      39.509  29.488  29.852  1.00  0.00    -0.354 N 
ATOM     47  C   UNL A   1      38.787  31.571  33.548  1.00  0.00     0.074 A 
ATOM     48  C   UNL A   1      37.629  32.432  33.439  1.00  0.00     0.031 C 
ATOM     49  C   UNL A   1      39.152  28.904  27.727  1.00  0.00     0.029 A 
ATOM     50  C   UNL A   1      40.055  28.708  28.861  1.00  0.00     0.049 A 
ATOM     51  H   UNL A   1      39.863  29.518  30.769  1.00  0.00     0.167 HD
ATOM     52  C   UNL A   1      39.512  31.417  34.680  1.00  0.00     0.037 A 
ATOM     53  C   UNL A   1      41.172  27.949  28.862  1.00  0.00     0.037 A 
ATOM     54  C   UNL A   1      40.671  30.573  34.795  1.00  0.00     0.049 A 
ATOM     55  C   UNL A   1      42.022  27.866  30.108  1.00  0.00     0.074 A 
ATOM     56  C   UNL A   1      41.465  30.346  35.905  1.00  0.00     0.029 A 
ATOM     57  N   UNL A   1      41.209  29.825  33.758  1.00  0.00    -0.354 N 
ATOM     58  N   UNL A   1      41.832  28.419  31.282  1.00  0.00    -0.248 NA
ATOM     59  C   UNL A   1      43.245  27.051  30.026  1.00  0.00     0.031 C 
ATOM     60  C   UNL A   1      42.518  29.507  35.526  1.00  0.00     0.029 A 
ATOM     61  C   UNL A   1      42.342  29.158  34.196  1.00  0.00     0.049 A 
ATOM     62  H   UNL A   1      40.842  29.776  32.846  1.00  0.00     0.167 HD
ATOM     63  C   UNL A   1      42.886  27.990  32.084  1.00  0.00     0.074 A 
ATOM     64  C   UNL A   1      43.707  27.123  31.266  1.00  0.00     0.031 C 
ATOM     65  C   UNL A   1      43.147  28.285  33.382  1.00  0.00     0.037 A 
BRANCH  52  66
ATOM     66  C   UNL A   1      39.087  32.211  35.881  1.00  0.00     0.057 A 
ATOM     67  C   UNL A   1      39.531  33.523  36.100  1.00  0.00     0.134 A 
ATOM     68  C   UNL A   1      38.210  31.661  36.824  1.00  0.00     0.134 A 
ATOM     69  F   UNL A   1      40.386  34.103  35.244  1.00  0.00    -0.206 F 
ATOM     70  C   UNL A   1      39.141  34.246  37.228  1.00  0.00     0.040 A 
ATOM     71  C   UNL A   1      37.788  32.386  37.940  1.00  0.00     0.040 A 
ATOM     72  F   UNL A   1      37.744  30.412  36.675  1.00  0.00    -0.206 F 
ATOM     73  C   UNL A   1      38.261  33.680  38.148  1.00  0.00     0.006 A 
ENDBRANCH  52  66
BRANCH  53  74
ATOM     74  C   UNL A   1      41.580  27.210  27.637  1.00  0.00     0.057 A 
ATOM     75  C   UNL A   1      42.334  27.831  26.633  1.00  0.00     0.134 A 
ATOM     76  C   UNL A   1      41.186  25.884  27.417  1.00  0.00     0.134 A 
ATOM     77  F   UNL A   1      42.714  29.110  26.768  1.00  0.00    -0.206 F 
ATOM     78  C   UNL A   1      42.666  27.167  25.449  1.00  0.00     0.040 A 
ATOM     79  C   UNL A   1      41.537  25.199  26.251  1.00  0.00     0.040 A 
ATOM     80  F   UNL A   1      40.455  25.233  28.333  1.00  0.00    -0.206 F 
ATOM     81  C   UNL A   1      42.272  25.845  25.259  1.00  0.00     0.006 A 
ENDBRANCH  53  74
BRANCH  65  82
ATOM     82  C   UNL A   1      44.338  27.628  34.024  1.00  0.00     0.057 A 
ATOM     83  C   UNL A   1      45.580  28.267  34.128  1.00  0.00     0.134 A 
ATOM     84  C   UNL A   1      44.223  26.351  34.594  1.00  0.00     0.134 A 
ATOM     85  F   UNL A   1      45.764  29.486  33.598  1.00  0.00    -0.206 F 
ATOM     86  C   UNL A   1      46.669  27.652  34.751  1.00  0.00     0.040 A 
ATOM     87  C   UNL A   1      45.295  25.740  35.245  1.00  0.00     0.040 A 
ATOM     88  F   UNL A   1      43.060  25.685  34.543  1.00  0.00    -0.206 F 
ATOM     89  C   UNL A   1      46.526  26.388  35.319  1.00  0.00     0.006 A 
ENDBRANCH  65  82
ENDBRANCH  39  40
ENDBRANCH  32  34
ENDBRANCH  31  32
ENDBRANCH  30  31
ENDBRANCH  29  30
ENDBRANCH  28  29
ENDBRANCH  27  28
ENDBRANCH   1  27
TORSDOF 22
ENDMDL
